MODEL 1
REMARK VINA RESULT:     -12.0      0.000      0.000
REMARK SMILES Cc1c(C(=O)NCCCCNC(=O)c2ccc(-c3c4nc(c(-c5c(F)cc(S(=O)(=O)[O-])cc5F)c5ccc([nH]5)c(-c5c(F)cc(S(=O)(=O)[O-])cc5F)c5nc(c(-c6c(F)cc(S(=O)(=O)[O-])cc6F)c6ccc3[nH]6)C=C5)C=C4)cc2)sc2nc3n(c(=O)c12)CC/C3=C\c1ccc(OC(F)F)cc1
REMARK SMILES IDX 8 1 7 2 6 3 4 4 5 5 3 7 1 8 2 9 87 10 80 11 81 12 85 13
REMARK SMILES IDX 82 14 84 15 86 16 83 17 88 18 90 19 89 20 91 21 92 22 93 23
REMARK SMILES IDX 101 24 94 25 100 26 95 27 96 28 97 29 98 30 99 31 9 32 10 33
REMARK SMILES IDX 11 34 12 35 13 37 14 38 15 39 79 40 16 41 78 42 17 43 18 44
REMARK SMILES IDX 19 45 72 46 20 47 77 48 71 49 73 50 21 51 76 52 70 53 69 54
REMARK SMILES IDX 22 56 56 57 35 58 55 59 36 60 39 61 54 62 74 63 37 64 38 65
REMARK SMILES IDX 53 67 75 68 40 69 23 70 24 71 33 72 25 73 26 74 32 75 34 76
REMARK SMILES IDX 27 77 28 78 29 79 30 80 31 81 57 82 58 83 67 84 59 85 60 86
REMARK SMILES IDX 66 87 68 88 61 89 62 90 63 91 64 92 65 93 41 94 42 95 51 96
REMARK SMILES IDX 43 97 44 98 50 99 52 100 45 101 46 102 47 103 48 104 49 105
REMARK H PARENT 6 6 11 36 73 55 39 66
REMARK Flexibility Score: inf
ROOT
ATOM      1  C   UNL A   1      51.396  21.262  34.187  1.00  0.00     0.023 C 
ENDROOT
BRANCH   1   2
ATOM      2  C   UNL A   1      50.079  20.485  34.041  1.00  0.00     0.116 C 
BRANCH   2   3
ATOM      3  N   UNL A   1      48.903  21.318  34.201  1.00  0.00    -0.351 N 
ATOM      4  C   UNL A   1      47.866  21.503  35.078  1.00  0.00     0.261 C 
ATOM      5  O   UNL A   1      47.179  22.479  34.741  1.00  0.00    -0.268 OA
ATOM      6  H   UNL A   1      48.826  21.947  33.447  1.00  0.00     0.163 HD
BRANCH   4   7
ATOM      7  C   UNL A   1      47.510  20.676  36.245  1.00  0.00     0.098 A 
ATOM      8  C   UNL A   1      49.347  20.813  38.065  1.00  0.00     0.047 C 
ATOM      9  C   UNL A   1      48.084  20.309  37.465  1.00  0.00    -0.012 A 
ATOM     10  C   UNL A   1      47.291  19.297  38.142  1.00  0.00     0.081 A 
ATOM     11  S   UNL A   1      45.926  19.927  36.106  1.00  0.00    -0.110 S 
ATOM     12  C   UNL A   1      46.076  19.045  37.542  1.00  0.00     0.132 A 
ATOM     13  C   UNL A   1      47.600  18.546  39.351  1.00  0.00     0.262 A 
ATOM     14  N   UNL A   1      45.086  18.207  37.979  1.00  0.00    -0.219 NA
ATOM     15  N   UNL A   1      46.568  17.737  39.764  1.00  0.00    -0.292 N 
ATOM     16  O   UNL A   1      48.678  18.581  39.937  1.00  0.00    -0.269 OA
ATOM     17  C   UNL A   1      45.371  17.597  39.080  1.00  0.00     0.140 A 
ATOM     18  C   UNL A   1      46.674  16.931  40.944  1.00  0.00     0.132 C 
ATOM     19  C   UNL A   1      44.560  16.629  39.869  1.00  0.00    -0.002 C 
ATOM     20  C   UNL A   1      45.377  16.165  41.046  1.00  0.00     0.061 C 
ATOM     21  C   UNL A   1      43.308  16.248  39.570  1.00  0.00     0.015 C 
BRANCH  21  22
ATOM     22  C   UNL A   1      42.613  15.288  40.439  1.00  0.00    -0.025 A 
ATOM     23  C   UNL A   1      42.022  14.143  39.904  1.00  0.00     0.012 A 
ATOM     24  C   UNL A   1      42.662  15.437  41.832  1.00  0.00     0.012 A 
ATOM     25  C   UNL A   1      41.545  13.138  40.754  1.00  0.00     0.047 A 
ATOM     26  C   UNL A   1      42.209  14.421  42.679  1.00  0.00     0.047 A 
ATOM     27  C   UNL A   1      41.662  13.257  42.144  1.00  0.00     0.126 A 
BRANCH  27  28
ATOM     28  O   UNL A   1      41.214  12.178  42.853  1.00  0.00    -0.435 OA
BRANCH  28  29
ATOM     29  C   UNL A   1      42.149  11.467  43.655  1.00  0.00     0.542 C 
ATOM     30  F   UNL A   1      41.694  10.216  43.907  1.00  0.00    -0.167 F 
ATOM     31  F   UNL A   1      43.337  11.369  43.012  1.00  0.00    -0.167 F 
ENDBRANCH  28  29
ENDBRANCH  27  28
ENDBRANCH  21  22
ENDBRANCH   4   7
ENDBRANCH   2   3
ENDBRANCH   1   2
BRANCH   1  32
ATOM     32  C   UNL A   1      52.307  21.193  32.953  1.00  0.00     0.023 C 
BRANCH  32  33
ATOM     33  C   UNL A   1      53.135  22.454  32.721  1.00  0.00     0.116 C 
BRANCH  33  34
ATOM     34  N   UNL A   1      52.972  23.456  33.769  1.00  0.00    -0.352 N 
ATOM     35  C   UNL A   1      52.364  24.696  33.638  1.00  0.00     0.251 C 
ATOM     36  H   UNL A   1      53.330  23.229  34.658  1.00  0.00     0.163 HD
ATOM     37  O   UNL A   1      52.545  25.583  34.443  1.00  0.00    -0.269 OA
BRANCH  35  38
ATOM     38  C   UNL A   1      51.494  24.896  32.460  1.00  0.00     0.039 A 
ATOM     39  C   UNL A   1      50.144  24.537  32.504  1.00  0.00     0.014 A 
ATOM     40  C   UNL A   1      52.033  25.550  31.355  1.00  0.00     0.014 A 
ATOM     41  C   UNL A   1      49.307  24.929  31.459  1.00  0.00     0.010 A 
ATOM     42  C   UNL A   1      51.186  26.016  30.373  1.00  0.00     0.010 A 
ATOM     43  C   UNL A   1      49.825  25.693  30.406  1.00  0.00    -0.014 A 
BRANCH  43  44
ATOM     44  C   UNL A   1      48.935  26.231  29.371  1.00  0.00     0.031 A 
ATOM     45  C   UNL A   1      48.033  27.370  29.747  1.00  0.00     0.074 A 
ATOM     46  C   UNL A   1      49.114  25.935  28.067  1.00  0.00     0.049 A 
ATOM     47  N   UNL A   1      46.751  27.481  29.584  1.00  0.00    -0.248 NA
ATOM     48  C   UNL A   1      48.640  28.533  30.413  1.00  0.00     0.031 C 
ATOM     49  C   UNL A   1      50.162  25.106  27.461  1.00  0.00     0.029 A 
ATOM     50  N   UNL A   1      48.471  26.453  26.985  1.00  0.00    -0.354 N 
ATOM     51  C   UNL A   1      46.407  28.777  29.976  1.00  0.00     0.074 A 
ATOM     52  C   UNL A   1      47.590  29.342  30.572  1.00  0.00     0.031 C 
ATOM     53  C   UNL A   1      50.239  25.381  26.142  1.00  0.00     0.029 A 
ATOM     54  C   UNL A   1      49.147  26.270  25.790  1.00  0.00     0.049 A 
ATOM     55  H   UNL A   1      47.604  26.915  27.047  1.00  0.00     0.167 HD
ATOM     56  C   UNL A   1      45.216  29.363  29.650  1.00  0.00     0.037 A 
ATOM     57  C   UNL A   1      48.873  26.863  24.605  1.00  0.00     0.037 A 
ATOM     58  C   UNL A   1      44.250  28.399  29.199  1.00  0.00     0.049 A 
ATOM     59  C   UNL A   1      47.451  27.293  24.649  1.00  0.00     0.074 A 
ATOM     60  C   UNL A   1      43.650  27.289  29.760  1.00  0.00     0.029 A 
ATOM     61  N   UNL A   1      43.993  28.310  27.851  1.00  0.00    -0.354 N 
ATOM     62  N   UNL A   1      46.439  26.470  24.746  1.00  0.00    -0.248 NA
ATOM     63  C   UNL A   1      47.162  28.672  25.014  1.00  0.00     0.031 C 
ATOM     64  C   UNL A   1      43.534  26.355  28.690  1.00  0.00     0.029 A 
ATOM     65  C   UNL A   1      44.035  26.973  27.541  1.00  0.00     0.049 A 
ATOM     66  H   UNL A   1      43.813  29.054  27.233  1.00  0.00     0.167 HD
ATOM     67  C   UNL A   1      45.517  27.120  25.554  1.00  0.00     0.074 A 
ATOM     68  C   UNL A   1      45.971  28.508  25.596  1.00  0.00     0.031 C 
ATOM     69  C   UNL A   1      44.630  26.432  26.335  1.00  0.00     0.037 A 
BRANCH  56  70
ATOM     70  C   UNL A   1      44.987  30.849  29.496  1.00  0.00     0.058 A 
ATOM     71  C   UNL A   1      43.935  31.483  30.192  1.00  0.00     0.135 A 
ATOM     72  C   UNL A   1      45.598  31.621  28.485  1.00  0.00     0.135 A 
ATOM     73  F   UNL A   1      43.270  30.837  31.164  1.00  0.00    -0.206 F 
ATOM     74  C   UNL A   1      43.487  32.767  29.870  1.00  0.00     0.059 A 
ATOM     75  C   UNL A   1      45.203  32.922  28.182  1.00  0.00     0.059 A 
ATOM     76  F   UNL A   1      46.542  31.111  27.684  1.00  0.00    -0.206 F 
ATOM     77  C   UNL A   1      44.118  33.471  28.849  1.00  0.00     0.060 A 
BRANCH  77  78
ATOM     78  S   UNL A   1      43.466  35.076  28.345  1.00  0.00     0.124 S 
ATOM     79  O   UNL A   1      44.623  35.939  28.560  1.00  0.00    -0.237 OA
ATOM     80  O   UNL A   1      43.098  34.835  26.954  1.00  0.00    -0.237 OA
ATOM     81  O   UNL A   1      42.345  35.284  29.257  1.00  0.00    -0.744 OA
ENDBRANCH  77  78
ENDBRANCH  56  70
BRANCH  57  82
ATOM     82  C   UNL A   1      49.875  27.347  23.622  1.00  0.00     0.058 A 
ATOM     83  C   UNL A   1      50.994  28.096  24.016  1.00  0.00     0.135 A 
ATOM     84  C   UNL A   1      49.870  26.896  22.283  1.00  0.00     0.135 A 
ATOM     85  F   UNL A   1      51.105  28.529  25.281  1.00  0.00    -0.206 F 
ATOM     86  C   UNL A   1      52.051  28.371  23.138  1.00  0.00     0.059 A 
ATOM     87  C   UNL A   1      50.898  27.173  21.387  1.00  0.00     0.059 A 
ATOM     88  F   UNL A   1      48.897  26.095  21.823  1.00  0.00    -0.206 F 
ATOM     89  C   UNL A   1      51.998  27.897  21.826  1.00  0.00     0.060 A 
BRANCH  89  90
ATOM     90  S   UNL A   1      53.410  28.146  20.728  1.00  0.00     0.124 S 
ATOM     91  O   UNL A   1      52.805  28.878  19.620  1.00  0.00    -0.237 OA
ATOM     92  O   UNL A   1      54.322  28.909  21.575  1.00  0.00    -0.237 OA
ATOM     93  O   UNL A   1      53.843  26.787  20.415  1.00  0.00    -0.744 OA
ENDBRANCH  89  90
ENDBRANCH  57  82
BRANCH  69  94
ATOM     94  C   UNL A   1      44.484  24.940  26.145  1.00  0.00     0.058 A 
ATOM     95  C   UNL A   1      43.649  24.363  25.172  1.00  0.00     0.135 A 
ATOM     96  C   UNL A   1      45.384  24.081  26.796  1.00  0.00     0.135 A 
ATOM     97  F   UNL A   1      42.837  25.119  24.426  1.00  0.00    -0.206 F 
ATOM     98  C   UNL A   1      43.691  23.002  24.869  1.00  0.00     0.059 A 
ATOM     99  C   UNL A   1      45.466  22.722  26.488  1.00  0.00     0.059 A 
ATOM    100  F   UNL A   1      46.257  24.575  27.689  1.00  0.00    -0.206 F 
ATOM    101  C   UNL A   1      44.614  22.189  25.522  1.00  0.00     0.060 A 
BRANCH 101 102
ATOM    102  S   UNL A   1      44.758  20.462  25.017  1.00  0.00     0.124 S 
ATOM    103  O   UNL A   1      46.091  20.110  25.498  1.00  0.00    -0.237 OA
ATOM    104  O   UNL A   1      43.645  19.831  25.721  1.00  0.00    -0.237 OA
ATOM    105  O   UNL A   1      44.614  20.517  23.564  1.00  0.00    -0.744 OA
ENDBRANCH 101 102
ENDBRANCH  69  94
ENDBRANCH  43  44
ENDBRANCH  35  38
ENDBRANCH  33  34
ENDBRANCH  32  33
ENDBRANCH   1  32
TORSDOF 17
ENDMDL
MODEL 2
REMARK VINA RESULT:     -11.7      8.757     14.337
REMARK SMILES Cc1c(C(=O)NCCCCNC(=O)c2ccc(-c3c4nc(c(-c5c(F)cc(S(=O)(=O)[O-])cc5F)c5ccc([nH]5)c(-c5c(F)cc(S(=O)(=O)[O-])cc5F)c5nc(c(-c6c(F)cc(S(=O)(=O)[O-])cc6F)c6ccc3[nH]6)C=C5)C=C4)cc2)sc2nc3n(c(=O)c12)CC/C3=C\c1ccc(OC(F)F)cc1
REMARK SMILES IDX 8 1 7 2 6 3 4 4 5 5 3 7 1 8 2 9 87 10 80 11 81 12 85 13
REMARK SMILES IDX 82 14 84 15 86 16 83 17 88 18 90 19 89 20 91 21 92 22 93 23
REMARK SMILES IDX 101 24 94 25 100 26 95 27 96 28 97 29 98 30 99 31 9 32 10 33
REMARK SMILES IDX 11 34 12 35 13 37 14 38 15 39 79 40 16 41 78 42 17 43 18 44
REMARK SMILES IDX 19 45 72 46 20 47 77 48 71 49 73 50 21 51 76 52 70 53 69 54
REMARK SMILES IDX 22 56 56 57 35 58 55 59 36 60 39 61 54 62 74 63 37 64 38 65
REMARK SMILES IDX 53 67 75 68 40 69 23 70 24 71 33 72 25 73 26 74 32 75 34 76
REMARK SMILES IDX 27 77 28 78 29 79 30 80 31 81 57 82 58 83 67 84 59 85 60 86
REMARK SMILES IDX 66 87 68 88 61 89 62 90 63 91 64 92 65 93 41 94 42 95 51 96
REMARK SMILES IDX 43 97 44 98 50 99 52 100 45 101 46 102 47 103 48 104 49 105
REMARK H PARENT 6 6 11 36 73 55 39 66
REMARK Flexibility Score: inf
ROOT
ATOM      1  C   UNL A   1      44.803  22.554  24.942  1.00  0.00     0.023 C 
ENDROOT
BRANCH   1   2
ATOM      2  C   UNL A   1      43.907  21.583  25.725  1.00  0.00     0.116 C 
BRANCH   2   3
ATOM      3  N   UNL A   1      43.443  22.125  26.988  1.00  0.00    -0.351 N 
ATOM      4  C   UNL A   1      42.268  22.396  27.639  1.00  0.00     0.261 C 
ATOM      5  O   UNL A   1      42.491  22.777  28.799  1.00  0.00    -0.268 OA
ATOM      6  H   UNL A   1      44.210  22.375  27.552  1.00  0.00     0.163 HD
BRANCH   4   7
ATOM      7  C   UNL A   1      40.898  22.327  27.101  1.00  0.00     0.098 A 
ATOM      8  C   UNL A   1      40.345  19.929  26.294  1.00  0.00     0.047 C 
ATOM      9  C   UNL A   1      40.073  21.377  26.493  1.00  0.00    -0.012 A 
ATOM     10  C   UNL A   1      38.838  21.974  26.014  1.00  0.00     0.081 A 
ATOM     11  S   UNL A   1      40.020  23.842  27.248  1.00  0.00    -0.110 S 
ATOM     12  C   UNL A   1      38.662  23.283  26.408  1.00  0.00     0.132 A 
ATOM     13  C   UNL A   1      37.782  21.378  25.207  1.00  0.00     0.262 A 
ATOM     14  N   UNL A   1      37.576  24.085  26.178  1.00  0.00    -0.219 NA
ATOM     15  N   UNL A   1      36.705  22.210  25.025  1.00  0.00    -0.292 N 
ATOM     16  O   UNL A   1      37.842  20.263  24.696  1.00  0.00    -0.269 OA
ATOM     17  C   UNL A   1      36.638  23.509  25.506  1.00  0.00     0.140 A 
ATOM     18  C   UNL A   1      35.557  21.798  24.272  1.00  0.00     0.132 C 
ATOM     19  C   UNL A   1      35.314  24.036  25.075  1.00  0.00    -0.002 C 
ATOM     20  C   UNL A   1      34.616  22.978  24.261  1.00  0.00     0.061 C 
ATOM     21  C   UNL A   1      34.834  25.254  25.374  1.00  0.00     0.015 C 
BRANCH  21  22
ATOM     22  C   UNL A   1      33.504  25.650  24.891  1.00  0.00    -0.025 A 
ATOM     23  C   UNL A   1      32.431  25.759  25.776  1.00  0.00     0.012 A 
ATOM     24  C   UNL A   1      33.332  26.065  23.564  1.00  0.00     0.012 A 
ATOM     25  C   UNL A   1      31.226  26.331  25.349  1.00  0.00     0.047 A 
ATOM     26  C   UNL A   1      32.138  26.660  23.146  1.00  0.00     0.047 A 
ATOM     27  C   UNL A   1      31.082  26.811  24.042  1.00  0.00     0.126 A 
BRANCH  27  28
ATOM     28  O   UNL A   1      29.879  27.401  23.776  1.00  0.00    -0.435 OA
BRANCH  28  29
ATOM     29  C   UNL A   1      29.882  28.681  23.154  1.00  0.00     0.542 C 
ATOM     30  F   UNL A   1      28.765  28.839  22.404  1.00  0.00    -0.167 F 
ATOM     31  F   UNL A   1      29.909  29.657  24.093  1.00  0.00    -0.167 F 
ENDBRANCH  28  29
ENDBRANCH  27  28
ENDBRANCH  21  22
ENDBRANCH   4   7
ENDBRANCH   2   3
ENDBRANCH   1   2
BRANCH   1  32
ATOM     32  C   UNL A   1      44.109  23.863  24.538  1.00  0.00     0.023 C 
BRANCH  32  33
ATOM     33  C   UNL A   1      44.467  25.053  25.424  1.00  0.00     0.116 C 
BRANCH  33  34
ATOM     34  N   UNL A   1      45.444  25.953  24.820  1.00  0.00    -0.352 N 
ATOM     35  C   UNL A   1      45.515  27.328  24.989  1.00  0.00     0.251 C 
ATOM     36  H   UNL A   1      46.122  25.542  24.235  1.00  0.00     0.163 HD
ATOM     37  O   UNL A   1      46.137  28.033  24.224  1.00  0.00    -0.269 OA
BRANCH  35  38
ATOM     38  C   UNL A   1      44.782  27.902  26.136  1.00  0.00     0.039 A 
ATOM     39  C   UNL A   1      45.332  27.869  27.420  1.00  0.00     0.014 A 
ATOM     40  C   UNL A   1      43.587  28.570  25.878  1.00  0.00     0.014 A 
ATOM     41  C   UNL A   1      44.718  28.600  28.436  1.00  0.00     0.010 A 
ATOM     42  C   UNL A   1      43.038  29.365  26.860  1.00  0.00     0.010 A 
ATOM     43  C   UNL A   1      43.584  29.371  28.149  1.00  0.00    -0.014 A 
BRANCH  43  44
ATOM     44  C   UNL A   1      43.007  30.252  29.169  1.00  0.00     0.031 A 
ATOM     45  C   UNL A   1      43.796  31.464  29.575  1.00  0.00     0.074 A 
ATOM     46  C   UNL A   1      41.708  30.165  29.520  1.00  0.00     0.049 A 
ATOM     47  N   UNL A   1      44.128  31.857  30.765  1.00  0.00    -0.248 NA
ATOM     48  C   UNL A   1      44.297  32.343  28.507  1.00  0.00     0.031 C 
ATOM     49  C   UNL A   1      40.682  29.264  28.981  1.00  0.00     0.029 A 
ATOM     50  N   UNL A   1      40.994  30.986  30.337  1.00  0.00    -0.354 N 
ATOM     51  C   UNL A   1      44.740  33.105  30.619  1.00  0.00     0.074 A 
ATOM     52  C   UNL A   1      44.909  33.304  29.202  1.00  0.00     0.031 C 
ATOM     53  C   UNL A   1      39.460  29.750  29.286  1.00  0.00     0.029 A 
ATOM     54  C   UNL A   1      39.622  30.888  30.171  1.00  0.00     0.049 A 
ATOM     55  H   UNL A   1      41.414  31.594  30.987  1.00  0.00     0.167 HD
ATOM     56  C   UNL A   1      44.935  33.966  31.662  1.00  0.00     0.037 A 
ATOM     57  C   UNL A   1      38.684  31.727  30.670  1.00  0.00     0.037 A 
ATOM     58  C   UNL A   1      44.782  33.312  32.933  1.00  0.00     0.049 A 
ATOM     59  C   UNL A   1      39.290  32.419  31.836  1.00  0.00     0.074 A 
ATOM     60  C   UNL A   1      45.417  32.263  33.568  1.00  0.00     0.029 A 
ATOM     61  N   UNL A   1      43.623  33.519  33.642  1.00  0.00    -0.354 N 
ATOM     62  N   UNL A   1      39.674  31.811  32.930  1.00  0.00    -0.248 NA
ATOM     63  C   UNL A   1      39.864  33.739  31.629  1.00  0.00     0.031 C 
ATOM     64  C   UNL A   1      44.382  31.579  34.268  1.00  0.00     0.029 A 
ATOM     65  C   UNL A   1      43.194  32.279  34.044  1.00  0.00     0.049 A 
ATOM     66  H   UNL A   1      43.188  34.383  33.825  1.00  0.00     0.167 HD
ATOM     67  C   UNL A   1      40.824  32.478  33.331  1.00  0.00     0.074 A 
ATOM     68  C   UNL A   1      40.827  33.716  32.556  1.00  0.00     0.031 C 
ATOM     69  C   UNL A   1      41.808  31.854  34.046  1.00  0.00     0.037 A 
BRANCH  56  70
ATOM     70  C   UNL A   1      45.017  35.471  31.547  1.00  0.00     0.058 A 
ATOM     71  C   UNL A   1      43.906  36.212  31.089  1.00  0.00     0.135 A 
ATOM     72  C   UNL A   1      46.233  36.183  31.621  1.00  0.00     0.135 A 
ATOM     73  F   UNL A   1      42.701  35.632  30.964  1.00  0.00    -0.206 F 
ATOM     74  C   UNL A   1      44.008  37.545  30.681  1.00  0.00     0.059 A 
ATOM     75  C   UNL A   1      46.347  37.526  31.268  1.00  0.00     0.059 A 
ATOM     76  F   UNL A   1      47.384  35.579  31.946  1.00  0.00    -0.206 F 
ATOM     77  C   UNL A   1      45.240  38.187  30.758  1.00  0.00     0.060 A 
BRANCH  77  78
ATOM     78  S   UNL A   1      45.407  39.865  30.117  1.00  0.00     0.124 S 
ATOM     79  O   UNL A   1      44.295  39.926  29.175  1.00  0.00    -0.237 OA
ATOM     80  O   UNL A   1      45.267  40.671  31.324  1.00  0.00    -0.237 OA
ATOM     81  O   UNL A   1      46.740  39.865  29.521  1.00  0.00    -0.744 OA
ENDBRANCH  77  78
ENDBRANCH  56  70
BRANCH  57  82
ATOM     82  C   UNL A   1      37.451  32.168  29.969  1.00  0.00     0.058 A 
ATOM     83  C   UNL A   1      36.181  31.700  30.341  1.00  0.00     0.135 A 
ATOM     84  C   UNL A   1      37.472  33.239  29.047  1.00  0.00     0.135 A 
ATOM     85  F   UNL A   1      36.064  30.715  31.244  1.00  0.00    -0.206 F 
ATOM     86  C   UNL A   1      35.003  32.267  29.838  1.00  0.00     0.059 A 
ATOM     87  C   UNL A   1      36.316  33.805  28.518  1.00  0.00     0.059 A 
ATOM     88  F   UNL A   1      38.624  33.827  28.690  1.00  0.00    -0.206 F 
ATOM     89  C   UNL A   1      35.081  33.327  28.933  1.00  0.00     0.060 A 
BRANCH  89  90
ATOM     90  S   UNL A   1      33.566  34.138  28.375  1.00  0.00     0.124 S 
ATOM     91  O   UNL A   1      32.902  33.066  27.642  1.00  0.00    -0.237 OA
ATOM     92  O   UNL A   1      32.948  34.527  29.638  1.00  0.00    -0.237 OA
ATOM     93  O   UNL A   1      34.054  35.244  27.555  1.00  0.00    -0.744 OA
ENDBRANCH  89  90
ENDBRANCH  57  82
BRANCH  69  94
ATOM     94  C   UNL A   1      41.544  30.481  34.619  1.00  0.00     0.058 A 
ATOM     95  C   UNL A   1      41.679  29.294  33.877  1.00  0.00     0.135 A 
ATOM     96  C   UNL A   1      41.385  30.344  36.007  1.00  0.00     0.135 A 
ATOM     97  F   UNL A   1      41.941  29.328  32.566  1.00  0.00    -0.206 F 
ATOM     98  C   UNL A   1      41.643  28.035  34.476  1.00  0.00     0.059 A 
ATOM     99  C   UNL A   1      41.376  29.096  36.633  1.00  0.00     0.059 A 
ATOM    100  F   UNL A   1      41.318  31.436  36.786  1.00  0.00    -0.206 F 
ATOM    101  C   UNL A   1      41.505  27.944  35.858  1.00  0.00     0.060 A 
BRANCH 101 102
ATOM    102  S   UNL A   1      41.606  26.317  36.635  1.00  0.00     0.124 S 
ATOM    103  O   UNL A   1      41.365  25.422  35.509  1.00  0.00    -0.237 OA
ATOM    104  O   UNL A   1      42.964  26.306  37.174  1.00  0.00    -0.237 OA
ATOM    105  O   UNL A   1      40.547  26.353  37.642  1.00  0.00    -0.744 OA
ENDBRANCH 101 102
ENDBRANCH  69  94
ENDBRANCH  43  44
ENDBRANCH  35  38
ENDBRANCH  33  34
ENDBRANCH  32  33
ENDBRANCH   1  32
TORSDOF 17
ENDMDL
MODEL 3
REMARK VINA RESULT:     -11.7      4.103      6.239
REMARK SMILES Cc1c(C(=O)NCCCCNC(=O)c2ccc(-c3c4nc(c(-c5c(F)cc(S(=O)(=O)[O-])cc5F)c5ccc([nH]5)c(-c5c(F)cc(S(=O)(=O)[O-])cc5F)c5nc(c(-c6c(F)cc(S(=O)(=O)[O-])cc6F)c6ccc3[nH]6)C=C5)C=C4)cc2)sc2nc3n(c(=O)c12)CC/C3=C\c1ccc(OC(F)F)cc1
REMARK SMILES IDX 8 1 7 2 6 3 4 4 5 5 3 7 1 8 2 9 87 10 80 11 81 12 85 13
REMARK SMILES IDX 82 14 84 15 86 16 83 17 88 18 90 19 89 20 91 21 92 22 93 23
REMARK SMILES IDX 101 24 94 25 100 26 95 27 96 28 97 29 98 30 99 31 9 32 10 33
REMARK SMILES IDX 11 34 12 35 13 37 14 38 15 39 79 40 16 41 78 42 17 43 18 44
REMARK SMILES IDX 19 45 72 46 20 47 77 48 71 49 73 50 21 51 76 52 70 53 69 54
REMARK SMILES IDX 22 56 56 57 35 58 55 59 36 60 39 61 54 62 74 63 37 64 38 65
REMARK SMILES IDX 53 67 75 68 40 69 23 70 24 71 33 72 25 73 26 74 32 75 34 76
REMARK SMILES IDX 27 77 28 78 29 79 30 80 31 81 57 82 58 83 67 84 59 85 60 86
REMARK SMILES IDX 66 87 68 88 61 89 62 90 63 91 64 92 65 93 41 94 42 95 51 96
REMARK SMILES IDX 43 97 44 98 50 99 52 100 45 101 46 102 47 103 48 104 49 105
REMARK H PARENT 6 6 11 36 73 55 39 66
REMARK Flexibility Score: inf
ROOT
ATOM      1  C   UNL A   1      47.931  24.459  36.608  1.00  0.00     0.023 C 
ENDROOT
BRANCH   1   2
ATOM      2  C   UNL A   1      49.008  23.439  36.211  1.00  0.00     0.116 C 
BRANCH   2   3
ATOM      3  N   UNL A   1      48.528  22.432  35.284  1.00  0.00    -0.351 N 
ATOM      4  C   UNL A   1      47.840  21.246  35.294  1.00  0.00     0.261 C 
ATOM      5  O   UNL A   1      47.616  20.863  34.136  1.00  0.00    -0.268 OA
ATOM      6  H   UNL A   1      48.770  22.676  34.361  1.00  0.00     0.163 HD
BRANCH   4   7
ATOM      7  C   UNL A   1      47.436  20.445  36.463  1.00  0.00     0.098 A 
ATOM      8  C   UNL A   1      49.168  20.666  38.375  1.00  0.00     0.047 C 
ATOM      9  C   UNL A   1      47.949  20.122  37.722  1.00  0.00    -0.012 A 
ATOM     10  C   UNL A   1      47.138  19.114  38.383  1.00  0.00     0.081 A 
ATOM     11  S   UNL A   1      45.876  19.662  36.259  1.00  0.00    -0.110 S 
ATOM     12  C   UNL A   1      45.962  18.823  37.726  1.00  0.00     0.132 A 
ATOM     13  C   UNL A   1      47.393  18.402  39.629  1.00  0.00     0.262 A 
ATOM     14  N   UNL A   1      44.965  17.978  38.133  1.00  0.00    -0.219 NA
ATOM     15  N   UNL A   1      46.355  17.586  40.008  1.00  0.00    -0.292 N 
ATOM     16  O   UNL A   1      48.437  18.474  40.271  1.00  0.00    -0.269 OA
ATOM     17  C   UNL A   1      45.200  17.404  39.264  1.00  0.00     0.140 A 
ATOM     18  C   UNL A   1      46.410  16.814  41.214  1.00  0.00     0.132 C 
ATOM     19  C   UNL A   1      44.364  16.443  40.035  1.00  0.00    -0.002 C 
ATOM     20  C   UNL A   1      45.123  16.027  41.267  1.00  0.00     0.061 C 
ATOM     21  C   UNL A   1      43.137  16.030  39.680  1.00  0.00     0.015 C 
BRANCH  21  22
ATOM     22  C   UNL A   1      42.413  15.081  40.537  1.00  0.00    -0.025 A 
ATOM     23  C   UNL A   1      42.103  13.801  40.077  1.00  0.00     0.012 A 
ATOM     24  C   UNL A   1      42.153  15.400  41.876  1.00  0.00     0.012 A 
ATOM     25  C   UNL A   1      41.600  12.840  40.963  1.00  0.00     0.047 A 
ATOM     26  C   UNL A   1      41.676  14.433  42.766  1.00  0.00     0.047 A 
ATOM     27  C   UNL A   1      41.411  13.141  42.317  1.00  0.00     0.126 A 
BRANCH  27  28
ATOM     28  O   UNL A   1      40.975  12.096  43.081  1.00  0.00    -0.435 OA
BRANCH  28  29
ATOM     29  C   UNL A   1      41.948  11.220  43.639  1.00  0.00     0.542 C 
ATOM     30  F   UNL A   1      42.320  10.292  42.726  1.00  0.00    -0.167 F 
ATOM     31  F   UNL A   1      43.047  11.919  44.011  1.00  0.00    -0.167 F 
ENDBRANCH  28  29
ENDBRANCH  27  28
ENDBRANCH  21  22
ENDBRANCH   4   7
ENDBRANCH   2   3
ENDBRANCH   1   2
BRANCH   1  32
ATOM     32  C   UNL A   1      46.967  23.963  37.695  1.00  0.00     0.023 C 
BRANCH  32  33
ATOM     33  C   UNL A   1      45.537  23.751  37.206  1.00  0.00     0.116 C 
BRANCH  33  34
ATOM     34  N   UNL A   1      44.536  24.424  38.027  1.00  0.00    -0.352 N 
ATOM     35  C   UNL A   1      43.867  25.599  37.715  1.00  0.00     0.251 C 
ATOM     36  H   UNL A   1      44.314  24.001  38.888  1.00  0.00     0.163 HD
ATOM     37  O   UNL A   1      43.300  26.253  38.563  1.00  0.00    -0.269 OA
BRANCH  35  38
ATOM     38  C   UNL A   1      43.887  26.028  36.302  1.00  0.00     0.039 A 
ATOM     39  C   UNL A   1      43.218  25.288  35.324  1.00  0.00     0.014 A 
ATOM     40  C   UNL A   1      44.495  27.244  35.999  1.00  0.00     0.014 A 
ATOM     41  C   UNL A   1      43.079  25.828  34.046  1.00  0.00     0.010 A 
ATOM     42  C   UNL A   1      44.275  27.815  34.764  1.00  0.00     0.010 A 
ATOM     43  C   UNL A   1      43.586  27.105  33.774  1.00  0.00    -0.014 A 
BRANCH  43  44
ATOM     44  C   UNL A   1      43.330  27.746  32.480  1.00  0.00     0.031 A 
ATOM     45  C   UNL A   1      41.927  28.195  32.186  1.00  0.00     0.074 A 
ATOM     46  C   UNL A   1      44.339  28.189  31.703  1.00  0.00     0.049 A 
ATOM     47  N   UNL A   1      41.193  27.941  31.149  1.00  0.00    -0.248 NA
ATOM     48  C   UNL A   1      41.248  29.022  33.196  1.00  0.00     0.031 C 
ATOM     49  C   UNL A   1      45.780  28.151  31.980  1.00  0.00     0.029 A 
ATOM     50  N   UNL A   1      44.269  28.918  30.556  1.00  0.00    -0.354 N 
ATOM     51  C   UNL A   1      40.024  28.695  31.290  1.00  0.00     0.074 A 
ATOM     52  C   UNL A   1      40.070  29.257  32.615  1.00  0.00     0.031 C 
ATOM     53  C   UNL A   1      46.410  29.034  31.176  1.00  0.00     0.029 A 
ATOM     54  C   UNL A   1      45.449  29.565  30.228  1.00  0.00     0.049 A 
ATOM     55  H   UNL A   1      43.453  28.979  30.008  1.00  0.00     0.167 HD
ATOM     56  C   UNL A   1      39.162  28.935  30.258  1.00  0.00     0.037 A 
ATOM     57  C   UNL A   1      45.612  30.526  29.289  1.00  0.00     0.037 A 
ATOM     58  C   UNL A   1      39.393  28.049  29.149  1.00  0.00     0.049 A 
ATOM     59  C   UNL A   1      44.494  30.387  28.321  1.00  0.00     0.074 A 
ATOM     60  C   UNL A   1      39.356  26.680  28.976  1.00  0.00     0.029 A 
ATOM     61  N   UNL A   1      40.050  28.539  28.044  1.00  0.00    -0.354 N 
ATOM     62  N   UNL A   1      44.309  29.337  27.561  1.00  0.00    -0.248 NA
ATOM     63  C   UNL A   1      43.327  31.237  28.493  1.00  0.00     0.031 C 
ATOM     64  C   UNL A   1      40.425  26.396  28.076  1.00  0.00     0.029 A 
ATOM     65  C   UNL A   1      41.015  27.614  27.732  1.00  0.00     0.049 A 
ATOM     66  H   UNL A   1      39.864  29.381  27.572  1.00  0.00     0.167 HD
ATOM     67  C   UNL A   1      42.932  29.175  27.496  1.00  0.00     0.074 A 
ATOM     68  C   UNL A   1      42.383  30.432  27.995  1.00  0.00     0.031 C 
ATOM     69  C   UNL A   1      42.358  27.949  27.302  1.00  0.00     0.037 A 
BRANCH  56  70
ATOM     70  C   UNL A   1      38.261  30.142  30.135  1.00  0.00     0.058 A 
ATOM     71  C   UNL A   1      38.793  31.444  30.265  1.00  0.00     0.135 A 
ATOM     72  C   UNL A   1      36.852  30.057  30.157  1.00  0.00     0.135 A 
ATOM     73  F   UNL A   1      40.121  31.643  30.274  1.00  0.00    -0.206 F 
ATOM     74  C   UNL A   1      37.987  32.569  30.460  1.00  0.00     0.059 A 
ATOM     75  C   UNL A   1      36.028  31.171  30.298  1.00  0.00     0.059 A 
ATOM     76  F   UNL A   1      36.219  28.877  30.140  1.00  0.00    -0.206 F 
ATOM     77  C   UNL A   1      36.604  32.417  30.493  1.00  0.00     0.060 A 
BRANCH  77  78
ATOM     78  S   UNL A   1      35.565  33.843  30.868  1.00  0.00     0.124 S 
ATOM     79  O   UNL A   1      34.354  33.197  31.364  1.00  0.00    -0.237 OA
ATOM     80  O   UNL A   1      36.363  34.552  31.863  1.00  0.00    -0.237 OA
ATOM     81  O   UNL A   1      35.440  34.516  29.579  1.00  0.00    -0.744 OA
ENDBRANCH  77  78
ENDBRANCH  56  70
BRANCH  57  82
ATOM     82  C   UNL A   1      46.485  31.721  29.410  1.00  0.00     0.058 A 
ATOM     83  C   UNL A   1      47.468  32.019  28.454  1.00  0.00     0.135 A 
ATOM     84  C   UNL A   1      46.223  32.729  30.366  1.00  0.00     0.135 A 
ATOM     85  F   UNL A   1      47.751  31.138  27.483  1.00  0.00    -0.206 F 
ATOM     86  C   UNL A   1      48.144  33.246  28.440  1.00  0.00     0.059 A 
ATOM     87  C   UNL A   1      46.896  33.948  30.384  1.00  0.00     0.059 A 
ATOM     88  F   UNL A   1      45.241  32.593  31.270  1.00  0.00    -0.206 F 
ATOM     89  C   UNL A   1      47.844  34.208  29.405  1.00  0.00     0.060 A 
BRANCH  89  90
ATOM     90  S   UNL A   1      48.626  35.835  29.318  1.00  0.00     0.124 S 
ATOM     91  O   UNL A   1      48.567  36.123  27.889  1.00  0.00    -0.237 OA
ATOM     92  O   UNL A   1      47.753  36.637  30.169  1.00  0.00    -0.237 OA
ATOM     93  O   UNL A   1      49.966  35.597  29.851  1.00  0.00    -0.744 OA
ENDBRANCH  89  90
ENDBRANCH  57  82
BRANCH  69  94
ATOM     94  C   UNL A   1      43.233  26.779  26.917  1.00  0.00     0.058 A 
ATOM     95  C   UNL A   1      43.735  25.848  27.844  1.00  0.00     0.135 A 
ATOM     96  C   UNL A   1      43.371  26.453  25.558  1.00  0.00     0.135 A 
ATOM     97  F   UNL A   1      43.555  26.021  29.158  1.00  0.00    -0.206 F 
ATOM     98  C   UNL A   1      44.354  24.664  27.448  1.00  0.00     0.059 A 
ATOM     99  C   UNL A   1      43.960  25.259  25.137  1.00  0.00     0.059 A 
ATOM    100  F   UNL A   1      42.855  27.263  24.618  1.00  0.00    -0.206 F 
ATOM    101  C   UNL A   1      44.450  24.368  26.090  1.00  0.00     0.060 A 
BRANCH 101 102
ATOM    102  S   UNL A   1      45.123  22.767  25.596  1.00  0.00     0.124 S 
ATOM    103  O   UNL A   1      46.450  22.790  26.201  1.00  0.00    -0.237 OA
ATOM    104  O   UNL A   1      44.173  21.828  26.187  1.00  0.00    -0.237 OA
ATOM    105  O   UNL A   1      45.102  22.824  24.136  1.00  0.00    -0.744 OA
ENDBRANCH 101 102
ENDBRANCH  69  94
ENDBRANCH  43  44
ENDBRANCH  35  38
ENDBRANCH  33  34
ENDBRANCH  32  33
ENDBRANCH   1  32
TORSDOF 17
ENDMDL
