MODEL 1
REMARK VINA RESULT:     -12.2      0.000      0.000
REMARK SMILES Cc1ccc(NC(=O)CN2C(=O)S/C(=C\c3cc(Cl)c(OCC(=O)NCCCCNC(=O)c4ccc(-c5c6nc(c(-c7c(F)cc(S(=O)(=O)[O-])cc7F)c7ccc([nH]7)c(-c7c(F)cc(S(=O)(=O)[O-])cc7F)c7nc(c(-c8c(F)cc(S(=O)(=O)[O-])cc8F)c8ccc5[nH]8)C=C7)C=C6)cc4)c(Cl)c3)C2=O)cc1
REMARK SMILES IDX 26 1 25 2 23 3 24 4 22 6 21 7 20 8 16 9 17 10 101 11 18 12
REMARK SMILES IDX 99 13 19 14 100 15 15 16 10 17 11 18 102 19 12 20 13 21
REMARK SMILES IDX 14 22 103 23 9 24 7 25 6 26 8 28 5 29 1 30 2 31 3 32 105 33
REMARK SMILES IDX 4 34 104 35 27 36 28 37 29 38 30 39 31 40 32 42 33 43 34 44
REMARK SMILES IDX 98 45 35 46 97 47 36 48 37 49 38 50 91 51 39 52 96 53 90 54
REMARK SMILES IDX 92 55 40 56 95 57 89 58 88 59 41 61 75 62 54 63 74 64 55 65
REMARK SMILES IDX 58 66 73 67 93 68 56 69 57 70 72 72 94 73 59 74 42 75 43 76
REMARK SMILES IDX 52 77 44 78 45 79 51 80 53 81 46 82 47 83 48 84 49 85 50 86
REMARK SMILES IDX 76 87 77 88 86 89 78 90 79 91 85 92 87 93 80 94 81 95 82 96
REMARK SMILES IDX 83 97 84 98 60 99 61 100 70 101 62 102 63 103 69 104 71 105
REMARK SMILES IDX 64 106 65 107 66 108 67 109 68 110
REMARK H PARENT 25 5 6 27 30 41 92 60 58 71
REMARK Flexibility Score: inf
ROOT
ATOM      1  C   UNL A   1      32.052  26.807  26.370  1.00  0.00     0.116 C 
ENDROOT
BRANCH   1   2
ATOM      2  N   UNL A   1      31.495  26.301  25.130  1.00  0.00    -0.353 N 
ATOM      3  C   UNL A   1      30.933  25.087  24.866  1.00  0.00     0.257 C 
ATOM      4  O   UNL A   1      30.402  24.929  23.764  1.00  0.00    -0.271 OA
ATOM      5  H   UNL A   1      31.530  26.923  24.368  1.00  0.00     0.163 HD
BRANCH   3   6
ATOM      6  C   UNL A   1      30.926  23.988  25.941  1.00  0.00     0.329 C 
BRANCH   6   7
ATOM      7  O   UNL A   1      31.336  22.678  25.594  1.00  0.00    -0.481 OA
BRANCH   7   8
ATOM      8  C   UNL A   1      32.643  22.275  25.618  1.00  0.00     0.157 A 
ATOM      9  C   UNL A   1      35.353  21.400  25.281  1.00  0.00    -0.021 A 
ATOM     10  C   UNL A   1      34.555  21.635  24.169  1.00  0.00     0.032 A 
ATOM     11  C   UNL A   1      34.774  21.575  26.543  1.00  0.00     0.032 A 
ATOM     12  C   UNL A   1      33.221  22.060  24.341  1.00  0.00     0.085 A 
ATOM     13  C   UNL A   1      33.476  22.075  26.722  1.00  0.00     0.085 A 
ATOM     14  Cl  UNL A   1      32.311  22.353  22.889  1.00  0.00    -0.080 Cl
ATOM     15  Cl  UNL A   1      33.141  22.533  28.352  1.00  0.00    -0.080 Cl
BRANCH   9  16
ATOM     16  C   UNL A   1      36.753  20.929  25.190  1.00  0.00     0.029 C 
ATOM     17  N   UNL A   1      39.825  22.234  26.439  1.00  0.00    -0.259 N 
ATOM     18  C   UNL A   1      39.136  23.413  26.566  1.00  0.00     0.294 C 
ATOM     19  C   UNL A   1      39.167  21.226  25.759  1.00  0.00     0.268 C 
ATOM     20  O   UNL A   1      39.315  24.299  27.379  1.00  0.00    -0.261 OA
ATOM     21  S   UNL A   1      37.838  23.453  25.401  1.00  0.00    -0.022 SA
ATOM     22  C   UNL A   1      37.827  21.730  25.319  1.00  0.00     0.083 C 
ATOM     23  O   UNL A   1      39.534  20.065  25.652  1.00  0.00    -0.268 OA
BRANCH  17  24
ATOM     24  C   UNL A   1      40.924  21.947  27.349  1.00  0.00     0.230 C 
BRANCH  24  25
ATOM     25  C   UNL A   1      42.276  21.818  26.639  1.00  0.00     0.244 C 
ATOM     26  N   UNL A   1      43.451  22.008  27.310  1.00  0.00    -0.325 N 
ATOM     27  H   UNL A   1      44.203  21.466  26.977  1.00  0.00     0.169 HD
ATOM     28  O   UNL A   1      42.329  21.516  25.443  1.00  0.00    -0.273 OA
BRANCH  26  29
ATOM     29  C   UNL A   1      43.770  22.840  28.391  1.00  0.00     0.041 A 
ATOM     30  C   UNL A   1      44.798  25.084  31.930  1.00  0.00     0.044 C 
ATOM     31  C   UNL A   1      44.428  24.296  30.710  1.00  0.00    -0.051 A 
ATOM     32  C   UNL A   1      45.223  24.381  29.564  1.00  0.00     0.005 A 
ATOM     33  C   UNL A   1      43.302  23.468  30.691  1.00  0.00     0.005 A 
ATOM     34  C   UNL A   1      44.898  23.658  28.414  1.00  0.00     0.026 A 
ATOM     35  C   UNL A   1      42.984  22.735  29.543  1.00  0.00     0.026 A 
ENDBRANCH  26  29
ENDBRANCH  24  25
ENDBRANCH  17  24
ENDBRANCH   9  16
ENDBRANCH   7   8
ENDBRANCH   6   7
ENDBRANCH   3   6
ENDBRANCH   1   2
BRANCH   1  36
ATOM     36  C   UNL A   1      32.945  28.036  26.183  1.00  0.00     0.023 C 
BRANCH  36  37
ATOM     37  C   UNL A   1      34.269  28.019  26.941  1.00  0.00     0.023 C 
BRANCH  37  38
ATOM     38  C   UNL A   1      35.052  29.323  26.911  1.00  0.00     0.116 C 
BRANCH  38  39
ATOM     39  N   UNL A   1      34.264  30.514  26.627  1.00  0.00    -0.352 N 
ATOM     40  C   UNL A   1      33.979  31.548  27.515  1.00  0.00     0.251 C 
ATOM     41  H   UNL A   1      33.895  30.595  25.719  1.00  0.00     0.163 HD
ATOM     42  O   UNL A   1      32.956  32.218  27.444  1.00  0.00    -0.269 OA
BRANCH  40  43
ATOM     43  C   UNL A   1      35.066  31.943  28.439  1.00  0.00     0.039 A 
ATOM     44  C   UNL A   1      36.117  32.711  27.915  1.00  0.00     0.014 A 
ATOM     45  C   UNL A   1      35.207  31.274  29.645  1.00  0.00     0.014 A 
ATOM     46  C   UNL A   1      37.383  32.607  28.475  1.00  0.00     0.010 A 
ATOM     47  C   UNL A   1      36.476  31.033  30.094  1.00  0.00     0.010 A 
ATOM     48  C   UNL A   1      37.563  31.676  29.487  1.00  0.00    -0.014 A 
BRANCH  48  49
ATOM     49  C   UNL A   1      38.828  31.326  30.094  1.00  0.00     0.031 A 
ATOM     50  C   UNL A   1      39.582  30.224  29.469  1.00  0.00     0.074 A 
ATOM     51  C   UNL A   1      39.379  32.206  30.956  1.00  0.00     0.049 A 
ATOM     52  N   UNL A   1      40.643  29.700  29.961  1.00  0.00    -0.248 NA
ATOM     53  C   UNL A   1      39.168  29.594  28.216  1.00  0.00     0.031 C 
ATOM     54  C   UNL A   1      40.786  32.369  31.295  1.00  0.00     0.029 A 
ATOM     55  N   UNL A   1      38.712  33.044  31.851  1.00  0.00    -0.354 N 
ATOM     56  C   UNL A   1      41.223  28.926  28.977  1.00  0.00     0.074 A 
ATOM     57  C   UNL A   1      40.215  28.809  27.955  1.00  0.00     0.031 C 
ATOM     58  C   UNL A   1      40.882  33.026  32.464  1.00  0.00     0.029 A 
ATOM     59  C   UNL A   1      39.533  33.149  32.991  1.00  0.00     0.049 A 
ATOM     60  H   UNL A   1      37.839  33.478  31.712  1.00  0.00     0.167 HD
ATOM     61  C   UNL A   1      42.545  28.620  29.108  1.00  0.00     0.037 A 
ATOM     62  C   UNL A   1      39.122  32.602  34.177  1.00  0.00     0.037 A 
ATOM     63  C   UNL A   1      43.027  29.110  30.400  1.00  0.00     0.049 A 
ATOM     64  C   UNL A   1      40.009  31.467  34.639  1.00  0.00     0.074 A 
ATOM     65  C   UNL A   1      43.708  30.260  30.767  1.00  0.00     0.029 A 
ATOM     66  N   UNL A   1      42.506  28.566  31.565  1.00  0.00    -0.354 N 
ATOM     67  N   UNL A   1      40.740  30.737  33.840  1.00  0.00    -0.248 NA
ATOM     68  C   UNL A   1      40.198  31.112  36.042  1.00  0.00     0.031 C 
ATOM     69  C   UNL A   1      43.550  30.428  32.166  1.00  0.00     0.029 A 
ATOM     70  C   UNL A   1      42.791  29.373  32.647  1.00  0.00     0.049 A 
ATOM     71  H   UNL A   1      42.005  27.720  31.614  1.00  0.00     0.167 HD
ATOM     72  C   UNL A   1      41.494  29.854  34.575  1.00  0.00     0.074 A 
ATOM     73  C   UNL A   1      41.118  30.136  35.948  1.00  0.00     0.031 C 
ATOM     74  C   UNL A   1      42.377  28.987  33.988  1.00  0.00     0.037 A 
BRANCH  61  75
ATOM     75  C   UNL A   1      43.483  28.129  28.020  1.00  0.00     0.058 A 
ATOM     76  C   UNL A   1      43.311  26.829  27.485  1.00  0.00     0.135 A 
ATOM     77  C   UNL A   1      44.584  28.829  27.488  1.00  0.00     0.135 A 
ATOM     78  F   UNL A   1      42.277  26.053  27.837  1.00  0.00    -0.206 F 
ATOM     79  C   UNL A   1      44.190  26.252  26.567  1.00  0.00     0.059 A 
ATOM     80  C   UNL A   1      45.491  28.266  26.583  1.00  0.00     0.059 A 
ATOM     81  F   UNL A   1      44.821  30.111  27.780  1.00  0.00    -0.206 F 
ATOM     82  C   UNL A   1      45.291  26.972  26.133  1.00  0.00     0.060 A 
BRANCH  82  83
ATOM     83  S   UNL A   1      46.419  26.203  24.960  1.00  0.00     0.124 S 
ATOM     84  O   UNL A   1      45.679  25.007  24.566  1.00  0.00    -0.237 OA
ATOM     85  O   UNL A   1      46.549  27.236  23.939  1.00  0.00    -0.237 OA
ATOM     86  O   UNL A   1      47.620  25.956  25.754  1.00  0.00    -0.744 OA
ENDBRANCH  82  83
ENDBRANCH  61  75
BRANCH  62  87
ATOM     87  C   UNL A   1      37.642  32.716  34.362  1.00  0.00     0.058 A 
ATOM     88  C   UNL A   1      37.156  33.966  34.801  1.00  0.00     0.135 A 
ATOM     89  C   UNL A   1      36.757  31.899  33.642  1.00  0.00     0.135 A 
ATOM     90  F   UNL A   1      37.950  34.777  35.520  1.00  0.00    -0.206 F 
ATOM     91  C   UNL A   1      35.939  34.475  34.358  1.00  0.00     0.059 A 
ATOM     92  C   UNL A   1      35.520  32.386  33.203  1.00  0.00     0.059 A 
ATOM     93  F   UNL A   1      37.148  30.690  33.214  1.00  0.00    -0.206 F 
ATOM     94  C   UNL A   1      35.166  33.705  33.493  1.00  0.00     0.060 A 
BRANCH  94  95
ATOM     95  S   UNL A   1      33.813  34.531  32.618  1.00  0.00     0.124 S 
ATOM     96  O   UNL A   1      34.067  34.147  31.234  1.00  0.00    -0.237 OA
ATOM     97  O   UNL A   1      32.636  33.917  33.236  1.00  0.00    -0.237 OA
ATOM     98  O   UNL A   1      34.026  35.940  32.927  1.00  0.00    -0.744 OA
ENDBRANCH  94  95
ENDBRANCH  62  87
BRANCH  74  99
ATOM     99  C   UNL A   1      43.030  27.761  34.610  1.00  0.00     0.058 A 
ATOM    100  C   UNL A   1      42.371  26.549  34.873  1.00  0.00     0.135 A 
ATOM    101  C   UNL A   1      44.435  27.730  34.841  1.00  0.00     0.135 A 
ATOM    102  F   UNL A   1      41.075  26.373  34.588  1.00  0.00    -0.206 F 
ATOM    103  C   UNL A   1      43.028  25.432  35.397  1.00  0.00     0.059 A 
ATOM    104  C   UNL A   1      45.121  26.605  35.290  1.00  0.00     0.059 A 
ATOM    105  F   UNL A   1      45.218  28.796  34.622  1.00  0.00    -0.206 F 
ATOM    106  C   UNL A   1      44.402  25.467  35.601  1.00  0.00     0.060 A 
BRANCH 106 107
ATOM    107  S   UNL A   1      45.243  24.011  36.239  1.00  0.00     0.124 S 
ATOM    108  O   UNL A   1      46.609  24.243  35.779  1.00  0.00    -0.237 OA
ATOM    109  O   UNL A   1      45.033  24.131  37.678  1.00  0.00    -0.237 OA
ATOM    110  O   UNL A   1      44.541  22.904  35.600  1.00  0.00    -0.744 OA
ENDBRANCH 106 107
ENDBRANCH  74  99
ENDBRANCH  48  49
ENDBRANCH  40  43
ENDBRANCH  38  39
ENDBRANCH  37  38
ENDBRANCH  36  37
ENDBRANCH   1  36
TORSDOF 20
ENDMDL
MODEL 2
REMARK VINA RESULT:     -12.1      3.778     10.833
REMARK SMILES Cc1ccc(NC(=O)CN2C(=O)S/C(=C\c3cc(Cl)c(OCC(=O)NCCCCNC(=O)c4ccc(-c5c6nc(c(-c7c(F)cc(S(=O)(=O)[O-])cc7F)c7ccc([nH]7)c(-c7c(F)cc(S(=O)(=O)[O-])cc7F)c7nc(c(-c8c(F)cc(S(=O)(=O)[O-])cc8F)c8ccc5[nH]8)C=C7)C=C6)cc4)c(Cl)c3)C2=O)cc1
REMARK SMILES IDX 26 1 25 2 23 3 24 4 22 6 21 7 20 8 16 9 17 10 101 11 18 12
REMARK SMILES IDX 99 13 19 14 100 15 15 16 10 17 11 18 102 19 12 20 13 21
REMARK SMILES IDX 14 22 103 23 9 24 7 25 6 26 8 28 5 29 1 30 2 31 3 32 105 33
REMARK SMILES IDX 4 34 104 35 27 36 28 37 29 38 30 39 31 40 32 42 33 43 34 44
REMARK SMILES IDX 98 45 35 46 97 47 36 48 37 49 38 50 91 51 39 52 96 53 90 54
REMARK SMILES IDX 92 55 40 56 95 57 89 58 88 59 41 61 75 62 54 63 74 64 55 65
REMARK SMILES IDX 58 66 73 67 93 68 56 69 57 70 72 72 94 73 59 74 42 75 43 76
REMARK SMILES IDX 52 77 44 78 45 79 51 80 53 81 46 82 47 83 48 84 49 85 50 86
REMARK SMILES IDX 76 87 77 88 86 89 78 90 79 91 85 92 87 93 80 94 81 95 82 96
REMARK SMILES IDX 83 97 84 98 60 99 61 100 70 101 62 102 63 103 69 104 71 105
REMARK SMILES IDX 64 106 65 107 66 108 67 109 68 110
REMARK H PARENT 25 5 6 27 30 41 92 60 58 71
REMARK Flexibility Score: inf
ROOT
ATOM      1  C   UNL A   1      34.588  22.915  24.753  1.00  0.00     0.116 C 
ENDROOT
BRANCH   1   2
ATOM      2  N   UNL A   1      33.279  22.722  24.158  1.00  0.00    -0.353 N 
ATOM      3  C   UNL A   1      32.591  23.529  23.301  1.00  0.00     0.257 C 
ATOM      4  O   UNL A   1      31.544  23.090  22.818  1.00  0.00    -0.271 OA
ATOM      5  H   UNL A   1      32.821  21.888  24.411  1.00  0.00     0.163 HD
BRANCH   3   6
ATOM      6  C   UNL A   1      33.149  24.911  22.924  1.00  0.00     0.329 C 
BRANCH   6   7
ATOM      7  O   UNL A   1      32.249  25.952  22.588  1.00  0.00    -0.481 OA
BRANCH   7   8
ATOM      8  C   UNL A   1      31.979  27.003  23.420  1.00  0.00     0.157 A 
ATOM      9  C   UNL A   1      31.711  29.387  24.991  1.00  0.00    -0.021 A 
ATOM     10  C   UNL A   1      32.649  29.330  23.969  1.00  0.00     0.032 A 
ATOM     11  C   UNL A   1      30.944  28.241  25.232  1.00  0.00     0.032 A 
ATOM     12  C   UNL A   1      32.780  28.153  23.202  1.00  0.00     0.085 A 
ATOM     13  C   UNL A   1      31.011  27.097  24.423  1.00  0.00     0.085 A 
ATOM     14  Cl  UNL A   1      33.963  28.188  21.930  1.00  0.00    -0.080 Cl
ATOM     15  Cl  UNL A   1      29.723  25.985  24.710  1.00  0.00    -0.080 Cl
BRANCH   9  16
ATOM     16  C   UNL A   1      31.526  30.572  25.858  1.00  0.00     0.029 C 
ATOM     17  N   UNL A   1      33.800  32.553  27.756  1.00  0.00    -0.259 N 
ATOM     18  C   UNL A   1      34.650  31.483  27.633  1.00  0.00     0.294 C 
ATOM     19  C   UNL A   1      32.504  32.340  27.327  1.00  0.00     0.268 C 
ATOM     20  O   UNL A   1      35.866  31.494  27.599  1.00  0.00    -0.261 OA
ATOM     21  S   UNL A   1      33.717  30.023  27.435  1.00  0.00    -0.022 SA
ATOM     22  C   UNL A   1      32.379  30.931  26.835  1.00  0.00     0.083 C 
ATOM     23  O   UNL A   1      31.629  33.187  27.217  1.00  0.00    -0.268 OA
BRANCH  17  24
ATOM     24  C   UNL A   1      34.353  33.894  27.874  1.00  0.00     0.230 C 
BRANCH  24  25
ATOM     25  C   UNL A   1      33.938  34.605  29.167  1.00  0.00     0.244 C 
ATOM     26  N   UNL A   1      34.654  34.455  30.321  1.00  0.00    -0.325 N 
ATOM     27  H   UNL A   1      34.650  35.246  30.908  1.00  0.00     0.169 HD
ATOM     28  O   UNL A   1      32.953  35.349  29.184  1.00  0.00    -0.273 OA
BRANCH  26  29
ATOM     29  C   UNL A   1      35.394  33.371  30.812  1.00  0.00     0.041 A 
ATOM     30  C   UNL A   1      37.363  29.813  32.255  1.00  0.00     0.044 C 
ATOM     31  C   UNL A   1      36.665  31.046  31.765  1.00  0.00    -0.051 A 
ATOM     32  C   UNL A   1      37.171  31.734  30.659  1.00  0.00     0.005 A 
ATOM     33  C   UNL A   1      35.510  31.526  32.389  1.00  0.00     0.005 A 
ATOM     34  C   UNL A   1      36.539  32.887  30.185  1.00  0.00     0.026 A 
ATOM     35  C   UNL A   1      34.871  32.673  31.906  1.00  0.00     0.026 A 
ENDBRANCH  26  29
ENDBRANCH  24  25
ENDBRANCH  17  24
ENDBRANCH   9  16
ENDBRANCH   7   8
ENDBRANCH   6   7
ENDBRANCH   3   6
ENDBRANCH   1   2
BRANCH   1  36
ATOM     36  C   UNL A   1      35.744  22.658  23.784  1.00  0.00     0.023 C 
BRANCH  36  37
ATOM     37  C   UNL A   1      37.034  22.134  24.409  1.00  0.00     0.023 C 
BRANCH  37  38
ATOM     38  C   UNL A   1      37.631  23.009  25.501  1.00  0.00     0.116 C 
BRANCH  38  39
ATOM     39  N   UNL A   1      38.510  22.323  26.436  1.00  0.00    -0.352 N 
ATOM     40  C   UNL A   1      39.765  22.752  26.859  1.00  0.00     0.251 C 
ATOM     41  H   UNL A   1      38.186  21.470  26.804  1.00  0.00     0.163 HD
ATOM     42  O   UNL A   1      40.653  21.977  27.191  1.00  0.00    -0.269 OA
BRANCH  40  43
ATOM     43  C   UNL A   1      39.922  24.207  27.086  1.00  0.00     0.039 A 
ATOM     44  C   UNL A   1      40.541  24.959  26.076  1.00  0.00     0.014 A 
ATOM     45  C   UNL A   1      39.800  24.709  28.373  1.00  0.00     0.014 A 
ATOM     46  C   UNL A   1      41.251  26.103  26.415  1.00  0.00     0.010 A 
ATOM     47  C   UNL A   1      40.633  25.731  28.738  1.00  0.00     0.010 A 
ATOM     48  C   UNL A   1      41.379  26.403  27.762  1.00  0.00    -0.014 A 
BRANCH  48  49
ATOM     49  C   UNL A   1      42.190  27.465  28.315  1.00  0.00     0.031 A 
ATOM     50  C   UNL A   1      41.493  28.710  28.685  1.00  0.00     0.074 A 
ATOM     51  C   UNL A   1      43.429  27.151  28.750  1.00  0.00     0.049 A 
ATOM     52  N   UNL A   1      42.080  29.788  29.053  1.00  0.00    -0.248 NA
ATOM     53  C   UNL A   1      40.038  28.844  28.642  1.00  0.00     0.031 C 
ATOM     54  C   UNL A   1      44.224  27.833  29.762  1.00  0.00     0.029 A 
ATOM     55  N   UNL A   1      44.302  26.206  28.208  1.00  0.00    -0.354 N 
ATOM     56  C   UNL A   1      41.123  30.621  29.595  1.00  0.00     0.074 A 
ATOM     57  C   UNL A   1      39.863  30.034  29.219  1.00  0.00     0.031 C 
ATOM     58  C   UNL A   1      45.515  27.492  29.608  1.00  0.00     0.029 A 
ATOM     59  C   UNL A   1      45.604  26.716  28.382  1.00  0.00     0.049 A 
ATOM     60  H   UNL A   1      44.056  25.350  27.788  1.00  0.00     0.167 HD
ATOM     61  C   UNL A   1      41.546  31.618  30.424  1.00  0.00     0.037 A 
ATOM     62  C   UNL A   1      46.338  27.091  27.289  1.00  0.00     0.037 A 
ATOM     63  C   UNL A   1      43.010  31.641  30.441  1.00  0.00     0.049 A 
ATOM     64  C   UNL A   1      46.633  28.575  27.263  1.00  0.00     0.074 A 
ATOM     65  C   UNL A   1      43.942  31.114  31.318  1.00  0.00     0.029 A 
ATOM     66  N   UNL A   1      43.692  31.953  29.273  1.00  0.00    -0.354 N 
ATOM     67  N   UNL A   1      45.903  29.478  27.859  1.00  0.00    -0.248 NA
ATOM     68  C   UNL A   1      47.812  29.150  26.624  1.00  0.00     0.031 C 
ATOM     69  C   UNL A   1      45.191  31.066  30.647  1.00  0.00     0.029 A 
ATOM     70  C   UNL A   1      45.016  31.581  29.372  1.00  0.00     0.049 A 
ATOM     71  H   UNL A   1      43.287  32.382  28.484  1.00  0.00     0.167 HD
ATOM     72  C   UNL A   1      46.485  30.715  27.720  1.00  0.00     0.074 A 
ATOM     73  C   UNL A   1      47.681  30.450  26.942  1.00  0.00     0.031 C 
ATOM     74  C   UNL A   1      45.942  31.842  28.279  1.00  0.00     0.037 A 
BRANCH  61  75
ATOM     75  C   UNL A   1      40.706  32.400  31.417  1.00  0.00     0.058 A 
ATOM     76  C   UNL A   1      40.372  31.815  32.662  1.00  0.00     0.135 A 
ATOM     77  C   UNL A   1      40.156  33.683  31.218  1.00  0.00     0.135 A 
ATOM     78  F   UNL A   1      40.862  30.626  33.036  1.00  0.00    -0.206 F 
ATOM     79  C   UNL A   1      39.514  32.411  33.587  1.00  0.00     0.059 A 
ATOM     80  C   UNL A   1      39.277  34.293  32.120  1.00  0.00     0.059 A 
ATOM     81  F   UNL A   1      40.470  34.436  30.161  1.00  0.00    -0.206 F 
ATOM     82  C   UNL A   1      38.953  33.645  33.301  1.00  0.00     0.060 A 
BRANCH  82  83
ATOM     83  S   UNL A   1      37.839  34.389  34.502  1.00  0.00     0.124 S 
ATOM     84  O   UNL A   1      36.903  35.110  33.643  1.00  0.00    -0.237 OA
ATOM     85  O   UNL A   1      37.302  33.220  35.187  1.00  0.00    -0.237 OA
ATOM     86  O   UNL A   1      38.719  35.234  35.306  1.00  0.00    -0.744 OA
ENDBRANCH  82  83
ENDBRANCH  61  75
BRANCH  62  87
ATOM     87  C   UNL A   1      46.079  26.208  26.111  1.00  0.00     0.058 A 
ATOM     88  C   UNL A   1      46.806  24.999  26.058  1.00  0.00     0.135 A 
ATOM     89  C   UNL A   1      44.854  26.251  25.427  1.00  0.00     0.135 A 
ATOM     90  F   UNL A   1      47.999  24.910  26.669  1.00  0.00    -0.206 F 
ATOM     91  C   UNL A   1      46.249  23.831  25.549  1.00  0.00     0.059 A 
ATOM     92  C   UNL A   1      44.285  25.090  24.893  1.00  0.00     0.059 A 
ATOM     93  F   UNL A   1      44.123  27.375  25.420  1.00  0.00    -0.206 F 
ATOM     94  C   UNL A   1      44.953  23.873  25.042  1.00  0.00     0.060 A 
BRANCH  94  95
ATOM     95  S   UNL A   1      44.107  22.294  24.769  1.00  0.00     0.124 S 
ATOM     96  O   UNL A   1      42.710  22.657  24.985  1.00  0.00    -0.237 OA
ATOM     97  O   UNL A   1      44.472  21.993  23.384  1.00  0.00    -0.237 OA
ATOM     98  O   UNL A   1      44.692  21.423  25.780  1.00  0.00    -0.744 OA
ENDBRANCH  94  95
ENDBRANCH  62  87
BRANCH  74  99
ATOM     99  C   UNL A   1      46.275  33.292  27.959  1.00  0.00     0.058 A 
ATOM    100  C   UNL A   1      47.483  33.928  28.288  1.00  0.00     0.135 A 
ATOM    101  C   UNL A   1      45.398  34.073  27.153  1.00  0.00     0.135 A 
ATOM    102  F   UNL A   1      48.466  33.288  28.931  1.00  0.00    -0.206 F 
ATOM    103  C   UNL A   1      47.764  35.249  27.925  1.00  0.00     0.059 A 
ATOM    104  C   UNL A   1      45.691  35.362  26.716  1.00  0.00     0.059 A 
ATOM    105  F   UNL A   1      44.212  33.611  26.733  1.00  0.00    -0.206 F 
ATOM    106  C   UNL A   1      46.863  35.958  27.138  1.00  0.00     0.060 A 
BRANCH 106 107
ATOM    107  S   UNL A   1      47.251  37.643  26.644  1.00  0.00     0.124 S 
ATOM    108  O   UNL A   1      48.053  38.098  27.777  1.00  0.00    -0.237 OA
ATOM    109  O   UNL A   1      47.979  37.445  25.395  1.00  0.00    -0.237 OA
ATOM    110  O   UNL A   1      45.941  38.268  26.505  1.00  0.00    -0.744 OA
ENDBRANCH 106 107
ENDBRANCH  74  99
ENDBRANCH  48  49
ENDBRANCH  40  43
ENDBRANCH  38  39
ENDBRANCH  37  38
ENDBRANCH  36  37
ENDBRANCH   1  36
TORSDOF 20
ENDMDL
MODEL 3
REMARK VINA RESULT:     -11.8      4.260      9.051
REMARK SMILES Cc1ccc(NC(=O)CN2C(=O)S/C(=C\c3cc(Cl)c(OCC(=O)NCCCCNC(=O)c4ccc(-c5c6nc(c(-c7c(F)cc(S(=O)(=O)[O-])cc7F)c7ccc([nH]7)c(-c7c(F)cc(S(=O)(=O)[O-])cc7F)c7nc(c(-c8c(F)cc(S(=O)(=O)[O-])cc8F)c8ccc5[nH]8)C=C7)C=C6)cc4)c(Cl)c3)C2=O)cc1
REMARK SMILES IDX 26 1 25 2 23 3 24 4 22 6 21 7 20 8 16 9 17 10 101 11 18 12
REMARK SMILES IDX 99 13 19 14 100 15 15 16 10 17 11 18 102 19 12 20 13 21
REMARK SMILES IDX 14 22 103 23 9 24 7 25 6 26 8 28 5 29 1 30 2 31 3 32 105 33
REMARK SMILES IDX 4 34 104 35 27 36 28 37 29 38 30 39 31 40 32 42 33 43 34 44
REMARK SMILES IDX 98 45 35 46 97 47 36 48 37 49 38 50 91 51 39 52 96 53 90 54
REMARK SMILES IDX 92 55 40 56 95 57 89 58 88 59 41 61 75 62 54 63 74 64 55 65
REMARK SMILES IDX 58 66 73 67 93 68 56 69 57 70 72 72 94 73 59 74 42 75 43 76
REMARK SMILES IDX 52 77 44 78 45 79 51 80 53 81 46 82 47 83 48 84 49 85 50 86
REMARK SMILES IDX 76 87 77 88 86 89 78 90 79 91 85 92 87 93 80 94 81 95 82 96
REMARK SMILES IDX 83 97 84 98 60 99 61 100 70 101 62 102 63 103 69 104 71 105
REMARK SMILES IDX 64 106 65 107 66 108 67 109 68 110
REMARK H PARENT 25 5 6 27 30 41 92 60 58 71
REMARK Flexibility Score: inf
ROOT
ATOM      1  C   UNL A   1      34.806  31.966  31.546  1.00  0.00     0.116 C 
ENDROOT
BRANCH   1   2
ATOM      2  N   UNL A   1      34.239  33.285  31.333  1.00  0.00    -0.353 N 
ATOM      3  C   UNL A   1      34.658  34.283  30.504  1.00  0.00     0.257 C 
ATOM      4  O   UNL A   1      33.934  35.274  30.390  1.00  0.00    -0.271 OA
ATOM      5  H   UNL A   1      33.436  33.488  31.864  1.00  0.00     0.163 HD
BRANCH   3   6
ATOM      6  C   UNL A   1      35.966  34.130  29.710  1.00  0.00     0.329 C 
BRANCH   6   7
ATOM      7  O   UNL A   1      35.916  33.638  28.383  1.00  0.00    -0.481 OA
BRANCH   7   8
ATOM      8  C   UNL A   1      35.313  32.456  28.047  1.00  0.00     0.157 A 
ATOM      9  C   UNL A   1      34.399  29.817  27.400  1.00  0.00    -0.021 A 
ATOM     10  C   UNL A   1      35.702  30.014  27.837  1.00  0.00     0.032 A 
ATOM     11  C   UNL A   1      33.584  30.946  27.264  1.00  0.00     0.032 A 
ATOM     12  C   UNL A   1      36.149  31.315  28.149  1.00  0.00     0.085 A 
ATOM     13  C   UNL A   1      33.993  32.231  27.649  1.00  0.00     0.085 A 
ATOM     14  Cl  UNL A   1      37.787  31.456  28.711  1.00  0.00    -0.080 Cl
ATOM     15  Cl  UNL A   1      32.695  33.366  27.719  1.00  0.00    -0.080 Cl
BRANCH   9  16
ATOM     16  C   UNL A   1      33.859  28.490  27.029  1.00  0.00     0.029 C 
ATOM     17  N   UNL A   1      33.063  26.999  23.892  1.00  0.00    -0.259 N 
ATOM     18  C   UNL A   1      33.070  28.284  23.413  1.00  0.00     0.294 C 
ATOM     19  C   UNL A   1      33.145  26.871  25.266  1.00  0.00     0.268 C 
ATOM     20  O   UNL A   1      33.355  28.663  22.293  1.00  0.00    -0.261 OA
ATOM     21  S   UNL A   1      32.677  29.386  24.707  1.00  0.00    -0.022 SA
ATOM     22  C   UNL A   1      33.208  28.236  25.879  1.00  0.00     0.083 C 
ATOM     23  O   UNL A   1      33.293  25.829  25.889  1.00  0.00    -0.268 OA
BRANCH  17  24
ATOM     24  C   UNL A   1      33.421  25.904  23.003  1.00  0.00     0.230 C 
BRANCH  24  25
ATOM     25  C   UNL A   1      32.228  25.354  22.214  1.00  0.00     0.244 C 
ATOM     26  N   UNL A   1      31.520  24.273  22.659  1.00  0.00    -0.325 N 
ATOM     27  H   UNL A   1      30.565  24.285  22.418  1.00  0.00     0.169 HD
ATOM     28  O   UNL A   1      31.869  25.895  21.163  1.00  0.00    -0.273 OA
BRANCH  26  29
ATOM     29  C   UNL A   1      31.918  23.153  23.399  1.00  0.00     0.041 A 
ATOM     30  C   UNL A   1      32.772  19.597  25.690  1.00  0.00     0.044 C 
ATOM     31  C   UNL A   1      32.463  20.838  24.907  1.00  0.00    -0.051 A 
ATOM     32  C   UNL A   1      33.009  21.005  23.632  1.00  0.00     0.005 A 
ATOM     33  C   UNL A   1      31.632  21.836  25.422  1.00  0.00     0.005 A 
ATOM     34  C   UNL A   1      32.737  22.152  22.883  1.00  0.00     0.026 A 
ATOM     35  C   UNL A   1      31.351  22.980  24.667  1.00  0.00     0.026 A 
ENDBRANCH  26  29
ENDBRANCH  24  25
ENDBRANCH  17  24
ENDBRANCH   9  16
ENDBRANCH   7   8
ENDBRANCH   6   7
ENDBRANCH   3   6
ENDBRANCH   1   2
BRANCH   1  36
ATOM     36  C   UNL A   1      35.921  31.942  32.594  1.00  0.00     0.023 C 
BRANCH  36  37
ATOM     37  C   UNL A   1      37.035  30.927  32.359  1.00  0.00     0.023 C 
BRANCH  37  38
ATOM     38  C   UNL A   1      37.886  30.602  33.577  1.00  0.00     0.116 C 
BRANCH  38  39
ATOM     39  N   UNL A   1      38.226  29.196  33.740  1.00  0.00    -0.352 N 
ATOM     40  C   UNL A   1      38.580  28.307  32.729  1.00  0.00     0.251 C 
ATOM     41  H   UNL A   1      38.201  28.838  34.656  1.00  0.00     0.163 HD
ATOM     42  O   UNL A   1      38.354  27.106  32.794  1.00  0.00    -0.269 OA
BRANCH  40  43
ATOM     43  C   UNL A   1      39.431  28.848  31.644  1.00  0.00     0.039 A 
ATOM     44  C   UNL A   1      38.992  28.669  30.324  1.00  0.00     0.014 A 
ATOM     45  C   UNL A   1      40.751  29.173  31.917  1.00  0.00     0.014 A 
ATOM     46  C   UNL A   1      39.926  28.575  29.301  1.00  0.00     0.010 A 
ATOM     47  C   UNL A   1      41.683  28.911  30.950  1.00  0.00     0.010 A 
ATOM     48  C   UNL A   1      41.267  28.583  29.653  1.00  0.00    -0.014 A 
BRANCH  48  49
ATOM     49  C   UNL A   1      42.376  28.357  28.753  1.00  0.00     0.031 A 
ATOM     50  C   UNL A   1      42.898  26.981  28.675  1.00  0.00     0.074 A 
ATOM     51  C   UNL A   1      42.640  29.304  27.829  1.00  0.00     0.049 A 
ATOM     52  N   UNL A   1      43.958  26.642  28.038  1.00  0.00    -0.248 NA
ATOM     53  C   UNL A   1      42.260  25.853  29.352  1.00  0.00     0.031 C 
ATOM     54  C   UNL A   1      43.300  29.141  26.540  1.00  0.00     0.029 A 
ATOM     55  N   UNL A   1      42.500  30.686  27.969  1.00  0.00    -0.354 N 
ATOM     56  C   UNL A   1      43.964  25.265  27.940  1.00  0.00     0.074 A 
ATOM     57  C   UNL A   1      42.950  24.822  28.860  1.00  0.00     0.031 C 
ATOM     58  C   UNL A   1      43.746  30.338  26.122  1.00  0.00     0.029 A 
ATOM     59  C   UNL A   1      43.535  31.273  27.215  1.00  0.00     0.049 A 
ATOM     60  H   UNL A   1      41.811  31.158  28.491  1.00  0.00     0.167 HD
ATOM     61  C   UNL A   1      44.736  24.704  26.967  1.00  0.00     0.037 A 
ATOM     62  C   UNL A   1      44.542  31.947  27.851  1.00  0.00     0.037 A 
ATOM     63  C   UNL A   1      45.513  25.752  26.303  1.00  0.00     0.049 A 
ATOM     64  C   UNL A   1      45.891  31.283  27.679  1.00  0.00     0.074 A 
ATOM     65  C   UNL A   1      45.317  26.457  25.127  1.00  0.00     0.029 A 
ATOM     66  N   UNL A   1      46.465  26.450  27.033  1.00  0.00    -0.354 N 
ATOM     67  N   UNL A   1      46.056  30.012  27.429  1.00  0.00    -0.248 NA
ATOM     68  C   UNL A   1      47.155  32.011  27.705  1.00  0.00     0.031 C 
ATOM     69  C   UNL A   1      46.128  27.619  25.178  1.00  0.00     0.029 A 
ATOM     70  C   UNL A   1      46.828  27.607  26.375  1.00  0.00     0.049 A 
ATOM     71  H   UNL A   1      46.831  26.160  27.900  1.00  0.00     0.167 HD
ATOM     72  C   UNL A   1      47.391  29.743  27.242  1.00  0.00     0.074 A 
ATOM     73  C   UNL A   1      48.033  31.033  27.421  1.00  0.00     0.031 C 
ATOM     74  C   UNL A   1      47.843  28.488  26.932  1.00  0.00     0.037 A 
BRANCH  61  75
ATOM     75  C   UNL A   1      44.630  23.294  26.414  1.00  0.00     0.058 A 
ATOM     76  C   UNL A   1      45.808  22.588  26.071  1.00  0.00     0.135 A 
ATOM     77  C   UNL A   1      43.439  22.589  26.148  1.00  0.00     0.135 A 
ATOM     78  F   UNL A   1      47.027  23.090  26.316  1.00  0.00    -0.206 F 
ATOM     79  C   UNL A   1      45.805  21.337  25.454  1.00  0.00     0.059 A 
ATOM     80  C   UNL A   1      43.408  21.343  25.511  1.00  0.00     0.059 A 
ATOM     81  F   UNL A   1      42.243  23.045  26.526  1.00  0.00    -0.206 F 
ATOM     82  C   UNL A   1      44.596  20.726  25.159  1.00  0.00     0.060 A 
BRANCH  82  83
ATOM     83  S   UNL A   1      44.615  19.119  24.350  1.00  0.00     0.124 S 
ATOM     84  O   UNL A   1      44.443  19.483  22.946  1.00  0.00    -0.237 OA
ATOM     85  O   UNL A   1      45.929  18.605  24.718  1.00  0.00    -0.237 OA
ATOM     86  O   UNL A   1      43.480  18.422  24.953  1.00  0.00    -0.744 OA
ENDBRANCH  82  83
ENDBRANCH  61  75
BRANCH  62  87
ATOM     87  C   UNL A   1      44.050  32.677  29.061  1.00  0.00     0.058 A 
ATOM     88  C   UNL A   1      43.398  33.908  28.831  1.00  0.00     0.135 A 
ATOM     89  C   UNL A   1      43.728  31.990  30.241  1.00  0.00     0.135 A 
ATOM     90  F   UNL A   1      43.689  34.623  27.732  1.00  0.00    -0.206 F 
ATOM     91  C   UNL A   1      42.325  34.325  29.612  1.00  0.00     0.059 A 
ATOM     92  C   UNL A   1      42.664  32.404  31.050  1.00  0.00     0.059 A 
ATOM     93  F   UNL A   1      44.326  30.825  30.531  1.00  0.00    -0.206 F 
ATOM     94  C   UNL A   1      41.916  33.521  30.672  1.00  0.00     0.060 A 
BRANCH  94  95
ATOM     95  S   UNL A   1      40.296  33.862  31.407  1.00  0.00     0.124 S 
ATOM     96  O   UNL A   1      40.659  34.581  32.623  1.00  0.00    -0.237 OA
ATOM     97  O   UNL A   1      39.657  34.669  30.365  1.00  0.00    -0.237 OA
ATOM     98  O   UNL A   1      39.734  32.532  31.608  1.00  0.00    -0.744 OA
ENDBRANCH  94  95
ENDBRANCH  62  87
BRANCH  74  99
ATOM     99  C   UNL A   1      49.272  27.970  27.008  1.00  0.00     0.058 A 
ATOM    100  C   UNL A   1      49.981  27.744  28.199  1.00  0.00     0.135 A 
ATOM    101  C   UNL A   1      49.947  27.537  25.830  1.00  0.00     0.135 A 
ATOM    102  F   UNL A   1      49.436  27.976  29.400  1.00  0.00    -0.206 F 
ATOM    103  C   UNL A   1      51.274  27.216  28.220  1.00  0.00     0.059 A 
ATOM    104  C   UNL A   1      51.204  26.939  25.835  1.00  0.00     0.059 A 
ATOM    105  F   UNL A   1      49.405  27.661  24.611  1.00  0.00    -0.206 F 
ATOM    106  C   UNL A   1      51.878  26.815  27.033  1.00  0.00     0.060 A 
BRANCH 106 107
ATOM    107  S   UNL A   1      53.528  26.100  27.074  1.00  0.00     0.124 S 
ATOM    108  O   UNL A   1      54.305  27.129  26.388  1.00  0.00    -0.237 OA
ATOM    109  O   UNL A   1      53.779  25.968  28.506  1.00  0.00    -0.237 OA
ATOM    110  O   UNL A   1      53.372  24.841  26.355  1.00  0.00    -0.744 OA
ENDBRANCH 106 107
ENDBRANCH  74  99
ENDBRANCH  48  49
ENDBRANCH  40  43
ENDBRANCH  38  39
ENDBRANCH  37  38
ENDBRANCH  36  37
ENDBRANCH   1  36
TORSDOF 20
ENDMDL
