MODEL 1
REMARK VINA RESULT:     -11.0      0.000      0.000
REMARK SMILES COc1cc2[nH]nc(CC(=O)NCCCCNC(=O)c3ccc(-c4c5nc(c(-c6c(F)cc(S(=O)(=O)[O-])cc6F)c6ccc([nH]6)c(-c6c(F)cc(S(=O)(=O)[O-])cc6F)c6nc(c(-c7c(F)cc(S(=O)(=O)[O-])cc7F)c7ccc4[nH]7)C=C6)C=C5)cc3)c2cc1OC(C)C
REMARK SMILES IDX 14 1 13 2 12 3 10 4 11 5 9 7 8 8 3 9 4 10 88 11 5 12 87 13
REMARK SMILES IDX 6 14 86 15 7 16 2 18 1 19 89 20 90 21 91 22 92 23 15 24
REMARK SMILES IDX 16 25 17 26 18 27 19 29 20 30 21 31 85 32 22 33 84 34 23 35
REMARK SMILES IDX 24 36 25 37 78 38 26 39 83 40 77 41 79 42 27 43 82 44 76 45
REMARK SMILES IDX 75 46 28 48 62 49 41 50 61 51 42 52 45 53 60 54 80 55 43 56
REMARK SMILES IDX 44 57 59 59 81 60 46 61 29 62 30 63 39 64 31 65 32 66 38 67
REMARK SMILES IDX 40 68 33 69 34 70 35 71 36 72 37 73 63 74 64 75 73 76 65 77
REMARK SMILES IDX 66 78 72 79 74 80 67 81 68 82 69 83 70 84 71 85 47 86 48 87
REMARK SMILES IDX 57 88 49 89 50 90 56 91 58 92 51 93 52 94 53 95 54 96 55 97
REMARK H PARENT 12 6 6 17 17 28 79 47 45 58
REMARK Flexibility Score: inf
ROOT
ATOM      1  C   UNL A   1      32.427  29.407  25.140  1.00  0.00     0.023 C 
ENDROOT
BRANCH   1   2
ATOM      2  C   UNL A   1      31.856  28.990  23.783  1.00  0.00     0.116 C 
BRANCH   2   3
ATOM      3  N   UNL A   1      32.866  28.416  22.920  1.00  0.00    -0.356 N 
ATOM      4  C   UNL A   1      32.872  27.214  22.265  1.00  0.00     0.226 C 
ATOM      5  O   UNL A   1      33.853  26.954  21.562  1.00  0.00    -0.275 OA
ATOM      6  H   UNL A   1      33.667  28.971  22.783  1.00  0.00     0.163 HD
BRANCH   4   7
ATOM      7  C   UNL A   1      31.662  26.297  22.296  1.00  0.00     0.158 C 
BRANCH   7   8
ATOM      8  C   UNL A   1      31.441  25.619  23.605  1.00  0.00     0.079 A 
ATOM      9  C   UNL A   1      33.758  23.689  26.518  1.00  0.00     0.162 A 
ATOM     10  C   UNL A   1      32.351  23.808  26.560  1.00  0.00     0.078 A 
ATOM     11  C   UNL A   1      34.498  24.224  25.455  1.00  0.00     0.162 A 
ATOM     12  C   UNL A   1      31.724  24.501  25.518  1.00  0.00     0.069 A 
ATOM     13  C   UNL A   1      33.829  24.952  24.456  1.00  0.00     0.062 A 
ATOM     14  N   UNL A   1      30.408  24.755  25.240  1.00  0.00    -0.277 N 
ATOM     15  C   UNL A   1      32.429  25.073  24.472  1.00  0.00     0.027 A 
ATOM     16  N   UNL A   1      30.210  25.459  24.112  1.00  0.00    -0.179 NA
ATOM     17  H   UNL A   1      29.670  24.450  25.816  1.00  0.00     0.190 HD
BRANCH   9  18
ATOM     18  O   UNL A   1      34.383  22.945  27.483  1.00  0.00    -0.493 OA
ATOM     19  C   UNL A   1      34.113  21.547  27.417  1.00  0.00     0.278 C 
ENDBRANCH   9  18
BRANCH  11  20
ATOM     20  O   UNL A   1      35.829  24.122  25.165  1.00  0.00    -0.487 OA
BRANCH  20  21
ATOM     21  C   UNL A   1      36.495  22.930  24.760  1.00  0.00     0.167 C 
ATOM     22  C   UNL A   1      36.673  22.814  23.248  1.00  0.00     0.052 C 
ATOM     23  C   UNL A   1      37.688  22.554  25.637  1.00  0.00     0.052 C 
ENDBRANCH  20  21
ENDBRANCH  11  20
ENDBRANCH   7   8
ENDBRANCH   4   7
ENDBRANCH   2   3
ENDBRANCH   1   2
BRANCH   1  24
ATOM     24  C   UNL A   1      33.359  28.376  25.778  1.00  0.00     0.023 C 
BRANCH  24  25
ATOM     25  C   UNL A   1      33.650  28.590  27.260  1.00  0.00     0.116 C 
BRANCH  25  26
ATOM     26  N   UNL A   1      33.612  29.988  27.660  1.00  0.00    -0.352 N 
ATOM     27  C   UNL A   1      34.614  30.739  28.238  1.00  0.00     0.251 C 
ATOM     28  H   UNL A   1      32.762  30.459  27.496  1.00  0.00     0.163 HD
ATOM     29  O   UNL A   1      34.398  31.879  28.614  1.00  0.00    -0.269 OA
BRANCH  27  30
ATOM     30  C   UNL A   1      35.945  30.122  28.431  1.00  0.00     0.039 A 
ATOM     31  C   UNL A   1      36.865  30.155  27.380  1.00  0.00     0.014 A 
ATOM     32  C   UNL A   1      36.298  29.568  29.664  1.00  0.00     0.014 A 
ATOM     33  C   UNL A   1      38.172  29.708  27.593  1.00  0.00     0.010 A 
ATOM     34  C   UNL A   1      37.614  29.180  29.891  1.00  0.00     0.010 A 
ATOM     35  C   UNL A   1      38.567  29.259  28.863  1.00  0.00    -0.014 A 
BRANCH  35  36
ATOM     36  C   UNL A   1      39.974  28.886  29.159  1.00  0.00     0.031 A 
ATOM     37  C   UNL A   1      40.922  29.916  29.704  1.00  0.00     0.074 A 
ATOM     38  C   UNL A   1      40.422  27.655  28.840  1.00  0.00     0.049 A 
ATOM     39  N   UNL A   1      42.216  29.842  29.874  1.00  0.00    -0.248 NA
ATOM     40  C   UNL A   1      40.339  31.215  30.079  1.00  0.00     0.031 C 
ATOM     41  C   UNL A   1      39.608  26.577  28.272  1.00  0.00     0.029 A 
ATOM     42  N   UNL A   1      41.679  27.109  28.922  1.00  0.00    -0.354 N 
ATOM     43  C   UNL A   1      42.607  31.087  30.350  1.00  0.00     0.074 A 
ATOM     44  C   UNL A   1      41.418  31.910  30.408  1.00  0.00     0.031 C 
ATOM     45  C   UNL A   1      40.385  25.501  28.062  1.00  0.00     0.029 A 
ATOM     46  C   UNL A   1      41.758  25.825  28.436  1.00  0.00     0.049 A 
ATOM     47  H   UNL A   1      42.453  27.594  29.293  1.00  0.00     0.167 HD
ATOM     48  C   UNL A   1      43.843  31.500  30.719  1.00  0.00     0.037 A 
ATOM     49  C   UNL A   1      42.818  25.006  28.291  1.00  0.00     0.037 A 
ATOM     50  C   UNL A   1      45.014  30.665  30.689  1.00  0.00     0.049 A 
ATOM     51  C   UNL A   1      44.182  25.487  28.708  1.00  0.00     0.074 A 
ATOM     52  C   UNL A   1      46.300  30.976  31.094  1.00  0.00     0.029 A 
ATOM     53  N   UNL A   1      45.044  29.357  30.231  1.00  0.00    -0.354 N 
ATOM     54  N   UNL A   1      44.527  26.653  29.200  1.00  0.00    -0.248 NA
ATOM     55  C   UNL A   1      45.300  24.545  28.552  1.00  0.00     0.031 C 
ATOM     56  C   UNL A   1      47.115  29.864  30.850  1.00  0.00     0.029 A 
ATOM     57  C   UNL A   1      46.327  28.848  30.332  1.00  0.00     0.049 A 
ATOM     58  H   UNL A   1      44.265  28.862  29.886  1.00  0.00     0.167 HD
ATOM     59  C   UNL A   1      45.894  26.573  29.442  1.00  0.00     0.074 A 
ATOM     60  C   UNL A   1      46.314  25.247  29.043  1.00  0.00     0.031 C 
ATOM     61  C   UNL A   1      46.723  27.515  29.954  1.00  0.00     0.037 A 
BRANCH  48  62
ATOM     62  C   UNL A   1      43.990  32.920  31.189  1.00  0.00     0.058 A 
ATOM     63  C   UNL A   1      44.217  33.973  30.289  1.00  0.00     0.135 A 
ATOM     64  C   UNL A   1      43.869  33.238  32.552  1.00  0.00     0.135 A 
ATOM     65  F   UNL A   1      44.355  33.723  28.977  1.00  0.00    -0.206 F 
ATOM     66  C   UNL A   1      44.351  35.287  30.725  1.00  0.00     0.059 A 
ATOM     67  C   UNL A   1      43.974  34.548  33.008  1.00  0.00     0.059 A 
ATOM     68  F   UNL A   1      43.650  32.269  33.454  1.00  0.00    -0.206 F 
ATOM     69  C   UNL A   1      44.231  35.564  32.088  1.00  0.00     0.060 A 
BRANCH  69  70
ATOM     70  S   UNL A   1      44.409  37.273  32.639  1.00  0.00     0.124 S 
ATOM     71  O   UNL A   1      43.201  37.447  33.439  1.00  0.00    -0.237 OA
ATOM     72  O   UNL A   1      45.662  37.235  33.385  1.00  0.00    -0.237 OA
ATOM     73  O   UNL A   1      44.449  38.030  31.391  1.00  0.00    -0.744 OA
ENDBRANCH  69  70
ENDBRANCH  48  62
BRANCH  49  74
ATOM     74  C   UNL A   1      42.629  23.640  27.735  1.00  0.00     0.058 A 
ATOM     75  C   UNL A   1      42.646  23.420  26.349  1.00  0.00     0.135 A 
ATOM     76  C   UNL A   1      42.448  22.528  28.571  1.00  0.00     0.135 A 
ATOM     77  F   UNL A   1      42.810  24.454  25.510  1.00  0.00    -0.206 F 
ATOM     78  C   UNL A   1      42.477  22.150  25.811  1.00  0.00     0.059 A 
ATOM     79  C   UNL A   1      42.299  21.243  28.057  1.00  0.00     0.059 A 
ATOM     80  F   UNL A   1      42.440  22.683  29.904  1.00  0.00    -0.206 F 
ATOM     81  C   UNL A   1      42.307  21.065  26.673  1.00  0.00     0.060 A 
BRANCH  81  82
ATOM     82  S   UNL A   1      42.141  19.412  25.965  1.00  0.00     0.124 S 
ATOM     83  O   UNL A   1      40.702  19.330  25.747  1.00  0.00    -0.237 OA
ATOM     84  O   UNL A   1      42.965  19.509  24.764  1.00  0.00    -0.237 OA
ATOM     85  O   UNL A   1      42.674  18.545  27.011  1.00  0.00    -0.744 OA
ENDBRANCH  81  82
ENDBRANCH  49  74
BRANCH  61  86
ATOM     86  C   UNL A   1      48.163  27.142  30.165  1.00  0.00     0.058 A 
ATOM     87  C   UNL A   1      49.121  27.301  29.155  1.00  0.00     0.135 A 
ATOM     88  C   UNL A   1      48.602  26.714  31.429  1.00  0.00     0.135 A 
ATOM     89  F   UNL A   1      48.750  27.699  27.928  1.00  0.00    -0.206 F 
ATOM     90  C   UNL A   1      50.469  27.052  29.390  1.00  0.00     0.059 A 
ATOM     91  C   UNL A   1      49.948  26.479  31.692  1.00  0.00     0.059 A 
ATOM     92  F   UNL A   1      47.723  26.553  32.431  1.00  0.00    -0.206 F 
ATOM     93  C   UNL A   1      50.874  26.649  30.665  1.00  0.00     0.060 A 
BRANCH  93  94
ATOM     94  S   UNL A   1      52.635  26.406  30.980  1.00  0.00     0.124 S 
ATOM     95  O   UNL A   1      52.639  25.109  31.648  1.00  0.00    -0.237 OA
ATOM     96  O   UNL A   1      53.201  26.428  29.634  1.00  0.00    -0.237 OA
ATOM     97  O   UNL A   1      52.991  27.547  31.819  1.00  0.00    -0.744 OA
ENDBRANCH  93  94
ENDBRANCH  61  86
ENDBRANCH  35  36
ENDBRANCH  27  30
ENDBRANCH  25  26
ENDBRANCH  24  25
ENDBRANCH   1  24
TORSDOF 18
ENDMDL
MODEL 2
REMARK VINA RESULT:     -10.4      4.891     10.539
REMARK SMILES COc1cc2[nH]nc(CC(=O)NCCCCNC(=O)c3ccc(-c4c5nc(c(-c6c(F)cc(S(=O)(=O)[O-])cc6F)c6ccc([nH]6)c(-c6c(F)cc(S(=O)(=O)[O-])cc6F)c6nc(c(-c7c(F)cc(S(=O)(=O)[O-])cc7F)c7ccc4[nH]7)C=C6)C=C5)cc3)c2cc1OC(C)C
REMARK SMILES IDX 14 1 13 2 12 3 10 4 11 5 9 7 8 8 3 9 4 10 88 11 5 12 87 13
REMARK SMILES IDX 6 14 86 15 7 16 2 18 1 19 89 20 90 21 91 22 92 23 15 24
REMARK SMILES IDX 16 25 17 26 18 27 19 29 20 30 21 31 85 32 22 33 84 34 23 35
REMARK SMILES IDX 24 36 25 37 78 38 26 39 83 40 77 41 79 42 27 43 82 44 76 45
REMARK SMILES IDX 75 46 28 48 62 49 41 50 61 51 42 52 45 53 60 54 80 55 43 56
REMARK SMILES IDX 44 57 59 59 81 60 46 61 29 62 30 63 39 64 31 65 32 66 38 67
REMARK SMILES IDX 40 68 33 69 34 70 35 71 36 72 37 73 63 74 64 75 73 76 65 77
REMARK SMILES IDX 66 78 72 79 74 80 67 81 68 82 69 83 70 84 71 85 47 86 48 87
REMARK SMILES IDX 57 88 49 89 50 90 56 91 58 92 51 93 52 94 53 95 54 96 55 97
REMARK H PARENT 12 6 6 17 17 28 79 47 45 58
REMARK Flexibility Score: inf
ROOT
ATOM      1  C   UNL A   1      35.770  23.562  26.064  1.00  0.00     0.023 C 
ENDROOT
BRANCH   1   2
ATOM      2  C   UNL A   1      34.973  22.493  26.812  1.00  0.00     0.116 C 
BRANCH   2   3
ATOM      3  N   UNL A   1      33.703  22.997  27.294  1.00  0.00    -0.356 N 
ATOM      4  C   UNL A   1      32.682  23.589  26.602  1.00  0.00     0.226 C 
ATOM      5  O   UNL A   1      31.679  23.921  27.241  1.00  0.00    -0.275 OA
ATOM      6  H   UNL A   1      33.553  22.899  28.262  1.00  0.00     0.163 HD
BRANCH   4   7
ATOM      7  C   UNL A   1      32.727  23.713  25.089  1.00  0.00     0.158 C 
BRANCH   7   8
ATOM      8  C   UNL A   1      31.635  24.548  24.511  1.00  0.00     0.079 A 
ATOM      9  C   UNL A   1      30.841  28.623  23.922  1.00  0.00     0.162 A 
ATOM     10  C   UNL A   1      29.949  27.576  23.599  1.00  0.00     0.078 A 
ATOM     11  C   UNL A   1      32.095  28.356  24.488  1.00  0.00     0.162 A 
ATOM     12  C   UNL A   1      30.371  26.262  23.838  1.00  0.00     0.069 A 
ATOM     13  C   UNL A   1      32.493  27.020  24.667  1.00  0.00     0.062 A 
ATOM     14  N   UNL A   1      29.752  25.052  23.682  1.00  0.00    -0.277 N 
ATOM     15  C   UNL A   1      31.618  25.964  24.362  1.00  0.00     0.027 A 
ATOM     16  N   UNL A   1      30.505  23.998  24.045  1.00  0.00    -0.179 NA
ATOM     17  H   UNL A   1      28.836  24.959  23.334  1.00  0.00     0.190 HD
BRANCH   9  18
ATOM     18  O   UNL A   1      30.416  29.916  23.773  1.00  0.00    -0.493 OA
ATOM     19  C   UNL A   1      29.085  30.046  23.283  1.00  0.00     0.278 C 
ENDBRANCH   9  18
BRANCH  11  20
ATOM     20  O   UNL A   1      33.044  29.209  24.976  1.00  0.00    -0.487 OA
BRANCH  20  21
ATOM     21  C   UNL A   1      33.261  29.501  26.352  1.00  0.00     0.167 C 
ATOM     22  C   UNL A   1      32.032  29.265  27.227  1.00  0.00     0.052 C 
ATOM     23  C   UNL A   1      34.607  29.015  26.889  1.00  0.00     0.052 C 
ENDBRANCH  20  21
ENDBRANCH  11  20
ENDBRANCH   7   8
ENDBRANCH   4   7
ENDBRANCH   2   3
ENDBRANCH   1   2
BRANCH   1  24
ATOM     24  C   UNL A   1      37.252  23.230  25.873  1.00  0.00     0.023 C 
BRANCH  24  25
ATOM     25  C   UNL A   1      38.226  24.307  26.339  1.00  0.00     0.116 C 
BRANCH  25  26
ATOM     26  N   UNL A   1      39.622  23.919  26.207  1.00  0.00    -0.352 N 
ATOM     27  C   UNL A   1      40.733  24.531  26.748  1.00  0.00     0.251 C 
ATOM     28  H   UNL A   1      39.796  23.117  25.663  1.00  0.00     0.163 HD
ATOM     29  O   UNL A   1      41.856  24.147  26.462  1.00  0.00    -0.269 OA
BRANCH  27  30
ATOM     30  C   UNL A   1      40.541  25.690  27.648  1.00  0.00     0.039 A 
ATOM     31  C   UNL A   1      39.561  25.620  28.640  1.00  0.00     0.014 A 
ATOM     32  C   UNL A   1      41.366  26.812  27.546  1.00  0.00     0.014 A 
ATOM     33  C   UNL A   1      39.463  26.643  29.588  1.00  0.00     0.010 A 
ATOM     34  C   UNL A   1      41.309  27.798  28.525  1.00  0.00     0.010 A 
ATOM     35  C   UNL A   1      40.366  27.717  29.563  1.00  0.00    -0.014 A 
BRANCH  35  36
ATOM     36  C   UNL A   1      40.371  28.762  30.618  1.00  0.00     0.031 A 
ATOM     37  C   UNL A   1      41.282  28.622  31.805  1.00  0.00     0.074 A 
ATOM     38  C   UNL A   1      39.483  29.775  30.562  1.00  0.00     0.049 A 
ATOM     39  N   UNL A   1      41.323  29.328  32.904  1.00  0.00    -0.248 NA
ATOM     40  C   UNL A   1      42.258  27.521  31.759  1.00  0.00     0.031 C 
ATOM     41  C   UNL A   1      38.521  30.000  29.480  1.00  0.00     0.029 A 
ATOM     42  N   UNL A   1      39.226  30.792  31.448  1.00  0.00    -0.354 N 
ATOM     43  C   UNL A   1      42.307  28.745  33.692  1.00  0.00     0.074 A 
ATOM     44  C   UNL A   1      42.814  27.604  32.960  1.00  0.00     0.031 C 
ATOM     45  C   UNL A   1      37.784  31.087  29.764  1.00  0.00     0.029 A 
ATOM     46  C   UNL A   1      38.188  31.610  31.065  1.00  0.00     0.049 A 
ATOM     47  H   UNL A   1      39.736  30.923  32.280  1.00  0.00     0.167 HD
ATOM     48  C   UNL A   1      42.756  29.134  34.909  1.00  0.00     0.037 A 
ATOM     49  C   UNL A   1      37.613  32.651  31.699  1.00  0.00     0.037 A 
ATOM     50  C   UNL A   1      42.269  30.289  35.617  1.00  0.00     0.049 A 
ATOM     51  C   UNL A   1      38.129  33.066  33.051  1.00  0.00     0.074 A 
ATOM     52  C   UNL A   1      42.698  30.796  36.830  1.00  0.00     0.029 A 
ATOM     53  N   UNL A   1      41.246  31.115  35.176  1.00  0.00    -0.354 N 
ATOM     54  N   UNL A   1      39.093  32.531  33.762  1.00  0.00    -0.248 NA
ATOM     55  C   UNL A   1      37.483  34.223  33.687  1.00  0.00     0.031 C 
ATOM     56  C   UNL A   1      41.913  31.913  37.138  1.00  0.00     0.029 A 
ATOM     57  C   UNL A   1      41.022  32.124  36.097  1.00  0.00     0.049 A 
ATOM     58  H   UNL A   1      40.754  31.002  34.331  1.00  0.00     0.167 HD
ATOM     59  C   UNL A   1      39.190  33.305  34.912  1.00  0.00     0.074 A 
ATOM     60  C   UNL A   1      38.188  34.345  34.805  1.00  0.00     0.031 C 
ATOM     61  C   UNL A   1      40.038  33.168  35.961  1.00  0.00     0.037 A 
BRANCH  48  62
ATOM     62  C   UNL A   1      43.831  28.304  35.552  1.00  0.00     0.058 A 
ATOM     63  C   UNL A   1      43.524  27.261  36.439  1.00  0.00     0.135 A 
ATOM     64  C   UNL A   1      45.184  28.532  35.252  1.00  0.00     0.135 A 
ATOM     65  F   UNL A   1      42.247  27.010  36.771  1.00  0.00    -0.206 F 
ATOM     66  C   UNL A   1      44.520  26.493  37.032  1.00  0.00     0.059 A 
ATOM     67  C   UNL A   1      46.197  27.759  35.814  1.00  0.00     0.059 A 
ATOM     68  F   UNL A   1      45.534  29.516  34.409  1.00  0.00    -0.206 F 
ATOM     69  C   UNL A   1      45.855  26.752  36.715  1.00  0.00     0.060 A 
BRANCH  69  70
ATOM     70  S   UNL A   1      47.136  25.747  37.493  1.00  0.00     0.124 S 
ATOM     71  O   UNL A   1      46.425  25.217  38.653  1.00  0.00    -0.237 OA
ATOM     72  O   UNL A   1      47.455  24.779  36.450  1.00  0.00    -0.237 OA
ATOM     73  O   UNL A   1      48.190  26.713  37.792  1.00  0.00    -0.744 OA
ENDBRANCH  69  70
ENDBRANCH  48  62
BRANCH  49  74
ATOM     74  C   UNL A   1      36.490  33.382  31.055  1.00  0.00     0.058 A 
ATOM     75  C   UNL A   1      36.715  34.210  29.945  1.00  0.00     0.135 A 
ATOM     76  C   UNL A   1      35.172  33.256  31.521  1.00  0.00     0.135 A 
ATOM     77  F   UNL A   1      37.959  34.367  29.468  1.00  0.00    -0.206 F 
ATOM     78  C   UNL A   1      35.677  34.896  29.325  1.00  0.00     0.059 A 
ATOM     79  C   UNL A   1      34.113  33.916  30.904  1.00  0.00     0.059 A 
ATOM     80  F   UNL A   1      34.902  32.464  32.570  1.00  0.00    -0.206 F 
ATOM     81  C   UNL A   1      34.377  34.741  29.811  1.00  0.00     0.060 A 
BRANCH  81  82
ATOM     82  S   UNL A   1      33.028  35.597  28.966  1.00  0.00     0.124 S 
ATOM     83  O   UNL A   1      32.446  34.518  28.178  1.00  0.00    -0.237 OA
ATOM     84  O   UNL A   1      32.223  36.079  30.084  1.00  0.00    -0.237 OA
ATOM     85  O   UNL A   1      33.716  36.636  28.207  1.00  0.00    -0.744 OA
ENDBRANCH  81  82
ENDBRANCH  49  74
BRANCH  61  86
ATOM     86  C   UNL A   1      39.965  34.189  37.061  1.00  0.00     0.058 A 
ATOM     87  C   UNL A   1      40.511  35.472  36.912  1.00  0.00     0.135 A 
ATOM     88  C   UNL A   1      39.251  33.908  38.237  1.00  0.00     0.135 A 
ATOM     89  F   UNL A   1      41.209  35.786  35.810  1.00  0.00    -0.206 F 
ATOM     90  C   UNL A   1      40.349  36.444  37.893  1.00  0.00     0.059 A 
ATOM     91  C   UNL A   1      39.060  34.872  39.221  1.00  0.00     0.059 A 
ATOM     92  F   UNL A   1      38.705  32.695  38.422  1.00  0.00    -0.206 F 
ATOM     93  C   UNL A   1      39.614  36.138  39.041  1.00  0.00     0.060 A 
BRANCH  93  94
ATOM     94  S   UNL A   1      39.343  37.432  40.270  1.00  0.00     0.124 S 
ATOM     95  O   UNL A   1      40.710  37.848  40.566  1.00  0.00    -0.237 OA
ATOM     96  O   UNL A   1      38.532  38.398  39.534  1.00  0.00    -0.237 OA
ATOM     97  O   UNL A   1      38.650  36.737  41.350  1.00  0.00    -0.744 OA
ENDBRANCH  93  94
ENDBRANCH  61  86
ENDBRANCH  35  36
ENDBRANCH  27  30
ENDBRANCH  25  26
ENDBRANCH  24  25
ENDBRANCH   1  24
TORSDOF 18
ENDMDL
MODEL 3
REMARK VINA RESULT:     -10.4      5.113     10.070
REMARK SMILES COc1cc2[nH]nc(CC(=O)NCCCCNC(=O)c3ccc(-c4c5nc(c(-c6c(F)cc(S(=O)(=O)[O-])cc6F)c6ccc([nH]6)c(-c6c(F)cc(S(=O)(=O)[O-])cc6F)c6nc(c(-c7c(F)cc(S(=O)(=O)[O-])cc7F)c7ccc4[nH]7)C=C6)C=C5)cc3)c2cc1OC(C)C
REMARK SMILES IDX 14 1 13 2 12 3 10 4 11 5 9 7 8 8 3 9 4 10 88 11 5 12 87 13
REMARK SMILES IDX 6 14 86 15 7 16 2 18 1 19 89 20 90 21 91 22 92 23 15 24
REMARK SMILES IDX 16 25 17 26 18 27 19 29 20 30 21 31 85 32 22 33 84 34 23 35
REMARK SMILES IDX 24 36 25 37 78 38 26 39 83 40 77 41 79 42 27 43 82 44 76 45
REMARK SMILES IDX 75 46 28 48 62 49 41 50 61 51 42 52 45 53 60 54 80 55 43 56
REMARK SMILES IDX 44 57 59 59 81 60 46 61 29 62 30 63 39 64 31 65 32 66 38 67
REMARK SMILES IDX 40 68 33 69 34 70 35 71 36 72 37 73 63 74 64 75 73 76 65 77
REMARK SMILES IDX 66 78 72 79 74 80 67 81 68 82 69 83 70 84 71 85 47 86 48 87
REMARK SMILES IDX 57 88 49 89 50 90 56 91 58 92 51 93 52 94 53 95 54 96 55 97
REMARK H PARENT 12 6 6 17 17 28 79 47 45 58
REMARK Flexibility Score: inf
ROOT
ATOM      1  C   UNL A   1      41.345  21.525  26.717  1.00  0.00     0.023 C 
ENDROOT
BRANCH   1   2
ATOM      2  C   UNL A   1      39.873  21.199  26.458  1.00  0.00     0.116 C 
BRANCH   2   3
ATOM      3  N   UNL A   1      39.028  22.369  26.570  1.00  0.00    -0.356 N 
ATOM      4  C   UNL A   1      38.007  22.788  25.761  1.00  0.00     0.226 C 
ATOM      5  O   UNL A   1      37.415  23.823  26.081  1.00  0.00    -0.275 OA
ATOM      6  H   UNL A   1      39.214  22.949  27.344  1.00  0.00     0.163 HD
BRANCH   4   7
ATOM      7  C   UNL A   1      37.537  21.943  24.590  1.00  0.00     0.158 C 
BRANCH   7   8
ATOM      8  C   UNL A   1      36.100  21.552  24.655  1.00  0.00     0.079 A 
ATOM      9  C   UNL A   1      32.423  23.050  23.306  1.00  0.00     0.162 A 
ATOM     10  C   UNL A   1      32.576  21.890  24.097  1.00  0.00     0.078 A 
ATOM     11  C   UNL A   1      33.534  23.808  22.911  1.00  0.00     0.162 A 
ATOM     12  C   UNL A   1      33.876  21.508  24.451  1.00  0.00     0.069 A 
ATOM     13  C   UNL A   1      34.822  23.359  23.251  1.00  0.00     0.062 A 
ATOM     14  N   UNL A   1      34.359  20.487  25.223  1.00  0.00    -0.277 N 
ATOM     15  C   UNL A   1      34.997  22.214  24.045  1.00  0.00     0.027 A 
ATOM     16  N   UNL A   1      35.700  20.467  25.333  1.00  0.00    -0.179 NA
ATOM     17  H   UNL A   1      33.778  19.823  25.660  1.00  0.00     0.190 HD
BRANCH   9  18
ATOM     18  O   UNL A   1      31.158  23.487  23.019  1.00  0.00    -0.493 OA
ATOM     19  C   UNL A   1      30.564  24.286  24.039  1.00  0.00     0.278 C 
ENDBRANCH   9  18
BRANCH  11  20
ATOM     20  O   UNL A   1      33.600  25.005  22.256  1.00  0.00    -0.487 OA
BRANCH  20  21
ATOM     21  C   UNL A   1      33.465  26.285  22.865  1.00  0.00     0.167 C 
ATOM     22  C   UNL A   1      32.261  27.077  22.360  1.00  0.00     0.052 C 
ATOM     23  C   UNL A   1      33.726  26.291  24.371  1.00  0.00     0.052 C 
ENDBRANCH  20  21
ENDBRANCH  11  20
ENDBRANCH   7   8
ENDBRANCH   4   7
ENDBRANCH   2   3
ENDBRANCH   1   2
BRANCH   1  24
ATOM     24  C   UNL A   1      41.609  22.263  28.031  1.00  0.00     0.023 C 
BRANCH  24  25
ATOM     25  C   UNL A   1      42.370  23.578  27.898  1.00  0.00     0.116 C 
BRANCH  25  26
ATOM     26  N   UNL A   1      42.258  24.179  26.577  1.00  0.00    -0.352 N 
ATOM     27  C   UNL A   1      41.784  25.431  26.246  1.00  0.00     0.251 C 
ATOM     28  H   UNL A   1      42.560  23.621  25.824  1.00  0.00     0.163 HD
ATOM     29  O   UNL A   1      41.654  25.758  25.078  1.00  0.00    -0.269 OA
BRANCH  27  30
ATOM     30  C   UNL A   1      41.395  26.357  27.334  1.00  0.00     0.039 A 
ATOM     31  C   UNL A   1      40.309  26.026  28.146  1.00  0.00     0.014 A 
ATOM     32  C   UNL A   1      42.139  27.512  27.581  1.00  0.00     0.014 A 
ATOM     33  C   UNL A   1      40.019  26.813  29.264  1.00  0.00     0.010 A 
ATOM     34  C   UNL A   1      41.887  28.259  28.727  1.00  0.00     0.010 A 
ATOM     35  C   UNL A   1      40.834  27.909  29.587  1.00  0.00    -0.014 A 
BRANCH  35  36
ATOM     36  C   UNL A   1      40.629  28.699  30.828  1.00  0.00     0.031 A 
ATOM     37  C   UNL A   1      39.586  29.780  30.862  1.00  0.00     0.074 A 
ATOM     38  C   UNL A   1      41.450  28.516  31.882  1.00  0.00     0.049 A 
ATOM     39  N   UNL A   1      39.362  30.684  31.780  1.00  0.00    -0.248 NA
ATOM     40  C   UNL A   1      38.696  29.875  29.694  1.00  0.00     0.031 C 
ATOM     41  C   UNL A   1      42.524  27.522  31.957  1.00  0.00     0.029 A 
ATOM     42  N   UNL A   1      41.527  29.176  33.083  1.00  0.00    -0.354 N 
ATOM     43  C   UNL A   1      38.326  31.470  31.292  1.00  0.00     0.074 A 
ATOM     44  C   UNL A   1      37.990  30.959  29.980  1.00  0.00     0.031 C 
ATOM     45  C   UNL A   1      43.148  27.636  33.141  1.00  0.00     0.029 A 
ATOM     46  C   UNL A   1      42.551  28.737  33.891  1.00  0.00     0.049 A 
ATOM     47  H   UNL A   1      40.909  29.898  33.342  1.00  0.00     0.167 HD
ATOM     48  C   UNL A   1      37.703  32.514  31.889  1.00  0.00     0.037 A 
ATOM     49  C   UNL A   1      42.973  29.182  35.091  1.00  0.00     0.037 A 
ATOM     50  C   UNL A   1      38.022  32.996  33.207  1.00  0.00     0.049 A 
ATOM     51  C   UNL A   1      42.265  30.343  35.736  1.00  0.00     0.074 A 
ATOM     52  C   UNL A   1      37.412  34.012  33.921  1.00  0.00     0.029 A 
ATOM     53  N   UNL A   1      39.037  32.496  34.010  1.00  0.00    -0.354 N 
ATOM     54  N   UNL A   1      41.256  31.046  35.280  1.00  0.00    -0.248 NA
ATOM     55  C   UNL A   1      42.750  30.773  37.055  1.00  0.00     0.031 C 
ATOM     56  C   UNL A   1      38.079  34.148  35.143  1.00  0.00     0.029 A 
ATOM     57  C   UNL A   1      39.078  33.189  35.207  1.00  0.00     0.049 A 
ATOM     58  H   UNL A   1      39.638  31.756  33.764  1.00  0.00     0.167 HD
ATOM     59  C   UNL A   1      40.965  31.978  36.269  1.00  0.00     0.074 A 
ATOM     60  C   UNL A   1      41.903  31.752  37.348  1.00  0.00     0.031 C 
ATOM     61  C   UNL A   1      40.003  32.932  36.283  1.00  0.00     0.037 A 
BRANCH  48  62
ATOM     62  C   UNL A   1      36.611  33.204  31.122  1.00  0.00     0.058 A 
ATOM     63  C   UNL A   1      36.896  34.061  30.047  1.00  0.00     0.135 A 
ATOM     64  C   UNL A   1      35.262  32.981  31.442  1.00  0.00     0.135 A 
ATOM     65  F   UNL A   1      38.169  34.320  29.709  1.00  0.00    -0.206 F 
ATOM     66  C   UNL A   1      35.884  34.698  29.337  1.00  0.00     0.059 A 
ATOM     67  C   UNL A   1      34.232  33.587  30.729  1.00  0.00     0.059 A 
ATOM     68  F   UNL A   1      34.934  32.170  32.460  1.00  0.00    -0.206 F 
ATOM     69  C   UNL A   1      34.554  34.457  29.688  1.00  0.00     0.060 A 
BRANCH  69  70
ATOM     70  S   UNL A   1      33.252  35.292  28.757  1.00  0.00     0.124 S 
ATOM     71  O   UNL A   1      32.624  34.169  28.067  1.00  0.00    -0.237 OA
ATOM     72  O   UNL A   1      32.458  35.911  29.813  1.00  0.00    -0.237 OA
ATOM     73  O   UNL A   1      33.988  36.220  27.904  1.00  0.00    -0.744 OA
ENDBRANCH  69  70
ENDBRANCH  48  62
BRANCH  49  74
ATOM     74  C   UNL A   1      44.119  28.518  35.766  1.00  0.00     0.058 A 
ATOM     75  C   UNL A   1      43.907  27.476  36.681  1.00  0.00     0.135 A 
ATOM     76  C   UNL A   1      45.445  28.895  35.501  1.00  0.00     0.135 A 
ATOM     77  F   UNL A   1      42.657  27.084  36.972  1.00  0.00    -0.206 F 
ATOM     78  C   UNL A   1      44.966  26.838  37.318  1.00  0.00     0.059 A 
ATOM     79  C   UNL A   1      46.522  28.258  36.109  1.00  0.00     0.059 A 
ATOM     80  F   UNL A   1      45.701  29.877  34.622  1.00  0.00    -0.206 F 
ATOM     81  C   UNL A   1      46.272  27.235  37.023  1.00  0.00     0.060 A 
BRANCH  81  82
ATOM     82  S   UNL A   1      47.642  26.365  37.816  1.00  0.00     0.124 S 
ATOM     83  O   UNL A   1      48.463  27.475  38.282  1.00  0.00    -0.237 OA
ATOM     84  O   UNL A   1      46.959  25.596  38.852  1.00  0.00    -0.237 OA
ATOM     85  O   UNL A   1      48.207  25.571  36.730  1.00  0.00    -0.744 OA
ENDBRANCH  81  82
ENDBRANCH  49  74
BRANCH  61  86
ATOM     86  C   UNL A   1      39.870  33.779  37.517  1.00  0.00     0.058 A 
ATOM     87  C   UNL A   1      40.546  35.000  37.649  1.00  0.00     0.135 A 
ATOM     88  C   UNL A   1      38.977  33.406  38.535  1.00  0.00     0.135 A 
ATOM     89  F   UNL A   1      41.417  35.396  36.707  1.00  0.00    -0.206 F 
ATOM     90  C   UNL A   1      40.338  35.826  38.748  1.00  0.00     0.059 A 
ATOM     91  C   UNL A   1      38.739  34.226  39.632  1.00  0.00     0.059 A 
ATOM     92  F   UNL A   1      38.302  32.248  38.450  1.00  0.00    -0.206 F 
ATOM     93  C   UNL A   1      39.426  35.435  39.731  1.00  0.00     0.060 A 
BRANCH  93  94
ATOM     94  S   UNL A   1      39.105  36.553  41.112  1.00  0.00     0.124 S 
ATOM     95  O   UNL A   1      38.644  37.752  40.419  1.00  0.00    -0.237 OA
ATOM     96  O   UNL A   1      38.089  35.830  41.872  1.00  0.00    -0.237 OA
ATOM     97  O   UNL A   1      40.405  36.666  41.767  1.00  0.00    -0.744 OA
ENDBRANCH  93  94
ENDBRANCH  61  86
ENDBRANCH  35  36
ENDBRANCH  27  30
ENDBRANCH  25  26
ENDBRANCH  24  25
ENDBRANCH   1  24
TORSDOF 18
ENDMDL
