MODEL 1
REMARK VINA RESULT:     -11.0      0.000      0.000
REMARK SMILES O=C(C[C@@H]([NH2+]Cc1ccccc1)C(=O)NCCCCNC(=O)c1ccc(-c2c3nc(c(-c4c(F)cc(S(=O)(=O)[O-])cc4F)c4ccc([nH]4)c(-c4c(F)cc(S(=O)(=O)[O-])cc4F)c4nc(c(-c5c(F)cc(S(=O)(=O)[O-])cc5F)c5ccc2[nH]5)C=C4)C=C3)cc1)Nc1cccc(Cl)c1Cl
REMARK SMILES IDX 17 1 16 2 15 3 13 4 14 5 4 7 3 8 2 9 1 10 89 11 90 13 91 14
REMARK SMILES IDX 96 15 92 16 94 17 97 18 93 19 95 20 5 21 6 24 7 25 8 26
REMARK SMILES IDX 12 27 9 28 11 29 10 30 18 31 19 32 20 33 21 34 22 36 23 37
REMARK SMILES IDX 24 38 88 39 25 40 87 41 26 42 27 43 28 44 81 45 29 46 86 47
REMARK SMILES IDX 80 48 82 49 30 50 85 51 79 52 78 53 31 55 65 56 44 57 64 58
REMARK SMILES IDX 45 59 48 60 63 61 83 62 46 63 47 64 62 66 84 67 49 68 32 69
REMARK SMILES IDX 33 70 42 71 34 72 35 73 41 74 43 75 36 76 37 77 38 78 39 79
REMARK SMILES IDX 40 80 66 81 67 82 76 83 68 84 69 85 75 86 77 87 70 88 71 89
REMARK SMILES IDX 72 90 73 91 74 92 50 93 51 94 60 95 52 96 53 97 59 98 61 99
REMARK SMILES IDX 54 100 55 101 56 102 57 103 58 104
REMARK H PARENT 15 6 89 12 5 22 5 23 20 35 82 54 48 65
REMARK Flexibility Score: inf
ROOT
ATOM      1  C   UNL A   1      34.911  23.828  23.866  1.00  0.00     0.023 C 
ENDROOT
BRANCH   1   2
ATOM      2  C   UNL A   1      34.399  25.229  24.196  1.00  0.00     0.116 C 
BRANCH   2   3
ATOM      3  N   UNL A   1      33.378  25.640  23.254  1.00  0.00    -0.351 N 
ATOM      4  C   UNL A   1      32.036  25.799  23.429  1.00  0.00     0.278 C 
ATOM      5  O   UNL A   1      31.367  26.140  22.450  1.00  0.00    -0.268 OA
ATOM      6  H   UNL A   1      33.705  25.833  22.345  1.00  0.00     0.163 HD
BRANCH   4   7
ATOM      7  C   UNL A   1      31.374  25.603  24.808  1.00  0.00     0.282 C 
BRANCH   7   8
ATOM      8  C   UNL A   1      30.674  26.896  25.251  1.00  0.00     0.175 C 
BRANCH   8   9
ATOM      9  C   UNL A   1      31.472  27.660  26.280  1.00  0.00     0.230 C 
ATOM     10  O   UNL A   1      31.236  27.578  27.481  1.00  0.00    -0.274 OA
ATOM     11  N   UNL A   1      32.420  28.496  25.707  1.00  0.00    -0.325 N 
ATOM     12  H   UNL A   1      32.485  28.529  24.725  1.00  0.00     0.169 HD
BRANCH  11  13
ATOM     13  C   UNL A   1      33.295  29.300  26.464  1.00  0.00     0.061 A 
ATOM     14  C   UNL A   1      34.475  28.690  26.912  1.00  0.00     0.028 A 
ATOM     15  C   UNL A   1      33.027  30.643  26.799  1.00  0.00     0.083 A 
ATOM     16  C   UNL A   1      35.427  29.427  27.614  1.00  0.00     0.004 A 
ATOM     17  C   UNL A   1      33.981  31.368  27.530  1.00  0.00     0.061 A 
ATOM     18  Cl  UNL A   1      31.463  31.337  26.484  1.00  0.00    -0.080 Cl
ATOM     19  C   UNL A   1      35.183  30.765  27.917  1.00  0.00     0.022 A 
ATOM     20  Cl  UNL A   1      33.732  33.008  28.025  1.00  0.00    -0.083 Cl
ENDBRANCH  11  13
ENDBRANCH   8   9
ENDBRANCH   7   8
BRANCH   7  21
ATOM     21  N   UNL A   1      30.474  24.401  24.822  1.00  0.00    -0.332 N 
ATOM     22  H   UNL A   1      30.344  24.079  23.863  1.00  0.00     0.347 HD
ATOM     23  H   UNL A   1      29.591  24.683  25.247  1.00  0.00     0.347 HD
BRANCH  21  24
ATOM     24  C   UNL A   1      31.026  23.288  25.627  1.00  0.00     0.297 C 
BRANCH  24  25
ATOM     25  C   UNL A   1      31.623  22.207  24.755  1.00  0.00     0.006 A 
ATOM     26  C   UNL A   1      31.612  22.332  23.356  1.00  0.00     0.009 A 
ATOM     27  C   UNL A   1      32.098  21.020  25.328  1.00  0.00     0.009 A 
ATOM     28  C   UNL A   1      32.013  21.270  22.548  1.00  0.00     0.001 A 
ATOM     29  C   UNL A   1      32.514  19.965  24.516  1.00  0.00     0.001 A 
ATOM     30  C   UNL A   1      32.457  20.084  23.129  1.00  0.00     0.000 A 
ENDBRANCH  24  25
ENDBRANCH  21  24
ENDBRANCH   7  21
ENDBRANCH   4   7
ENDBRANCH   2   3
ENDBRANCH   1   2
BRANCH   1  31
ATOM     31  C   UNL A   1      35.308  23.001  25.092  1.00  0.00     0.023 C 
BRANCH  31  32
ATOM     32  C   UNL A   1      36.501  23.539  25.874  1.00  0.00     0.116 C 
BRANCH  32  33
ATOM     33  N   UNL A   1      37.544  22.544  26.064  1.00  0.00    -0.352 N 
ATOM     34  C   UNL A   1      38.853  22.721  26.435  1.00  0.00     0.251 C 
ATOM     35  H   UNL A   1      37.272  21.611  25.905  1.00  0.00     0.163 HD
ATOM     36  O   UNL A   1      39.631  21.770  26.398  1.00  0.00    -0.269 OA
BRANCH  34  37
ATOM     37  C   UNL A   1      39.329  24.059  26.845  1.00  0.00     0.039 A 
ATOM     38  C   UNL A   1      39.225  24.426  28.188  1.00  0.00     0.014 A 
ATOM     39  C   UNL A   1      39.891  24.942  25.917  1.00  0.00     0.014 A 
ATOM     40  C   UNL A   1      39.743  25.650  28.610  1.00  0.00     0.010 A 
ATOM     41  C   UNL A   1      40.479  26.127  26.354  1.00  0.00     0.010 A 
ATOM     42  C   UNL A   1      40.413  26.493  27.706  1.00  0.00    -0.014 A 
BRANCH  42  43
ATOM     43  C   UNL A   1      41.075  27.736  28.180  1.00  0.00     0.031 A 
ATOM     44  C   UNL A   1      42.565  27.910  28.058  1.00  0.00     0.074 A 
ATOM     45  C   UNL A   1      40.327  28.698  28.758  1.00  0.00     0.049 A 
ATOM     46  N   UNL A   1      43.305  28.931  28.407  1.00  0.00    -0.248 NA
ATOM     47  C   UNL A   1      43.326  26.784  27.493  1.00  0.00     0.031 C 
ATOM     48  C   UNL A   1      38.883  28.616  28.994  1.00  0.00     0.029 A 
ATOM     49  N   UNL A   1      40.673  29.930  29.252  1.00  0.00    -0.354 N 
ATOM     50  C   UNL A   1      44.614  28.572  28.107  1.00  0.00     0.074 A 
ATOM     51  C   UNL A   1      44.574  27.217  27.603  1.00  0.00     0.031 C 
ATOM     52  C   UNL A   1      38.462  29.763  29.551  1.00  0.00     0.029 A 
ATOM     53  C   UNL A   1      39.607  30.644  29.749  1.00  0.00     0.049 A 
ATOM     54  H   UNL A   1      41.597  30.271  29.250  1.00  0.00     0.167 HD
ATOM     55  C   UNL A   1      45.744  29.314  28.219  1.00  0.00     0.037 A 
ATOM     56  C   UNL A   1      39.557  31.871  30.303  1.00  0.00     0.037 A 
ATOM     57  C   UNL A   1      45.773  30.668  28.711  1.00  0.00     0.049 A 
ATOM     58  C   UNL A   1      40.824  32.675  30.412  1.00  0.00     0.074 A 
ATOM     59  C   UNL A   1      46.856  31.526  28.806  1.00  0.00     0.029 A 
ATOM     60  N   UNL A   1      44.674  31.361  29.200  1.00  0.00    -0.354 N 
ATOM     61  N   UNL A   1      42.042  32.350  30.046  1.00  0.00    -0.248 NA
ATOM     62  C   UNL A   1      40.708  34.016  30.998  1.00  0.00     0.031 C 
ATOM     63  C   UNL A   1      46.423  32.715  29.403  1.00  0.00     0.029 A 
ATOM     64  C   UNL A   1      45.059  32.624  29.625  1.00  0.00     0.049 A 
ATOM     65  H   UNL A   1      43.756  31.008  29.239  1.00  0.00     0.167 HD
ATOM     66  C   UNL A   1      42.834  33.454  30.341  1.00  0.00     0.074 A 
ATOM     67  C   UNL A   1      41.950  34.464  30.887  1.00  0.00     0.031 C 
ATOM     68  C   UNL A   1      44.171  33.617  30.179  1.00  0.00     0.037 A 
BRANCH  55  69
ATOM     69  C   UNL A   1      47.043  28.681  27.798  1.00  0.00     0.058 A 
ATOM     70  C   UNL A   1      47.500  28.743  26.471  1.00  0.00     0.135 A 
ATOM     71  C   UNL A   1      47.867  28.045  28.741  1.00  0.00     0.135 A 
ATOM     72  F   UNL A   1      46.748  29.323  25.523  1.00  0.00    -0.206 F 
ATOM     73  C   UNL A   1      48.714  28.177  26.091  1.00  0.00     0.059 A 
ATOM     74  C   UNL A   1      49.099  27.499  28.390  1.00  0.00     0.059 A 
ATOM     75  F   UNL A   1      47.481  27.955  30.024  1.00  0.00    -0.206 F 
ATOM     76  C   UNL A   1      49.508  27.559  27.058  1.00  0.00     0.060 A 
BRANCH  76  77
ATOM     77  S   UNL A   1      51.085  26.844  26.549  1.00  0.00     0.124 S 
ATOM     78  O   UNL A   1      50.918  26.774  25.100  1.00  0.00    -0.237 OA
ATOM     79  O   UNL A   1      52.044  27.834  27.028  1.00  0.00    -0.237 OA
ATOM     80  O   UNL A   1      51.115  25.559  27.239  1.00  0.00    -0.744 OA
ENDBRANCH  76  77
ENDBRANCH  55  69
BRANCH  56  81
ATOM     81  C   UNL A   1      38.259  32.421  30.778  1.00  0.00     0.058 A 
ATOM     82  C   UNL A   1      37.402  33.113  29.908  1.00  0.00     0.135 A 
ATOM     83  C   UNL A   1      37.846  32.261  32.110  1.00  0.00     0.135 A 
ATOM     84  F   UNL A   1      37.752  33.297  28.627  1.00  0.00    -0.206 F 
ATOM     85  C   UNL A   1      36.193  33.645  30.346  1.00  0.00     0.059 A 
ATOM     86  C   UNL A   1      36.628  32.757  32.563  1.00  0.00     0.059 A 
ATOM     87  F   UNL A   1      38.620  31.592  32.980  1.00  0.00    -0.206 F 
ATOM     88  C   UNL A   1      35.814  33.459  31.676  1.00  0.00     0.060 A 
BRANCH  88  89
ATOM     89  S   UNL A   1      34.223  34.116  32.223  1.00  0.00     0.124 S 
ATOM     90  O   UNL A   1      33.627  34.530  30.958  1.00  0.00    -0.237 OA
ATOM     91  O   UNL A   1      33.617  32.955  32.866  1.00  0.00    -0.237 OA
ATOM     92  O   UNL A   1      34.600  35.198  33.128  1.00  0.00    -0.744 OA
ENDBRANCH  88  89
ENDBRANCH  56  81
BRANCH  68  93
ATOM     93  C   UNL A   1      44.752  34.946  30.582  1.00  0.00     0.058 A 
ATOM     94  C   UNL A   1      44.825  36.024  29.684  1.00  0.00     0.135 A 
ATOM     95  C   UNL A   1      45.237  35.147  31.885  1.00  0.00     0.135 A 
ATOM     96  F   UNL A   1      44.380  35.886  28.425  1.00  0.00    -0.206 F 
ATOM     97  C   UNL A   1      45.402  37.236  30.048  1.00  0.00     0.059 A 
ATOM     98  C   UNL A   1      45.786  36.363  32.280  1.00  0.00     0.059 A 
ATOM     99  F   UNL A   1      45.179  34.157  32.790  1.00  0.00    -0.206 F 
ATOM    100  C   UNL A   1      45.885  37.394  31.348  1.00  0.00     0.060 A 
BRANCH 100 101
ATOM    101  S   UNL A   1      46.639  38.969  31.806  1.00  0.00     0.124 S 
ATOM    102  O   UNL A   1      47.746  39.050  30.857  1.00  0.00    -0.237 OA
ATOM    103  O   UNL A   1      45.548  39.914  31.589  1.00  0.00    -0.237 OA
ATOM    104  O   UNL A   1      47.022  38.770  33.200  1.00  0.00    -0.744 OA
ENDBRANCH 100 101
ENDBRANCH  68  93
ENDBRANCH  42  43
ENDBRANCH  34  37
ENDBRANCH  32  33
ENDBRANCH  31  32
ENDBRANCH   1  31
TORSDOF 20
ENDMDL
MODEL 2
REMARK VINA RESULT:     -10.8      2.717      3.981
REMARK SMILES O=C(C[C@@H]([NH2+]Cc1ccccc1)C(=O)NCCCCNC(=O)c1ccc(-c2c3nc(c(-c4c(F)cc(S(=O)(=O)[O-])cc4F)c4ccc([nH]4)c(-c4c(F)cc(S(=O)(=O)[O-])cc4F)c4nc(c(-c5c(F)cc(S(=O)(=O)[O-])cc5F)c5ccc2[nH]5)C=C4)C=C3)cc1)Nc1cccc(Cl)c1Cl
REMARK SMILES IDX 17 1 16 2 15 3 13 4 14 5 4 7 3 8 2 9 1 10 89 11 90 13 91 14
REMARK SMILES IDX 96 15 92 16 94 17 97 18 93 19 95 20 5 21 6 24 7 25 8 26
REMARK SMILES IDX 12 27 9 28 11 29 10 30 18 31 19 32 20 33 21 34 22 36 23 37
REMARK SMILES IDX 24 38 88 39 25 40 87 41 26 42 27 43 28 44 81 45 29 46 86 47
REMARK SMILES IDX 80 48 82 49 30 50 85 51 79 52 78 53 31 55 65 56 44 57 64 58
REMARK SMILES IDX 45 59 48 60 63 61 83 62 46 63 47 64 62 66 84 67 49 68 32 69
REMARK SMILES IDX 33 70 42 71 34 72 35 73 41 74 43 75 36 76 37 77 38 78 39 79
REMARK SMILES IDX 40 80 66 81 67 82 76 83 68 84 69 85 75 86 77 87 70 88 71 89
REMARK SMILES IDX 72 90 73 91 74 92 50 93 51 94 60 95 52 96 53 97 59 98 61 99
REMARK SMILES IDX 54 100 55 101 56 102 57 103 58 104
REMARK H PARENT 15 6 89 12 5 22 5 23 20 35 82 54 48 65
REMARK Flexibility Score: inf
ROOT
ATOM      1  C   UNL A   1      36.445  21.133  25.376  1.00  0.00     0.023 C 
ENDROOT
BRANCH   1   2
ATOM      2  C   UNL A   1      35.840  22.536  25.428  1.00  0.00     0.116 C 
BRANCH   2   3
ATOM      3  N   UNL A   1      35.483  22.994  24.101  1.00  0.00    -0.351 N 
ATOM      4  C   UNL A   1      34.305  22.886  23.425  1.00  0.00     0.278 C 
ATOM      5  O   UNL A   1      34.258  23.341  22.280  1.00  0.00    -0.268 OA
ATOM      6  H   UNL A   1      36.203  23.453  23.611  1.00  0.00     0.163 HD
BRANCH   4   7
ATOM      7  C   UNL A   1      33.056  22.255  24.075  1.00  0.00     0.282 C 
BRANCH   7   8
ATOM      8  C   UNL A   1      31.786  22.970  23.592  1.00  0.00     0.175 C 
BRANCH   8   9
ATOM      9  C   UNL A   1      31.539  24.265  24.327  1.00  0.00     0.230 C 
ATOM     10  O   UNL A   1      30.967  24.301  25.412  1.00  0.00    -0.274 OA
ATOM     11  N   UNL A   1      31.957  25.375  23.607  1.00  0.00    -0.325 N 
ATOM     12  H   UNL A   1      32.351  25.236  22.715  1.00  0.00     0.169 HD
BRANCH  11  13
ATOM     13  C   UNL A   1      31.844  26.694  24.091  1.00  0.00     0.061 A 
ATOM     14  C   UNL A   1      30.897  27.512  23.460  1.00  0.00     0.028 A 
ATOM     15  C   UNL A   1      32.637  27.212  25.136  1.00  0.00     0.083 A 
ATOM     16  C   UNL A   1      30.673  28.811  23.914  1.00  0.00     0.004 A 
ATOM     17  C   UNL A   1      32.421  28.530  25.567  1.00  0.00     0.061 A 
ATOM     18  Cl  UNL A   1      33.989  26.307  25.751  1.00  0.00    -0.080 Cl
ATOM     19  C   UNL A   1      31.429  29.316  24.969  1.00  0.00     0.022 A 
ATOM     20  Cl  UNL A   1      33.366  29.273  26.812  1.00  0.00    -0.083 Cl
ENDBRANCH  11  13
ENDBRANCH   8   9
ENDBRANCH   7   8
BRANCH   7  21
ATOM     21  N   UNL A   1      33.019  20.768  23.871  1.00  0.00    -0.332 N 
ATOM     22  H   UNL A   1      33.935  20.460  23.542  1.00  0.00     0.347 HD
ATOM     23  H   UNL A   1      32.288  20.568  23.188  1.00  0.00     0.347 HD
BRANCH  21  24
ATOM     24  C   UNL A   1      32.689  20.032  25.111  1.00  0.00     0.297 C 
BRANCH  24  25
ATOM     25  C   UNL A   1      33.197  18.608  25.073  1.00  0.00     0.006 A 
ATOM     26  C   UNL A   1      34.280  18.261  24.248  1.00  0.00     0.009 A 
ATOM     27  C   UNL A   1      32.526  17.599  25.776  1.00  0.00     0.009 A 
ATOM     28  C   UNL A   1      34.645  16.925  24.087  1.00  0.00     0.001 A 
ATOM     29  C   UNL A   1      32.906  16.266  25.625  1.00  0.00     0.001 A 
ATOM     30  C   UNL A   1      33.953  15.928  24.771  1.00  0.00     0.000 A 
ENDBRANCH  24  25
ENDBRANCH  21  24
ENDBRANCH   7  21
ENDBRANCH   4   7
ENDBRANCH   2   3
ENDBRANCH   1   2
BRANCH   1  31
ATOM     31  C   UNL A   1      37.918  21.101  24.960  1.00  0.00     0.023 C 
BRANCH  31  32
ATOM     32  C   UNL A   1      38.914  21.117  26.115  1.00  0.00     0.116 C 
BRANCH  32  33
ATOM     33  N   UNL A   1      39.829  19.987  26.084  1.00  0.00    -0.352 N 
ATOM     34  C   UNL A   1      41.199  19.980  26.161  1.00  0.00     0.251 C 
ATOM     35  H   UNL A   1      39.406  19.102  25.994  1.00  0.00     0.163 HD
ATOM     36  O   UNL A   1      41.814  18.934  25.965  1.00  0.00    -0.269 OA
BRANCH  34  37
ATOM     37  C   UNL A   1      41.929  21.233  26.447  1.00  0.00     0.039 A 
ATOM     38  C   UNL A   1      42.282  22.061  25.380  1.00  0.00     0.014 A 
ATOM     39  C   UNL A   1      42.249  21.600  27.758  1.00  0.00     0.014 A 
ATOM     40  C   UNL A   1      42.896  23.287  25.634  1.00  0.00     0.010 A 
ATOM     41  C   UNL A   1      42.790  22.858  28.013  1.00  0.00     0.010 A 
ATOM     42  C   UNL A   1      43.118  23.716  26.955  1.00  0.00    -0.014 A 
BRANCH  42  43
ATOM     43  C   UNL A   1      43.656  25.074  27.229  1.00  0.00     0.031 A 
ATOM     44  C   UNL A   1      45.112  25.385  27.009  1.00  0.00     0.074 A 
ATOM     45  C   UNL A   1      42.828  26.021  27.715  1.00  0.00     0.049 A 
ATOM     46  N   UNL A   1      45.747  26.515  27.184  1.00  0.00    -0.248 NA
ATOM     47  C   UNL A   1      45.971  24.279  26.558  1.00  0.00     0.031 C 
ATOM     48  C   UNL A   1      41.411  25.822  28.033  1.00  0.00     0.029 A 
ATOM     49  N   UNL A   1      43.053  27.338  28.026  1.00  0.00    -0.354 N 
ATOM     50  C   UNL A   1      47.076  26.258  26.867  1.00  0.00     0.074 A 
ATOM     51  C   UNL A   1      47.167  24.851  26.546  1.00  0.00     0.031 C 
ATOM     52  C   UNL A   1      40.887  26.983  28.457  1.00  0.00     0.029 A 
ATOM     53  C   UNL A   1      41.935  27.998  28.480  1.00  0.00     0.049 A 
ATOM     54  H   UNL A   1      43.933  27.770  27.932  1.00  0.00     0.167 HD
ATOM     55  C   UNL A   1      48.120  27.123  26.824  1.00  0.00     0.037 A 
ATOM     56  C   UNL A   1      41.769  29.276  28.872  1.00  0.00     0.037 A 
ATOM     57  C   UNL A   1      48.018  28.526  27.133  1.00  0.00     0.049 A 
ATOM     58  C   UNL A   1      42.943  30.215  28.811  1.00  0.00     0.074 A 
ATOM     59  C   UNL A   1      49.002  29.497  27.061  1.00  0.00     0.029 A 
ATOM     60  N   UNL A   1      46.868  29.160  27.584  1.00  0.00    -0.354 N 
ATOM     61  N   UNL A   1      44.175  29.973  28.428  1.00  0.00    -0.248 NA
ATOM     62  C   UNL A   1      42.702  31.603  29.222  1.00  0.00     0.031 C 
ATOM     63  C   UNL A   1      48.463  30.704  27.520  1.00  0.00     0.029 A 
ATOM     64  C   UNL A   1      47.126  30.501  27.821  1.00  0.00     0.049 A 
ATOM     65  H   UNL A   1      45.997  28.721  27.715  1.00  0.00     0.167 HD
ATOM     66  C   UNL A   1      44.851  31.183  28.536  1.00  0.00     0.074 A 
ATOM     67  C   UNL A   1      43.882  32.160  28.991  1.00  0.00     0.031 C 
ATOM     68  C   UNL A   1      46.156  31.462  28.286  1.00  0.00     0.037 A 
BRANCH  55  69
ATOM     69  C   UNL A   1      49.465  26.577  26.422  1.00  0.00     0.058 A 
ATOM     70  C   UNL A   1      49.916  26.627  25.093  1.00  0.00     0.135 A 
ATOM     71  C   UNL A   1      50.336  26.042  27.386  1.00  0.00     0.135 A 
ATOM     72  F   UNL A   1      49.122  27.112  24.127  1.00  0.00    -0.206 F 
ATOM     73  C   UNL A   1      51.170  26.143  24.731  1.00  0.00     0.059 A 
ATOM     74  C   UNL A   1      51.606  25.582  27.051  1.00  0.00     0.059 A 
ATOM     75  F   UNL A   1      49.957  25.969  28.672  1.00  0.00    -0.206 F 
ATOM     76  C   UNL A   1      52.010  25.625  25.717  1.00  0.00     0.060 A 
BRANCH  76  77
ATOM     77  S   UNL A   1      53.638  25.017  25.230  1.00  0.00     0.124 S 
ATOM     78  O   UNL A   1      53.441  23.573  25.298  1.00  0.00    -0.237 OA
ATOM     79  O   UNL A   1      53.789  25.573  23.890  1.00  0.00    -0.237 OA
ATOM     80  O   UNL A   1      54.528  25.577  26.243  1.00  0.00    -0.744 OA
ENDBRANCH  76  77
ENDBRANCH  55  69
BRANCH  56  81
ATOM     81  C   UNL A   1      40.437  29.746  29.337  1.00  0.00     0.058 A 
ATOM     82  C   UNL A   1      39.378  29.934  28.436  1.00  0.00     0.135 A 
ATOM     83  C   UNL A   1      40.193  30.011  30.693  1.00  0.00     0.135 A 
ATOM     84  F   UNL A   1      39.561  29.699  27.128  1.00  0.00    -0.206 F 
ATOM     85  C   UNL A   1      38.133  30.389  28.858  1.00  0.00     0.059 A 
ATOM     86  C   UNL A   1      38.949  30.437  31.144  1.00  0.00     0.059 A 
ATOM     87  F   UNL A   1      41.167  29.830  31.601  1.00  0.00    -0.206 F 
ATOM     88  C   UNL A   1      37.927  30.635  30.217  1.00  0.00     0.060 A 
BRANCH  88  89
ATOM     89  S   UNL A   1      36.295  31.183  30.759  1.00  0.00     0.124 S 
ATOM     90  O   UNL A   1      35.975  30.189  31.776  1.00  0.00    -0.237 OA
ATOM     91  O   UNL A   1      36.571  32.531  31.247  1.00  0.00    -0.237 OA
ATOM     92  O   UNL A   1      35.496  31.118  29.538  1.00  0.00    -0.744 OA
ENDBRANCH  88  89
ENDBRANCH  56  81
BRANCH  68  93
ATOM     93  C   UNL A   1      46.601  32.886  28.483  1.00  0.00     0.058 A 
ATOM     94  C   UNL A   1      47.166  33.324  29.692  1.00  0.00     0.135 A 
ATOM     95  C   UNL A   1      46.466  33.825  27.447  1.00  0.00     0.135 A 
ATOM     96  F   UNL A   1      47.315  32.469  30.717  1.00  0.00    -0.206 F 
ATOM     97  C   UNL A   1      47.536  34.650  29.884  1.00  0.00     0.059 A 
ATOM     98  C   UNL A   1      46.862  35.150  27.606  1.00  0.00     0.059 A 
ATOM     99  F   UNL A   1      45.947  33.460  26.265  1.00  0.00    -0.206 F 
ATOM    100  C   UNL A   1      47.375  35.558  28.836  1.00  0.00     0.060 A 
BRANCH 100 101
ATOM    101  S   UNL A   1      47.851  37.279  29.100  1.00  0.00     0.124 S 
ATOM    102  O   UNL A   1      49.301  37.165  29.229  1.00  0.00    -0.237 OA
ATOM    103  O   UNL A   1      47.372  37.927  27.884  1.00  0.00    -0.237 OA
ATOM    104  O   UNL A   1      47.140  37.645  30.321  1.00  0.00    -0.744 OA
ENDBRANCH 100 101
ENDBRANCH  68  93
ENDBRANCH  42  43
ENDBRANCH  34  37
ENDBRANCH  32  33
ENDBRANCH  31  32
ENDBRANCH   1  31
TORSDOF 20
ENDMDL
MODEL 3
REMARK VINA RESULT:     -10.3      5.111      9.346
REMARK SMILES O=C(C[C@@H]([NH2+]Cc1ccccc1)C(=O)NCCCCNC(=O)c1ccc(-c2c3nc(c(-c4c(F)cc(S(=O)(=O)[O-])cc4F)c4ccc([nH]4)c(-c4c(F)cc(S(=O)(=O)[O-])cc4F)c4nc(c(-c5c(F)cc(S(=O)(=O)[O-])cc5F)c5ccc2[nH]5)C=C4)C=C3)cc1)Nc1cccc(Cl)c1Cl
REMARK SMILES IDX 17 1 16 2 15 3 13 4 14 5 4 7 3 8 2 9 1 10 89 11 90 13 91 14
REMARK SMILES IDX 96 15 92 16 94 17 97 18 93 19 95 20 5 21 6 24 7 25 8 26
REMARK SMILES IDX 12 27 9 28 11 29 10 30 18 31 19 32 20 33 21 34 22 36 23 37
REMARK SMILES IDX 24 38 88 39 25 40 87 41 26 42 27 43 28 44 81 45 29 46 86 47
REMARK SMILES IDX 80 48 82 49 30 50 85 51 79 52 78 53 31 55 65 56 44 57 64 58
REMARK SMILES IDX 45 59 48 60 63 61 83 62 46 63 47 64 62 66 84 67 49 68 32 69
REMARK SMILES IDX 33 70 42 71 34 72 35 73 41 74 43 75 36 76 37 77 38 78 39 79
REMARK SMILES IDX 40 80 66 81 67 82 76 83 68 84 69 85 75 86 77 87 70 88 71 89
REMARK SMILES IDX 72 90 73 91 74 92 50 93 51 94 60 95 52 96 53 97 59 98 61 99
REMARK SMILES IDX 54 100 55 101 56 102 57 103 58 104
REMARK H PARENT 15 6 89 12 5 22 5 23 20 35 82 54 48 65
REMARK Flexibility Score: inf
ROOT
ATOM      1  C   UNL A   1      38.382  22.003  25.738  1.00  0.00     0.023 C 
ENDROOT
BRANCH   1   2
ATOM      2  C   UNL A   1      37.490  21.263  24.742  1.00  0.00     0.116 C 
BRANCH   2   3
ATOM      3  N   UNL A   1      36.822  22.195  23.856  1.00  0.00    -0.351 N 
ATOM      4  C   UNL A   1      35.497  22.478  23.720  1.00  0.00     0.278 C 
ATOM      5  O   UNL A   1      35.173  23.306  22.864  1.00  0.00    -0.268 OA
ATOM      6  H   UNL A   1      37.420  22.700  23.257  1.00  0.00     0.163 HD
BRANCH   4   7
ATOM      7  C   UNL A   1      34.435  21.825  24.627  1.00  0.00     0.282 C 
BRANCH   7   8
ATOM      8  C   UNL A   1      34.275  22.631  25.925  1.00  0.00     0.175 C 
BRANCH   8   9
ATOM      9  C   UNL A   1      33.971  24.086  25.665  1.00  0.00     0.230 C 
ATOM     10  O   UNL A   1      34.852  24.938  25.615  1.00  0.00    -0.274 OA
ATOM     11  N   UNL A   1      32.609  24.338  25.573  1.00  0.00    -0.325 N 
ATOM     12  H   UNL A   1      31.983  23.587  25.689  1.00  0.00     0.169 HD
BRANCH  11  13
ATOM     13  C   UNL A   1      32.079  25.620  25.321  1.00  0.00     0.061 A 
ATOM     14  C   UNL A   1      31.940  26.467  26.430  1.00  0.00     0.028 A 
ATOM     15  C   UNL A   1      31.674  26.059  24.044  1.00  0.00     0.083 A 
ATOM     16  C   UNL A   1      31.484  27.774  26.265  1.00  0.00     0.004 A 
ATOM     17  C   UNL A   1      31.191  27.368  23.896  1.00  0.00     0.061 A 
ATOM     18  Cl  UNL A   1      31.590  24.944  22.711  1.00  0.00    -0.080 Cl
ATOM     19  C   UNL A   1      31.116  28.225  25.000  1.00  0.00     0.022 A 
ATOM     20  Cl  UNL A   1      30.631  27.992  22.380  1.00  0.00    -0.083 Cl
ENDBRANCH  11  13
ENDBRANCH   8   9
ENDBRANCH   7   8
BRANCH   7  21
ATOM     21  N   UNL A   1      33.142  21.607  23.895  1.00  0.00    -0.332 N 
ATOM     22  H   UNL A   1      33.345  21.172  22.995  1.00  0.00     0.347 HD
ATOM     23  H   UNL A   1      32.695  22.517  23.781  1.00  0.00     0.347 HD
BRANCH  21  24
ATOM     24  C   UNL A   1      32.205  20.737  24.642  1.00  0.00     0.297 C 
BRANCH  24  25
ATOM     25  C   UNL A   1      32.509  19.272  24.430  1.00  0.00     0.006 A 
ATOM     26  C   UNL A   1      32.789  18.437  25.524  1.00  0.00     0.009 A 
ATOM     27  C   UNL A   1      32.620  18.754  23.133  1.00  0.00     0.009 A 
ATOM     28  C   UNL A   1      33.226  17.129  25.322  1.00  0.00     0.001 A 
ATOM     29  C   UNL A   1      33.042  17.439  22.935  1.00  0.00     0.001 A 
ATOM     30  C   UNL A   1      33.358  16.633  24.026  1.00  0.00     0.000 A 
ENDBRANCH  24  25
ENDBRANCH  21  24
ENDBRANCH   7  21
ENDBRANCH   4   7
ENDBRANCH   2   3
ENDBRANCH   1   2
BRANCH   1  31
ATOM     31  C   UNL A   1      37.762  23.282  26.305  1.00  0.00     0.023 C 
BRANCH  31  32
ATOM     32  C   UNL A   1      38.668  24.508  26.270  1.00  0.00     0.116 C 
BRANCH  32  33
ATOM     33  N   UNL A   1      40.077  24.163  26.163  1.00  0.00    -0.352 N 
ATOM     34  C   UNL A   1      41.163  24.767  26.744  1.00  0.00     0.251 C 
ATOM     35  H   UNL A   1      40.280  23.386  25.594  1.00  0.00     0.163 HD
ATOM     36  O   UNL A   1      42.297  24.426  26.417  1.00  0.00    -0.269 OA
BRANCH  34  37
ATOM     37  C   UNL A   1      40.965  25.847  27.735  1.00  0.00     0.039 A 
ATOM     38  C   UNL A   1      39.931  25.721  28.664  1.00  0.00     0.014 A 
ATOM     39  C   UNL A   1      41.802  26.967  27.760  1.00  0.00     0.014 A 
ATOM     40  C   UNL A   1      39.778  26.687  29.659  1.00  0.00     0.010 A 
ATOM     41  C   UNL A   1      41.697  27.887  28.801  1.00  0.00     0.010 A 
ATOM     42  C   UNL A   1      40.686  27.756  29.763  1.00  0.00    -0.014 A 
BRANCH  42  43
ATOM     43  C   UNL A   1      40.600  28.714  30.897  1.00  0.00     0.031 A 
ATOM     44  C   UNL A   1      39.588  29.828  30.889  1.00  0.00     0.074 A 
ATOM     45  C   UNL A   1      41.468  28.595  31.921  1.00  0.00     0.049 A 
ATOM     46  N   UNL A   1      39.366  30.743  31.797  1.00  0.00    -0.248 NA
ATOM     47  C   UNL A   1      38.731  29.945  29.699  1.00  0.00     0.031 C 
ATOM     48  C   UNL A   1      42.538  27.597  32.011  1.00  0.00     0.029 A 
ATOM     49  N   UNL A   1      41.592  29.316  33.082  1.00  0.00    -0.354 N 
ATOM     50  C   UNL A   1      38.349  31.543  31.291  1.00  0.00     0.074 A 
ATOM     51  C   UNL A   1      38.038  31.042  29.970  1.00  0.00     0.031 C 
ATOM     52  C   UNL A   1      43.181  27.745  33.179  1.00  0.00     0.029 A 
ATOM     53  C   UNL A   1      42.600  28.869  33.904  1.00  0.00     0.049 A 
ATOM     54  H   UNL A   1      41.011  30.079  33.306  1.00  0.00     0.167 HD
ATOM     55  C   UNL A   1      37.715  32.586  31.883  1.00  0.00     0.037 A 
ATOM     56  C   UNL A   1      43.012  29.315  35.107  1.00  0.00     0.037 A 
ATOM     57  C   UNL A   1      38.024  33.071  33.204  1.00  0.00     0.049 A 
ATOM     58  C   UNL A   1      42.290  30.471  35.743  1.00  0.00     0.074 A 
ATOM     59  C   UNL A   1      37.400  34.081  33.917  1.00  0.00     0.029 A 
ATOM     60  N   UNL A   1      39.048  32.591  34.009  1.00  0.00    -0.354 N 
ATOM     61  N   UNL A   1      41.274  31.163  35.284  1.00  0.00    -0.248 NA
ATOM     62  C   UNL A   1      42.762  30.898  37.066  1.00  0.00     0.031 C 
ATOM     63  C   UNL A   1      38.080  34.249  35.127  1.00  0.00     0.029 A 
ATOM     64  C   UNL A   1      39.091  33.304  35.198  1.00  0.00     0.049 A 
ATOM     65  H   UNL A   1      39.654  31.854  33.771  1.00  0.00     0.167 HD
ATOM     66  C   UNL A   1      40.974  32.096  36.270  1.00  0.00     0.074 A 
ATOM     67  C   UNL A   1      41.897  31.858  37.361  1.00  0.00     0.031 C 
ATOM     68  C   UNL A   1      40.024  33.066  36.272  1.00  0.00     0.037 A 
BRANCH  55  69
ATOM     69  C   UNL A   1      36.620  33.272  31.109  1.00  0.00     0.058 A 
ATOM     70  C   UNL A   1      36.902  34.128  30.032  1.00  0.00     0.135 A 
ATOM     71  C   UNL A   1      35.271  33.032  31.415  1.00  0.00     0.135 A 
ATOM     72  F   UNL A   1      38.172  34.407  29.703  1.00  0.00    -0.206 F 
ATOM     73  C   UNL A   1      35.886  34.741  29.304  1.00  0.00     0.059 A 
ATOM     74  C   UNL A   1      34.239  33.610  30.681  1.00  0.00     0.059 A 
ATOM     75  F   UNL A   1      34.943  32.223  32.435  1.00  0.00    -0.206 F 
ATOM     76  C   UNL A   1      34.557  34.474  29.634  1.00  0.00     0.060 A 
BRANCH  76  77
ATOM     77  S   UNL A   1      33.254  35.266  28.669  1.00  0.00     0.124 S 
ATOM     78  O   UNL A   1      34.030  36.147  27.800  1.00  0.00    -0.237 OA
ATOM     79  O   UNL A   1      32.618  34.129  28.012  1.00  0.00    -0.237 OA
ATOM     80  O   UNL A   1      32.442  35.939  29.678  1.00  0.00    -0.744 OA
ENDBRANCH  76  77
ENDBRANCH  55  69
BRANCH  56  81
ATOM     81  C   UNL A   1      44.153  28.653  35.796  1.00  0.00     0.058 A 
ATOM     82  C   UNL A   1      43.942  27.610  36.710  1.00  0.00     0.135 A 
ATOM     83  C   UNL A   1      45.478  29.046  35.549  1.00  0.00     0.135 A 
ATOM     84  F   UNL A   1      42.695  27.200  36.984  1.00  0.00    -0.206 F 
ATOM     85  C   UNL A   1      45.001  26.995  37.372  1.00  0.00     0.059 A 
ATOM     86  C   UNL A   1      46.554  28.426  36.175  1.00  0.00     0.059 A 
ATOM     87  F   UNL A   1      45.737  30.028  34.669  1.00  0.00    -0.206 F 
ATOM     88  C   UNL A   1      46.305  27.409  37.094  1.00  0.00     0.060 A 
BRANCH  88  89
ATOM     89  S   UNL A   1      47.673  26.575  37.926  1.00  0.00     0.124 S 
ATOM     90  O   UNL A   1      48.803  27.415  37.546  1.00  0.00    -0.237 OA
ATOM     91  O   UNL A   1      47.268  26.642  39.326  1.00  0.00    -0.237 OA
ATOM     92  O   UNL A   1      47.655  25.237  37.341  1.00  0.00    -0.744 OA
ENDBRANCH  88  89
ENDBRANCH  56  81
BRANCH  68  93
ATOM     93  C   UNL A   1      39.927  33.926  37.503  1.00  0.00     0.058 A 
ATOM     94  C   UNL A   1      40.660  35.117  37.632  1.00  0.00     0.135 A 
ATOM     95  C   UNL A   1      39.086  33.559  38.566  1.00  0.00     0.135 A 
ATOM     96  F   UNL A   1      41.483  35.515  36.647  1.00  0.00    -0.206 F 
ATOM     97  C   UNL A   1      40.601  35.887  38.789  1.00  0.00     0.059 A 
ATOM     98  C   UNL A   1      38.985  34.333  39.719  1.00  0.00     0.059 A 
ATOM     99  F   UNL A   1      38.350  32.439  38.492  1.00  0.00    -0.206 F 
ATOM    100  C   UNL A   1      39.764  35.483  39.830  1.00  0.00     0.060 A 
BRANCH 100 101
ATOM    101  S   UNL A   1      39.702  36.485  41.329  1.00  0.00     0.124 S 
ATOM    102  O   UNL A   1      38.905  37.625  40.886  1.00  0.00    -0.237 OA
ATOM    103  O   UNL A   1      39.051  35.589  42.280  1.00  0.00    -0.237 OA
ATOM    104  O   UNL A   1      41.106  36.771  41.606  1.00  0.00    -0.744 OA
ENDBRANCH 100 101
ENDBRANCH  68  93
ENDBRANCH  42  43
ENDBRANCH  34  37
ENDBRANCH  32  33
ENDBRANCH  31  32
ENDBRANCH   1  31
TORSDOF 20
ENDMDL
