MODEL 1
REMARK VINA RESULT:     -14.1      0.000      0.000
REMARK SMILES Cc1c(C(=O)NCCCCNC(=O)c2ccc(-c3c4nc(c(-c5c(F)cc(S(=O)(=O)[O-])cc5F)c5ccc([nH]5)c(-c5c(F)cc(S(=O)(=O)[O-])cc5F)c5nc(c(-c6c(F)cc(S(=O)(=O)[O-])cc6F)c6ccc3[nH]6)C=C5)C=C4)cc2)oc2c1/C(=N/NC(=O)C(c1ccccc1)c1ccccc1)CCC2
REMARK SMILES IDX 8 1 7 2 6 3 4 4 5 5 3 7 1 8 2 9 82 10 80 11 81 12 83 13
REMARK SMILES IDX 103 14 84 15 101 16 102 17 85 18 86 19 87 21 88 22 89 23
REMARK SMILES IDX 90 24 94 25 91 26 93 27 92 28 95 29 96 30 100 31 97 32 99 33
REMARK SMILES IDX 98 34 9 35 10 36 11 37 12 38 13 40 14 41 15 42 79 43 16 44
REMARK SMILES IDX 78 45 17 46 18 47 19 48 72 49 20 50 77 51 71 52 73 53 21 54
REMARK SMILES IDX 76 55 70 56 69 57 22 59 56 60 35 61 55 62 36 63 39 64 54 65
REMARK SMILES IDX 74 66 37 67 38 68 53 70 75 71 40 72 23 73 24 74 33 75 25 76
REMARK SMILES IDX 26 77 32 78 34 79 27 80 28 81 29 82 30 83 31 84 57 85 58 86
REMARK SMILES IDX 67 87 59 88 60 89 66 90 68 91 61 92 62 93 63 94 64 95 65 96
REMARK SMILES IDX 41 97 42 98 51 99 43 100 44 101 50 102 52 103 45 104 46 105
REMARK SMILES IDX 47 106 48 107 49 108
REMARK H PARENT 6 6 85 20 11 39 73 58 39 69
REMARK Flexibility Score: inf
ROOT
ATOM      1  C   UNL A   1      31.775  29.566  26.142  1.00  0.00     0.023 C 
ENDROOT
BRANCH   1   2
ATOM      2  C   UNL A   1      31.792  29.490  24.608  1.00  0.00     0.116 C 
BRANCH   2   3
ATOM      3  N   UNL A   1      30.451  29.384  24.039  1.00  0.00    -0.349 N 
ATOM      4  C   UNL A   1      29.800  28.281  23.510  1.00  0.00     0.287 C 
ATOM      5  O   UNL A   1      28.635  28.422  23.140  1.00  0.00    -0.266 OA
ATOM      6  H   UNL A   1      29.933  30.221  24.030  1.00  0.00     0.163 HD
BRANCH   4   7
ATOM      7  C   UNL A   1      30.503  27.018  23.459  1.00  0.00     0.195 A 
ATOM      8  C   UNL A   1      30.680  26.145  25.899  1.00  0.00     0.049 C 
ATOM      9  C   UNL A   1      30.926  26.114  24.434  1.00  0.00     0.010 A 
ATOM     10  C   UNL A   1      31.791  25.209  23.744  1.00  0.00     0.043 A 
ATOM     11  O   UNL A   1      30.927  26.595  22.236  1.00  0.00    -0.455 OA
ATOM     12  C   UNL A   1      31.790  25.604  22.431  1.00  0.00     0.114 A 
ATOM     13  C   UNL A   1      32.663  24.129  24.173  1.00  0.00     0.072 C 
ATOM     14  C   UNL A   1      32.646  25.210  21.301  1.00  0.00     0.076 C 
ATOM     15  N   UNL A   1      32.304  23.647  25.331  1.00  0.00    -0.177 NA
ATOM     16  C   UNL A   1      33.796  23.925  23.141  1.00  0.00     0.059 C 
ATOM     17  C   UNL A   1      33.330  23.910  21.671  1.00  0.00     0.014 C 
BRANCH  15  18
ATOM     18  N   UNL A   1      32.676  22.664  26.211  1.00  0.00    -0.246 N 
ATOM     19  C   UNL A   1      33.519  21.571  26.189  1.00  0.00     0.252 C 
ATOM     20  H   UNL A   1      32.228  22.763  27.083  1.00  0.00     0.193 HD
ATOM     21  O   UNL A   1      33.548  20.814  27.165  1.00  0.00    -0.272 OA
BRANCH  19  22
ATOM     22  C   UNL A   1      34.394  21.315  24.976  1.00  0.00     0.140 C 
BRANCH  22  23
ATOM     23  C   UNL A   1      35.864  21.839  25.318  1.00  0.00    -0.031 A 
ATOM     24  C   UNL A   1      36.110  23.173  25.767  1.00  0.00     0.005 A 
ATOM     25  C   UNL A   1      37.021  21.067  25.150  1.00  0.00     0.005 A 
ATOM     26  C   UNL A   1      37.353  23.655  26.188  1.00  0.00     0.000 A 
ATOM     27  C   UNL A   1      38.300  21.577  25.501  1.00  0.00     0.000 A 
ATOM     28  C   UNL A   1      38.461  22.848  26.056  1.00  0.00     0.000 A 
ENDBRANCH  22  23
BRANCH  22  29
ATOM     29  C   UNL A   1      33.981  19.887  24.400  1.00  0.00    -0.031 A 
ATOM     30  C   UNL A   1      34.756  18.732  24.572  1.00  0.00     0.005 A 
ATOM     31  C   UNL A   1      32.794  19.691  23.625  1.00  0.00     0.005 A 
ATOM     32  C   UNL A   1      34.317  17.478  24.075  1.00  0.00     0.000 A 
ATOM     33  C   UNL A   1      32.322  18.447  23.199  1.00  0.00     0.000 A 
ATOM     34  C   UNL A   1      33.088  17.328  23.427  1.00  0.00     0.000 A 
ENDBRANCH  22  29
ENDBRANCH  19  22
ENDBRANCH  15  18
ENDBRANCH   4   7
ENDBRANCH   2   3
ENDBRANCH   1   2
BRANCH   1  35
ATOM     35  C   UNL A   1      32.905  28.777  26.813  1.00  0.00     0.023 C 
BRANCH  35  36
ATOM     36  C   UNL A   1      34.268  29.456  26.734  1.00  0.00     0.116 C 
BRANCH  36  37
ATOM     37  N   UNL A   1      34.193  30.897  26.960  1.00  0.00    -0.352 N 
ATOM     38  C   UNL A   1      34.846  31.637  27.933  1.00  0.00     0.251 C 
ATOM     39  H   UNL A   1      33.610  31.403  26.349  1.00  0.00     0.163 HD
ATOM     40  O   UNL A   1      34.423  32.716  28.291  1.00  0.00    -0.269 OA
BRANCH  38  41
ATOM     41  C   UNL A   1      36.081  31.076  28.515  1.00  0.00     0.039 A 
ATOM     42  C   UNL A   1      36.291  29.696  28.564  1.00  0.00     0.014 A 
ATOM     43  C   UNL A   1      37.052  31.969  28.964  1.00  0.00     0.014 A 
ATOM     44  C   UNL A   1      37.534  29.219  28.981  1.00  0.00     0.010 A 
ATOM     45  C   UNL A   1      38.310  31.502  29.263  1.00  0.00     0.010 A 
ATOM     46  C   UNL A   1      38.553  30.128  29.305  1.00  0.00    -0.014 A 
BRANCH  46  47
ATOM     47  C   UNL A   1      39.929  29.662  29.520  1.00  0.00     0.031 A 
ATOM     48  C   UNL A   1      40.304  29.491  30.956  1.00  0.00     0.074 A 
ATOM     49  C   UNL A   1      40.684  29.153  28.518  1.00  0.00     0.049 A 
ATOM     50  N   UNL A   1      41.250  30.075  31.616  1.00  0.00    -0.248 NA
ATOM     51  C   UNL A   1      39.436  28.649  31.802  1.00  0.00     0.031 C 
ATOM     52  C   UNL A   1      40.272  28.965  27.119  1.00  0.00     0.029 A 
ATOM     53  N   UNL A   1      41.914  28.557  28.544  1.00  0.00    -0.354 N 
ATOM     54  C   UNL A   1      41.256  29.477  32.879  1.00  0.00     0.074 A 
ATOM     55  C   UNL A   1      40.006  28.780  33.002  1.00  0.00     0.031 C 
ATOM     56  C   UNL A   1      41.096  28.083  26.516  1.00  0.00     0.029 A 
ATOM     57  C   UNL A   1      42.197  27.794  27.413  1.00  0.00     0.049 A 
ATOM     58  H   UNL A   1      42.543  28.660  29.295  1.00  0.00     0.167 HD
ATOM     59  C   UNL A   1      42.413  29.345  33.587  1.00  0.00     0.037 A 
ATOM     60  C   UNL A   1      43.255  26.970  27.209  1.00  0.00     0.037 A 
ATOM     61  C   UNL A   1      43.452  30.168  33.027  1.00  0.00     0.049 A 
ATOM     62  C   UNL A   1      44.325  27.381  28.145  1.00  0.00     0.074 A 
ATOM     63  C   UNL A   1      43.782  31.505  33.014  1.00  0.00     0.029 A 
ATOM     64  N   UNL A   1      44.148  29.562  32.016  1.00  0.00    -0.354 N 
ATOM     65  N   UNL A   1      44.922  28.539  28.088  1.00  0.00    -0.248 NA
ATOM     66  C   UNL A   1      44.527  26.633  29.381  1.00  0.00     0.031 C 
ATOM     67  C   UNL A   1      44.571  31.708  31.843  1.00  0.00     0.029 A 
ATOM     68  C   UNL A   1      44.733  30.486  31.193  1.00  0.00     0.049 A 
ATOM     69  H   UNL A   1      44.219  28.587  31.897  1.00  0.00     0.167 HD
ATOM     70  C   UNL A   1      45.200  28.843  29.406  1.00  0.00     0.074 A 
ATOM     71  C   UNL A   1      45.110  27.578  30.122  1.00  0.00     0.031 C 
ATOM     72  C   UNL A   1      45.138  30.128  29.853  1.00  0.00     0.037 A 
BRANCH  59  73
ATOM     73  C   UNL A   1      42.776  28.147  34.450  1.00  0.00     0.058 A 
ATOM     74  C   UNL A   1      43.031  28.338  35.827  1.00  0.00     0.135 A 
ATOM     75  C   UNL A   1      43.184  26.897  33.932  1.00  0.00     0.135 A 
ATOM     76  F   UNL A   1      42.699  29.491  36.429  1.00  0.00    -0.206 F 
ATOM     77  C   UNL A   1      43.698  27.389  36.609  1.00  0.00     0.059 A 
ATOM     78  C   UNL A   1      43.802  25.918  34.705  1.00  0.00     0.059 A 
ATOM     79  F   UNL A   1      43.100  26.600  32.631  1.00  0.00    -0.206 F 
ATOM     80  C   UNL A   1      44.091  26.185  36.032  1.00  0.00     0.060 A 
BRANCH  80  81
ATOM     81  S   UNL A   1      45.028  24.992  37.006  1.00  0.00     0.124 S 
ATOM     82  O   UNL A   1      46.374  25.545  36.929  1.00  0.00    -0.237 OA
ATOM     83  O   UNL A   1      44.371  25.080  38.306  1.00  0.00    -0.237 OA
ATOM     84  O   UNL A   1      44.816  23.737  36.289  1.00  0.00    -0.744 OA
ENDBRANCH  80  81
ENDBRANCH  59  73
BRANCH  60  85
ATOM     85  C   UNL A   1      43.340  25.725  26.405  1.00  0.00     0.058 A 
ATOM     86  C   UNL A   1      44.319  25.569  25.408  1.00  0.00     0.135 A 
ATOM     87  C   UNL A   1      42.657  24.556  26.795  1.00  0.00     0.135 A 
ATOM     88  F   UNL A   1      45.023  26.629  24.981  1.00  0.00    -0.206 F 
ATOM     89  C   UNL A   1      44.654  24.319  24.880  1.00  0.00     0.059 A 
ATOM     90  C   UNL A   1      42.966  23.299  26.276  1.00  0.00     0.059 A 
ATOM     91  F   UNL A   1      41.730  24.592  27.766  1.00  0.00    -0.206 F 
ATOM     92  C   UNL A   1      43.988  23.184  25.341  1.00  0.00     0.060 A 
BRANCH  92  93
ATOM     93  S   UNL A   1      44.559  21.550  24.812  1.00  0.00     0.124 S 
ATOM     94  O   UNL A   1      43.518  20.681  25.346  1.00  0.00    -0.237 OA
ATOM     95  O   UNL A   1      44.591  21.690  23.360  1.00  0.00    -0.237 OA
ATOM     96  O   UNL A   1      45.866  21.426  25.453  1.00  0.00    -0.744 OA
ENDBRANCH  92  93
ENDBRANCH  60  85
BRANCH  72  97
ATOM     97  C   UNL A   1      45.352  31.226  28.855  1.00  0.00     0.058 A 
ATOM     98  C   UNL A   1      46.599  31.629  28.351  1.00  0.00     0.135 A 
ATOM     99  C   UNL A   1      44.211  31.845  28.326  1.00  0.00     0.135 A 
ATOM    100  F   UNL A   1      47.731  31.033  28.751  1.00  0.00    -0.206 F 
ATOM    101  C   UNL A   1      46.705  32.630  27.384  1.00  0.00     0.059 A 
ATOM    102  C   UNL A   1      44.291  32.823  27.342  1.00  0.00     0.059 A 
ATOM    103  F   UNL A   1      42.988  31.468  28.739  1.00  0.00    -0.206 F 
ATOM    104  C   UNL A   1      45.543  33.220  26.883  1.00  0.00     0.060 A 
BRANCH 104 105
ATOM    105  S   UNL A   1      45.674  34.464  25.582  1.00  0.00     0.124 S 
ATOM    106  O   UNL A   1      45.161  35.658  26.246  1.00  0.00    -0.237 OA
ATOM    107  O   UNL A   1      47.104  34.466  25.288  1.00  0.00    -0.237 OA
ATOM    108  O   UNL A   1      44.829  33.932  24.516  1.00  0.00    -0.744 OA
ENDBRANCH 104 105
ENDBRANCH  72  97
ENDBRANCH  46  47
ENDBRANCH  38  41
ENDBRANCH  36  37
ENDBRANCH  35  36
ENDBRANCH   1  35
TORSDOF 18
ENDMDL
MODEL 2
REMARK VINA RESULT:     -14.0      2.601      9.504
REMARK SMILES Cc1c(C(=O)NCCCCNC(=O)c2ccc(-c3c4nc(c(-c5c(F)cc(S(=O)(=O)[O-])cc5F)c5ccc([nH]5)c(-c5c(F)cc(S(=O)(=O)[O-])cc5F)c5nc(c(-c6c(F)cc(S(=O)(=O)[O-])cc6F)c6ccc3[nH]6)C=C5)C=C4)cc2)oc2c1/C(=N/NC(=O)C(c1ccccc1)c1ccccc1)CCC2
REMARK SMILES IDX 8 1 7 2 6 3 4 4 5 5 3 7 1 8 2 9 82 10 80 11 81 12 83 13
REMARK SMILES IDX 103 14 84 15 101 16 102 17 85 18 86 19 87 21 88 22 89 23
REMARK SMILES IDX 90 24 94 25 91 26 93 27 92 28 95 29 96 30 100 31 97 32 99 33
REMARK SMILES IDX 98 34 9 35 10 36 11 37 12 38 13 40 14 41 15 42 79 43 16 44
REMARK SMILES IDX 78 45 17 46 18 47 19 48 72 49 20 50 77 51 71 52 73 53 21 54
REMARK SMILES IDX 76 55 70 56 69 57 22 59 56 60 35 61 55 62 36 63 39 64 54 65
REMARK SMILES IDX 74 66 37 67 38 68 53 70 75 71 40 72 23 73 24 74 33 75 25 76
REMARK SMILES IDX 26 77 32 78 34 79 27 80 28 81 29 82 30 83 31 84 57 85 58 86
REMARK SMILES IDX 67 87 59 88 60 89 66 90 68 91 61 92 62 93 63 94 64 95 65 96
REMARK SMILES IDX 41 97 42 98 51 99 43 100 44 101 50 102 52 103 45 104 46 105
REMARK SMILES IDX 47 106 48 107 49 108
REMARK H PARENT 6 6 85 20 11 39 73 58 39 69
REMARK Flexibility Score: inf
ROOT
ATOM      1  C   UNL A   1      36.033  21.260  25.929  1.00  0.00     0.023 C 
ENDROOT
BRANCH   1   2
ATOM      2  C   UNL A   1      35.536  20.401  24.756  1.00  0.00     0.116 C 
BRANCH   2   3
ATOM      3  N   UNL A   1      34.293  19.697  25.066  1.00  0.00    -0.349 N 
ATOM      4  C   UNL A   1      32.997  20.182  25.137  1.00  0.00     0.287 C 
ATOM      5  O   UNL A   1      32.093  19.377  25.359  1.00  0.00    -0.266 OA
ATOM      6  H   UNL A   1      34.393  18.735  25.252  1.00  0.00     0.163 HD
BRANCH   4   7
ATOM      7  C   UNL A   1      32.769  21.591  24.905  1.00  0.00     0.195 A 
ATOM      8  C   UNL A   1      32.148  22.650  27.194  1.00  0.00     0.049 C 
ATOM      9  C   UNL A   1      32.375  22.649  25.725  1.00  0.00     0.010 A 
ATOM     10  C   UNL A   1      32.082  23.720  24.825  1.00  0.00     0.043 A 
ATOM     11  O   UNL A   1      32.885  22.033  23.622  1.00  0.00    -0.455 OA
ATOM     12  C   UNL A   1      32.355  23.250  23.567  1.00  0.00     0.114 A 
ATOM     13  C   UNL A   1      31.500  25.041  24.993  1.00  0.00     0.072 C 
ATOM     14  C   UNL A   1      32.043  23.801  22.239  1.00  0.00     0.076 C 
ATOM     15  N   UNL A   1      31.626  25.474  26.217  1.00  0.00    -0.177 NA
ATOM     16  C   UNL A   1      30.851  25.503  23.668  1.00  0.00     0.059 C 
ATOM     17  C   UNL A   1      31.717  25.270  22.413  1.00  0.00     0.014 C 
BRANCH  15  18
ATOM     18  N   UNL A   1      31.330  26.585  26.965  1.00  0.00    -0.246 N 
ATOM     19  C   UNL A   1      31.806  27.876  27.066  1.00  0.00     0.252 C 
ATOM     20  H   UNL A   1      30.587  26.419  27.590  1.00  0.00     0.193 HD
ATOM     21  O   UNL A   1      31.353  28.618  27.945  1.00  0.00    -0.272 OA
BRANCH  19  22
ATOM     22  C   UNL A   1      32.872  28.367  26.103  1.00  0.00     0.140 C 
BRANCH  22  23
ATOM     23  C   UNL A   1      32.160  28.680  24.708  1.00  0.00    -0.031 A 
ATOM     24  C   UNL A   1      30.765  28.981  24.618  1.00  0.00     0.005 A 
ATOM     25  C   UNL A   1      32.817  28.625  23.472  1.00  0.00     0.005 A 
ATOM     26  C   UNL A   1      30.110  29.372  23.446  1.00  0.00     0.000 A 
ATOM     27  C   UNL A   1      32.138  28.944  22.266  1.00  0.00     0.000 A 
ATOM     28  C   UNL A   1      30.803  29.355  22.257  1.00  0.00     0.000 A 
ENDBRANCH  22  23
BRANCH  22  29
ATOM     29  C   UNL A   1      33.842  29.321  26.935  1.00  0.00    -0.031 A 
ATOM     30  C   UNL A   1      35.053  28.893  27.495  1.00  0.00     0.005 A 
ATOM     31  C   UNL A   1      33.519  30.689  27.205  1.00  0.00     0.005 A 
ATOM     32  C   UNL A   1      35.897  29.797  28.188  1.00  0.00     0.000 A 
ATOM     33  C   UNL A   1      34.380  31.600  27.821  1.00  0.00     0.000 A 
ATOM     34  C   UNL A   1      35.582  31.153  28.317  1.00  0.00     0.000 A 
ENDBRANCH  22  29
ENDBRANCH  19  22
ENDBRANCH  15  18
ENDBRANCH   4   7
ENDBRANCH   2   3
ENDBRANCH   1   2
BRANCH   1  35
ATOM     35  C   UNL A   1      36.127  22.755  25.604  1.00  0.00     0.023 C 
BRANCH  35  36
ATOM     36  C   UNL A   1      37.515  23.208  25.164  1.00  0.00     0.116 C 
BRANCH  36  37
ATOM     37  N   UNL A   1      38.521  22.159  25.307  1.00  0.00    -0.352 N 
ATOM     38  C   UNL A   1      39.788  22.269  25.858  1.00  0.00     0.251 C 
ATOM     39  H   UNL A   1      38.270  21.268  24.972  1.00  0.00     0.163 HD
ATOM     40  O   UNL A   1      40.668  21.484  25.573  1.00  0.00    -0.269 OA
BRANCH  38  41
ATOM     41  C   UNL A   1      40.032  23.367  26.815  1.00  0.00     0.039 A 
ATOM     42  C   UNL A   1      41.099  23.314  27.714  1.00  0.00     0.014 A 
ATOM     43  C   UNL A   1      39.197  24.480  26.753  1.00  0.00     0.014 A 
ATOM     44  C   UNL A   1      41.381  24.437  28.491  1.00  0.00     0.010 A 
ATOM     45  C   UNL A   1      39.546  25.624  27.433  1.00  0.00     0.010 A 
ATOM     46  C   UNL A   1      40.617  25.603  28.327  1.00  0.00    -0.014 A 
BRANCH  46  47
ATOM     47  C   UNL A   1      41.035  26.863  28.956  1.00  0.00     0.031 A 
ATOM     48  C   UNL A   1      42.248  27.485  28.342  1.00  0.00     0.074 A 
ATOM     49  C   UNL A   1      40.235  27.547  29.808  1.00  0.00     0.049 A 
ATOM     50  N   UNL A   1      43.381  27.760  28.899  1.00  0.00    -0.248 NA
ATOM     51  C   UNL A   1      42.241  27.722  26.885  1.00  0.00     0.031 C 
ATOM     52  C   UNL A   1      38.870  27.178  30.213  1.00  0.00     0.029 A 
ATOM     53  N   UNL A   1      40.389  28.777  30.380  1.00  0.00    -0.354 N 
ATOM     54  C   UNL A   1      44.125  28.439  27.931  1.00  0.00     0.074 A 
ATOM     55  C   UNL A   1      43.470  28.196  26.675  1.00  0.00     0.031 C 
ATOM     56  C   UNL A   1      38.239  28.257  30.722  1.00  0.00     0.029 A 
ATOM     57  C   UNL A   1      39.203  29.331  30.860  1.00  0.00     0.049 A 
ATOM     58  H   UNL A   1      41.260  29.232  30.448  1.00  0.00     0.167 HD
ATOM     59  C   UNL A   1      45.028  29.397  28.285  1.00  0.00     0.037 A 
ATOM     60  C   UNL A   1      39.004  30.585  31.337  1.00  0.00     0.037 A 
ATOM     61  C   UNL A   1      45.316  29.333  29.693  1.00  0.00     0.049 A 
ATOM     62  C   UNL A   1      40.322  31.118  31.749  1.00  0.00     0.074 A 
ATOM     63  C   UNL A   1      46.053  28.532  30.536  1.00  0.00     0.029 A 
ATOM     64  N   UNL A   1      44.442  30.051  30.465  1.00  0.00    -0.354 N 
ATOM     65  N   UNL A   1      41.028  30.612  32.722  1.00  0.00    -0.248 NA
ATOM     66  C   UNL A   1      41.038  32.030  30.865  1.00  0.00     0.031 C 
ATOM     67  C   UNL A   1      45.464  28.669  31.828  1.00  0.00     0.029 A 
ATOM     68  C   UNL A   1      44.411  29.576  31.748  1.00  0.00     0.049 A 
ATOM     69  H   UNL A   1      43.906  30.809  30.138  1.00  0.00     0.167 HD
ATOM     70  C   UNL A   1      42.336  30.793  32.322  1.00  0.00     0.074 A 
ATOM     71  C   UNL A   1      42.287  31.817  31.288  1.00  0.00     0.031 C 
ATOM     72  C   UNL A   1      43.289  29.864  32.613  1.00  0.00     0.037 A 
BRANCH  59  73
ATOM     73  C   UNL A   1      45.283  30.683  27.514  1.00  0.00     0.058 A 
ATOM     74  C   UNL A   1      46.585  30.957  27.036  1.00  0.00     0.135 A 
ATOM     75  C   UNL A   1      44.395  31.782  27.501  1.00  0.00     0.135 A 
ATOM     76  F   UNL A   1      47.520  29.994  27.013  1.00  0.00    -0.206 F 
ATOM     77  C   UNL A   1      46.987  32.236  26.639  1.00  0.00     0.059 A 
ATOM     78  C   UNL A   1      44.761  33.050  27.060  1.00  0.00     0.059 A 
ATOM     79  F   UNL A   1      43.160  31.710  28.009  1.00  0.00    -0.206 F 
ATOM     80  C   UNL A   1      46.068  33.280  26.668  1.00  0.00     0.060 A 
BRANCH  80  81
ATOM     81  S   UNL A   1      46.599  34.950  26.242  1.00  0.00     0.124 S 
ATOM     82  O   UNL A   1      47.373  35.320  27.421  1.00  0.00    -0.237 OA
ATOM     83  O   UNL A   1      47.361  34.723  25.019  1.00  0.00    -0.237 OA
ATOM     84  O   UNL A   1      45.338  35.664  26.062  1.00  0.00    -0.744 OA
ENDBRANCH  80  81
ENDBRANCH  59  73
BRANCH  60  85
ATOM     85  C   UNL A   1      37.788  31.435  31.279  1.00  0.00     0.058 A 
ATOM     86  C   UNL A   1      36.696  31.201  32.132  1.00  0.00     0.135 A 
ATOM     87  C   UNL A   1      37.791  32.666  30.594  1.00  0.00     0.135 A 
ATOM     88  F   UNL A   1      36.615  30.055  32.828  1.00  0.00    -0.206 F 
ATOM     89  C   UNL A   1      35.702  32.159  32.351  1.00  0.00     0.059 A 
ATOM     90  C   UNL A   1      36.806  33.634  30.789  1.00  0.00     0.059 A 
ATOM     91  F   UNL A   1      38.808  33.001  29.784  1.00  0.00    -0.206 F 
ATOM     92  C   UNL A   1      35.780  33.386  31.694  1.00  0.00     0.060 A 
BRANCH  92  93
ATOM     93  S   UNL A   1      34.614  34.698  32.131  1.00  0.00     0.124 S 
ATOM     94  O   UNL A   1      33.655  33.983  32.965  1.00  0.00    -0.237 OA
ATOM     95  O   UNL A   1      35.471  35.654  32.823  1.00  0.00    -0.237 OA
ATOM     96  O   UNL A   1      34.105  35.142  30.836  1.00  0.00    -0.744 OA
ENDBRANCH  92  93
ENDBRANCH  60  85
BRANCH  72  97
ATOM     97  C   UNL A   1      43.072  28.995  33.814  1.00  0.00     0.058 A 
ATOM     98  C   UNL A   1      43.298  29.382  35.145  1.00  0.00     0.135 A 
ATOM     99  C   UNL A   1      42.528  27.721  33.596  1.00  0.00     0.135 A 
ATOM    100  F   UNL A   1      43.746  30.610  35.440  1.00  0.00    -0.206 F 
ATOM    101  C   UNL A   1      43.023  28.523  36.211  1.00  0.00     0.059 A 
ATOM    102  C   UNL A   1      42.218  26.861  34.643  1.00  0.00     0.059 A 
ATOM    103  F   UNL A   1      42.250  27.314  32.345  1.00  0.00    -0.206 F 
ATOM    104  C   UNL A   1      42.480  27.264  35.948  1.00  0.00     0.060 A 
BRANCH 104 105
ATOM    105  S   UNL A   1      42.058  26.180  37.329  1.00  0.00     0.124 S 
ATOM    106  O   UNL A   1      40.683  26.573  37.619  1.00  0.00    -0.237 OA
ATOM    107  O   UNL A   1      42.229  24.850  36.751  1.00  0.00    -0.237 OA
ATOM    108  O   UNL A   1      43.037  26.536  38.353  1.00  0.00    -0.744 OA
ENDBRANCH 104 105
ENDBRANCH  72  97
ENDBRANCH  46  47
ENDBRANCH  38  41
ENDBRANCH  36  37
ENDBRANCH  35  36
ENDBRANCH   1  35
TORSDOF 18
ENDMDL
MODEL 3
REMARK VINA RESULT:     -13.6      2.602      9.328
REMARK SMILES Cc1c(C(=O)NCCCCNC(=O)c2ccc(-c3c4nc(c(-c5c(F)cc(S(=O)(=O)[O-])cc5F)c5ccc([nH]5)c(-c5c(F)cc(S(=O)(=O)[O-])cc5F)c5nc(c(-c6c(F)cc(S(=O)(=O)[O-])cc6F)c6ccc3[nH]6)C=C5)C=C4)cc2)oc2c1/C(=N/NC(=O)C(c1ccccc1)c1ccccc1)CCC2
REMARK SMILES IDX 8 1 7 2 6 3 4 4 5 5 3 7 1 8 2 9 82 10 80 11 81 12 83 13
REMARK SMILES IDX 103 14 84 15 101 16 102 17 85 18 86 19 87 21 88 22 89 23
REMARK SMILES IDX 90 24 94 25 91 26 93 27 92 28 95 29 96 30 100 31 97 32 99 33
REMARK SMILES IDX 98 34 9 35 10 36 11 37 12 38 13 40 14 41 15 42 79 43 16 44
REMARK SMILES IDX 78 45 17 46 18 47 19 48 72 49 20 50 77 51 71 52 73 53 21 54
REMARK SMILES IDX 76 55 70 56 69 57 22 59 56 60 35 61 55 62 36 63 39 64 54 65
REMARK SMILES IDX 74 66 37 67 38 68 53 70 75 71 40 72 23 73 24 74 33 75 25 76
REMARK SMILES IDX 26 77 32 78 34 79 27 80 28 81 29 82 30 83 31 84 57 85 58 86
REMARK SMILES IDX 67 87 59 88 60 89 66 90 68 91 61 92 62 93 63 94 64 95 65 96
REMARK SMILES IDX 41 97 42 98 51 99 43 100 44 101 50 102 52 103 45 104 46 105
REMARK SMILES IDX 47 106 48 107 49 108
REMARK H PARENT 6 6 85 20 11 39 73 58 39 69
REMARK Flexibility Score: inf
ROOT
ATOM      1  C   UNL A   1      35.098  21.425  26.416  1.00  0.00     0.023 C 
ENDROOT
BRANCH   1   2
ATOM      2  C   UNL A   1      35.289  20.860  25.000  1.00  0.00     0.116 C 
BRANCH   2   3
ATOM      3  N   UNL A   1      34.247  19.903  24.635  1.00  0.00    -0.349 N 
ATOM      4  C   UNL A   1      32.905  20.118  24.365  1.00  0.00     0.287 C 
ATOM      5  O   UNL A   1      32.226  19.153  24.015  1.00  0.00    -0.266 OA
ATOM      6  H   UNL A   1      34.543  18.966  24.573  1.00  0.00     0.163 HD
BRANCH   4   7
ATOM      7  C   UNL A   1      32.384  21.463  24.462  1.00  0.00     0.195 A 
ATOM      8  C   UNL A   1      33.775  22.940  22.840  1.00  0.00     0.049 C 
ATOM      9  C   UNL A   1      32.741  22.677  23.876  1.00  0.00     0.010 A 
ATOM     10  C   UNL A   1      31.999  23.665  24.595  1.00  0.00     0.043 A 
ATOM     11  O   UNL A   1      31.368  21.670  25.346  1.00  0.00    -0.455 OA
ATOM     12  C   UNL A   1      31.239  22.982  25.510  1.00  0.00     0.114 A 
ATOM     13  C   UNL A   1      31.998  25.118  24.596  1.00  0.00     0.072 C 
ATOM     14  C   UNL A   1      30.456  23.454  26.663  1.00  0.00     0.076 C 
ATOM     15  N   UNL A   1      32.471  25.603  23.481  1.00  0.00    -0.177 NA
ATOM     16  C   UNL A   1      31.489  25.644  25.958  1.00  0.00     0.059 C 
ATOM     17  C   UNL A   1      30.222  24.940  26.485  1.00  0.00     0.014 C 
BRANCH  15  18
ATOM     18  N   UNL A   1      32.695  26.818  22.886  1.00  0.00    -0.246 N 
ATOM     19  C   UNL A   1      32.294  28.122  23.097  1.00  0.00     0.252 C 
ATOM     20  H   UNL A   1      33.296  26.740  22.110  1.00  0.00     0.193 HD
ATOM     21  O   UNL A   1      32.624  28.992  22.283  1.00  0.00    -0.272 OA
BRANCH  19  22
ATOM     22  C   UNL A   1      31.461  28.469  24.316  1.00  0.00     0.140 C 
BRANCH  22  23
ATOM     23  C   UNL A   1      32.435  29.124  25.400  1.00  0.00    -0.031 A 
ATOM     24  C   UNL A   1      32.110  30.340  26.077  1.00  0.00     0.005 A 
ATOM     25  C   UNL A   1      33.694  28.604  25.726  1.00  0.00     0.005 A 
ATOM     26  C   UNL A   1      32.865  30.901  27.112  1.00  0.00     0.000 A 
ATOM     27  C   UNL A   1      34.504  29.213  26.721  1.00  0.00     0.000 A 
ATOM     28  C   UNL A   1      34.075  30.331  27.440  1.00  0.00     0.000 A 
ENDBRANCH  22  23
BRANCH  22  29
ATOM     29  C   UNL A   1      30.075  29.048  23.779  1.00  0.00    -0.031 A 
ATOM     30  C   UNL A   1      29.082  28.253  23.192  1.00  0.00     0.005 A 
ATOM     31  C   UNL A   1      29.763  30.444  23.825  1.00  0.00     0.005 A 
ATOM     32  C   UNL A   1      27.850  28.816  22.771  1.00  0.00     0.000 A 
ATOM     33  C   UNL A   1      28.524  30.991  23.482  1.00  0.00     0.000 A 
ATOM     34  C   UNL A   1      27.556  30.171  22.951  1.00  0.00     0.000 A 
ENDBRANCH  22  29
ENDBRANCH  19  22
ENDBRANCH  15  18
ENDBRANCH   4   7
ENDBRANCH   2   3
ENDBRANCH   1   2
BRANCH   1  35
ATOM     35  C   UNL A   1      35.420  22.919  26.534  1.00  0.00     0.023 C 
BRANCH  35  36
ATOM     36  C   UNL A   1      36.679  23.343  25.786  1.00  0.00     0.116 C 
BRANCH  36  37
ATOM     37  N   UNL A   1      37.686  22.286  25.734  1.00  0.00    -0.352 N 
ATOM     38  C   UNL A   1      39.030  22.380  26.057  1.00  0.00     0.251 C 
ATOM     39  H   UNL A   1      37.373  21.402  25.433  1.00  0.00     0.163 HD
ATOM     40  O   UNL A   1      39.841  21.596  25.610  1.00  0.00    -0.269 OA
BRANCH  38  41
ATOM     41  C   UNL A   1      39.447  23.460  26.974  1.00  0.00     0.039 A 
ATOM     42  C   UNL A   1      40.507  23.280  27.865  1.00  0.00     0.014 A 
ATOM     43  C   UNL A   1      38.783  24.682  26.882  1.00  0.00     0.014 A 
ATOM     44  C   UNL A   1      40.962  24.373  28.600  1.00  0.00     0.010 A 
ATOM     45  C   UNL A   1      39.306  25.783  27.520  1.00  0.00     0.010 A 
ATOM     46  C   UNL A   1      40.375  25.634  28.405  1.00  0.00    -0.014 A 
BRANCH  46  47
ATOM     47  C   UNL A   1      40.982  26.838  28.986  1.00  0.00     0.031 A 
ATOM     48  C   UNL A   1      42.244  27.277  28.316  1.00  0.00     0.074 A 
ATOM     49  C   UNL A   1      40.314  27.641  29.847  1.00  0.00     0.049 A 
ATOM     50  N   UNL A   1      43.424  27.407  28.827  1.00  0.00    -0.248 NA
ATOM     51  C   UNL A   1      42.215  27.482  26.854  1.00  0.00     0.031 C 
ATOM     52  C   UNL A   1      38.927  27.469  30.308  1.00  0.00     0.029 A 
ATOM     53  N   UNL A   1      40.654  28.851  30.383  1.00  0.00    -0.354 N 
ATOM     54  C   UNL A   1      44.216  27.959  27.817  1.00  0.00     0.074 A 
ATOM     55  C   UNL A   1      43.488  27.781  26.591  1.00  0.00     0.031 C 
ATOM     56  C   UNL A   1      38.467  28.634  30.811  1.00  0.00     0.029 A 
ATOM     57  C   UNL A   1      39.572  29.570  30.889  1.00  0.00     0.049 A 
ATOM     58  H   UNL A   1      41.580  29.184  30.410  1.00  0.00     0.167 HD
ATOM     59  C   UNL A   1      45.252  28.792  28.116  1.00  0.00     0.037 A 
ATOM     60  C   UNL A   1      39.561  30.848  31.341  1.00  0.00     0.037 A 
ATOM     61  C   UNL A   1      45.581  28.719  29.514  1.00  0.00     0.049 A 
ATOM     62  C   UNL A   1      40.953  31.206  31.694  1.00  0.00     0.074 A 
ATOM     63  C   UNL A   1      46.234  27.842  30.352  1.00  0.00     0.029 A 
ATOM     64  N   UNL A   1      44.841  29.564  30.297  1.00  0.00    -0.354 N 
ATOM     65  N   UNL A   1      41.620  30.629  32.655  1.00  0.00    -0.248 NA
ATOM     66  C   UNL A   1      41.753  31.994  30.763  1.00  0.00     0.031 C 
ATOM     67  C   UNL A   1      45.718  28.084  31.660  1.00  0.00     0.029 A 
ATOM     68  C   UNL A   1      44.795  29.125  31.593  1.00  0.00     0.049 A 
ATOM     69  H   UNL A   1      44.401  30.381  29.970  1.00  0.00     0.167 HD
ATOM     70  C   UNL A   1      42.925  30.623  32.206  1.00  0.00     0.074 A 
ATOM     71  C   UNL A   1      42.976  31.623  31.148  1.00  0.00     0.031 C 
ATOM     72  C   UNL A   1      43.754  29.580  32.488  1.00  0.00     0.037 A 
BRANCH  59  73
ATOM     73  C   UNL A   1      45.649  30.015  27.304  1.00  0.00     0.058 A 
ATOM     74  C   UNL A   1      47.020  30.300  27.107  1.00  0.00     0.135 A 
ATOM     75  C   UNL A   1      44.765  31.072  26.989  1.00  0.00     0.135 A 
ATOM     76  F   UNL A   1      47.955  29.377  27.384  1.00  0.00    -0.206 F 
ATOM     77  C   UNL A   1      47.476  31.555  26.692  1.00  0.00     0.059 A 
ATOM     78  C   UNL A   1      45.196  32.311  26.525  1.00  0.00     0.059 A 
ATOM     79  F   UNL A   1      43.449  30.994  27.212  1.00  0.00    -0.206 F 
ATOM     80  C   UNL A   1      46.554  32.559  26.415  1.00  0.00     0.060 A 
BRANCH  80  81
ATOM     81  S   UNL A   1      47.133  34.206  25.965  1.00  0.00     0.124 S 
ATOM     82  O   UNL A   1      48.489  33.924  25.508  1.00  0.00    -0.237 OA
ATOM     83  O   UNL A   1      46.176  34.592  24.934  1.00  0.00    -0.237 OA
ATOM     84  O   UNL A   1      47.028  34.950  27.217  1.00  0.00    -0.744 OA
ENDBRANCH  80  81
ENDBRANCH  59  73
BRANCH  60  85
ATOM     85  C   UNL A   1      38.469  31.855  31.302  1.00  0.00     0.058 A 
ATOM     86  C   UNL A   1      37.809  32.164  30.101  1.00  0.00     0.135 A 
ATOM     87  C   UNL A   1      37.859  32.313  32.486  1.00  0.00     0.135 A 
ATOM     88  F   UNL A   1      38.318  31.761  28.926  1.00  0.00    -0.206 F 
ATOM     89  C   UNL A   1      36.578  32.826  30.076  1.00  0.00     0.059 A 
ATOM     90  C   UNL A   1      36.636  32.984  32.487  1.00  0.00     0.059 A 
ATOM     91  F   UNL A   1      38.391  32.037  33.687  1.00  0.00    -0.206 F 
ATOM     92  C   UNL A   1      35.985  33.209  31.278  1.00  0.00     0.060 A 
BRANCH  92  93
ATOM     93  S   UNL A   1      34.304  33.878  31.260  1.00  0.00     0.124 S 
ATOM     94  O   UNL A   1      33.831  33.467  29.943  1.00  0.00    -0.237 OA
ATOM     95  O   UNL A   1      33.691  33.201  32.397  1.00  0.00    -0.237 OA
ATOM     96  O   UNL A   1      34.511  35.314  31.429  1.00  0.00    -0.744 OA
ENDBRANCH  92  93
ENDBRANCH  60  85
BRANCH  72  97
ATOM     97  C   UNL A   1      43.467  28.772  33.717  1.00  0.00     0.058 A 
ATOM     98  C   UNL A   1      43.758  29.169  35.032  1.00  0.00     0.135 A 
ATOM     99  C   UNL A   1      42.785  27.559  33.545  1.00  0.00     0.135 A 
ATOM    100  F   UNL A   1      44.341  30.349  35.284  1.00  0.00    -0.206 F 
ATOM    101  C   UNL A   1      43.412  28.375  36.127  1.00  0.00     0.059 A 
ATOM    102  C   UNL A   1      42.404  26.768  34.621  1.00  0.00     0.059 A 
ATOM    103  F   UNL A   1      42.441  27.150  32.311  1.00  0.00    -0.206 F 
ATOM    104  C   UNL A   1      42.731  27.176  35.910  1.00  0.00     0.060 A 
BRANCH 104 105
ATOM    105  S   UNL A   1      42.220  26.183  37.328  1.00  0.00     0.124 S 
ATOM    106  O   UNL A   1      40.888  26.709  37.608  1.00  0.00    -0.237 OA
ATOM    107  O   UNL A   1      42.266  24.823  36.797  1.00  0.00    -0.237 OA
ATOM    108  O   UNL A   1      43.234  26.482  38.336  1.00  0.00    -0.744 OA
ENDBRANCH 104 105
ENDBRANCH  72  97
ENDBRANCH  46  47
ENDBRANCH  38  41
ENDBRANCH  36  37
ENDBRANCH  35  36
ENDBRANCH   1  35
TORSDOF 18
ENDMDL
