MODEL 1
REMARK VINA RESULT:     -11.2      0.000      0.000
REMARK SMILES C[C@@H](C(=O)NCCCCNC(=O)c1ccc(-c2c3nc(c(-c4c(F)cc(S(=O)(=O)[O-])cc4F)c4ccc([nH]4)c(-c4c(F)cc(S(=O)(=O)[O-])cc4F)c4nc(c(-c5c(F)cc(S(=O)(=O)[O-])cc5F)c5ccc2[nH]5)C=C4)C=C3)cc1)[C@H](C)[S@@](=O)c1ccc(F)c(F)c1
REMARK SMILES IDX 7 1 6 2 5 3 3 4 4 5 2 7 1 8 79 9 80 10 81 11 82 12 83 13
REMARK SMILES IDX 84 14 90 15 85 16 88 17 86 18 89 19 87 20 8 21 9 22 10 23
REMARK SMILES IDX 11 24 12 26 13 27 14 28 78 29 15 30 77 31 16 32 17 33 18 34
REMARK SMILES IDX 71 35 19 36 76 37 70 38 72 39 20 40 75 41 69 42 68 43 21 45
REMARK SMILES IDX 55 46 34 47 54 48 35 49 38 50 53 51 73 52 36 53 37 54 52 56
REMARK SMILES IDX 74 57 39 58 22 59 23 60 32 61 24 62 25 63 31 64 33 65 26 66
REMARK SMILES IDX 27 67 28 68 29 69 30 70 56 71 57 72 66 73 58 74 59 75 65 76
REMARK SMILES IDX 67 77 60 78 61 79 62 80 63 81 64 82 40 83 41 84 50 85 42 86
REMARK SMILES IDX 43 87 49 88 51 89 44 90 45 91 46 92 47 93 48 94
REMARK H PARENT 5 6 10 25 72 44 38 55
REMARK Flexibility Score: inf
ROOT
ATOM      1  C   UNL A   1      32.324  29.812  26.975  1.00  0.00     0.023 C 
ENDROOT
BRANCH   1   2
ATOM      2  C   UNL A   1      33.490  29.336  26.102  1.00  0.00     0.116 C 
BRANCH   2   3
ATOM      3  N   UNL A   1      33.235  29.713  24.726  1.00  0.00    -0.356 N 
ATOM      4  C   UNL A   1      33.134  28.876  23.655  1.00  0.00     0.224 C 
ATOM      5  O   UNL A   1      33.606  29.246  22.583  1.00  0.00    -0.275 OA
ATOM      6  H   UNL A   1      33.123  30.674  24.546  1.00  0.00     0.163 HD
BRANCH   4   7
ATOM      7  C   UNL A   1      32.439  27.536  23.826  1.00  0.00     0.091 C 
ATOM      8  C   UNL A   1      32.515  26.772  22.500  1.00  0.00     0.019 C 
BRANCH   7   9
ATOM      9  C   UNL A   1      30.974  27.669  24.312  1.00  0.00     0.093 C 
ATOM     10  C   UNL A   1      30.518  26.725  25.421  1.00  0.00     0.023 C 
BRANCH   9  11
ATOM     11  S   UNL A   1      29.717  27.822  22.968  1.00  0.00     0.057 S 
ATOM     12  O   UNL A   1      28.448  27.198  23.472  1.00  0.00    -0.254 OA
BRANCH  11  13
ATOM     13  C   UNL A   1      29.412  29.597  22.883  1.00  0.00     0.042 A 
ATOM     14  C   UNL A   1      29.675  30.415  23.991  1.00  0.00     0.021 A 
ATOM     15  C   UNL A   1      28.920  30.176  21.705  1.00  0.00     0.060 A 
ATOM     16  C   UNL A   1      29.365  31.779  23.953  1.00  0.00     0.043 A 
ATOM     17  C   UNL A   1      28.603  31.531  21.680  1.00  0.00     0.160 A 
ATOM     18  C   UNL A   1      28.814  32.325  22.800  1.00  0.00     0.158 A 
ATOM     19  F   UNL A   1      28.063  32.056  20.571  1.00  0.00    -0.204 F 
ATOM     20  F   UNL A   1      28.489  33.625  22.778  1.00  0.00    -0.204 F 
ENDBRANCH  11  13
ENDBRANCH   9  11
ENDBRANCH   7   9
ENDBRANCH   4   7
ENDBRANCH   2   3
ENDBRANCH   1   2
BRANCH   1  21
ATOM     21  C   UNL A   1      32.064  31.324  26.900  1.00  0.00     0.023 C 
BRANCH  21  22
ATOM     22  C   UNL A   1      33.210  32.198  27.402  1.00  0.00     0.116 C 
BRANCH  22  23
ATOM     23  N   UNL A   1      32.787  33.571  27.637  1.00  0.00    -0.352 N 
ATOM     24  C   UNL A   1      33.239  34.471  28.571  1.00  0.00     0.251 C 
ATOM     25  H   UNL A   1      32.075  33.900  27.042  1.00  0.00     0.163 HD
ATOM     26  O   UNL A   1      32.644  35.526  28.742  1.00  0.00    -0.269 OA
BRANCH  24  27
ATOM     27  C   UNL A   1      34.428  34.143  29.386  1.00  0.00     0.039 A 
ATOM     28  C   UNL A   1      34.243  33.557  30.640  1.00  0.00     0.014 A 
ATOM     29  C   UNL A   1      35.718  34.398  28.909  1.00  0.00     0.014 A 
ATOM     30  C   UNL A   1      35.353  33.152  31.384  1.00  0.00     0.010 A 
ATOM     31  C   UNL A   1      36.822  33.946  29.629  1.00  0.00     0.010 A 
ATOM     32  C   UNL A   1      36.649  33.304  30.864  1.00  0.00    -0.014 A 
BRANCH  32  33
ATOM     33  C   UNL A   1      37.829  32.736  31.566  1.00  0.00     0.031 A 
ATOM     34  C   UNL A   1      38.564  31.556  30.997  1.00  0.00     0.074 A 
ATOM     35  C   UNL A   1      38.180  33.241  32.767  1.00  0.00     0.049 A 
ATOM     36  N   UNL A   1      39.557  30.878  31.513  1.00  0.00    -0.248 NA
ATOM     37  C   UNL A   1      38.115  31.060  29.686  1.00  0.00     0.031 C 
ATOM     38  C   UNL A   1      37.507  34.351  33.447  1.00  0.00     0.029 A 
ATOM     39  N   UNL A   1      39.175  32.876  33.639  1.00  0.00    -0.354 N 
ATOM     40  C   UNL A   1      39.842  29.868  30.602  1.00  0.00     0.074 A 
ATOM     41  C   UNL A   1      38.898  30.001  29.515  1.00  0.00     0.031 C 
ATOM     42  C   UNL A   1      38.109  34.576  34.626  1.00  0.00     0.029 A 
ATOM     43  C   UNL A   1      39.185  33.607  34.803  1.00  0.00     0.049 A 
ATOM     44  H   UNL A   1      39.820  32.157  33.448  1.00  0.00     0.167 HD
ATOM     45  C   UNL A   1      40.813  28.927  30.665  1.00  0.00     0.037 A 
ATOM     46  C   UNL A   1      39.960  33.498  35.900  1.00  0.00     0.037 A 
ATOM     47  C   UNL A   1      41.770  28.819  31.737  1.00  0.00     0.049 A 
ATOM     48  C   UNL A   1      41.028  32.440  35.941  1.00  0.00     0.074 A 
ATOM     49  C   UNL A   1      42.847  27.957  31.843  1.00  0.00     0.029 A 
ATOM     50  N   UNL A   1      41.761  29.590  32.890  1.00  0.00    -0.354 N 
ATOM     51  N   UNL A   1      41.340  31.550  35.031  1.00  0.00    -0.248 NA
ATOM     52  C   UNL A   1      41.849  32.370  37.158  1.00  0.00     0.031 C 
ATOM     53  C   UNL A   1      43.462  28.175  33.080  1.00  0.00     0.029 A 
ATOM     54  C   UNL A   1      42.795  29.202  33.726  1.00  0.00     0.049 A 
ATOM     55  H   UNL A   1      41.115  30.307  33.085  1.00  0.00     0.167 HD
ATOM     56  C   UNL A   1      42.402  30.824  35.559  1.00  0.00     0.074 A 
ATOM     57  C   UNL A   1      42.693  31.392  36.859  1.00  0.00     0.031 C 
ATOM     58  C   UNL A   1      43.071  29.776  35.018  1.00  0.00     0.037 A 
BRANCH  45  59
ATOM     59  C   UNL A   1      40.912  27.936  29.538  1.00  0.00     0.058 A 
ATOM     60  C   UNL A   1      41.946  28.001  28.594  1.00  0.00     0.135 A 
ATOM     61  C   UNL A   1      40.014  26.859  29.457  1.00  0.00     0.135 A 
ATOM     62  F   UNL A   1      42.823  29.017  28.619  1.00  0.00    -0.206 F 
ATOM     63  C   UNL A   1      42.085  27.036  27.601  1.00  0.00     0.059 A 
ATOM     64  C   UNL A   1      40.146  25.872  28.485  1.00  0.00     0.059 A 
ATOM     65  F   UNL A   1      39.004  26.754  30.334  1.00  0.00    -0.206 F 
ATOM     66  C   UNL A   1      41.183  25.971  27.559  1.00  0.00     0.060 A 
BRANCH  66  67
ATOM     67  S   UNL A   1      41.406  24.703  26.293  1.00  0.00     0.124 S 
ATOM     68  O   UNL A   1      42.716  24.164  26.648  1.00  0.00    -0.237 OA
ATOM     69  O   UNL A   1      40.271  23.819  26.535  1.00  0.00    -0.237 OA
ATOM     70  O   UNL A   1      41.356  25.456  25.044  1.00  0.00    -0.744 OA
ENDBRANCH  66  67
ENDBRANCH  45  59
BRANCH  46  71
ATOM     71  C   UNL A   1      39.748  34.405  37.060  1.00  0.00     0.058 A 
ATOM     72  C   UNL A   1      40.309  35.691  37.083  1.00  0.00     0.135 A 
ATOM     73  C   UNL A   1      38.996  34.000  38.173  1.00  0.00     0.135 A 
ATOM     74  F   UNL A   1      41.041  36.121  36.044  1.00  0.00    -0.206 F 
ATOM     75  C   UNL A   1      40.156  36.533  38.179  1.00  0.00     0.059 A 
ATOM     76  C   UNL A   1      38.808  34.833  39.271  1.00  0.00     0.059 A 
ATOM     77  F   UNL A   1      38.424  32.785  38.193  1.00  0.00    -0.206 F 
ATOM     78  C   UNL A   1      39.407  36.092  39.272  1.00  0.00     0.060 A 
BRANCH  78  79
ATOM     79  S   UNL A   1      39.195  37.197  40.684  1.00  0.00     0.124 S 
ATOM     80  O   UNL A   1      38.590  36.305  41.666  1.00  0.00    -0.237 OA
ATOM     81  O   UNL A   1      40.567  37.614  40.959  1.00  0.00    -0.237 OA
ATOM     82  O   UNL A   1      38.324  38.246  40.160  1.00  0.00    -0.744 OA
ENDBRANCH  78  79
ENDBRANCH  46  71
BRANCH  58  83
ATOM     83  C   UNL A   1      44.192  29.184  35.825  1.00  0.00     0.058 A 
ATOM     84  C   UNL A   1      45.498  29.691  35.744  1.00  0.00     0.135 A 
ATOM     85  C   UNL A   1      43.949  28.132  36.723  1.00  0.00     0.135 A 
ATOM     86  F   UNL A   1      45.784  30.689  34.893  1.00  0.00    -0.206 F 
ATOM     87  C   UNL A   1      46.530  29.162  36.511  1.00  0.00     0.059 A 
ATOM     88  C   UNL A   1      44.961  27.606  37.519  1.00  0.00     0.059 A 
ATOM     89  F   UNL A   1      42.715  27.617  36.844  1.00  0.00    -0.206 F 
ATOM     90  C   UNL A   1      46.252  28.121  37.398  1.00  0.00     0.060 A 
BRANCH  90  91
ATOM     91  S   UNL A   1      47.592  27.468  38.416  1.00  0.00     0.124 S 
ATOM     92  O   UNL A   1      47.202  27.927  39.744  1.00  0.00    -0.237 OA
ATOM     93  O   UNL A   1      47.490  26.030  38.186  1.00  0.00    -0.237 OA
ATOM     94  O   UNL A   1      48.782  28.102  37.857  1.00  0.00    -0.744 OA
ENDBRANCH  90  91
ENDBRANCH  58  83
ENDBRANCH  32  33
ENDBRANCH  24  27
ENDBRANCH  22  23
ENDBRANCH  21  22
ENDBRANCH   1  21
TORSDOF 17
ENDMDL
MODEL 2
REMARK VINA RESULT:     -11.0      6.278      8.803
REMARK SMILES C[C@@H](C(=O)NCCCCNC(=O)c1ccc(-c2c3nc(c(-c4c(F)cc(S(=O)(=O)[O-])cc4F)c4ccc([nH]4)c(-c4c(F)cc(S(=O)(=O)[O-])cc4F)c4nc(c(-c5c(F)cc(S(=O)(=O)[O-])cc5F)c5ccc2[nH]5)C=C4)C=C3)cc1)[C@H](C)[S@@](=O)c1ccc(F)c(F)c1
REMARK SMILES IDX 7 1 6 2 5 3 3 4 4 5 2 7 1 8 79 9 80 10 81 11 82 12 83 13
REMARK SMILES IDX 84 14 90 15 85 16 88 17 86 18 89 19 87 20 8 21 9 22 10 23
REMARK SMILES IDX 11 24 12 26 13 27 14 28 78 29 15 30 77 31 16 32 17 33 18 34
REMARK SMILES IDX 71 35 19 36 76 37 70 38 72 39 20 40 75 41 69 42 68 43 21 45
REMARK SMILES IDX 55 46 34 47 54 48 35 49 38 50 53 51 73 52 36 53 37 54 52 56
REMARK SMILES IDX 74 57 39 58 22 59 23 60 32 61 24 62 25 63 31 64 33 65 26 66
REMARK SMILES IDX 27 67 28 68 29 69 30 70 56 71 57 72 66 73 58 74 59 75 65 76
REMARK SMILES IDX 67 77 60 78 61 79 62 80 63 81 64 82 40 83 41 84 50 85 42 86
REMARK SMILES IDX 43 87 49 88 51 89 44 90 45 91 46 92 47 93 48 94
REMARK H PARENT 5 6 10 25 72 44 38 55
REMARK Flexibility Score: inf
ROOT
ATOM      1  C   UNL A   1      34.576  29.942  27.408  1.00  0.00     0.023 C 
ENDROOT
BRANCH   1   2
ATOM      2  C   UNL A   1      33.207  29.630  26.792  1.00  0.00     0.116 C 
BRANCH   2   3
ATOM      3  N   UNL A   1      33.318  29.673  25.348  1.00  0.00    -0.356 N 
ATOM      4  C   UNL A   1      33.607  28.631  24.519  1.00  0.00     0.224 C 
ATOM      5  O   UNL A   1      34.325  28.845  23.546  1.00  0.00    -0.275 OA
ATOM      6  H   UNL A   1      33.168  30.547  24.920  1.00  0.00     0.163 HD
BRANCH   4   7
ATOM      7  C   UNL A   1      33.025  27.261  24.823  1.00  0.00     0.091 C 
ATOM      8  C   UNL A   1      33.428  26.297  23.701  1.00  0.00     0.019 C 
BRANCH   7   9
ATOM      9  C   UNL A   1      31.488  27.283  25.017  1.00  0.00     0.093 C 
ATOM     10  C   UNL A   1      30.918  26.450  26.163  1.00  0.00     0.023 C 
BRANCH   9  11
ATOM     11  S   UNL A   1      30.503  27.099  23.466  1.00  0.00     0.057 S 
ATOM     12  O   UNL A   1      29.546  25.962  23.679  1.00  0.00    -0.254 OA
BRANCH  11  13
ATOM     13  C   UNL A   1      29.507  28.601  23.425  1.00  0.00     0.042 A 
ATOM     14  C   UNL A   1      28.213  28.579  22.884  1.00  0.00     0.021 A 
ATOM     15  C   UNL A   1      30.013  29.801  23.942  1.00  0.00     0.060 A 
ATOM     16  C   UNL A   1      27.470  29.759  22.779  1.00  0.00     0.043 A 
ATOM     17  C   UNL A   1      29.272  30.973  23.823  1.00  0.00     0.160 A 
ATOM     18  C   UNL A   1      28.014  30.955  23.235  1.00  0.00     0.158 A 
ATOM     19  F   UNL A   1      29.800  32.127  24.254  1.00  0.00    -0.204 F 
ATOM     20  F   UNL A   1      27.312  32.088  23.105  1.00  0.00    -0.204 F 
ENDBRANCH  11  13
ENDBRANCH   9  11
ENDBRANCH   7   9
ENDBRANCH   4   7
ENDBRANCH   2   3
ENDBRANCH   1   2
BRANCH   1  21
ATOM     21  C   UNL A   1      34.771  31.419  27.781  1.00  0.00     0.023 C 
BRANCH  21  22
ATOM     22  C   UNL A   1      35.914  31.690  28.755  1.00  0.00     0.116 C 
BRANCH  22  23
ATOM     23  N   UNL A   1      35.802  30.887  29.964  1.00  0.00    -0.352 N 
ATOM     24  C   UNL A   1      36.693  29.983  30.491  1.00  0.00     0.251 C 
ATOM     25  H   UNL A   1      34.971  31.009  30.476  1.00  0.00     0.163 HD
ATOM     26  O   UNL A   1      36.356  29.266  31.423  1.00  0.00    -0.269 OA
BRANCH  24  27
ATOM     27  C   UNL A   1      38.045  29.863  29.906  1.00  0.00     0.039 A 
ATOM     28  C   UNL A   1      39.155  30.040  30.735  1.00  0.00     0.014 A 
ATOM     29  C   UNL A   1      38.217  29.563  28.551  1.00  0.00     0.014 A 
ATOM     30  C   UNL A   1      40.439  29.836  30.224  1.00  0.00     0.010 A 
ATOM     31  C   UNL A   1      39.494  29.309  28.056  1.00  0.00     0.010 A 
ATOM     32  C   UNL A   1      40.615  29.426  28.892  1.00  0.00    -0.014 A 
BRANCH  32  33
ATOM     33  C   UNL A   1      41.956  29.051  28.376  1.00  0.00     0.031 A 
ATOM     34  C   UNL A   1      42.251  27.635  27.969  1.00  0.00     0.074 A 
ATOM     35  C   UNL A   1      42.934  29.981  28.357  1.00  0.00     0.049 A 
ATOM     36  N   UNL A   1      43.384  27.110  27.580  1.00  0.00    -0.248 NA
ATOM     37  C   UNL A   1      41.134  26.678  28.024  1.00  0.00     0.031 C 
ATOM     38  C   UNL A   1      42.781  31.376  28.781  1.00  0.00     0.029 A 
ATOM     39  N   UNL A   1      44.252  29.891  27.989  1.00  0.00    -0.354 N 
ATOM     40  C   UNL A   1      43.124  25.763  27.359  1.00  0.00     0.074 A 
ATOM     41  C   UNL A   1      41.732  25.543  27.686  1.00  0.00     0.031 C 
ATOM     42  C   UNL A   1      43.958  32.009  28.645  1.00  0.00     0.029 A 
ATOM     43  C   UNL A   1      44.955  31.060  28.162  1.00  0.00     0.049 A 
ATOM     44  H   UNL A   1      44.657  29.066  27.634  1.00  0.00     0.167 HD
ATOM     45  C   UNL A   1      43.967  24.804  26.909  1.00  0.00     0.037 A 
ATOM     46  C   UNL A   1      46.260  31.334  27.971  1.00  0.00     0.037 A 
ATOM     47  C   UNL A   1      45.345  25.038  26.555  1.00  0.00     0.049 A 
ATOM     48  C   UNL A   1      47.174  30.248  27.474  1.00  0.00     0.074 A 
ATOM     49  C   UNL A   1      46.252  24.149  26.003  1.00  0.00     0.029 A 
ATOM     50  N   UNL A   1      46.016  26.239  26.724  1.00  0.00    -0.354 N 
ATOM     51  N   UNL A   1      46.888  29.001  27.186  1.00  0.00    -0.248 NA
ATOM     52  C   UNL A   1      48.586  30.603  27.278  1.00  0.00     0.031 C 
ATOM     53  C   UNL A   1      47.483  24.800  25.882  1.00  0.00     0.029 A 
ATOM     54  C   UNL A   1      47.334  26.106  26.318  1.00  0.00     0.049 A 
ATOM     55  H   UNL A   1      45.615  27.065  27.082  1.00  0.00     0.167 HD
ATOM     56  C   UNL A   1      48.081  28.427  26.761  1.00  0.00     0.074 A 
ATOM     57  C   UNL A   1      49.087  29.468  26.809  1.00  0.00     0.031 C 
ATOM     58  C   UNL A   1      48.323  27.151  26.372  1.00  0.00     0.037 A 
BRANCH  45  59
ATOM     59  C   UNL A   1      43.434  23.408  26.754  1.00  0.00     0.058 A 
ATOM     60  C   UNL A   1      43.184  22.854  25.491  1.00  0.00     0.135 A 
ATOM     61  C   UNL A   1      43.255  22.585  27.879  1.00  0.00     0.135 A 
ATOM     62  F   UNL A   1      43.326  23.601  24.384  1.00  0.00    -0.206 F 
ATOM     63  C   UNL A   1      42.769  21.533  25.346  1.00  0.00     0.059 A 
ATOM     64  C   UNL A   1      42.861  21.256  27.756  1.00  0.00     0.059 A 
ATOM     65  F   UNL A   1      43.477  23.068  29.111  1.00  0.00    -0.206 F 
ATOM     66  C   UNL A   1      42.617  20.741  26.484  1.00  0.00     0.060 A 
BRANCH  66  67
ATOM     67  S   UNL A   1      42.122  19.016  26.274  1.00  0.00     0.124 S 
ATOM     68  O   UNL A   1      42.271  18.504  27.633  1.00  0.00    -0.237 OA
ATOM     69  O   UNL A   1      40.751  19.142  25.790  1.00  0.00    -0.237 OA
ATOM     70  O   UNL A   1      43.082  18.502  25.302  1.00  0.00    -0.744 OA
ENDBRANCH  66  67
ENDBRANCH  45  59
BRANCH  46  71
ATOM     71  C   UNL A   1      46.790  32.693  28.264  1.00  0.00     0.058 A 
ATOM     72  C   UNL A   1      46.763  33.704  27.293  1.00  0.00     0.135 A 
ATOM     73  C   UNL A   1      47.349  33.002  29.514  1.00  0.00     0.135 A 
ATOM     74  F   UNL A   1      46.244  33.455  26.081  1.00  0.00    -0.206 F 
ATOM     75  C   UNL A   1      47.296  34.965  27.539  1.00  0.00     0.059 A 
ATOM     76  C   UNL A   1      47.865  34.263  29.793  1.00  0.00     0.059 A 
ATOM     77  F   UNL A   1      47.383  32.074  30.484  1.00  0.00    -0.206 F 
ATOM     78  C   UNL A   1      47.849  35.234  28.792  1.00  0.00     0.060 A 
BRANCH  78  79
ATOM     79  S   UNL A   1      48.520  36.879  29.112  1.00  0.00     0.124 S 
ATOM     80  O   UNL A   1      47.777  37.689  28.154  1.00  0.00    -0.237 OA
ATOM     81  O   UNL A   1      48.182  37.083  30.518  1.00  0.00    -0.237 OA
ATOM     82  O   UNL A   1      49.945  36.719  28.837  1.00  0.00    -0.744 OA
ENDBRANCH  78  79
ENDBRANCH  46  71
BRANCH  58  83
ATOM     83  C   UNL A   1      49.726  26.812  25.956  1.00  0.00     0.058 A 
ATOM     84  C   UNL A   1      50.193  27.094  24.662  1.00  0.00     0.135 A 
ATOM     85  C   UNL A   1      50.627  26.245  26.872  1.00  0.00     0.135 A 
ATOM     86  F   UNL A   1      49.368  27.628  23.748  1.00  0.00    -0.206 F 
ATOM     87  C   UNL A   1      51.500  26.807  24.285  1.00  0.00     0.059 A 
ATOM     88  C   UNL A   1      51.947  25.974  26.522  1.00  0.00     0.059 A 
ATOM     89  F   UNL A   1      50.233  25.964  28.123  1.00  0.00    -0.206 F 
ATOM     90  C   UNL A   1      52.371  26.248  25.222  1.00  0.00     0.060 A 
BRANCH  90  91
ATOM     91  S   UNL A   1      54.076  25.915  24.730  1.00  0.00     0.124 S 
ATOM     92  O   UNL A   1      54.027  26.189  23.299  1.00  0.00    -0.237 OA
ATOM     93  O   UNL A   1      54.827  26.874  25.535  1.00  0.00    -0.237 OA
ATOM     94  O   UNL A   1      54.266  24.514  25.096  1.00  0.00    -0.744 OA
ENDBRANCH  90  91
ENDBRANCH  58  83
ENDBRANCH  32  33
ENDBRANCH  24  27
ENDBRANCH  22  23
ENDBRANCH  21  22
ENDBRANCH   1  21
TORSDOF 17
ENDMDL
MODEL 3
REMARK VINA RESULT:     -11.0      2.679      8.338
REMARK SMILES C[C@@H](C(=O)NCCCCNC(=O)c1ccc(-c2c3nc(c(-c4c(F)cc(S(=O)(=O)[O-])cc4F)c4ccc([nH]4)c(-c4c(F)cc(S(=O)(=O)[O-])cc4F)c4nc(c(-c5c(F)cc(S(=O)(=O)[O-])cc5F)c5ccc2[nH]5)C=C4)C=C3)cc1)[C@H](C)[S@@](=O)c1ccc(F)c(F)c1
REMARK SMILES IDX 7 1 6 2 5 3 3 4 4 5 2 7 1 8 79 9 80 10 81 11 82 12 83 13
REMARK SMILES IDX 84 14 90 15 85 16 88 17 86 18 89 19 87 20 8 21 9 22 10 23
REMARK SMILES IDX 11 24 12 26 13 27 14 28 78 29 15 30 77 31 16 32 17 33 18 34
REMARK SMILES IDX 71 35 19 36 76 37 70 38 72 39 20 40 75 41 69 42 68 43 21 45
REMARK SMILES IDX 55 46 34 47 54 48 35 49 38 50 53 51 73 52 36 53 37 54 52 56
REMARK SMILES IDX 74 57 39 58 22 59 23 60 32 61 24 62 25 63 31 64 33 65 26 66
REMARK SMILES IDX 27 67 28 68 29 69 30 70 56 71 57 72 66 73 58 74 59 75 65 76
REMARK SMILES IDX 67 77 60 78 61 79 62 80 63 81 64 82 40 83 41 84 50 85 42 86
REMARK SMILES IDX 43 87 49 88 51 89 44 90 45 91 46 92 47 93 48 94
REMARK H PARENT 5 6 10 25 72 44 38 55
REMARK Flexibility Score: inf
ROOT
ATOM      1  C   UNL A   1      36.246  23.013  26.025  1.00  0.00     0.023 C 
ENDROOT
BRANCH   1   2
ATOM      2  C   UNL A   1      35.371  22.238  25.033  1.00  0.00     0.116 C 
BRANCH   2   3
ATOM      3  N   UNL A   1      35.171  23.046  23.847  1.00  0.00    -0.356 N 
ATOM      4  C   UNL A   1      33.979  23.376  23.274  1.00  0.00     0.224 C 
ATOM      5  O   UNL A   1      33.914  23.409  22.048  1.00  0.00    -0.275 OA
ATOM      6  H   UNL A   1      35.981  23.393  23.409  1.00  0.00     0.163 HD
BRANCH   4   7
ATOM      7  C   UNL A   1      32.794  23.698  24.168  1.00  0.00     0.091 C 
ATOM      8  C   UNL A   1      31.525  23.127  23.524  1.00  0.00     0.019 C 
BRANCH   7   9
ATOM      9  C   UNL A   1      32.642  25.213  24.454  1.00  0.00     0.093 C 
ATOM     10  C   UNL A   1      33.920  26.001  24.736  1.00  0.00     0.023 C 
BRANCH   9  11
ATOM     11  S   UNL A   1      31.281  25.655  25.621  1.00  0.00     0.057 S 
ATOM     12  O   UNL A   1      31.616  25.041  26.949  1.00  0.00    -0.254 OA
BRANCH  11  13
ATOM     13  C   UNL A   1      31.468  27.437  25.823  1.00  0.00     0.042 A 
ATOM     14  C   UNL A   1      32.020  27.963  27.000  1.00  0.00     0.021 A 
ATOM     15  C   UNL A   1      31.073  28.312  24.801  1.00  0.00     0.060 A 
ATOM     16  C   UNL A   1      32.092  29.347  27.191  1.00  0.00     0.043 A 
ATOM     17  C   UNL A   1      31.138  29.687  25.004  1.00  0.00     0.160 A 
ATOM     18  C   UNL A   1      31.634  30.201  26.195  1.00  0.00     0.158 A 
ATOM     19  F   UNL A   1      30.688  30.510  24.047  1.00  0.00    -0.204 F 
ATOM     20  F   UNL A   1      31.676  31.525  26.393  1.00  0.00    -0.204 F 
ENDBRANCH  11  13
ENDBRANCH   9  11
ENDBRANCH   7   9
ENDBRANCH   4   7
ENDBRANCH   2   3
ENDBRANCH   1   2
BRANCH   1  21
ATOM     21  C   UNL A   1      37.706  23.175  25.575  1.00  0.00     0.023 C 
BRANCH  21  22
ATOM     22  C   UNL A   1      38.556  24.077  26.467  1.00  0.00     0.116 C 
BRANCH  22  23
ATOM     23  N   UNL A   1      39.980  23.869  26.253  1.00  0.00    -0.352 N 
ATOM     24  C   UNL A   1      41.041  24.639  26.665  1.00  0.00     0.251 C 
ATOM     25  H   UNL A   1      40.216  23.063  25.741  1.00  0.00     0.163 HD
ATOM     26  O   UNL A   1      42.165  24.407  26.242  1.00  0.00    -0.269 OA
BRANCH  24  27
ATOM     27  C   UNL A   1      40.809  25.764  27.596  1.00  0.00     0.039 A 
ATOM     28  C   UNL A   1      39.801  25.647  28.555  1.00  0.00     0.014 A 
ATOM     29  C   UNL A   1      41.592  26.921  27.532  1.00  0.00     0.014 A 
ATOM     30  C   UNL A   1      39.629  26.657  29.504  1.00  0.00     0.010 A 
ATOM     31  C   UNL A   1      41.454  27.903  28.511  1.00  0.00     0.010 A 
ATOM     32  C   UNL A   1      40.484  27.772  29.516  1.00  0.00    -0.014 A 
BRANCH  32  33
ATOM     33  C   UNL A   1      40.421  28.776  30.609  1.00  0.00     0.031 A 
ATOM     34  C   UNL A   1      41.278  28.627  31.834  1.00  0.00     0.074 A 
ATOM     35  C   UNL A   1      39.521  29.777  30.527  1.00  0.00     0.049 A 
ATOM     36  N   UNL A   1      41.293  29.355  32.921  1.00  0.00    -0.248 NA
ATOM     37  C   UNL A   1      42.229  27.504  31.851  1.00  0.00     0.031 C 
ATOM     38  C   UNL A   1      38.596  29.993  29.411  1.00  0.00     0.029 A 
ATOM     39  N   UNL A   1      39.221  30.789  31.403  1.00  0.00    -0.354 N 
ATOM     40  C   UNL A   1      42.239  28.772  33.756  1.00  0.00     0.074 A 
ATOM     41  C   UNL A   1      42.756  27.612  33.064  1.00  0.00     0.031 C 
ATOM     42  C   UNL A   1      37.835  31.069  29.670  1.00  0.00     0.029 A 
ATOM     43  C   UNL A   1      38.191  31.597  30.982  1.00  0.00     0.049 A 
ATOM     44  H   UNL A   1      39.697  30.923  32.254  1.00  0.00     0.167 HD
ATOM     45  C   UNL A   1      42.647  29.181  34.981  1.00  0.00     0.037 A 
ATOM     46  C   UNL A   1      37.586  32.636  31.592  1.00  0.00     0.037 A 
ATOM     47  C   UNL A   1      42.149  30.356  35.651  1.00  0.00     0.049 A 
ATOM     48  C   UNL A   1      38.059  33.064  32.954  1.00  0.00     0.074 A 
ATOM     49  C   UNL A   1      42.567  30.901  36.853  1.00  0.00     0.029 A 
ATOM     50  N   UNL A   1      41.120  31.160  35.185  1.00  0.00    -0.354 N 
ATOM     51  N   UNL A   1      39.016  32.554  33.690  1.00  0.00    -0.248 NA
ATOM     52  C   UNL A   1      37.369  34.206  33.569  1.00  0.00     0.031 C 
ATOM     53  C   UNL A   1      41.761  32.008  37.135  1.00  0.00     0.029 A 
ATOM     54  C   UNL A   1      40.869  32.179  36.090  1.00  0.00     0.049 A 
ATOM     55  H   UNL A   1      40.639  31.028  34.336  1.00  0.00     0.167 HD
ATOM     56  C   UNL A   1      39.054  33.322  34.849  1.00  0.00     0.074 A 
ATOM     57  C   UNL A   1      38.037  34.344  34.707  1.00  0.00     0.031 C 
ATOM     58  C   UNL A   1      39.853  33.188  35.935  1.00  0.00     0.037 A 
BRANCH  45  59
ATOM     59  C   UNL A   1      43.696  28.367  35.686  1.00  0.00     0.058 A 
ATOM     60  C   UNL A   1      45.063  28.607  35.492  1.00  0.00     0.135 A 
ATOM     61  C   UNL A   1      43.327  27.396  36.632  1.00  0.00     0.135 A 
ATOM     62  F   UNL A   1      45.469  29.515  34.589  1.00  0.00    -0.206 F 
ATOM     63  C   UNL A   1      46.032  27.909  36.206  1.00  0.00     0.059 A 
ATOM     64  C   UNL A   1      44.278  26.701  37.373  1.00  0.00     0.059 A 
ATOM     65  F   UNL A   1      42.031  27.126  36.852  1.00  0.00    -0.206 F 
ATOM     66  C   UNL A   1      45.629  26.963  37.150  1.00  0.00     0.060 A 
BRANCH  66  67
ATOM     67  S   UNL A   1      46.899  26.100  38.101  1.00  0.00     0.124 S 
ATOM     68  O   UNL A   1      48.013  26.092  37.158  1.00  0.00    -0.237 OA
ATOM     69  O   UNL A   1      47.060  26.967  39.264  1.00  0.00    -0.237 OA
ATOM     70  O   UNL A   1      46.297  24.799  38.372  1.00  0.00    -0.744 OA
ENDBRANCH  66  67
ENDBRANCH  45  59
BRANCH  46  71
ATOM     71  C   UNL A   1      36.456  33.339  30.928  1.00  0.00     0.058 A 
ATOM     72  C   UNL A   1      36.674  34.178  29.826  1.00  0.00     0.135 A 
ATOM     73  C   UNL A   1      35.139  33.197  31.391  1.00  0.00     0.135 A 
ATOM     74  F   UNL A   1      37.917  34.350  29.350  1.00  0.00    -0.206 F 
ATOM     75  C   UNL A   1      35.633  34.876  29.224  1.00  0.00     0.059 A 
ATOM     76  C   UNL A   1      34.077  33.865  30.790  1.00  0.00     0.059 A 
ATOM     77  F   UNL A   1      34.874  32.392  32.432  1.00  0.00    -0.206 F 
ATOM     78  C   UNL A   1      34.336  34.716  29.717  1.00  0.00     0.060 A 
BRANCH  78  79
ATOM     79  S   UNL A   1      32.985  35.609  28.918  1.00  0.00     0.124 S 
ATOM     80  O   UNL A   1      32.350  34.547  28.145  1.00  0.00    -0.237 OA
ATOM     81  O   UNL A   1      32.226  36.108  30.060  1.00  0.00    -0.237 OA
ATOM     82  O   UNL A   1      33.675  36.633  28.139  1.00  0.00    -0.744 OA
ENDBRANCH  78  79
ENDBRANCH  46  71
BRANCH  58  83
ATOM     83  C   UNL A   1      39.671  34.178  37.051  1.00  0.00     0.058 A 
ATOM     84  C   UNL A   1      38.989  33.834  38.229  1.00  0.00     0.135 A 
ATOM     85  C   UNL A   1      40.223  35.466  36.962  1.00  0.00     0.135 A 
ATOM     86  F   UNL A   1      38.435  32.618  38.358  1.00  0.00    -0.206 F 
ATOM     87  C   UNL A   1      38.845  34.740  39.273  1.00  0.00     0.059 A 
ATOM     88  C   UNL A   1      40.112  36.379  38.006  1.00  0.00     0.059 A 
ATOM     89  F   UNL A   1      40.891  35.841  35.860  1.00  0.00    -0.206 F 
ATOM     90  C   UNL A   1      39.411  36.010  39.154  1.00  0.00     0.060 A 
BRANCH  90  91
ATOM     91  S   UNL A   1      39.249  37.164  40.533  1.00  0.00     0.124 S 
ATOM     92  O   UNL A   1      38.673  36.310  41.565  1.00  0.00    -0.237 OA
ATOM     93  O   UNL A   1      40.629  37.585  40.755  1.00  0.00    -0.237 OA
ATOM     94  O   UNL A   1      38.362  38.198  40.007  1.00  0.00    -0.744 OA
ENDBRANCH  90  91
ENDBRANCH  58  83
ENDBRANCH  32  33
ENDBRANCH  24  27
ENDBRANCH  22  23
ENDBRANCH  21  22
ENDBRANCH   1  21
TORSDOF 17
ENDMDL
