MODEL 1
REMARK VINA RESULT:     -10.1      0.000      0.000
REMARK SMILES [NH3+][C@H](CCc1c[nH]nc1C(F)(F)F)C(=O)NCCCCNC(=O)c1ccc(-c2c3nc(c(-c4c(F)cc(S(=O)(=O)[O-])cc4F)c4ccc([nH]4)c(-c4c(F)cc(S(=O)(=O)[O-])cc4F)c4nc(c(-c5c(F)cc(S(=O)(=O)[O-])cc5F)c5ccc2[nH]5)C=C4)C=C3)cc1
REMARK SMILES IDX 18 1 17 2 16 3 14 4 15 5 2 7 1 8 3 12 4 13 5 14 6 15 9 16
REMARK SMILES IDX 7 17 8 18 10 20 11 21 12 22 13 23 19 24 20 25 21 26 22 27
REMARK SMILES IDX 23 29 24 30 25 31 89 32 26 33 88 34 27 35 28 36 29 37 82 38
REMARK SMILES IDX 30 39 87 40 81 41 83 42 31 43 86 44 80 45 79 46 32 48 66 49
REMARK SMILES IDX 45 50 65 51 46 52 49 53 64 54 84 55 47 56 48 57 63 59 85 60
REMARK SMILES IDX 50 61 33 62 34 63 43 64 35 65 36 66 42 67 44 68 37 69 38 70
REMARK SMILES IDX 39 71 40 72 41 73 67 74 68 75 77 76 69 77 70 78 76 79 78 80
REMARK SMILES IDX 71 81 72 82 73 83 74 84 75 85 51 86 52 87 61 88 53 89 54 90
REMARK SMILES IDX 60 91 62 92 55 93 56 94 57 95 58 96 59 97
REMARK H PARENT 16 6 1 9 1 10 1 11 7 19 21 28 83 47 49 58
REMARK Flexibility Score: inf
ROOT
ATOM      1  C   UNL A   1      31.542  28.385  25.891  1.00  0.00     0.023 C 
ENDROOT
BRANCH   1   2
ATOM      2  C   UNL A   1      30.753  27.259  25.225  1.00  0.00     0.116 C 
BRANCH   2   3
ATOM      3  N   UNL A   1      30.238  27.662  23.933  1.00  0.00    -0.351 N 
ATOM      4  C   UNL A   1      30.849  27.776  22.718  1.00  0.00     0.278 C 
ATOM      5  O   UNL A   1      30.183  28.243  21.790  1.00  0.00    -0.268 OA
ATOM      6  H   UNL A   1      29.281  27.893  23.931  1.00  0.00     0.163 HD
BRANCH   4   7
ATOM      7  C   UNL A   1      32.325  27.362  22.503  1.00  0.00     0.271 C 
BRANCH   7   8
ATOM      8  N   UNL A   1      33.113  28.507  22.016  1.00  0.00    -0.347 N 
ATOM      9  H   UNL A   1      33.462  29.042  22.810  1.00  0.00     0.345 HD
ATOM     10  H   UNL A   1      32.523  29.104  21.437  1.00  0.00     0.345 HD
ATOM     11  H   UNL A   1      33.899  28.166  21.462  1.00  0.00     0.345 HD
ENDBRANCH   7   8
BRANCH   7  12
ATOM     12  C   UNL A   1      32.429  26.068  21.681  1.00  0.00     0.080 C 
BRANCH  12  13
ATOM     13  C   UNL A   1      33.362  24.972  22.196  1.00  0.00     0.046 C 
BRANCH  13  14
ATOM     14  C   UNL A   1      33.400  24.736  23.668  1.00  0.00     0.003 A 
ATOM     15  C   UNL A   1      34.431  25.109  24.508  1.00  0.00     0.109 A 
ATOM     16  C   UNL A   1      32.461  24.075  24.529  1.00  0.00     0.169 A 
ATOM     17  N   UNL A   1      34.080  24.713  25.758  1.00  0.00    -0.285 N 
ATOM     18  N   UNL A   1      32.904  24.078  25.804  1.00  0.00    -0.171 NA
ATOM     19  H   UNL A   1      34.637  24.878  26.554  1.00  0.00     0.189 HD
BRANCH  16  20
ATOM     20  C   UNL A   1      31.133  23.449  24.164  1.00  0.00     0.435 C 
ATOM     21  F   UNL A   1      30.233  24.357  23.700  1.00  0.00    -0.164 F 
ATOM     22  F   UNL A   1      31.267  22.497  23.204  1.00  0.00    -0.164 F 
ATOM     23  F   UNL A   1      30.539  22.845  25.229  1.00  0.00    -0.164 F 
ENDBRANCH  16  20
ENDBRANCH  13  14
ENDBRANCH  12  13
ENDBRANCH   7  12
ENDBRANCH   4   7
ENDBRANCH   2   3
ENDBRANCH   1   2
BRANCH   1  24
ATOM     24  C   UNL A   1      33.055  28.173  25.922  1.00  0.00     0.023 C 
BRANCH  24  25
ATOM     25  C   UNL A   1      33.719  28.455  27.264  1.00  0.00     0.116 C 
BRANCH  25  26
ATOM     26  N   UNL A   1      33.614  29.848  27.675  1.00  0.00    -0.352 N 
ATOM     27  C   UNL A   1      34.578  30.640  28.253  1.00  0.00     0.251 C 
ATOM     28  H   UNL A   1      32.741  30.277  27.519  1.00  0.00     0.163 HD
ATOM     29  O   UNL A   1      34.304  31.767  28.640  1.00  0.00    -0.269 OA
BRANCH  27  30
ATOM     30  C   UNL A   1      35.934  30.085  28.435  1.00  0.00     0.039 A 
ATOM     31  C   UNL A   1      36.818  30.097  27.355  1.00  0.00     0.014 A 
ATOM     32  C   UNL A   1      36.345  29.616  29.686  1.00  0.00     0.014 A 
ATOM     33  C   UNL A   1      38.142  29.700  27.548  1.00  0.00     0.010 A 
ATOM     34  C   UNL A   1      37.679  29.287  29.892  1.00  0.00     0.010 A 
ATOM     35  C   UNL A   1      38.591  29.328  28.825  1.00  0.00    -0.014 A 
BRANCH  35  36
ATOM     36  C   UNL A   1      40.011  28.977  29.070  1.00  0.00     0.031 A 
ATOM     37  C   UNL A   1      40.953  30.012  29.620  1.00  0.00     0.074 A 
ATOM     38  C   UNL A   1      40.464  27.753  28.733  1.00  0.00     0.049 A 
ATOM     39  N   UNL A   1      42.241  29.927  29.828  1.00  0.00    -0.248 NA
ATOM     40  C   UNL A   1      40.377  31.325  29.949  1.00  0.00     0.031 C 
ATOM     41  C   UNL A   1      39.655  26.685  28.138  1.00  0.00     0.029 A 
ATOM     42  N   UNL A   1      41.717  27.205  28.827  1.00  0.00    -0.354 N 
ATOM     43  C   UNL A   1      42.631  31.175  30.297  1.00  0.00     0.074 A 
ATOM     44  C   UNL A   1      41.454  32.016  30.293  1.00  0.00     0.031 C 
ATOM     45  C   UNL A   1      40.430  25.607  27.938  1.00  0.00     0.029 A 
ATOM     46  C   UNL A   1      41.793  25.916  28.357  1.00  0.00     0.049 A 
ATOM     47  H   UNL A   1      42.490  27.690  29.196  1.00  0.00     0.167 HD
ATOM     48  C   UNL A   1      43.854  31.576  30.719  1.00  0.00     0.037 A 
ATOM     49  C   UNL A   1      42.845  25.078  28.269  1.00  0.00     0.037 A 
ATOM     50  C   UNL A   1      45.014  30.725  30.748  1.00  0.00     0.049 A 
ATOM     51  C   UNL A   1      44.190  25.541  28.761  1.00  0.00     0.074 A 
ATOM     52  C   UNL A   1      46.285  31.017  31.209  1.00  0.00     0.029 A 
ATOM     53  N   UNL A   1      45.042  29.411  30.301  1.00  0.00    -0.354 N 
ATOM     54  N   UNL A   1      44.528  26.705  29.261  1.00  0.00    -0.248 NA
ATOM     55  C   UNL A   1      45.294  24.574  28.687  1.00  0.00     0.031 C 
ATOM     56  C   UNL A   1      47.091  29.891  31.011  1.00  0.00     0.029 A 
ATOM     57  C   UNL A   1      46.312  28.883  30.465  1.00  0.00     0.049 A 
ATOM     58  H   UNL A   1      44.273  28.926  29.924  1.00  0.00     0.167 HD
ATOM     59  C   UNL A   1      45.876  26.604  29.582  1.00  0.00     0.074 A 
ATOM     60  C   UNL A   1      46.289  25.260  29.232  1.00  0.00     0.031 C 
ATOM     61  C   UNL A   1      46.700  27.539  30.119  1.00  0.00     0.037 A 
BRANCH  48  62
ATOM     62  C   UNL A   1      43.993  32.995  31.195  1.00  0.00     0.058 A 
ATOM     63  C   UNL A   1      43.881  33.326  32.556  1.00  0.00     0.135 A 
ATOM     64  C   UNL A   1      44.265  34.032  30.290  1.00  0.00     0.135 A 
ATOM     65  F   UNL A   1      43.604  32.375  33.463  1.00  0.00    -0.206 F 
ATOM     66  C   UNL A   1      44.005  34.639  32.998  1.00  0.00     0.059 A 
ATOM     67  C   UNL A   1      44.419  35.349  30.712  1.00  0.00     0.059 A 
ATOM     68  F   UNL A   1      44.379  33.772  28.977  1.00  0.00    -0.206 F 
ATOM     69  C   UNL A   1      44.273  35.645  32.067  1.00  0.00     0.060 A 
BRANCH  69  70
ATOM     70  S   UNL A   1      44.433  37.342  32.658  1.00  0.00     0.124 S 
ATOM     71  O   UNL A   1      44.297  38.096  31.415  1.00  0.00    -0.237 OA
ATOM     72  O   UNL A   1      43.318  37.457  33.592  1.00  0.00    -0.237 OA
ATOM     73  O   UNL A   1      45.761  37.366  33.264  1.00  0.00    -0.744 OA
ENDBRANCH  69  70
ENDBRANCH  48  62
BRANCH  49  74
ATOM     74  C   UNL A   1      42.663  23.710  27.718  1.00  0.00     0.058 A 
ATOM     75  C   UNL A   1      42.734  23.474  26.337  1.00  0.00     0.135 A 
ATOM     76  C   UNL A   1      42.426  22.611  28.558  1.00  0.00     0.135 A 
ATOM     77  F   UNL A   1      42.955  24.494  25.493  1.00  0.00    -0.206 F 
ATOM     78  C   UNL A   1      42.563  22.200  25.805  1.00  0.00     0.059 A 
ATOM     79  C   UNL A   1      42.274  21.323  28.051  1.00  0.00     0.059 A 
ATOM     80  F   UNL A   1      42.367  22.782  29.888  1.00  0.00    -0.206 F 
ATOM     81  C   UNL A   1      42.333  21.130  26.671  1.00  0.00     0.060 A 
BRANCH  81  82
ATOM     82  S   UNL A   1      42.159  19.473  25.977  1.00  0.00     0.124 S 
ATOM     83  O   UNL A   1      40.720  19.399  25.751  1.00  0.00    -0.237 OA
ATOM     84  O   UNL A   1      42.990  19.553  24.779  1.00  0.00    -0.237 OA
ATOM     85  O   UNL A   1      42.680  18.611  27.033  1.00  0.00    -0.744 OA
ENDBRANCH  81  82
ENDBRANCH  49  74
BRANCH  61  86
ATOM     86  C   UNL A   1      48.120  27.133  30.391  1.00  0.00     0.058 A 
ATOM     87  C   UNL A   1      49.141  27.353  29.455  1.00  0.00     0.135 A 
ATOM     88  C   UNL A   1      48.472  26.568  31.628  1.00  0.00     0.135 A 
ATOM     89  F   UNL A   1      48.856  27.884  28.255  1.00  0.00    -0.206 F 
ATOM     90  C   UNL A   1      50.461  27.007  29.726  1.00  0.00     0.059 A 
ATOM     91  C   UNL A   1      49.788  26.237  31.930  1.00  0.00     0.059 A 
ATOM     92  F   UNL A   1      47.533  26.346  32.562  1.00  0.00    -0.206 F 
ATOM     93  C   UNL A   1      50.775  26.451  30.968  1.00  0.00     0.060 A 
BRANCH  93  94
ATOM     94  S   UNL A   1      52.497  26.041  31.324  1.00  0.00     0.124 S 
ATOM     95  O   UNL A   1      52.365  24.719  31.928  1.00  0.00    -0.237 OA
ATOM     96  O   UNL A   1      53.108  26.075  29.998  1.00  0.00    -0.237 OA
ATOM     97  O   UNL A   1      52.919  27.106  32.228  1.00  0.00    -0.744 OA
ENDBRANCH  93  94
ENDBRANCH  61  86
ENDBRANCH  35  36
ENDBRANCH  27  30
ENDBRANCH  25  26
ENDBRANCH  24  25
ENDBRANCH   1  24
TORSDOF 19
ENDMDL
MODEL 2
REMARK VINA RESULT:     -10.1      4.884      6.388
REMARK SMILES [NH3+][C@H](CCc1c[nH]nc1C(F)(F)F)C(=O)NCCCCNC(=O)c1ccc(-c2c3nc(c(-c4c(F)cc(S(=O)(=O)[O-])cc4F)c4ccc([nH]4)c(-c4c(F)cc(S(=O)(=O)[O-])cc4F)c4nc(c(-c5c(F)cc(S(=O)(=O)[O-])cc5F)c5ccc2[nH]5)C=C4)C=C3)cc1
REMARK SMILES IDX 18 1 17 2 16 3 14 4 15 5 2 7 1 8 3 12 4 13 5 14 6 15 9 16
REMARK SMILES IDX 7 17 8 18 10 20 11 21 12 22 13 23 19 24 20 25 21 26 22 27
REMARK SMILES IDX 23 29 24 30 25 31 89 32 26 33 88 34 27 35 28 36 29 37 82 38
REMARK SMILES IDX 30 39 87 40 81 41 83 42 31 43 86 44 80 45 79 46 32 48 66 49
REMARK SMILES IDX 45 50 65 51 46 52 49 53 64 54 84 55 47 56 48 57 63 59 85 60
REMARK SMILES IDX 50 61 33 62 34 63 43 64 35 65 36 66 42 67 44 68 37 69 38 70
REMARK SMILES IDX 39 71 40 72 41 73 67 74 68 75 77 76 69 77 70 78 76 79 78 80
REMARK SMILES IDX 71 81 72 82 73 83 74 84 75 85 51 86 52 87 61 88 53 89 54 90
REMARK SMILES IDX 60 91 62 92 55 93 56 94 57 95 58 96 59 97
REMARK H PARENT 16 6 1 9 1 10 1 11 7 19 21 28 83 47 49 58
REMARK Flexibility Score: inf
ROOT
ATOM      1  C   UNL A   1      32.315  30.427  26.155  1.00  0.00     0.023 C 
ENDROOT
BRANCH   1   2
ATOM      2  C   UNL A   1      31.924  29.119  26.842  1.00  0.00     0.116 C 
BRANCH   2   3
ATOM      3  N   UNL A   1      32.823  28.042  26.487  1.00  0.00    -0.351 N 
ATOM      4  C   UNL A   1      32.580  26.740  26.158  1.00  0.00     0.278 C 
ATOM      5  O   UNL A   1      33.558  26.005  25.992  1.00  0.00    -0.268 OA
ATOM      6  H   UNL A   1      33.775  28.292  26.480  1.00  0.00     0.163 HD
BRANCH   4   7
ATOM      7  C   UNL A   1      31.142  26.187  26.017  1.00  0.00     0.271 C 
BRANCH   7   8
ATOM      8  N   UNL A   1      31.001  24.928  26.768  1.00  0.00    -0.347 N 
ATOM      9  H   UNL A   1      30.121  24.935  27.283  1.00  0.00     0.345 HD
ATOM     10  H   UNL A   1      31.777  24.833  27.423  1.00  0.00     0.345 HD
ATOM     11  H   UNL A   1      31.007  24.143  26.117  1.00  0.00     0.345 HD
ENDBRANCH   7   8
BRANCH   7  12
ATOM     12  C   UNL A   1      30.695  26.153  24.548  1.00  0.00     0.080 C 
BRANCH  12  13
ATOM     13  C   UNL A   1      29.645  27.170  24.100  1.00  0.00     0.046 C 
BRANCH  13  14
ATOM     14  C   UNL A   1      30.094  28.272  23.200  1.00  0.00     0.003 A 
ATOM     15  C   UNL A   1      31.397  28.492  22.800  1.00  0.00     0.109 A 
ATOM     16  C   UNL A   1      29.348  29.335  22.589  1.00  0.00     0.169 A 
ATOM     17  N   UNL A   1      31.380  29.585  21.994  1.00  0.00    -0.285 N 
ATOM     18  N   UNL A   1      30.163  30.122  21.854  1.00  0.00    -0.171 NA
ATOM     19  H   UNL A   1      32.184  29.946  21.555  1.00  0.00     0.189 HD
BRANCH  16  20
ATOM     20  C   UNL A   1      27.864  29.611  22.676  1.00  0.00     0.435 C 
ATOM     21  F   UNL A   1      27.360  30.142  21.529  1.00  0.00    -0.164 F 
ATOM     22  F   UNL A   1      27.151  28.485  22.938  1.00  0.00    -0.164 F 
ATOM     23  F   UNL A   1      27.563  30.500  23.661  1.00  0.00    -0.164 F 
ENDBRANCH  16  20
ENDBRANCH  13  14
ENDBRANCH  12  13
ENDBRANCH   7  12
ENDBRANCH   4   7
ENDBRANCH   2   3
ENDBRANCH   1   2
BRANCH   1  24
ATOM     24  C   UNL A   1      31.912  31.691  26.912  1.00  0.00     0.023 C 
BRANCH  24  25
ATOM     25  C   UNL A   1      33.073  32.520  27.446  1.00  0.00     0.116 C 
BRANCH  25  26
ATOM     26  N   UNL A   1      32.708  33.900  27.737  1.00  0.00    -0.352 N 
ATOM     27  C   UNL A   1      33.222  34.730  28.705  1.00  0.00     0.251 C 
ATOM     28  H   UNL A   1      32.005  34.287  27.167  1.00  0.00     0.163 HD
ATOM     29  O   UNL A   1      32.736  35.836  28.894  1.00  0.00    -0.269 OA
BRANCH  27  30
ATOM     30  C   UNL A   1      34.341  34.242  29.536  1.00  0.00     0.039 A 
ATOM     31  C   UNL A   1      34.053  33.523  30.698  1.00  0.00     0.014 A 
ATOM     32  C   UNL A   1      35.663  34.442  29.131  1.00  0.00     0.014 A 
ATOM     33  C   UNL A   1      35.097  32.943  31.421  1.00  0.00     0.010 A 
ATOM     34  C   UNL A   1      36.693  33.806  29.813  1.00  0.00     0.010 A 
ATOM     35  C   UNL A   1      36.420  33.049  30.963  1.00  0.00    -0.014 A 
BRANCH  35  36
ATOM     36  C   UNL A   1      37.536  32.375  31.671  1.00  0.00     0.031 A 
ATOM     37  C   UNL A   1      38.014  32.907  32.993  1.00  0.00     0.074 A 
ATOM     38  C   UNL A   1      38.161  31.332  31.089  1.00  0.00     0.049 A 
ATOM     39  N   UNL A   1      39.020  32.510  33.727  1.00  0.00    -0.248 NA
ATOM     40  C   UNL A   1      37.282  34.056  33.549  1.00  0.00     0.031 C 
ATOM     41  C   UNL A   1      37.823  30.763  29.782  1.00  0.00     0.029 A 
ATOM     42  N   UNL A   1      39.220  30.572  31.516  1.00  0.00    -0.354 N 
ATOM     43  C   UNL A   1      39.053  33.367  34.820  1.00  0.00     0.074 A 
ATOM     44  C   UNL A   1      37.998  34.338  34.628  1.00  0.00     0.031 C 
ATOM     45  C   UNL A   1      38.648  29.736  29.522  1.00  0.00     0.029 A 
ATOM     46  C   UNL A   1      39.591  29.592  30.626  1.00  0.00     0.049 A 
ATOM     47  H   UNL A   1      39.672  30.716  32.378  1.00  0.00     0.167 HD
ATOM     48  C   UNL A   1      39.869  33.331  35.900  1.00  0.00     0.037 A 
ATOM     49  C   UNL A   1      40.585  28.684  30.690  1.00  0.00     0.037 A 
ATOM     50  C   UNL A   1      40.897  32.343  36.098  1.00  0.00     0.049 A 
ATOM     51  C   UNL A   1      41.468  28.653  31.908  1.00  0.00     0.074 A 
ATOM     52  C   UNL A   1      41.742  32.185  37.182  1.00  0.00     0.029 A 
ATOM     53  N   UNL A   1      41.217  31.342  35.192  1.00  0.00    -0.354 N 
ATOM     54  N   UNL A   1      41.444  29.432  32.963  1.00  0.00    -0.248 NA
ATOM     55  C   UNL A   1      42.506  27.614  31.950  1.00  0.00     0.031 C 
ATOM     56  C   UNL A   1      42.594  31.108  36.918  1.00  0.00     0.029 A 
ATOM     57  C   UNL A   1      42.254  30.569  35.688  1.00  0.00     0.049 A 
ATOM     58  H   UNL A   1      40.772  31.201  34.326  1.00  0.00     0.167 HD
ATOM     59  C   UNL A   1      42.446  28.964  33.804  1.00  0.00     0.074 A 
ATOM     60  C   UNL A   1      43.050  27.825  33.141  1.00  0.00     0.031 C 
ATOM     61  C   UNL A   1      42.834  29.434  35.016  1.00  0.00     0.037 A 
BRANCH  48  62
ATOM     62  C   UNL A   1      39.673  34.384  36.954  1.00  0.00     0.058 A 
ATOM     63  C   UNL A   1      39.006  34.102  38.157  1.00  0.00     0.135 A 
ATOM     64  C   UNL A   1      40.176  35.681  36.773  1.00  0.00     0.135 A 
ATOM     65  F   UNL A   1      38.490  32.881  38.374  1.00  0.00    -0.206 F 
ATOM     66  C   UNL A   1      38.820  35.076  39.132  1.00  0.00     0.059 A 
ATOM     67  C   UNL A   1      40.024  36.666  37.746  1.00  0.00     0.059 A 
ATOM     68  F   UNL A   1      40.819  36.006  35.640  1.00  0.00    -0.206 F 
ATOM     69  C   UNL A   1      39.332  36.357  38.917  1.00  0.00     0.060 A 
BRANCH  69  70
ATOM     70  S   UNL A   1      39.084  37.609  40.193  1.00  0.00     0.124 S 
ATOM     71  O   UNL A   1      38.528  36.808  41.280  1.00  0.00    -0.237 OA
ATOM     72  O   UNL A   1      40.437  38.111  40.406  1.00  0.00    -0.237 OA
ATOM     73  O   UNL A   1      38.159  38.550  39.569  1.00  0.00    -0.744 OA
ENDBRANCH  69  70
ENDBRANCH  48  62
BRANCH  49  74
ATOM     74  C   UNL A   1      40.779  27.715  29.580  1.00  0.00     0.058 A 
ATOM     75  C   UNL A   1      39.916  26.621  29.418  1.00  0.00     0.135 A 
ATOM     76  C   UNL A   1      41.821  27.869  28.652  1.00  0.00     0.135 A 
ATOM     77  F   UNL A   1      38.908  26.430  30.282  1.00  0.00    -0.206 F 
ATOM     78  C   UNL A   1      40.087  25.704  28.386  1.00  0.00     0.059 A 
ATOM     79  C   UNL A   1      41.999  26.978  27.598  1.00  0.00     0.059 A 
ATOM     80  F   UNL A   1      42.663  28.910  28.753  1.00  0.00    -0.206 F 
ATOM     81  C   UNL A   1      41.132  25.892  27.480  1.00  0.00     0.060 A 
BRANCH  81  82
ATOM     82  S   UNL A   1      41.318  24.724  26.116  1.00  0.00     0.124 S 
ATOM     83  O   UNL A   1      41.602  25.620  25.000  1.00  0.00    -0.237 OA
ATOM     84  O   UNL A   1      42.431  23.895  26.569  1.00  0.00    -0.237 OA
ATOM     85  O   UNL A   1      40.024  24.050  26.073  1.00  0.00    -0.744 OA
ENDBRANCH  81  82
ENDBRANCH  49  74
BRANCH  61  86
ATOM     86  C   UNL A   1      43.939  28.698  35.720  1.00  0.00     0.058 A 
ATOM     87  C   UNL A   1      43.673  27.635  36.596  1.00  0.00     0.135 A 
ATOM     88  C   UNL A   1      45.281  29.026  35.471  1.00  0.00     0.135 A 
ATOM     89  F   UNL A   1      42.407  27.286  36.872  1.00  0.00    -0.206 F 
ATOM     90  C   UNL A   1      44.701  26.934  37.218  1.00  0.00     0.059 A 
ATOM     91  C   UNL A   1      46.325  28.324  36.062  1.00  0.00     0.059 A 
ATOM     92  F   UNL A   1      45.588  30.030  34.633  1.00  0.00    -0.206 F 
ATOM     93  C   UNL A   1      46.024  27.285  36.943  1.00  0.00     0.060 A 
BRANCH  93  94
ATOM     94  S   UNL A   1      47.351  26.344  37.727  1.00  0.00     0.124 S 
ATOM     95  O   UNL A   1      46.779  25.003  37.766  1.00  0.00    -0.237 OA
ATOM     96  O   UNL A   1      48.462  26.534  36.797  1.00  0.00    -0.237 OA
ATOM     97  O   UNL A   1      47.510  26.998  39.022  1.00  0.00    -0.744 OA
ENDBRANCH  93  94
ENDBRANCH  61  86
ENDBRANCH  35  36
ENDBRANCH  27  30
ENDBRANCH  25  26
ENDBRANCH  24  25
ENDBRANCH   1  24
TORSDOF 19
ENDMDL
MODEL 3
REMARK VINA RESULT:     -10.1      2.136      2.921
REMARK SMILES [NH3+][C@H](CCc1c[nH]nc1C(F)(F)F)C(=O)NCCCCNC(=O)c1ccc(-c2c3nc(c(-c4c(F)cc(S(=O)(=O)[O-])cc4F)c4ccc([nH]4)c(-c4c(F)cc(S(=O)(=O)[O-])cc4F)c4nc(c(-c5c(F)cc(S(=O)(=O)[O-])cc5F)c5ccc2[nH]5)C=C4)C=C3)cc1
REMARK SMILES IDX 18 1 17 2 16 3 14 4 15 5 2 7 1 8 3 12 4 13 5 14 6 15 9 16
REMARK SMILES IDX 7 17 8 18 10 20 11 21 12 22 13 23 19 24 20 25 21 26 22 27
REMARK SMILES IDX 23 29 24 30 25 31 89 32 26 33 88 34 27 35 28 36 29 37 82 38
REMARK SMILES IDX 30 39 87 40 81 41 83 42 31 43 86 44 80 45 79 46 32 48 66 49
REMARK SMILES IDX 45 50 65 51 46 52 49 53 64 54 84 55 47 56 48 57 63 59 85 60
REMARK SMILES IDX 50 61 33 62 34 63 43 64 35 65 36 66 42 67 44 68 37 69 38 70
REMARK SMILES IDX 39 71 40 72 41 73 67 74 68 75 77 76 69 77 70 78 76 79 78 80
REMARK SMILES IDX 71 81 72 82 73 83 74 84 75 85 51 86 52 87 61 88 53 89 54 90
REMARK SMILES IDX 60 91 62 92 55 93 56 94 57 95 58 96 59 97
REMARK H PARENT 16 6 1 9 1 10 1 11 7 19 21 28 83 47 49 58
REMARK Flexibility Score: inf
ROOT
ATOM      1  C   UNL A   1      31.526  27.600  25.914  1.00  0.00     0.023 C 
ENDROOT
BRANCH   1   2
ATOM      2  C   UNL A   1      31.257  26.096  25.874  1.00  0.00     0.116 C 
BRANCH   2   3
ATOM      3  N   UNL A   1      32.461  25.334  26.132  1.00  0.00    -0.351 N 
ATOM      4  C   UNL A   1      32.723  24.000  26.012  1.00  0.00     0.278 C 
ATOM      5  O   UNL A   1      33.825  23.602  26.399  1.00  0.00    -0.268 OA
ATOM      6  H   UNL A   1      33.223  25.871  26.449  1.00  0.00     0.163 HD
BRANCH   4   7
ATOM      7  C   UNL A   1      31.682  23.012  25.434  1.00  0.00     0.271 C 
BRANCH   7   8
ATOM      8  N   UNL A   1      30.986  22.306  26.524  1.00  0.00    -0.347 N 
ATOM      9  H   UNL A   1      30.773  21.353  26.230  1.00  0.00     0.345 HD
ATOM     10  H   UNL A   1      30.120  22.795  26.748  1.00  0.00     0.345 HD
ATOM     11  H   UNL A   1      31.586  22.281  27.349  1.00  0.00     0.345 HD
ENDBRANCH   7   8
BRANCH   7  12
ATOM     12  C   UNL A   1      32.296  22.128  24.338  1.00  0.00     0.080 C 
BRANCH  12  13
ATOM     13  C   UNL A   1      32.589  20.668  24.682  1.00  0.00     0.046 C 
BRANCH  13  14
ATOM     14  C   UNL A   1      32.454  19.662  23.589  1.00  0.00     0.003 A 
ATOM     15  C   UNL A   1      32.082  19.945  22.289  1.00  0.00     0.109 A 
ATOM     16  C   UNL A   1      32.627  18.238  23.609  1.00  0.00     0.169 A 
ATOM     17  N   UNL A   1      32.078  18.764  21.618  1.00  0.00    -0.285 N 
ATOM     18  N   UNL A   1      32.392  17.716  22.386  1.00  0.00    -0.171 NA
ATOM     19  H   UNL A   1      31.866  18.688  20.660  1.00  0.00     0.189 HD
BRANCH  16  20
ATOM     20  C   UNL A   1      33.029  17.357  24.771  1.00  0.00     0.435 C 
ATOM     21  F   UNL A   1      32.410  17.704  25.932  1.00  0.00    -0.164 F 
ATOM     22  F   UNL A   1      32.740  16.050  24.542  1.00  0.00    -0.164 F 
ATOM     23  F   UNL A   1      34.364  17.421  25.027  1.00  0.00    -0.164 F 
ENDBRANCH  16  20
ENDBRANCH  13  14
ENDBRANCH  12  13
ENDBRANCH   7  12
ENDBRANCH   4   7
ENDBRANCH   2   3
ENDBRANCH   1   2
BRANCH   1  24
ATOM     24  C   UNL A   1      33.005  27.985  25.910  1.00  0.00     0.023 C 
BRANCH  24  25
ATOM     25  C   UNL A   1      33.587  28.324  27.276  1.00  0.00     0.116 C 
BRANCH  25  26
ATOM     26  N   UNL A   1      33.476  29.736  27.614  1.00  0.00    -0.352 N 
ATOM     27  C   UNL A   1      34.440  30.563  28.140  1.00  0.00     0.251 C 
ATOM     28  H   UNL A   1      32.599  30.150  27.444  1.00  0.00     0.163 HD
ATOM     29  O   UNL A   1      34.162  31.708  28.469  1.00  0.00    -0.269 OA
BRANCH  27  30
ATOM     30  C   UNL A   1      35.802  30.028  28.337  1.00  0.00     0.039 A 
ATOM     31  C   UNL A   1      36.708  30.083  27.277  1.00  0.00     0.014 A 
ATOM     32  C   UNL A   1      36.194  29.534  29.585  1.00  0.00     0.014 A 
ATOM     33  C   UNL A   1      38.035  29.705  27.489  1.00  0.00     0.010 A 
ATOM     34  C   UNL A   1      37.529  29.223  29.811  1.00  0.00     0.010 A 
ATOM     35  C   UNL A   1      38.462  29.307  28.766  1.00  0.00    -0.014 A 
BRANCH  35  36
ATOM     36  C   UNL A   1      39.883  28.976  29.034  1.00  0.00     0.031 A 
ATOM     37  C   UNL A   1      40.803  30.023  29.598  1.00  0.00     0.074 A 
ATOM     38  C   UNL A   1      40.358  27.758  28.703  1.00  0.00     0.049 A 
ATOM     39  N   UNL A   1      42.088  29.955  29.827  1.00  0.00    -0.248 NA
ATOM     40  C   UNL A   1      40.204  31.328  29.919  1.00  0.00     0.031 C 
ATOM     41  C   UNL A   1      39.573  26.680  28.095  1.00  0.00     0.029 A 
ATOM     42  N   UNL A   1      41.617  27.227  28.817  1.00  0.00    -0.354 N 
ATOM     43  C   UNL A   1      42.455  31.208  30.303  1.00  0.00     0.074 A 
ATOM     44  C   UNL A   1      41.267  32.033  30.280  1.00  0.00     0.031 C 
ATOM     45  C   UNL A   1      40.365  25.612  27.907  1.00  0.00     0.029 A 
ATOM     46  C   UNL A   1      41.717  25.939  28.347  1.00  0.00     0.049 A 
ATOM     47  H   UNL A   1      42.377  27.722  29.197  1.00  0.00     0.167 HD
ATOM     48  C   UNL A   1      43.665  31.625  30.744  1.00  0.00     0.037 A 
ATOM     49  C   UNL A   1      42.782  25.115  28.276  1.00  0.00     0.037 A 
ATOM     50  C   UNL A   1      44.836  30.789  30.791  1.00  0.00     0.049 A 
ATOM     51  C   UNL A   1      44.112  25.595  28.789  1.00  0.00     0.074 A 
ATOM     52  C   UNL A   1      46.095  31.098  31.271  1.00  0.00     0.029 A 
ATOM     53  N   UNL A   1      44.888  29.476  30.344  1.00  0.00    -0.354 N 
ATOM     54  N   UNL A   1      44.427  26.764  29.294  1.00  0.00    -0.248 NA
ATOM     55  C   UNL A   1      45.230  24.644  28.732  1.00  0.00     0.031 C 
ATOM     56  C   UNL A   1      46.919  29.983  31.085  1.00  0.00     0.029 A 
ATOM     57  C   UNL A   1      46.163  28.965  30.527  1.00  0.00     0.049 A 
ATOM     58  H   UNL A   1      44.132  28.981  29.955  1.00  0.00     0.167 HD
ATOM     59  C   UNL A   1      45.771  26.681  29.637  1.00  0.00     0.074 A 
ATOM     60  C   UNL A   1      46.207  25.343  29.292  1.00  0.00     0.031 C 
ATOM     61  C   UNL A   1      46.574  27.627  30.186  1.00  0.00     0.037 A 
BRANCH  48  62
ATOM     62  C   UNL A   1      43.777  33.045  31.223  1.00  0.00     0.058 A 
ATOM     63  C   UNL A   1      44.136  34.086  30.351  1.00  0.00     0.135 A 
ATOM     64  C   UNL A   1      43.500  33.376  32.558  1.00  0.00     0.135 A 
ATOM     65  F   UNL A   1      44.429  33.822  29.067  1.00  0.00    -0.206 F 
ATOM     66  C   UNL A   1      44.245  35.400  30.792  1.00  0.00     0.059 A 
ATOM     67  C   UNL A   1      43.577  34.689  33.016  1.00  0.00     0.059 A 
ATOM     68  F   UNL A   1      43.155  32.420  33.434  1.00  0.00    -0.206 F 
ATOM     69  C   UNL A   1      43.964  35.692  32.128  1.00  0.00     0.060 A 
BRANCH  69  70
ATOM     70  S   UNL A   1      44.107  37.403  32.684  1.00  0.00     0.124 S 
ATOM     71  O   UNL A   1      45.478  37.430  33.187  1.00  0.00    -0.237 OA
ATOM     72  O   UNL A   1      43.869  38.153  31.455  1.00  0.00    -0.237 OA
ATOM     73  O   UNL A   1      43.064  37.518  33.698  1.00  0.00    -0.744 OA
ENDBRANCH  69  70
ENDBRANCH  48  62
BRANCH  49  74
ATOM     74  C   UNL A   1      42.626  23.746  27.720  1.00  0.00     0.058 A 
ATOM     75  C   UNL A   1      42.671  23.518  26.337  1.00  0.00     0.135 A 
ATOM     76  C   UNL A   1      42.442  22.636  28.560  1.00  0.00     0.135 A 
ATOM     77  F   UNL A   1      42.841  24.549  25.495  1.00  0.00    -0.206 F 
ATOM     78  C   UNL A   1      42.524  22.243  25.802  1.00  0.00     0.059 A 
ATOM     79  C   UNL A   1      42.316  21.347  28.050  1.00  0.00     0.059 A 
ATOM     80  F   UNL A   1      42.410  22.798  29.892  1.00  0.00    -0.206 F 
ATOM     81  C   UNL A   1      42.347  21.162  26.668  1.00  0.00     0.060 A 
BRANCH  81  82
ATOM     82  S   UNL A   1      42.205  19.504  25.968  1.00  0.00     0.124 S 
ATOM     83  O   UNL A   1      42.643  18.676  27.086  1.00  0.00    -0.237 OA
ATOM     84  O   UNL A   1      40.786  19.430  25.636  1.00  0.00    -0.237 OA
ATOM     85  O   UNL A   1      43.106  19.547  24.821  1.00  0.00    -0.744 OA
ENDBRANCH  81  82
ENDBRANCH  49  74
BRANCH  61  86
ATOM     86  C   UNL A   1      47.995  27.239  30.481  1.00  0.00     0.058 A 
ATOM     87  C   UNL A   1      49.038  27.534  29.591  1.00  0.00     0.135 A 
ATOM     88  C   UNL A   1      48.323  26.615  31.696  1.00  0.00     0.135 A 
ATOM     89  F   UNL A   1      48.776  28.124  28.414  1.00  0.00    -0.206 F 
ATOM     90  C   UNL A   1      50.357  27.204  29.884  1.00  0.00     0.059 A 
ATOM     91  C   UNL A   1      49.637  26.299  32.021  1.00  0.00     0.059 A 
ATOM     92  F   UNL A   1      47.362  26.320  32.586  1.00  0.00    -0.206 F 
ATOM     93  C   UNL A   1      50.647  26.589  31.103  1.00  0.00     0.060 A 
BRANCH  93  94
ATOM     94  S   UNL A   1      52.367  26.199  31.490  1.00  0.00     0.124 S 
ATOM     95  O   UNL A   1      52.755  27.351  32.297  1.00  0.00    -0.237 OA
ATOM     96  O   UNL A   1      52.248  24.932  32.207  1.00  0.00    -0.237 OA
ATOM     97  O   UNL A   1      52.998  26.110  30.177  1.00  0.00    -0.744 OA
ENDBRANCH  93  94
ENDBRANCH  61  86
ENDBRANCH  35  36
ENDBRANCH  27  30
ENDBRANCH  25  26
ENDBRANCH  24  25
ENDBRANCH   1  24
TORSDOF 19
ENDMDL
