MODEL 1
REMARK VINA RESULT:     -10.7      0.000      0.000
REMARK SMILES CC(C)[C@@H](NC(=O)c1ccc2[nH]nnc2c1)C(=O)NCCCCNC(=O)c1ccc(-c2c3nc(c(-c4c(F)cc(S(=O)(=O)[O-])cc4F)c4ccc([nH]4)c(-c4c(F)cc(S(=O)(=O)[O-])cc4F)c4nc(c(-c5c(F)cc(S(=O)(=O)[O-])cc5F)c5ccc2[nH]5)C=C4)C=C3)cc1
REMARK SMILES IDX 22 1 21 2 20 3 19 4 17 5 18 6 4 8 2 9 1 10 3 11 5 12 6 13
REMARK SMILES IDX 7 15 8 16 9 17 16 18 10 19 15 20 11 21 14 22 12 23 13 24
REMARK SMILES IDX 23 26 24 27 25 28 26 30 27 31 28 32 92 33 29 34 91 35 30 36
REMARK SMILES IDX 31 37 32 38 85 39 33 40 90 41 84 42 86 43 34 44 89 45 83 46
REMARK SMILES IDX 82 47 35 49 69 50 48 51 68 52 49 53 52 54 67 55 87 56 50 57
REMARK SMILES IDX 51 58 66 60 88 61 53 62 36 63 37 64 46 65 38 66 39 67 45 68
REMARK SMILES IDX 47 69 40 70 41 71 42 72 43 73 44 74 70 75 71 76 80 77 72 78
REMARK SMILES IDX 73 79 79 80 81 81 74 82 75 83 76 84 77 85 78 86 54 87 55 88
REMARK SMILES IDX 64 89 56 90 57 91 63 92 65 93 58 94 59 95 60 96 61 97 62 98
REMARK H PARENT 19 7 5 14 12 25 24 29 86 48 52 59
REMARK Flexibility Score: inf
ROOT
ATOM      1  C   UNL A   1      35.189  33.089  28.026  1.00  0.00     0.023 C 
ENDROOT
BRANCH   1   2
ATOM      2  C   UNL A   1      36.457  33.807  28.500  1.00  0.00     0.023 C 
BRANCH   2   3
ATOM      3  C   UNL A   1      37.353  32.947  29.381  1.00  0.00     0.116 C 
BRANCH   3   4
ATOM      4  N   UNL A   1      38.121  33.779  30.287  1.00  0.00    -0.354 N 
ATOM      5  C   UNL A   1      38.162  33.778  31.645  1.00  0.00     0.242 C 
ATOM      6  O   UNL A   1      38.787  34.684  32.207  1.00  0.00    -0.273 OA
ATOM      7  H   UNL A   1      38.699  34.446  29.852  1.00  0.00     0.163 HD
BRANCH   5   8
ATOM      8  C   UNL A   1      37.360  32.754  32.475  1.00  0.00     0.174 C 
BRANCH   8   9
ATOM      9  C   UNL A   1      38.167  31.413  32.519  1.00  0.00     0.015 C 
ATOM     10  C   UNL A   1      39.420  31.486  33.396  1.00  0.00     0.010 C 
ATOM     11  C   UNL A   1      37.307  30.233  32.995  1.00  0.00     0.010 C 
ENDBRANCH   8   9
BRANCH   8  12
ATOM     12  N   UNL A   1      36.989  33.225  33.830  1.00  0.00    -0.340 N 
ATOM     13  C   UNL A   1      35.811  33.762  34.304  1.00  0.00     0.252 C 
ATOM     14  H   UNL A   1      37.702  33.139  34.504  1.00  0.00     0.164 HD
ATOM     15  O   UNL A   1      35.571  33.735  35.507  1.00  0.00    -0.269 OA
BRANCH  13  16
ATOM     16  C   UNL A   1      34.935  34.546  33.413  1.00  0.00     0.042 A 
ATOM     17  C   UNL A   1      34.572  34.093  32.141  1.00  0.00     0.016 A 
ATOM     18  C   UNL A   1      34.575  35.827  33.867  1.00  0.00     0.046 A 
ATOM     19  C   UNL A   1      33.947  34.956  31.226  1.00  0.00     0.031 A 
ATOM     20  C   UNL A   1      33.999  36.706  32.945  1.00  0.00     0.113 A 
ATOM     21  C   UNL A   1      33.720  36.265  31.659  1.00  0.00     0.086 A 
ATOM     22  N   UNL A   1      33.686  38.032  33.056  1.00  0.00    -0.130 NA
ATOM     23  N   UNL A   1      33.245  37.394  31.046  1.00  0.00    -0.258 N 
ATOM     24  N   UNL A   1      33.249  38.451  31.876  1.00  0.00    -0.069 NA
ATOM     25  H   UNL A   1      32.939  37.427  30.111  1.00  0.00     0.192 HD
ENDBRANCH  13  16
ENDBRANCH   8  12
ENDBRANCH   5   8
ENDBRANCH   3   4
ENDBRANCH   2   3
ENDBRANCH   1   2
BRANCH   1  26
ATOM     26  C   UNL A   1      34.599  32.105  29.031  1.00  0.00     0.116 C 
BRANCH  26  27
ATOM     27  N   UNL A   1      34.036  30.928  28.388  1.00  0.00    -0.352 N 
ATOM     28  C   UNL A   1      34.694  29.820  27.916  1.00  0.00     0.251 C 
ATOM     29  H   UNL A   1      33.058  30.926  28.278  1.00  0.00     0.163 HD
ATOM     30  O   UNL A   1      34.090  28.979  27.257  1.00  0.00    -0.269 OA
BRANCH  28  31
ATOM     31  C   UNL A   1      36.140  29.675  28.174  1.00  0.00     0.039 A 
ATOM     32  C   UNL A   1      36.554  29.206  29.423  1.00  0.00     0.014 A 
ATOM     33  C   UNL A   1      37.077  29.971  27.180  1.00  0.00     0.014 A 
ATOM     34  C   UNL A   1      37.912  28.987  29.658  1.00  0.00     0.010 A 
ATOM     35  C   UNL A   1      38.423  29.689  27.394  1.00  0.00     0.010 A 
ATOM     36  C   UNL A   1      38.854  29.203  28.637  1.00  0.00    -0.014 A 
BRANCH  36  37
ATOM     37  C   UNL A   1      40.296  28.934  28.872  1.00  0.00     0.031 A 
ATOM     38  C   UNL A   1      40.878  27.592  28.518  1.00  0.00     0.074 A 
ATOM     39  C   UNL A   1      41.067  29.882  29.439  1.00  0.00     0.049 A 
ATOM     40  N   UNL A   1      42.109  27.168  28.651  1.00  0.00    -0.248 NA
ATOM     41  C   UNL A   1      39.956  26.590  27.962  1.00  0.00     0.031 C 
ATOM     42  C   UNL A   1      40.601  31.198  29.885  1.00  0.00     0.029 A 
ATOM     43  N   UNL A   1      42.405  29.885  29.742  1.00  0.00    -0.354 N 
ATOM     44  C   UNL A   1      42.103  25.850  28.211  1.00  0.00     0.074 A 
ATOM     45  C   UNL A   1      40.741  25.528  27.851  1.00  0.00     0.031 C 
ATOM     46  C   UNL A   1      41.640  31.886  30.387  1.00  0.00     0.029 A 
ATOM     47  C   UNL A   1      42.839  31.055  30.320  1.00  0.00     0.049 A 
ATOM     48  H   UNL A   1      42.999  29.121  29.564  1.00  0.00     0.167 HD
ATOM     49  C   UNL A   1      43.145  24.992  28.096  1.00  0.00     0.037 A 
ATOM     50  C   UNL A   1      44.064  31.418  30.747  1.00  0.00     0.037 A 
ATOM     51  C   UNL A   1      44.506  25.328  28.428  1.00  0.00     0.049 A 
ATOM     52  C   UNL A   1      45.212  30.461  30.570  1.00  0.00     0.074 A 
ATOM     53  C   UNL A   1      45.643  24.552  28.286  1.00  0.00     0.029 A 
ATOM     54  N   UNL A   1      44.913  26.539  28.968  1.00  0.00    -0.354 N 
ATOM     55  N   UNL A   1      45.203  29.245  30.079  1.00  0.00    -0.248 NA
ATOM     56  C   UNL A   1      46.539  30.932  30.986  1.00  0.00     0.031 C 
ATOM     57  C   UNL A   1      46.733  25.280  28.774  1.00  0.00     0.029 A 
ATOM     58  C   UNL A   1      46.283  26.527  29.178  1.00  0.00     0.049 A 
ATOM     59  H   UNL A   1      44.317  27.295  29.172  1.00  0.00     0.167 HD
ATOM     60  C   UNL A   1      46.526  28.817  30.100  1.00  0.00     0.074 A 
ATOM     61  C   UNL A   1      47.308  29.909  30.641  1.00  0.00     0.031 C 
ATOM     62  C   UNL A   1      47.047  27.627  29.708  1.00  0.00     0.037 A 
BRANCH  49  63
ATOM     63  C   UNL A   1      42.859  23.607  27.583  1.00  0.00     0.058 A 
ATOM     64  C   UNL A   1      42.856  23.317  26.209  1.00  0.00     0.135 A 
ATOM     65  C   UNL A   1      42.628  22.549  28.476  1.00  0.00     0.135 A 
ATOM     66  F   UNL A   1      43.054  24.295  25.310  1.00  0.00    -0.206 F 
ATOM     67  C   UNL A   1      42.615  22.031  25.738  1.00  0.00     0.059 A 
ATOM     68  C   UNL A   1      42.412  21.249  28.028  1.00  0.00     0.059 A 
ATOM     69  F   UNL A   1      42.617  22.771  29.799  1.00  0.00    -0.206 F 
ATOM     70  C   UNL A   1      42.397  21.002  26.655  1.00  0.00     0.060 A 
BRANCH  70  71
ATOM     71  S   UNL A   1      42.114  19.333  26.029  1.00  0.00     0.124 S 
ATOM     72  O   UNL A   1      42.521  18.520  27.172  1.00  0.00    -0.237 OA
ATOM     73  O   UNL A   1      40.683  19.345  25.740  1.00  0.00    -0.237 OA
ATOM     74  O   UNL A   1      42.985  19.255  24.862  1.00  0.00    -0.744 OA
ENDBRANCH  70  71
ENDBRANCH  49  63
BRANCH  50  75
ATOM     75  C   UNL A   1      44.274  32.758  31.357  1.00  0.00     0.058 A 
ATOM     76  C   UNL A   1      44.150  32.952  32.740  1.00  0.00     0.135 A 
ATOM     77  C   UNL A   1      44.601  33.870  30.567  1.00  0.00     0.135 A 
ATOM     78  F   UNL A   1      43.835  31.921  33.537  1.00  0.00    -0.206 F 
ATOM     79  C   UNL A   1      44.319  34.207  33.318  1.00  0.00     0.059 A 
ATOM     80  C   UNL A   1      44.801  35.130  31.124  1.00  0.00     0.059 A 
ATOM     81  F   UNL A   1      44.750  33.734  29.240  1.00  0.00    -0.206 F 
ATOM     82  C   UNL A   1      44.643  35.291  32.501  1.00  0.00     0.060 A 
BRANCH  82  83
ATOM     83  S   UNL A   1      44.896  36.909  33.262  1.00  0.00     0.124 S 
ATOM     84  O   UNL A   1      46.187  37.295  32.704  1.00  0.00    -0.237 OA
ATOM     85  O   UNL A   1      43.742  37.660  32.780  1.00  0.00    -0.237 OA
ATOM     86  O   UNL A   1      44.888  36.611  34.691  1.00  0.00    -0.744 OA
ENDBRANCH  82  83
ENDBRANCH  50  75
BRANCH  62  87
ATOM     87  C   UNL A   1      48.538  27.462  29.811  1.00  0.00     0.058 A 
ATOM     88  C   UNL A   1      49.391  27.760  28.738  1.00  0.00     0.135 A 
ATOM     89  C   UNL A   1      49.121  27.024  31.011  1.00  0.00     0.135 A 
ATOM     90  F   UNL A   1      48.884  28.180  27.568  1.00  0.00    -0.206 F 
ATOM     91  C   UNL A   1      50.769  27.595  28.838  1.00  0.00     0.059 A 
ATOM     92  C   UNL A   1      50.498  26.878  31.143  1.00  0.00     0.059 A 
ATOM     93  F   UNL A   1      48.351  26.738  32.073  1.00  0.00    -0.206 F 
ATOM     94  C   UNL A   1      51.312  27.148  30.044  1.00  0.00     0.060 A 
BRANCH  94  95
ATOM     95  S   UNL A   1      53.102  26.940  30.165  1.00  0.00     0.124 S 
ATOM     96  O   UNL A   1      53.503  28.207  30.769  1.00  0.00    -0.237 OA
ATOM     97  O   UNL A   1      53.225  25.764  31.020  1.00  0.00    -0.237 OA
ATOM     98  O   UNL A   1      53.515  26.746  28.779  1.00  0.00    -0.744 OA
ENDBRANCH  94  95
ENDBRANCH  62  87
ENDBRANCH  36  37
ENDBRANCH  28  31
ENDBRANCH  26  27
ENDBRANCH   1  26
TORSDOF 17
ENDMDL
MODEL 2
REMARK VINA RESULT:     -10.6      0.710      8.260
REMARK SMILES CC(C)[C@@H](NC(=O)c1ccc2[nH]nnc2c1)C(=O)NCCCCNC(=O)c1ccc(-c2c3nc(c(-c4c(F)cc(S(=O)(=O)[O-])cc4F)c4ccc([nH]4)c(-c4c(F)cc(S(=O)(=O)[O-])cc4F)c4nc(c(-c5c(F)cc(S(=O)(=O)[O-])cc5F)c5ccc2[nH]5)C=C4)C=C3)cc1
REMARK SMILES IDX 22 1 21 2 20 3 19 4 17 5 18 6 4 8 2 9 1 10 3 11 5 12 6 13
REMARK SMILES IDX 7 15 8 16 9 17 16 18 10 19 15 20 11 21 14 22 12 23 13 24
REMARK SMILES IDX 23 26 24 27 25 28 26 30 27 31 28 32 92 33 29 34 91 35 30 36
REMARK SMILES IDX 31 37 32 38 85 39 33 40 90 41 84 42 86 43 34 44 89 45 83 46
REMARK SMILES IDX 82 47 35 49 69 50 48 51 68 52 49 53 52 54 67 55 87 56 50 57
REMARK SMILES IDX 51 58 66 60 88 61 53 62 36 63 37 64 46 65 38 66 39 67 45 68
REMARK SMILES IDX 47 69 40 70 41 71 42 72 43 73 44 74 70 75 71 76 80 77 72 78
REMARK SMILES IDX 73 79 79 80 81 81 74 82 75 83 76 84 77 85 78 86 54 87 55 88
REMARK SMILES IDX 64 89 56 90 57 91 63 92 65 93 58 94 59 95 60 96 61 97 62 98
REMARK H PARENT 19 7 5 14 12 25 24 29 86 48 52 59
REMARK Flexibility Score: inf
ROOT
ATOM      1  C   UNL A   1      35.372  33.127  28.003  1.00  0.00     0.023 C 
ENDROOT
BRANCH   1   2
ATOM      2  C   UNL A   1      36.789  33.493  28.457  1.00  0.00     0.023 C 
BRANCH   2   3
ATOM      3  C   UNL A   1      37.200  32.837  29.768  1.00  0.00     0.116 C 
BRANCH   3   4
ATOM      4  N   UNL A   1      38.008  33.745  30.557  1.00  0.00    -0.354 N 
ATOM      5  C   UNL A   1      38.240  33.764  31.896  1.00  0.00     0.242 C 
ATOM      6  O   UNL A   1      38.852  34.728  32.366  1.00  0.00    -0.273 OA
ATOM      7  H   UNL A   1      38.456  34.457  30.046  1.00  0.00     0.163 HD
BRANCH   5   8
ATOM      8  C   UNL A   1      37.660  32.680  32.829  1.00  0.00     0.174 C 
BRANCH   8   9
ATOM      9  C   UNL A   1      38.676  31.491  32.899  1.00  0.00     0.015 C 
ATOM     10  C   UNL A   1      39.993  31.858  33.590  1.00  0.00     0.010 C 
ATOM     11  C   UNL A   1      38.084  30.261  33.602  1.00  0.00     0.010 C 
ENDBRANCH   8   9
BRANCH   8  12
ATOM     12  N   UNL A   1      37.285  33.172  34.176  1.00  0.00    -0.340 N 
ATOM     13  C   UNL A   1      36.079  33.629  34.663  1.00  0.00     0.252 C 
ATOM     14  H   UNL A   1      38.020  33.173  34.832  1.00  0.00     0.164 HD
ATOM     15  O   UNL A   1      35.874  33.630  35.872  1.00  0.00    -0.269 OA
BRANCH  13  16
ATOM     16  C   UNL A   1      35.118  34.301  33.769  1.00  0.00     0.042 A 
ATOM     17  C   UNL A   1      34.696  33.728  32.565  1.00  0.00     0.016 A 
ATOM     18  C   UNL A   1      34.733  35.602  34.137  1.00  0.00     0.046 A 
ATOM     19  C   UNL A   1      33.979  34.485  31.625  1.00  0.00     0.031 A 
ATOM     20  C   UNL A   1      34.064  36.377  33.185  1.00  0.00     0.113 A 
ATOM     21  C   UNL A   1      33.725  35.817  31.961  1.00  0.00     0.086 A 
ATOM     22  N   UNL A   1      33.703  37.695  33.205  1.00  0.00    -0.130 NA
ATOM     23  N   UNL A   1      33.166  36.871  31.288  1.00  0.00    -0.258 N 
ATOM     24  N   UNL A   1      33.177  37.995  32.026  1.00  0.00    -0.069 NA
ATOM     25  H   UNL A   1      32.802  36.813  30.375  1.00  0.00     0.192 HD
ENDBRANCH  13  16
ENDBRANCH   8  12
ENDBRANCH   5   8
ENDBRANCH   3   4
ENDBRANCH   2   3
ENDBRANCH   1   2
BRANCH   1  26
ATOM     26  C   UNL A   1      34.582  32.282  28.996  1.00  0.00     0.116 C 
BRANCH  26  27
ATOM     27  N   UNL A   1      33.976  31.116  28.373  1.00  0.00    -0.352 N 
ATOM     28  C   UNL A   1      34.591  29.972  27.930  1.00  0.00     0.251 C 
ATOM     29  H   UNL A   1      33.000  31.152  28.253  1.00  0.00     0.163 HD
ATOM     30  O   UNL A   1      33.958  29.143  27.284  1.00  0.00    -0.269 OA
BRANCH  28  31
ATOM     31  C   UNL A   1      36.028  29.773  28.206  1.00  0.00     0.039 A 
ATOM     32  C   UNL A   1      36.411  29.309  29.466  1.00  0.00     0.014 A 
ATOM     33  C   UNL A   1      36.985  30.013  27.215  1.00  0.00     0.014 A 
ATOM     34  C   UNL A   1      37.756  29.039  29.718  1.00  0.00     0.010 A 
ATOM     35  C   UNL A   1      38.317  29.679  27.448  1.00  0.00     0.010 A 
ATOM     36  C   UNL A   1      38.716  29.198  28.703  1.00  0.00    -0.014 A 
BRANCH  36  37
ATOM     37  C   UNL A   1      40.143  28.875  28.957  1.00  0.00     0.031 A 
ATOM     38  C   UNL A   1      41.052  29.908  29.566  1.00  0.00     0.074 A 
ATOM     39  C   UNL A   1      40.625  27.668  28.604  1.00  0.00     0.049 A 
ATOM     40  N   UNL A   1      42.324  29.815  29.860  1.00  0.00    -0.248 NA
ATOM     41  C   UNL A   1      40.463  31.222  29.865  1.00  0.00     0.031 C 
ATOM     42  C   UNL A   1      39.856  26.608  27.946  1.00  0.00     0.029 A 
ATOM     43  N   UNL A   1      41.879  27.129  28.742  1.00  0.00    -0.354 N 
ATOM     44  C   UNL A   1      42.688  31.059  30.362  1.00  0.00     0.074 A 
ATOM     45  C   UNL A   1      41.517  31.904  30.290  1.00  0.00     0.031 C 
ATOM     46  C   UNL A   1      40.650  25.541  27.757  1.00  0.00     0.029 A 
ATOM     47  C   UNL A   1      41.988  25.847  28.256  1.00  0.00     0.049 A 
ATOM     48  H   UNL A   1      42.632  27.614  29.151  1.00  0.00     0.167 HD
ATOM     49  C   UNL A   1      43.884  31.453  30.858  1.00  0.00     0.037 A 
ATOM     50  C   UNL A   1      43.045  25.013  28.218  1.00  0.00     0.037 A 
ATOM     51  C   UNL A   1      45.038  30.598  30.955  1.00  0.00     0.049 A 
ATOM     52  C   UNL A   1      44.352  25.461  28.814  1.00  0.00     0.074 A 
ATOM     53  C   UNL A   1      46.277  30.882  31.503  1.00  0.00     0.029 A 
ATOM     54  N   UNL A   1      45.096  29.291  30.494  1.00  0.00    -0.354 N 
ATOM     55  N   UNL A   1      44.657  26.617  29.356  1.00  0.00    -0.248 NA
ATOM     56  C   UNL A   1      45.452  24.488  28.811  1.00  0.00     0.031 C 
ATOM     57  C   UNL A   1      47.096  29.759  31.339  1.00  0.00     0.029 A 
ATOM     58  C   UNL A   1      46.353  28.760  30.732  1.00  0.00     0.049 A 
ATOM     59  H   UNL A   1      44.353  28.812  30.061  1.00  0.00     0.167 HD
ATOM     60  C   UNL A   1      45.974  26.498  29.785  1.00  0.00     0.074 A 
ATOM     61  C   UNL A   1      46.403  25.156  29.450  1.00  0.00     0.031 C 
ATOM     62  C   UNL A   1      46.760  27.418  30.400  1.00  0.00     0.037 A 
BRANCH  49  63
ATOM     63  C   UNL A   1      44.007  32.872  31.344  1.00  0.00     0.058 A 
ATOM     64  C   UNL A   1      43.735  33.220  32.677  1.00  0.00     0.135 A 
ATOM     65  C   UNL A   1      44.444  33.887  30.479  1.00  0.00     0.135 A 
ATOM     66  F   UNL A   1      43.298  32.291  33.543  1.00  0.00    -0.206 F 
ATOM     67  C   UNL A   1      43.873  34.527  33.131  1.00  0.00     0.059 A 
ATOM     68  C   UNL A   1      44.615  35.197  30.917  1.00  0.00     0.059 A 
ATOM     69  F   UNL A   1      44.714  33.610  29.194  1.00  0.00    -0.206 F 
ATOM     70  C   UNL A   1      44.316  35.510  32.243  1.00  0.00     0.060 A 
BRANCH  70  71
ATOM     71  S   UNL A   1      44.517  37.196  32.853  1.00  0.00     0.124 S 
ATOM     72  O   UNL A   1      45.751  37.082  33.625  1.00  0.00    -0.237 OA
ATOM     73  O   UNL A   1      44.614  37.967  31.617  1.00  0.00    -0.237 OA
ATOM     74  O   UNL A   1      43.307  37.423  33.635  1.00  0.00    -0.744 OA
ENDBRANCH  70  71
ENDBRANCH  49  63
BRANCH  50  75
ATOM     75  C   UNL A   1      42.904  23.659  27.620  1.00  0.00     0.058 A 
ATOM     76  C   UNL A   1      42.520  22.558  28.399  1.00  0.00     0.135 A 
ATOM     77  C   UNL A   1      43.151  23.439  26.256  1.00  0.00     0.135 A 
ATOM     78  F   UNL A   1      42.277  22.715  29.709  1.00  0.00    -0.206 F 
ATOM     79  C   UNL A   1      42.411  21.282  27.855  1.00  0.00     0.059 A 
ATOM     80  C   UNL A   1      43.023  22.178  25.683  1.00  0.00     0.059 A 
ATOM     81  F   UNL A   1      43.502  24.463  25.462  1.00  0.00    -0.206 F 
ATOM     82  C   UNL A   1      42.666  21.101  26.495  1.00  0.00     0.060 A 
BRANCH  82  83
ATOM     83  S   UNL A   1      42.487  19.449  25.788  1.00  0.00     0.124 S 
ATOM     84  O   UNL A   1      42.854  18.605  26.919  1.00  0.00    -0.237 OA
ATOM     85  O   UNL A   1      41.078  19.428  25.406  1.00  0.00    -0.237 OA
ATOM     86  O   UNL A   1      43.429  19.459  24.674  1.00  0.00    -0.744 OA
ENDBRANCH  82  83
ENDBRANCH  50  75
BRANCH  62  87
ATOM     87  C   UNL A   1      48.148  26.988  30.788  1.00  0.00     0.058 A 
ATOM     88  C   UNL A   1      49.259  27.251  29.974  1.00  0.00     0.135 A 
ATOM     89  C   UNL A   1      48.368  26.325  32.006  1.00  0.00     0.135 A 
ATOM     90  F   UNL A   1      49.101  27.879  28.798  1.00  0.00    -0.206 F 
ATOM     91  C   UNL A   1      50.538  26.840  30.335  1.00  0.00     0.059 A 
ATOM     92  C   UNL A   1      49.642  25.930  32.401  1.00  0.00     0.059 A 
ATOM     93  F   UNL A   1      47.341  26.060  32.828  1.00  0.00    -0.206 F 
ATOM     94  C   UNL A   1      50.718  26.175  31.549  1.00  0.00     0.060 A 
BRANCH  94  95
ATOM     95  S   UNL A   1      52.382  25.649  32.012  1.00  0.00     0.124 S 
ATOM     96  O   UNL A   1      52.173  24.232  32.292  1.00  0.00    -0.237 OA
ATOM     97  O   UNL A   1      53.153  25.950  30.811  1.00  0.00    -0.237 OA
ATOM     98  O   UNL A   1      52.690  26.480  33.171  1.00  0.00    -0.744 OA
ENDBRANCH  94  95
ENDBRANCH  62  87
ENDBRANCH  36  37
ENDBRANCH  28  31
ENDBRANCH  26  27
ENDBRANCH   1  26
TORSDOF 17
ENDMDL
MODEL 3
REMARK VINA RESULT:     -10.4      3.518     10.506
REMARK SMILES CC(C)[C@@H](NC(=O)c1ccc2[nH]nnc2c1)C(=O)NCCCCNC(=O)c1ccc(-c2c3nc(c(-c4c(F)cc(S(=O)(=O)[O-])cc4F)c4ccc([nH]4)c(-c4c(F)cc(S(=O)(=O)[O-])cc4F)c4nc(c(-c5c(F)cc(S(=O)(=O)[O-])cc5F)c5ccc2[nH]5)C=C4)C=C3)cc1
REMARK SMILES IDX 22 1 21 2 20 3 19 4 17 5 18 6 4 8 2 9 1 10 3 11 5 12 6 13
REMARK SMILES IDX 7 15 8 16 9 17 16 18 10 19 15 20 11 21 14 22 12 23 13 24
REMARK SMILES IDX 23 26 24 27 25 28 26 30 27 31 28 32 92 33 29 34 91 35 30 36
REMARK SMILES IDX 31 37 32 38 85 39 33 40 90 41 84 42 86 43 34 44 89 45 83 46
REMARK SMILES IDX 82 47 35 49 69 50 48 51 68 52 49 53 52 54 67 55 87 56 50 57
REMARK SMILES IDX 51 58 66 60 88 61 53 62 36 63 37 64 46 65 38 66 39 67 45 68
REMARK SMILES IDX 47 69 40 70 41 71 42 72 43 73 44 74 70 75 71 76 80 77 72 78
REMARK SMILES IDX 73 79 79 80 81 81 74 82 75 83 76 84 77 85 78 86 54 87 55 88
REMARK SMILES IDX 64 89 56 90 57 91 63 92 65 93 58 94 59 95 60 96 61 97 62 98
REMARK H PARENT 19 7 5 14 12 25 24 29 86 48 52 59
REMARK Flexibility Score: inf
ROOT
ATOM      1  C   UNL A   1      32.547  27.976  26.364  1.00  0.00     0.023 C 
ENDROOT
BRANCH   1   2
ATOM      2  C   UNL A   1      32.221  26.492  26.558  1.00  0.00     0.023 C 
BRANCH   2   3
ATOM      3  C   UNL A   1      31.096  25.990  25.665  1.00  0.00     0.116 C 
BRANCH   3   4
ATOM      4  N   UNL A   1      30.882  24.571  25.867  1.00  0.00    -0.354 N 
ATOM      5  C   UNL A   1      31.621  23.511  25.445  1.00  0.00     0.242 C 
ATOM      6  O   UNL A   1      31.161  22.377  25.616  1.00  0.00    -0.273 OA
ATOM      7  H   UNL A   1      30.080  24.339  26.388  1.00  0.00     0.163 HD
BRANCH   5   8
ATOM      8  C   UNL A   1      32.941  23.706  24.669  1.00  0.00     0.174 C 
BRANCH   8   9
ATOM      9  C   UNL A   1      34.062  22.880  25.384  1.00  0.00     0.015 C 
ATOM     10  C   UNL A   1      34.630  21.750  24.518  1.00  0.00     0.010 C 
ATOM     11  C   UNL A   1      35.226  23.765  25.855  1.00  0.00     0.010 C 
ENDBRANCH   8   9
BRANCH   8  12
ATOM     12  N   UNL A   1      32.851  23.390  23.224  1.00  0.00    -0.340 N 
ATOM     13  C   UNL A   1      33.100  24.170  22.116  1.00  0.00     0.252 C 
ATOM     14  H   UNL A   1      32.566  22.469  23.023  1.00  0.00     0.164 HD
ATOM     15  O   UNL A   1      33.337  23.635  21.037  1.00  0.00    -0.269 OA
BRANCH  13  16
ATOM     16  C   UNL A   1      32.887  25.629  22.164  1.00  0.00     0.042 A 
ATOM     17  C   UNL A   1      33.902  26.517  22.533  1.00  0.00     0.016 A 
ATOM     18  C   UNL A   1      31.574  26.072  21.928  1.00  0.00     0.046 A 
ATOM     19  C   UNL A   1      33.611  27.863  22.807  1.00  0.00     0.031 A 
ATOM     20  C   UNL A   1      31.268  27.398  22.247  1.00  0.00     0.113 A 
ATOM     21  C   UNL A   1      32.272  28.246  22.692  1.00  0.00     0.086 A 
ATOM     22  N   UNL A   1      30.069  28.055  22.263  1.00  0.00    -0.130 NA
ATOM     23  N   UNL A   1      31.595  29.404  22.966  1.00  0.00    -0.258 N 
ATOM     24  N   UNL A   1      30.277  29.278  22.731  1.00  0.00    -0.069 NA
ATOM     25  H   UNL A   1      32.021  30.228  23.296  1.00  0.00     0.192 HD
ENDBRANCH  13  16
ENDBRANCH   8  12
ENDBRANCH   5   8
ENDBRANCH   3   4
ENDBRANCH   2   3
ENDBRANCH   1   2
BRANCH   1  26
ATOM     26  C   UNL A   1      33.725  28.485  27.187  1.00  0.00     0.116 C 
BRANCH  26  27
ATOM     27  N   UNL A   1      33.557  29.869  27.600  1.00  0.00    -0.352 N 
ATOM     28  C   UNL A   1      34.458  30.682  28.240  1.00  0.00     0.251 C 
ATOM     29  H   UNL A   1      32.684  30.275  27.393  1.00  0.00     0.163 HD
ATOM     30  O   UNL A   1      34.107  31.781  28.659  1.00  0.00    -0.269 OA
BRANCH  28  31
ATOM     31  C   UNL A   1      35.837  30.202  28.453  1.00  0.00     0.039 A 
ATOM     32  C   UNL A   1      36.753  30.307  27.404  1.00  0.00     0.014 A 
ATOM     33  C   UNL A   1      36.231  29.682  29.690  1.00  0.00     0.014 A 
ATOM     34  C   UNL A   1      38.081  29.933  27.612  1.00  0.00     0.010 A 
ATOM     35  C   UNL A   1      37.569  29.373  29.914  1.00  0.00     0.010 A 
ATOM     36  C   UNL A   1      38.505  29.486  28.876  1.00  0.00    -0.014 A 
BRANCH  36  37
ATOM     37  C   UNL A   1      39.925  29.124  29.111  1.00  0.00     0.031 A 
ATOM     38  C   UNL A   1      40.875  30.138  29.689  1.00  0.00     0.074 A 
ATOM     39  C   UNL A   1      40.366  27.898  28.768  1.00  0.00     0.049 A 
ATOM     40  N   UNL A   1      42.148  30.012  29.963  1.00  0.00    -0.248 NA
ATOM     41  C   UNL A   1      40.330  31.474  29.978  1.00  0.00     0.031 C 
ATOM     42  C   UNL A   1      39.555  26.852  28.139  1.00  0.00     0.029 A 
ATOM     43  N   UNL A   1      41.606  27.325  28.893  1.00  0.00    -0.354 N 
ATOM     44  C   UNL A   1      42.557  31.252  30.440  1.00  0.00     0.074 A 
ATOM     45  C   UNL A   1      41.410  32.131  30.375  1.00  0.00     0.031 C 
ATOM     46  C   UNL A   1      40.314  25.760  27.952  1.00  0.00     0.029 A 
ATOM     47  C   UNL A   1      41.669  26.034  28.424  1.00  0.00     0.049 A 
ATOM     48  H   UNL A   1      42.379  27.794  29.282  1.00  0.00     0.167 HD
ATOM     49  C   UNL A   1      43.773  31.618  30.910  1.00  0.00     0.037 A 
ATOM     50  C   UNL A   1      42.700  25.168  28.381  1.00  0.00     0.037 A 
ATOM     51  C   UNL A   1      44.902  30.731  31.001  1.00  0.00     0.049 A 
ATOM     52  C   UNL A   1      44.029  25.586  28.949  1.00  0.00     0.074 A 
ATOM     53  C   UNL A   1      46.159  30.986  31.523  1.00  0.00     0.029 A 
ATOM     54  N   UNL A   1      44.914  29.416  30.558  1.00  0.00    -0.354 N 
ATOM     55  N   UNL A   1      44.377  26.740  29.468  1.00  0.00    -0.248 NA
ATOM     56  C   UNL A   1      45.100  24.581  28.942  1.00  0.00     0.031 C 
ATOM     57  C   UNL A   1      46.941  29.837  31.363  1.00  0.00     0.029 A 
ATOM     58  C   UNL A   1      46.159  28.851  30.783  1.00  0.00     0.049 A 
ATOM     59  H   UNL A   1      44.151  28.953  30.145  1.00  0.00     0.167 HD
ATOM     60  C   UNL A   1      45.698  26.589  29.877  1.00  0.00     0.074 A 
ATOM     61  C   UNL A   1      46.081  25.229  29.555  1.00  0.00     0.031 C 
ATOM     62  C   UNL A   1      46.521  27.494  30.465  1.00  0.00     0.037 A 
BRANCH  49  63
ATOM     63  C   UNL A   1      43.945  33.039  31.373  1.00  0.00     0.058 A 
ATOM     64  C   UNL A   1      44.362  34.054  30.496  1.00  0.00     0.135 A 
ATOM     65  C   UNL A   1      43.647  33.401  32.696  1.00  0.00     0.135 A 
ATOM     66  F   UNL A   1      44.676  33.761  29.223  1.00  0.00    -0.206 F 
ATOM     67  C   UNL A   1      44.497  35.372  30.919  1.00  0.00     0.059 A 
ATOM     68  C   UNL A   1      43.749  34.717  33.135  1.00  0.00     0.059 A 
ATOM     69  F   UNL A   1      43.247  32.470  33.577  1.00  0.00    -0.206 F 
ATOM     70  C   UNL A   1      44.186  35.695  32.241  1.00  0.00     0.060 A 
BRANCH  70  71
ATOM     71  S   UNL A   1      44.339  37.414  32.768  1.00  0.00     0.124 S 
ATOM     72  O   UNL A   1      44.137  38.124  31.509  1.00  0.00    -0.237 OA
ATOM     73  O   UNL A   1      43.260  37.539  33.745  1.00  0.00    -0.237 OA
ATOM     74  O   UNL A   1      45.688  37.484  33.318  1.00  0.00    -0.744 OA
ENDBRANCH  70  71
ENDBRANCH  49  63
BRANCH  50  75
ATOM     75  C   UNL A   1      42.509  23.810  27.806  1.00  0.00     0.058 A 
ATOM     76  C   UNL A   1      42.363  22.686  28.632  1.00  0.00     0.135 A 
ATOM     77  C   UNL A   1      42.471  23.609  26.418  1.00  0.00     0.135 A 
ATOM     78  F   UNL A   1      42.396  22.825  29.965  1.00  0.00    -0.206 F 
ATOM     79  C   UNL A   1      42.209  21.408  28.104  1.00  0.00     0.059 A 
ATOM     80  C   UNL A   1      42.293  22.345  25.865  1.00  0.00     0.059 A 
ATOM     81  F   UNL A   1      42.587  24.655  25.583  1.00  0.00    -0.206 F 
ATOM     82  C   UNL A   1      42.177  21.247  26.718  1.00  0.00     0.060 A 
BRANCH  82  83
ATOM     83  S   UNL A   1      41.943  19.590  26.039  1.00  0.00     0.124 S 
ATOM     84  O   UNL A   1      42.415  18.755  27.138  1.00  0.00    -0.237 OA
ATOM     85  O   UNL A   1      40.505  19.561  25.787  1.00  0.00    -0.237 OA
ATOM     86  O   UNL A   1      42.780  19.596  24.844  1.00  0.00    -0.744 OA
ENDBRANCH  82  83
ENDBRANCH  50  75
BRANCH  62  87
ATOM     87  C   UNL A   1      47.901  27.028  30.836  1.00  0.00     0.058 A 
ATOM     88  C   UNL A   1      48.167  26.406  32.065  1.00  0.00     0.135 A 
ATOM     89  C   UNL A   1      48.968  27.185  29.935  1.00  0.00     0.135 A 
ATOM     90  F   UNL A   1      47.183  26.235  32.963  1.00  0.00    -0.206 F 
ATOM     91  C   UNL A   1      49.449  25.988  32.405  1.00  0.00     0.059 A 
ATOM     92  C   UNL A   1      50.252  26.749  30.243  1.00  0.00     0.059 A 
ATOM     93  F   UNL A   1      48.764  27.762  28.741  1.00  0.00    -0.206 F 
ATOM     94  C   UNL A   1      50.486  26.169  31.489  1.00  0.00     0.060 A 
BRANCH  94  95
ATOM     95  S   UNL A   1      52.147  25.619  31.937  1.00  0.00     0.124 S 
ATOM     96  O   UNL A   1      51.915  24.213  32.250  1.00  0.00    -0.237 OA
ATOM     97  O   UNL A   1      52.905  25.880  30.718  1.00  0.00    -0.237 OA
ATOM     98  O   UNL A   1      52.490  26.468  33.073  1.00  0.00    -0.744 OA
ENDBRANCH  94  95
ENDBRANCH  62  87
ENDBRANCH  36  37
ENDBRANCH  28  31
ENDBRANCH  26  27
ENDBRANCH   1  26
TORSDOF 17
ENDMDL
