MODEL 1
REMARK VINA RESULT:     -11.9      0.000      0.000
REMARK SMILES O=C(NCCCCNC(=O)c1ccc(-c2c3nc(c(-c4c(F)cc(S(=O)(=O)[O-])cc4F)c4ccc([nH]4)c(-c4c(F)cc(S(=O)(=O)[O-])cc4F)c4nc(c(-c5c(F)cc(S(=O)(=O)[O-])cc5F)c5ccc2[nH]5)C=C4)C=C3)cc1)/C(=C/c1ccccc1Cl)NC(=O)c1ccccc1
REMARK SMILES IDX 6 1 5 2 4 3 3 4 1 5 2 6 77 8 78 9 86 10 87 11 88 13 89 14
REMARK SMILES IDX 90 15 94 16 91 17 93 18 92 19 79 20 80 21 84 22 81 23 83 24
REMARK SMILES IDX 85 25 82 26 7 27 8 28 9 29 10 31 11 32 12 33 76 34 13 35
REMARK SMILES IDX 75 36 14 37 15 38 16 39 69 40 17 41 74 42 68 43 70 44 18 45
REMARK SMILES IDX 73 46 67 47 66 48 19 50 53 51 32 52 52 53 33 54 36 55 51 56
REMARK SMILES IDX 71 57 34 58 35 59 50 61 72 62 37 63 20 64 21 65 30 66 22 67
REMARK SMILES IDX 23 68 29 69 31 70 24 71 25 72 26 73 27 74 28 75 54 76 55 77
REMARK SMILES IDX 64 78 56 79 57 80 63 81 65 82 58 83 59 84 60 85 61 86 62 87
REMARK SMILES IDX 38 88 39 89 48 90 40 91 41 92 47 93 49 94 42 95 43 96 44 97
REMARK SMILES IDX 45 98 46 99
REMARK H PARENT 3 7 86 12 8 30 70 49 36 60
REMARK Flexibility Score: inf
ROOT
ATOM      1  C   UNL A   1      32.002  28.143  27.560  1.00  0.00     0.023 C 
ENDROOT
BRANCH   1   2
ATOM      2  C   UNL A   1      31.514  27.139  26.507  1.00  0.00     0.023 C 
BRANCH   2   3
ATOM      3  C   UNL A   1      32.277  25.821  26.372  1.00  0.00     0.116 C 
BRANCH   3   4
ATOM      4  N   UNL A   1      31.451  24.651  26.132  1.00  0.00    -0.351 N 
ATOM      5  O   UNL A   1      30.884  22.608  25.405  1.00  0.00    -0.268 OA
ATOM      6  C   UNL A   1      31.772  23.449  25.550  1.00  0.00     0.267 C 
ATOM      7  H   UNL A   1      30.517  24.731  26.433  1.00  0.00     0.163 HD
BRANCH   6   8
ATOM      8  C   UNL A   1      33.174  23.185  25.018  1.00  0.00     0.107 C 
ATOM      9  C   UNL A   1      34.142  23.115  25.957  1.00  0.00     0.041 C 
BRANCH   8  10
ATOM     10  N   UNL A   1      33.436  23.011  23.679  1.00  0.00    -0.317 N 
ATOM     11  C   UNL A   1      33.203  23.847  22.606  1.00  0.00     0.255 C 
ATOM     12  H   UNL A   1      33.857  22.151  23.449  1.00  0.00     0.170 HD
ATOM     13  O   UNL A   1      33.289  23.405  21.463  1.00  0.00    -0.269 OA
BRANCH  11  14
ATOM     14  C   UNL A   1      32.883  25.282  22.821  1.00  0.00     0.040 A 
ATOM     15  C   UNL A   1      33.909  26.139  23.228  1.00  0.00     0.014 A 
ATOM     16  C   UNL A   1      31.594  25.788  22.615  1.00  0.00     0.014 A 
ATOM     17  C   UNL A   1      33.670  27.510  23.313  1.00  0.00     0.001 A 
ATOM     18  C   UNL A   1      31.364  27.161  22.696  1.00  0.00     0.001 A 
ATOM     19  C   UNL A   1      32.407  28.022  23.023  1.00  0.00     0.000 A 
ENDBRANCH  11  14
ENDBRANCH   8  10
BRANCH   9  20
ATOM     20  C   UNL A   1      35.593  22.815  25.839  1.00  0.00    -0.005 A 
ATOM     21  C   UNL A   1      36.446  23.911  26.087  1.00  0.00     0.010 A 
ATOM     22  C   UNL A   1      36.200  21.602  25.464  1.00  0.00     0.048 A 
ATOM     23  C   UNL A   1      37.838  23.785  26.048  1.00  0.00     0.001 A 
ATOM     24  C   UNL A   1      37.599  21.467  25.471  1.00  0.00     0.021 A 
ATOM     25  Cl  UNL A   1      35.326  20.228  24.887  1.00  0.00    -0.084 Cl
ATOM     26  C   UNL A   1      38.416  22.553  25.770  1.00  0.00     0.002 A 
ENDBRANCH   9  20
ENDBRANCH   6   8
ENDBRANCH   3   4
ENDBRANCH   2   3
ENDBRANCH   1   2
BRANCH   1  27
ATOM     27  C   UNL A   1      33.333  28.861  27.328  1.00  0.00     0.116 C 
BRANCH  27  28
ATOM     28  N   UNL A   1      33.376  30.243  27.779  1.00  0.00    -0.352 N 
ATOM     29  C   UNL A   1      34.452  30.933  28.305  1.00  0.00     0.251 C 
ATOM     30  H   UNL A   1      32.536  30.750  27.700  1.00  0.00     0.163 HD
ATOM     31  O   UNL A   1      34.331  32.101  28.665  1.00  0.00    -0.269 OA
BRANCH  29  32
ATOM     32  C   UNL A   1      35.752  30.241  28.470  1.00  0.00     0.039 A 
ATOM     33  C   UNL A   1      36.651  30.206  27.403  1.00  0.00     0.014 A 
ATOM     34  C   UNL A   1      36.101  29.671  29.695  1.00  0.00     0.014 A 
ATOM     35  C   UNL A   1      37.940  29.695  27.599  1.00  0.00     0.010 A 
ATOM     36  C   UNL A   1      37.400  29.199  29.903  1.00  0.00     0.010 A 
ATOM     37  C   UNL A   1      38.345  29.239  28.867  1.00  0.00    -0.014 A 
BRANCH  37  38
ATOM     38  C   UNL A   1      39.770  28.900  29.146  1.00  0.00     0.031 A 
ATOM     39  C   UNL A   1      40.726  29.925  29.693  1.00  0.00     0.074 A 
ATOM     40  C   UNL A   1      40.229  27.673  28.819  1.00  0.00     0.049 A 
ATOM     41  N   UNL A   1      42.011  29.812  29.919  1.00  0.00    -0.248 NA
ATOM     42  C   UNL A   1      40.176  31.252  30.010  1.00  0.00     0.031 C 
ATOM     43  C   UNL A   1      39.426  26.599  28.226  1.00  0.00     0.029 A 
ATOM     44  N   UNL A   1      41.486  27.124  28.917  1.00  0.00    -0.354 N 
ATOM     45  C   UNL A   1      42.429  31.051  30.390  1.00  0.00     0.074 A 
ATOM     46  C   UNL A   1      41.263  31.911  30.392  1.00  0.00     0.031 C 
ATOM     47  C   UNL A   1      40.205  25.524  28.022  1.00  0.00     0.029 A 
ATOM     48  C   UNL A   1      41.570  25.838  28.435  1.00  0.00     0.049 A 
ATOM     49  H   UNL A   1      42.255  27.608  29.297  1.00  0.00     0.167 HD
ATOM     50  C   UNL A   1      43.664  31.432  30.797  1.00  0.00     0.037 A 
ATOM     51  C   UNL A   1      42.624  25.005  28.324  1.00  0.00     0.037 A 
ATOM     52  C   UNL A   1      44.818  30.569  30.832  1.00  0.00     0.049 A 
ATOM     53  C   UNL A   1      43.981  25.453  28.795  1.00  0.00     0.074 A 
ATOM     54  C   UNL A   1      46.087  30.856  31.307  1.00  0.00     0.029 A 
ATOM     55  N   UNL A   1      44.850  29.262  30.378  1.00  0.00    -0.354 N 
ATOM     56  N   UNL A   1      44.331  26.601  29.320  1.00  0.00    -0.248 NA
ATOM     57  C   UNL A   1      45.086  24.491  28.665  1.00  0.00     0.031 C 
ATOM     58  C   UNL A   1      46.897  29.735  31.105  1.00  0.00     0.029 A 
ATOM     59  C   UNL A   1      46.120  28.736  30.543  1.00  0.00     0.049 A 
ATOM     60  H   UNL A   1      44.083  28.777  29.994  1.00  0.00     0.167 HD
ATOM     61  C   UNL A   1      45.686  26.484  29.616  1.00  0.00     0.074 A 
ATOM     62  C   UNL A   1      46.093  25.156  29.215  1.00  0.00     0.031 C 
ATOM     63  C   UNL A   1      46.514  27.400  30.174  1.00  0.00     0.037 A 
BRANCH  50  64
ATOM     64  C   UNL A   1      43.851  32.850  31.258  1.00  0.00     0.058 A 
ATOM     65  C   UNL A   1      44.082  33.890  30.345  1.00  0.00     0.135 A 
ATOM     66  C   UNL A   1      43.690  33.186  32.612  1.00  0.00     0.135 A 
ATOM     67  F   UNL A   1      44.252  33.620  29.042  1.00  0.00    -0.206 F 
ATOM     68  C   UNL A   1      44.154  35.216  30.759  1.00  0.00     0.059 A 
ATOM     69  C   UNL A   1      43.738  34.508  33.045  1.00  0.00     0.059 A 
ATOM     70  F   UNL A   1      43.463  32.228  33.524  1.00  0.00    -0.206 F 
ATOM     71  C   UNL A   1      43.975  35.515  32.112  1.00  0.00     0.060 A 
BRANCH  71  72
ATOM     72  S   UNL A   1      44.025  37.246  32.626  1.00  0.00     0.124 S 
ATOM     73  O   UNL A   1      43.776  37.931  31.362  1.00  0.00    -0.237 OA
ATOM     74  O   UNL A   1      42.946  37.313  33.607  1.00  0.00    -0.237 OA
ATOM     75  O   UNL A   1      45.372  37.400  33.168  1.00  0.00    -0.744 OA
ENDBRANCH  71  72
ENDBRANCH  50  64
BRANCH  51  76
ATOM     76  C   UNL A   1      42.448  23.647  27.741  1.00  0.00     0.058 A 
ATOM     77  C   UNL A   1      42.336  22.517  28.565  1.00  0.00     0.135 A 
ATOM     78  C   UNL A   1      42.429  23.451  26.352  1.00  0.00     0.135 A 
ATOM     79  F   UNL A   1      42.355  22.656  29.900  1.00  0.00    -0.206 F 
ATOM     80  C   UNL A   1      42.247  21.235  28.034  1.00  0.00     0.059 A 
ATOM     81  C   UNL A   1      42.316  22.180  25.798  1.00  0.00     0.059 A 
ATOM     82  F   UNL A   1      42.514  24.501  25.521  1.00  0.00    -0.206 F 
ATOM     83  C   UNL A   1      42.246  21.076  26.647  1.00  0.00     0.060 A 
BRANCH  83  84
ATOM     84  S   UNL A   1      42.126  19.410  25.961  1.00  0.00     0.124 S 
ATOM     85  O   UNL A   1      40.694  19.301  25.711  1.00  0.00    -0.237 OA
ATOM     86  O   UNL A   1      42.978  19.499  24.779  1.00  0.00    -0.237 OA
ATOM     87  O   UNL A   1      42.647  18.571  27.036  1.00  0.00    -0.744 OA
ENDBRANCH  83  84
ENDBRANCH  51  76
BRANCH  63  88
ATOM     88  C   UNL A   1      47.935  26.991  30.444  1.00  0.00     0.058 A 
ATOM     89  C   UNL A   1      48.967  27.259  29.532  1.00  0.00     0.135 A 
ATOM     90  C   UNL A   1      48.279  26.395  31.669  1.00  0.00     0.135 A 
ATOM     91  F   UNL A   1      48.691  27.819  28.344  1.00  0.00    -0.206 F 
ATOM     92  C   UNL A   1      50.292  26.945  29.823  1.00  0.00     0.059 A 
ATOM     93  C   UNL A   1      49.599  26.093  31.989  1.00  0.00     0.059 A 
ATOM     94  F   UNL A   1      47.329  26.124  32.577  1.00  0.00    -0.206 F 
ATOM     95  C   UNL A   1      50.598  26.366  31.057  1.00  0.00     0.060 A 
BRANCH  95  96
ATOM     96  S   UNL A   1      52.327  26.023  31.449  1.00  0.00     0.124 S 
ATOM     97  O   UNL A   1      52.241  24.678  32.007  1.00  0.00    -0.237 OA
ATOM     98  O   UNL A   1      52.973  26.128  30.145  1.00  0.00    -0.237 OA
ATOM     99  O   UNL A   1      52.674  27.076  32.399  1.00  0.00    -0.744 OA
ENDBRANCH  95  96
ENDBRANCH  63  88
ENDBRANCH  37  38
ENDBRANCH  29  32
ENDBRANCH  27  28
ENDBRANCH   1  27
TORSDOF 17
ENDMDL
MODEL 2
REMARK VINA RESULT:     -11.3      4.899     10.245
REMARK SMILES O=C(NCCCCNC(=O)c1ccc(-c2c3nc(c(-c4c(F)cc(S(=O)(=O)[O-])cc4F)c4ccc([nH]4)c(-c4c(F)cc(S(=O)(=O)[O-])cc4F)c4nc(c(-c5c(F)cc(S(=O)(=O)[O-])cc5F)c5ccc2[nH]5)C=C4)C=C3)cc1)/C(=C/c1ccccc1Cl)NC(=O)c1ccccc1
REMARK SMILES IDX 6 1 5 2 4 3 3 4 1 5 2 6 77 8 78 9 86 10 87 11 88 13 89 14
REMARK SMILES IDX 90 15 94 16 91 17 93 18 92 19 79 20 80 21 84 22 81 23 83 24
REMARK SMILES IDX 85 25 82 26 7 27 8 28 9 29 10 31 11 32 12 33 76 34 13 35
REMARK SMILES IDX 75 36 14 37 15 38 16 39 69 40 17 41 74 42 68 43 70 44 18 45
REMARK SMILES IDX 73 46 67 47 66 48 19 50 53 51 32 52 52 53 33 54 36 55 51 56
REMARK SMILES IDX 71 57 34 58 35 59 50 61 72 62 37 63 20 64 21 65 30 66 22 67
REMARK SMILES IDX 23 68 29 69 31 70 24 71 25 72 26 73 27 74 28 75 54 76 55 77
REMARK SMILES IDX 64 78 56 79 57 80 63 81 65 82 58 83 59 84 60 85 61 86 62 87
REMARK SMILES IDX 38 88 39 89 48 90 40 91 41 92 47 93 49 94 42 95 43 96 44 97
REMARK SMILES IDX 45 98 46 99
REMARK H PARENT 3 7 86 12 8 30 70 49 36 60
REMARK Flexibility Score: inf
ROOT
ATOM      1  C   UNL A   1      40.033  21.697  26.770  1.00  0.00     0.023 C 
ENDROOT
BRANCH   1   2
ATOM      2  C   UNL A   1      38.712  21.487  26.018  1.00  0.00     0.023 C 
BRANCH   2   3
ATOM      3  C   UNL A   1      37.901  22.727  25.643  1.00  0.00     0.116 C 
BRANCH   3   4
ATOM      4  N   UNL A   1      36.759  23.000  26.497  1.00  0.00    -0.351 N 
ATOM      5  O   UNL A   1      34.630  23.012  27.198  1.00  0.00    -0.268 OA
ATOM      6  C   UNL A   1      35.447  22.617  26.365  1.00  0.00     0.267 C 
ATOM      7  H   UNL A   1      36.955  23.545  27.294  1.00  0.00     0.163 HD
BRANCH   6   8
ATOM      8  C   UNL A   1      34.988  21.788  25.173  1.00  0.00     0.107 C 
ATOM      9  C   UNL A   1      34.588  20.531  25.466  1.00  0.00     0.041 C 
BRANCH   8  10
ATOM     10  N   UNL A   1      34.963  22.287  23.891  1.00  0.00    -0.317 N 
ATOM     11  C   UNL A   1      34.272  23.357  23.362  1.00  0.00     0.255 C 
ATOM     12  H   UNL A   1      35.529  21.802  23.249  1.00  0.00     0.170 HD
ATOM     13  O   UNL A   1      34.199  23.488  22.143  1.00  0.00    -0.269 OA
BRANCH  11  14
ATOM     14  C   UNL A   1      33.645  24.368  24.252  1.00  0.00     0.040 A 
ATOM     15  C   UNL A   1      32.331  24.156  24.679  1.00  0.00     0.014 A 
ATOM     16  C   UNL A   1      34.340  25.507  24.677  1.00  0.00     0.014 A 
ATOM     17  C   UNL A   1      31.762  25.019  25.615  1.00  0.00     0.001 A 
ATOM     18  C   UNL A   1      33.766  26.362  25.617  1.00  0.00     0.001 A 
ATOM     19  C   UNL A   1      32.487  26.104  26.102  1.00  0.00     0.000 A 
ENDBRANCH  11  14
ENDBRANCH   8  10
BRANCH   9  20
ATOM     20  C   UNL A   1      34.024  19.463  24.601  1.00  0.00    -0.005 A 
ATOM     21  C   UNL A   1      34.818  18.301  24.502  1.00  0.00     0.010 A 
ATOM     22  C   UNL A   1      32.839  19.496  23.842  1.00  0.00     0.048 A 
ATOM     23  C   UNL A   1      34.411  17.192  23.752  1.00  0.00     0.001 A 
ATOM     24  C   UNL A   1      32.411  18.364  23.128  1.00  0.00     0.021 A 
ATOM     25  Cl  UNL A   1      31.867  20.910  23.640  1.00  0.00    -0.084 Cl
ATOM     26  C   UNL A   1      33.191  17.212  23.090  1.00  0.00     0.002 A 
ENDBRANCH   9  20
ENDBRANCH   6   8
ENDBRANCH   3   4
ENDBRANCH   2   3
ENDBRANCH   1   2
BRANCH   1  27
ATOM     27  C   UNL A   1      40.430  23.119  27.173  1.00  0.00     0.116 C 
BRANCH  27  28
ATOM     28  N   UNL A   1      40.771  24.003  26.070  1.00  0.00    -0.352 N 
ATOM     29  C   UNL A   1      41.075  25.349  26.121  1.00  0.00     0.251 C 
ATOM     30  H   UNL A   1      40.786  23.591  25.175  1.00  0.00     0.163 HD
ATOM     31  O   UNL A   1      41.324  25.975  25.095  1.00  0.00    -0.269 OA
BRANCH  29  32
ATOM     32  C   UNL A   1      41.061  26.051  27.427  1.00  0.00     0.039 A 
ATOM     33  C   UNL A   1      42.231  26.651  27.895  1.00  0.00     0.014 A 
ATOM     34  C   UNL A   1      39.880  26.157  28.163  1.00  0.00     0.014 A 
ATOM     35  C   UNL A   1      42.188  27.448  29.046  1.00  0.00     0.010 A 
ATOM     36  C   UNL A   1      39.827  26.984  29.287  1.00  0.00     0.010 A 
ATOM     37  C   UNL A   1      40.973  27.668  29.721  1.00  0.00    -0.014 A 
BRANCH  37  38
ATOM     38  C   UNL A   1      40.868  28.681  30.809  1.00  0.00     0.031 A 
ATOM     39  C   UNL A   1      41.710  28.586  32.053  1.00  0.00     0.074 A 
ATOM     40  C   UNL A   1      39.935  29.653  30.713  1.00  0.00     0.049 A 
ATOM     41  N   UNL A   1      41.685  29.340  33.123  1.00  0.00    -0.248 NA
ATOM     42  C   UNL A   1      42.693  27.493  32.114  1.00  0.00     0.031 C 
ATOM     43  C   UNL A   1      39.010  29.831  29.590  1.00  0.00     0.029 A 
ATOM     44  N   UNL A   1      39.594  30.665  31.580  1.00  0.00    -0.354 N 
ATOM     45  C   UNL A   1      42.633  28.810  33.989  1.00  0.00     0.074 A 
ATOM     46  C   UNL A   1      43.199  27.652  33.330  1.00  0.00     0.031 C 
ATOM     47  C   UNL A   1      38.216  30.887  29.832  1.00  0.00     0.029 A 
ATOM     48  C   UNL A   1      38.548  31.444  31.140  1.00  0.00     0.049 A 
ATOM     49  H   UNL A   1      40.056  30.816  32.436  1.00  0.00     0.167 HD
ATOM     50  C   UNL A   1      43.009  29.257  35.212  1.00  0.00     0.037 A 
ATOM     51  C   UNL A   1      37.915  32.481  31.724  1.00  0.00     0.037 A 
ATOM     52  C   UNL A   1      42.475  30.432  35.856  1.00  0.00     0.049 A 
ATOM     53  C   UNL A   1      38.362  32.961  33.079  1.00  0.00     0.074 A 
ATOM     54  C   UNL A   1      42.860  30.997  37.060  1.00  0.00     0.029 A 
ATOM     55  N   UNL A   1      41.450  31.217  35.358  1.00  0.00    -0.354 N 
ATOM     56  N   UNL A   1      39.323  32.497  33.839  1.00  0.00    -0.248 NA
ATOM     57  C   UNL A   1      37.644  34.109  33.653  1.00  0.00     0.031 C 
ATOM     58  C   UNL A   1      42.042  32.103  37.309  1.00  0.00     0.029 A 
ATOM     59  C   UNL A   1      41.176  32.250  36.239  1.00  0.00     0.049 A 
ATOM     60  H   UNL A   1      40.984  31.064  34.503  1.00  0.00     0.167 HD
ATOM     61  C   UNL A   1      39.348  33.319  34.961  1.00  0.00     0.074 A 
ATOM     62  C   UNL A   1      38.309  34.309  34.782  1.00  0.00     0.031 C 
ATOM     63  C   UNL A   1      40.163  33.255  36.041  1.00  0.00     0.037 A 
BRANCH  50  64
ATOM     64  C   UNL A   1      44.064  28.487  35.954  1.00  0.00     0.058 A 
ATOM     65  C   UNL A   1      45.424  28.817  35.842  1.00  0.00     0.135 A 
ATOM     66  C   UNL A   1      43.704  27.483  36.867  1.00  0.00     0.135 A 
ATOM     67  F   UNL A   1      45.820  29.764  34.978  1.00  0.00    -0.206 F 
ATOM     68  C   UNL A   1      46.392  28.174  36.606  1.00  0.00     0.059 A 
ATOM     69  C   UNL A   1      44.654  26.840  37.655  1.00  0.00     0.059 A 
ATOM     70  F   UNL A   1      42.417  27.133  37.014  1.00  0.00    -0.206 F 
ATOM     71  C   UNL A   1      45.996  27.189  37.514  1.00  0.00     0.060 A 
BRANCH  71  72
ATOM     72  S   UNL A   1      47.260  26.395  38.530  1.00  0.00     0.124 S 
ATOM     73  O   UNL A   1      48.351  27.361  38.443  1.00  0.00    -0.237 OA
ATOM     74  O   UNL A   1      46.602  26.298  39.829  1.00  0.00    -0.237 OA
ATOM     75  O   UNL A   1      47.492  25.124  37.851  1.00  0.00    -0.744 OA
ENDBRANCH  71  72
ENDBRANCH  50  64
BRANCH  51  76
ATOM     76  C   UNL A   1      36.781  33.152  31.033  1.00  0.00     0.058 A 
ATOM     77  C   UNL A   1      37.007  34.047  29.977  1.00  0.00     0.135 A 
ATOM     78  C   UNL A   1      35.455  32.941  31.442  1.00  0.00     0.135 A 
ATOM     79  F   UNL A   1      38.259  34.284  29.556  1.00  0.00    -0.206 F 
ATOM     80  C   UNL A   1      35.962  34.737  29.372  1.00  0.00     0.059 A 
ATOM     81  C   UNL A   1      34.392  33.602  30.836  1.00  0.00     0.059 A 
ATOM     82  F   UNL A   1      35.184  32.080  32.435  1.00  0.00    -0.206 F 
ATOM     83  C   UNL A   1      34.658  34.514  29.814  1.00  0.00     0.060 A 
BRANCH  83  84
ATOM     84  S   UNL A   1      33.304  35.410  29.024  1.00  0.00     0.124 S 
ATOM     85  O   UNL A   1      32.609  35.965  30.179  1.00  0.00    -0.237 OA
ATOM     86  O   UNL A   1      34.015  36.369  28.183  1.00  0.00    -0.237 OA
ATOM     87  O   UNL A   1      32.592  34.362  28.299  1.00  0.00    -0.744 OA
ENDBRANCH  83  84
ENDBRANCH  51  76
BRANCH  63  88
ATOM     88  C   UNL A   1      40.017  34.316  37.097  1.00  0.00     0.058 A 
ATOM     89  C   UNL A   1      40.700  35.538  37.016  1.00  0.00     0.135 A 
ATOM     90  C   UNL A   1      39.117  34.136  38.160  1.00  0.00     0.135 A 
ATOM     91  F   UNL A   1      41.578  35.757  36.025  1.00  0.00    -0.206 F 
ATOM     92  C   UNL A   1      40.501  36.545  37.956  1.00  0.00     0.059 A 
ATOM     93  C   UNL A   1      38.886  35.136  39.099  1.00  0.00     0.059 A 
ATOM     94  F   UNL A   1      38.434  32.986  38.278  1.00  0.00    -0.206 F 
ATOM     95  C   UNL A   1      39.587  36.335  38.992  1.00  0.00     0.060 A 
BRANCH  95  96
ATOM     96  S   UNL A   1      39.289  37.672  40.170  1.00  0.00     0.124 S 
ATOM     97  O   UNL A   1      38.187  38.385  39.533  1.00  0.00    -0.237 OA
ATOM     98  O   UNL A   1      38.954  36.947  41.391  1.00  0.00    -0.237 OA
ATOM     99  O   UNL A   1      40.563  38.385  40.203  1.00  0.00    -0.744 OA
ENDBRANCH  95  96
ENDBRANCH  63  88
ENDBRANCH  37  38
ENDBRANCH  29  32
ENDBRANCH  27  28
ENDBRANCH   1  27
TORSDOF 17
ENDMDL
MODEL 3
REMARK VINA RESULT:     -11.2      0.822      8.096
REMARK SMILES O=C(NCCCCNC(=O)c1ccc(-c2c3nc(c(-c4c(F)cc(S(=O)(=O)[O-])cc4F)c4ccc([nH]4)c(-c4c(F)cc(S(=O)(=O)[O-])cc4F)c4nc(c(-c5c(F)cc(S(=O)(=O)[O-])cc5F)c5ccc2[nH]5)C=C4)C=C3)cc1)/C(=C/c1ccccc1Cl)NC(=O)c1ccccc1
REMARK SMILES IDX 6 1 5 2 4 3 3 4 1 5 2 6 77 8 78 9 86 10 87 11 88 13 89 14
REMARK SMILES IDX 90 15 94 16 91 17 93 18 92 19 79 20 80 21 84 22 81 23 83 24
REMARK SMILES IDX 85 25 82 26 7 27 8 28 9 29 10 31 11 32 12 33 76 34 13 35
REMARK SMILES IDX 75 36 14 37 15 38 16 39 69 40 17 41 74 42 68 43 70 44 18 45
REMARK SMILES IDX 73 46 67 47 66 48 19 50 53 51 32 52 52 53 33 54 36 55 51 56
REMARK SMILES IDX 71 57 34 58 35 59 50 61 72 62 37 63 20 64 21 65 30 66 22 67
REMARK SMILES IDX 23 68 29 69 31 70 24 71 25 72 26 73 27 74 28 75 54 76 55 77
REMARK SMILES IDX 64 78 56 79 57 80 63 81 65 82 58 83 59 84 60 85 61 86 62 87
REMARK SMILES IDX 38 88 39 89 48 90 40 91 41 92 47 93 49 94 42 95 43 96 44 97
REMARK SMILES IDX 45 98 46 99
REMARK H PARENT 3 7 86 12 8 30 70 49 36 60
REMARK Flexibility Score: inf
ROOT
ATOM      1  C   UNL A   1      32.552  28.166  27.050  1.00  0.00     0.023 C 
ENDROOT
BRANCH   1   2
ATOM      2  C   UNL A   1      32.664  26.735  26.508  1.00  0.00     0.023 C 
BRANCH   2   3
ATOM      3  C   UNL A   1      31.410  26.101  25.907  1.00  0.00     0.116 C 
BRANCH   3   4
ATOM      4  N   UNL A   1      30.816  25.036  26.697  1.00  0.00    -0.351 N 
ATOM      5  O   UNL A   1      30.467  22.969  27.488  1.00  0.00    -0.268 OA
ATOM      6  C   UNL A   1      31.152  23.708  26.779  1.00  0.00     0.267 C 
ATOM      7  H   UNL A   1      30.056  25.309  27.260  1.00  0.00     0.163 HD
BRANCH   6   8
ATOM      8  C   UNL A   1      32.294  23.134  25.951  1.00  0.00     0.107 C 
ATOM      9  C   UNL A   1      33.531  23.354  26.447  1.00  0.00     0.041 C 
BRANCH   8  10
ATOM     10  N   UNL A   1      32.083  22.426  24.791  1.00  0.00    -0.317 N 
ATOM     11  C   UNL A   1      31.876  22.867  23.500  1.00  0.00     0.255 C 
ATOM     12  H   UNL A   1      32.080  21.448  24.899  1.00  0.00     0.170 HD
ATOM     13  O   UNL A   1      31.468  22.081  22.648  1.00  0.00    -0.269 OA
BRANCH  11  14
ATOM     14  C   UNL A   1      32.175  24.273  23.124  1.00  0.00     0.040 A 
ATOM     15  C   UNL A   1      33.509  24.690  23.107  1.00  0.00     0.014 A 
ATOM     16  C   UNL A   1      31.160  25.174  22.778  1.00  0.00     0.014 A 
ATOM     17  C   UNL A   1      33.829  25.962  22.635  1.00  0.00     0.001 A 
ATOM     18  C   UNL A   1      31.488  26.443  22.302  1.00  0.00     0.001 A 
ATOM     19  C   UNL A   1      32.823  26.827  22.210  1.00  0.00     0.000 A 
ENDBRANCH  11  14
ENDBRANCH   8  10
BRANCH   9  20
ATOM     20  C   UNL A   1      34.865  22.906  25.970  1.00  0.00    -0.005 A 
ATOM     21  C   UNL A   1      35.812  23.939  25.805  1.00  0.00     0.010 A 
ATOM     22  C   UNL A   1      35.269  21.604  25.618  1.00  0.00     0.048 A 
ATOM     23  C   UNL A   1      37.123  23.678  25.394  1.00  0.00     0.001 A 
ATOM     24  C   UNL A   1      36.599  21.339  25.250  1.00  0.00     0.021 A 
ATOM     25  Cl  UNL A   1      34.191  20.259  25.517  1.00  0.00    -0.084 Cl
ATOM     26  C   UNL A   1      37.526  22.372  25.146  1.00  0.00     0.002 A 
ENDBRANCH   9  20
ENDBRANCH   6   8
ENDBRANCH   3   4
ENDBRANCH   2   3
ENDBRANCH   1   2
BRANCH   1  27
ATOM     27  C   UNL A   1      33.764  29.093  26.929  1.00  0.00     0.116 C 
BRANCH  27  28
ATOM     28  N   UNL A   1      33.706  30.296  27.744  1.00  0.00    -0.352 N 
ATOM     29  C   UNL A   1      34.711  30.850  28.514  1.00  0.00     0.251 C 
ATOM     30  H   UNL A   1      32.846  30.774  27.749  1.00  0.00     0.163 HD
ATOM     31  O   UNL A   1      34.507  31.866  29.172  1.00  0.00    -0.269 OA
BRANCH  29  32
ATOM     32  C   UNL A   1      36.035  30.187  28.574  1.00  0.00     0.039 A 
ATOM     33  C   UNL A   1      36.852  30.183  27.443  1.00  0.00     0.014 A 
ATOM     34  C   UNL A   1      36.486  29.612  29.763  1.00  0.00     0.014 A 
ATOM     35  C   UNL A   1      38.164  29.700  27.537  1.00  0.00     0.010 A 
ATOM     36  C   UNL A   1      37.807  29.168  29.869  1.00  0.00     0.010 A 
ATOM     37  C   UNL A   1      38.672  29.240  28.766  1.00  0.00    -0.014 A 
BRANCH  37  38
ATOM     38  C   UNL A   1      40.120  28.931  28.935  1.00  0.00     0.031 A 
ATOM     39  C   UNL A   1      40.683  27.587  28.559  1.00  0.00     0.074 A 
ATOM     40  C   UNL A   1      40.923  29.846  29.518  1.00  0.00     0.049 A 
ATOM     41  N   UNL A   1      41.902  27.133  28.713  1.00  0.00    -0.248 NA
ATOM     42  C   UNL A   1      39.757  26.619  27.949  1.00  0.00     0.031 C 
ATOM     43  C   UNL A   1      40.499  31.169  29.986  1.00  0.00     0.029 A 
ATOM     44  N   UNL A   1      42.260  29.800  29.837  1.00  0.00    -0.354 N 
ATOM     45  C   UNL A   1      41.890  25.828  28.235  1.00  0.00     0.074 A 
ATOM     46  C   UNL A   1      40.534  25.552  27.809  1.00  0.00     0.031 C 
ATOM     47  C   UNL A   1      41.551  31.808  30.521  1.00  0.00     0.029 A 
ATOM     48  C   UNL A   1      42.719  30.933  30.470  1.00  0.00     0.049 A 
ATOM     49  H   UNL A   1      42.835  29.028  29.632  1.00  0.00     0.167 HD
ATOM     50  C   UNL A   1      42.917  24.948  28.145  1.00  0.00     0.037 A 
ATOM     51  C   UNL A   1      43.936  31.234  30.966  1.00  0.00     0.037 A 
ATOM     52  C   UNL A   1      44.276  25.231  28.533  1.00  0.00     0.049 A 
ATOM     53  C   UNL A   1      45.059  30.240  30.841  1.00  0.00     0.074 A 
ATOM     54  C   UNL A   1      45.391  24.420  28.399  1.00  0.00     0.029 A 
ATOM     55  N   UNL A   1      44.707  26.405  29.128  1.00  0.00    -0.354 N 
ATOM     56  N   UNL A   1      45.043  29.045  30.303  1.00  0.00    -0.248 NA
ATOM     57  C   UNL A   1      46.367  30.636  31.384  1.00  0.00     0.031 C 
ATOM     58  C   UNL A   1      46.490  25.089  28.947  1.00  0.00     0.029 A 
ATOM     59  C   UNL A   1      46.066  26.332  29.384  1.00  0.00     0.049 A 
ATOM     60  H   UNL A   1      44.133  27.177  29.337  1.00  0.00     0.167 HD
ATOM     61  C   UNL A   1      46.345  28.565  30.411  1.00  0.00     0.074 A 
ATOM     62  C   UNL A   1      47.123  29.595  31.062  1.00  0.00     0.031 C 
ATOM     63  C   UNL A   1      46.845  27.374  30.002  1.00  0.00     0.037 A 
BRANCH  50  64
ATOM     64  C   UNL A   1      42.630  23.581  27.592  1.00  0.00     0.058 A 
ATOM     65  C   UNL A   1      42.718  23.316  26.217  1.00  0.00     0.135 A 
ATOM     66  C   UNL A   1      42.374  22.503  28.455  1.00  0.00     0.135 A 
ATOM     67  F   UNL A   1      42.954  24.313  25.350  1.00  0.00    -0.206 F 
ATOM     68  C   UNL A   1      42.555  22.029  25.714  1.00  0.00     0.059 A 
ATOM     69  C   UNL A   1      42.227  21.204  27.975  1.00  0.00     0.059 A 
ATOM     70  F   UNL A   1      42.284  22.703  29.779  1.00  0.00    -0.206 F 
ATOM     71  C   UNL A   1      42.315  20.979  26.602  1.00  0.00     0.060 A 
BRANCH  71  72
ATOM     72  S   UNL A   1      42.150  19.308  25.938  1.00  0.00     0.124 S 
ATOM     73  O   UNL A   1      43.017  19.376  24.766  1.00  0.00    -0.237 OA
ATOM     74  O   UNL A   1      42.636  18.483  27.039  1.00  0.00    -0.237 OA
ATOM     75  O   UNL A   1      40.722  19.194  25.656  1.00  0.00    -0.744 OA
ENDBRANCH  71  72
ENDBRANCH  50  64
BRANCH  51  76
ATOM     76  C   UNL A   1      44.171  32.544  31.631  1.00  0.00     0.058 A 
ATOM     77  C   UNL A   1      43.962  32.700  33.009  1.00  0.00     0.135 A 
ATOM     78  C   UNL A   1      44.569  33.671  30.896  1.00  0.00     0.135 A 
ATOM     79  F   UNL A   1      43.576  31.652  33.752  1.00  0.00    -0.206 F 
ATOM     80  C   UNL A   1      44.106  33.936  33.632  1.00  0.00     0.059 A 
ATOM     81  C   UNL A   1      44.742  34.911  31.500  1.00  0.00     0.059 A 
ATOM     82  F   UNL A   1      44.799  33.569  29.577  1.00  0.00    -0.206 F 
ATOM     83  C   UNL A   1      44.488  35.039  32.866  1.00  0.00     0.060 A 
BRANCH  83  84
ATOM     84  S   UNL A   1      44.676  36.640  33.678  1.00  0.00     0.124 S 
ATOM     85  O   UNL A   1      44.261  36.326  35.040  1.00  0.00    -0.237 OA
ATOM     86  O   UNL A   1      46.097  36.919  33.490  1.00  0.00    -0.237 OA
ATOM     87  O   UNL A   1      43.773  37.503  32.923  1.00  0.00    -0.744 OA
ENDBRANCH  83  84
ENDBRANCH  51  76
BRANCH  63  88
ATOM     88  C   UNL A   1      48.317  27.130  30.186  1.00  0.00     0.058 A 
ATOM     89  C   UNL A   1      49.250  27.448  29.188  1.00  0.00     0.135 A 
ATOM     90  C   UNL A   1      48.806  26.645  31.411  1.00  0.00     0.135 A 
ATOM     91  F   UNL A   1      48.835  27.906  27.997  1.00  0.00    -0.206 F 
ATOM     92  C   UNL A   1      50.617  27.290  29.395  1.00  0.00     0.059 A 
ATOM     93  C   UNL A   1      50.169  26.499  31.648  1.00  0.00     0.059 A 
ATOM     94  F   UNL A   1      47.954  26.332  32.400  1.00  0.00    -0.206 F 
ATOM     95  C   UNL A   1      51.067  26.819  30.632  1.00  0.00     0.060 A 
BRANCH  95  96
ATOM     96  S   UNL A   1      52.846  26.679  30.912  1.00  0.00     0.124 S 
ATOM     97  O   UNL A   1      53.363  26.718  29.548  1.00  0.00    -0.237 OA
ATOM     98  O   UNL A   1      53.129  27.852  31.732  1.00  0.00    -0.237 OA
ATOM     99  O   UNL A   1      52.980  25.397  31.598  1.00  0.00    -0.744 OA
ENDBRANCH  95  96
ENDBRANCH  63  88
ENDBRANCH  37  38
ENDBRANCH  29  32
ENDBRANCH  27  28
ENDBRANCH   1  27
TORSDOF 17
ENDMDL
