MODEL 1
REMARK VINA RESULT:     -12.5      0.000      0.000
REMARK SMILES O=C(NCCCCNC(=O)[C@H](NC(=O)c1ccc(Br)nc1)c1ccccc1)c1ccc(-c2c3nc(c(-c4c(F)cc(S(=O)(=O)[O-])cc4F)c4ccc([nH]4)c(-c4c(F)cc(S(=O)(=O)[O-])cc4F)c4nc(c(-c5c(F)cc(S(=O)(=O)[O-])cc5F)c5ccc2[nH]5)C=C4)C=C3)cc1
REMARK SMILES IDX 5 1 4 2 3 3 1 4 2 5 28 7 29 8 93 9 30 10 92 11 31 12 32 13
REMARK SMILES IDX 33 14 86 15 34 16 91 17 85 18 87 19 35 20 90 21 84 22 83 23
REMARK SMILES IDX 36 25 70 26 49 27 69 28 50 29 53 30 68 31 88 32 51 33 52 34
REMARK SMILES IDX 67 36 89 37 54 38 37 39 38 40 47 41 39 42 40 43 46 44 48 45
REMARK SMILES IDX 41 46 42 47 43 48 44 49 45 50 71 51 72 52 81 53 73 54 74 55
REMARK SMILES IDX 80 56 82 57 75 58 76 59 77 60 78 61 79 62 55 63 56 64 65 65
REMARK SMILES IDX 57 66 58 67 64 68 66 69 59 70 60 71 61 72 62 73 63 74 6 75
REMARK SMILES IDX 7 76 8 77 9 78 10 80 11 81 22 82 23 83 27 84 24 85 26 86
REMARK SMILES IDX 25 87 12 88 13 89 14 91 15 92 16 93 21 94 17 95 20 96 18 97
REMARK SMILES IDX 19 98
REMARK H PARENT 3 6 87 24 53 35 8 79 12 90
REMARK Flexibility Score: inf
ROOT
ATOM      1  C   UNL A   1      37.324  23.890  26.127  1.00  0.00     0.023 C 
ENDROOT
BRANCH   1   2
ATOM      2  C   UNL A   1      38.687  23.897  26.811  1.00  0.00     0.116 C 
BRANCH   2   3
ATOM      3  N   UNL A   1      39.789  24.252  25.928  1.00  0.00    -0.352 N 
ATOM      4  O   UNL A   1      41.593  25.422  25.234  1.00  0.00    -0.269 OA
ATOM      5  C   UNL A   1      40.764  25.206  26.113  1.00  0.00     0.251 C 
ATOM      6  H   UNL A   1      39.845  23.742  25.089  1.00  0.00     0.163 HD
BRANCH   5   7
ATOM      7  C   UNL A   1      40.766  26.002  27.358  1.00  0.00     0.039 A 
ATOM      8  C   UNL A   1      39.816  25.765  28.352  1.00  0.00     0.014 A 
ATOM      9  C   UNL A   1      41.695  27.036  27.498  1.00  0.00     0.014 A 
ATOM     10  C   UNL A   1      39.689  26.661  29.406  1.00  0.00     0.010 A 
ATOM     11  C   UNL A   1      41.617  27.888  28.603  1.00  0.00     0.010 A 
ATOM     12  C   UNL A   1      40.587  27.733  29.542  1.00  0.00    -0.014 A 
BRANCH  12  13
ATOM     13  C   UNL A   1      40.441  28.659  30.694  1.00  0.00     0.031 A 
ATOM     14  C   UNL A   1      41.361  28.578  31.882  1.00  0.00     0.074 A 
ATOM     15  C   UNL A   1      39.490  29.612  30.636  1.00  0.00     0.049 A 
ATOM     16  N   UNL A   1      41.390  29.330  32.952  1.00  0.00    -0.248 NA
ATOM     17  C   UNL A   1      42.377  27.512  31.872  1.00  0.00     0.031 C 
ATOM     18  C   UNL A   1      38.535  29.779  29.538  1.00  0.00     0.029 A 
ATOM     19  N   UNL A   1      39.185  30.630  31.499  1.00  0.00    -0.354 N 
ATOM     20  C   UNL A   1      42.405  28.818  33.753  1.00  0.00     0.074 A 
ATOM     21  C   UNL A   1      42.958  27.679  33.053  1.00  0.00     0.031 C 
ATOM     22  C   UNL A   1      37.787  30.867  29.768  1.00  0.00     0.029 A 
ATOM     23  C   UNL A   1      38.170  31.441  31.052  1.00  0.00     0.049 A 
ATOM     24  H   UNL A   1      39.647  30.769  32.357  1.00  0.00     0.167 HD
ATOM     25  C   UNL A   1      42.837  29.264  34.959  1.00  0.00     0.037 A 
ATOM     26  C   UNL A   1      37.602  32.524  31.615  1.00  0.00     0.037 A 
ATOM     27  C   UNL A   1      42.295  30.414  35.638  1.00  0.00     0.049 A 
ATOM     28  C   UNL A   1      38.103  32.998  32.947  1.00  0.00     0.074 A 
ATOM     29  C   UNL A   1      42.683  30.962  36.849  1.00  0.00     0.029 A 
ATOM     30  N   UNL A   1      41.251  31.195  35.165  1.00  0.00    -0.354 N 
ATOM     31  N   UNL A   1      39.072  32.508  33.683  1.00  0.00    -0.248 NA
ATOM     32  C   UNL A   1      37.430  34.166  33.529  1.00  0.00     0.031 C 
ATOM     33  C   UNL A   1      41.853  32.056  37.122  1.00  0.00     0.029 A 
ATOM     34  C   UNL A   1      40.970  32.211  36.064  1.00  0.00     0.049 A 
ATOM     35  H   UNL A   1      40.777  31.049  34.314  1.00  0.00     0.167 HD
ATOM     36  C   UNL A   1      39.130  33.313  34.814  1.00  0.00     0.074 A 
ATOM     37  C   UNL A   1      38.112  34.332  34.654  1.00  0.00     0.031 C 
ATOM     38  C   UNL A   1      39.949  33.212  35.889  1.00  0.00     0.037 A 
BRANCH  25  39
ATOM     39  C   UNL A   1      43.940  28.496  35.632  1.00  0.00     0.058 A 
ATOM     40  C   UNL A   1      45.293  28.789  35.402  1.00  0.00     0.135 A 
ATOM     41  C   UNL A   1      43.640  27.475  36.549  1.00  0.00     0.135 A 
ATOM     42  F   UNL A   1      45.637  29.747  34.524  1.00  0.00    -0.206 F 
ATOM     43  C   UNL A   1      46.310  28.083  36.038  1.00  0.00     0.059 A 
ATOM     44  C   UNL A   1      44.640  26.768  37.212  1.00  0.00     0.059 A 
ATOM     45  F   UNL A   1      42.362  27.154  36.808  1.00  0.00    -0.206 F 
ATOM     46  C   UNL A   1      45.974  27.070  36.938  1.00  0.00     0.060 A 
BRANCH  46  47
ATOM     47  S   UNL A   1      47.302  26.156  37.752  1.00  0.00     0.124 S 
ATOM     48  O   UNL A   1      47.405  26.866  39.023  1.00  0.00    -0.237 OA
ATOM     49  O   UNL A   1      46.757  24.805  37.825  1.00  0.00    -0.237 OA
ATOM     50  O   UNL A   1      48.434  26.324  36.845  1.00  0.00    -0.744 OA
ENDBRANCH  46  47
ENDBRANCH  25  39
BRANCH  26  51
ATOM     51  C   UNL A   1      36.501  33.224  30.908  1.00  0.00     0.058 A 
ATOM     52  C   UNL A   1      35.166  33.033  31.287  1.00  0.00     0.135 A 
ATOM     53  C   UNL A   1      36.769  34.134  29.873  1.00  0.00     0.135 A 
ATOM     54  F   UNL A   1      34.864  32.171  32.269  1.00  0.00    -0.206 F 
ATOM     55  C   UNL A   1      34.129  33.718  30.662  1.00  0.00     0.059 A 
ATOM     56  C   UNL A   1      35.751  34.847  29.249  1.00  0.00     0.059 A 
ATOM     57  F   UNL A   1      38.034  34.363  29.489  1.00  0.00    -0.206 F 
ATOM     58  C   UNL A   1      34.433  34.626  29.645  1.00  0.00     0.060 A 
BRANCH  58  59
ATOM     59  S   UNL A   1      33.091  35.563  28.884  1.00  0.00     0.124 S 
ATOM     60  O   UNL A   1      32.400  34.525  28.130  1.00  0.00    -0.237 OA
ATOM     61  O   UNL A   1      32.380  36.089  30.046  1.00  0.00    -0.237 OA
ATOM     62  O   UNL A   1      33.795  36.564  28.087  1.00  0.00    -0.744 OA
ENDBRANCH  58  59
ENDBRANCH  26  51
BRANCH  38  63
ATOM     63  C   UNL A   1      39.779  34.243  36.967  1.00  0.00     0.058 A 
ATOM     64  C   UNL A   1      39.041  33.972  38.129  1.00  0.00     0.135 A 
ATOM     65  C   UNL A   1      40.378  35.507  36.846  1.00  0.00     0.135 A 
ATOM     66  F   UNL A   1      38.442  32.780  38.286  1.00  0.00    -0.206 F 
ATOM     67  C   UNL A   1      38.879  34.929  39.124  1.00  0.00     0.059 A 
ATOM     68  C   UNL A   1      40.247  36.472  37.839  1.00  0.00     0.059 A 
ATOM     69  F   UNL A   1      41.102  35.810  35.757  1.00  0.00    -0.206 F 
ATOM     70  C   UNL A   1      39.483  36.178  38.968  1.00  0.00     0.060 A 
BRANCH  70  71
ATOM     71  S   UNL A   1      39.281  37.411  40.272  1.00  0.00     0.124 S 
ATOM     72  O   UNL A   1      40.662  37.819  40.506  1.00  0.00    -0.237 OA
ATOM     73  O   UNL A   1      38.424  38.406  39.635  1.00  0.00    -0.237 OA
ATOM     74  O   UNL A   1      38.655  36.657  41.354  1.00  0.00    -0.744 OA
ENDBRANCH  70  71
ENDBRANCH  38  63
ENDBRANCH  12  13
ENDBRANCH   5   7
ENDBRANCH   2   3
ENDBRANCH   1   2
BRANCH   1  75
ATOM     75  C   UNL A   1      37.196  22.980  24.907  1.00  0.00     0.023 C 
BRANCH  75  76
ATOM     76  C   UNL A   1      36.161  21.872  25.036  1.00  0.00     0.116 C 
BRANCH  76  77
ATOM     77  N   UNL A   1      35.586  21.771  26.363  1.00  0.00    -0.354 N 
ATOM     78  C   UNL A   1      34.296  21.709  26.800  1.00  0.00     0.247 C 
ATOM     79  H   UNL A   1      36.253  21.743  27.087  1.00  0.00     0.163 HD
ATOM     80  O   UNL A   1      34.135  21.637  28.026  1.00  0.00    -0.272 OA
BRANCH  78  81
ATOM     81  C   UNL A   1      33.059  21.858  25.864  1.00  0.00     0.202 C 
BRANCH  81  82
ATOM     82  C   UNL A   1      32.779  20.597  25.032  1.00  0.00    -0.016 A 
ATOM     83  C   UNL A   1      32.476  20.682  23.658  1.00  0.00     0.006 A 
ATOM     84  C   UNL A   1      32.918  19.309  25.581  1.00  0.00     0.006 A 
ATOM     85  C   UNL A   1      32.254  19.535  22.890  1.00  0.00     0.000 A 
ATOM     86  C   UNL A   1      32.709  18.161  24.809  1.00  0.00     0.000 A 
ATOM     87  C   UNL A   1      32.366  18.274  23.467  1.00  0.00     0.000 A 
ENDBRANCH  81  82
BRANCH  81  88
ATOM     88  N   UNL A   1      31.859  22.339  26.553  1.00  0.00    -0.336 N 
ATOM     89  C   UNL A   1      31.275  23.579  26.511  1.00  0.00     0.253 C 
ATOM     90  H   UNL A   1      31.406  21.679  27.125  1.00  0.00     0.165 HD
ATOM     91  O   UNL A   1      30.247  23.800  27.142  1.00  0.00    -0.269 OA
BRANCH  89  92
ATOM     92  C   UNL A   1      31.954  24.690  25.833  1.00  0.00     0.058 A 
ATOM     93  C   UNL A   1      33.206  25.161  26.212  1.00  0.00     0.018 A 
ATOM     94  C   UNL A   1      31.314  25.288  24.755  1.00  0.00     0.126 A 
ATOM     95  C   UNL A   1      33.748  26.246  25.525  1.00  0.00     0.037 A 
ATOM     96  N   UNL A   1      31.819  26.343  24.075  1.00  0.00    -0.249 NA
ATOM     97  C   UNL A   1      33.022  26.806  24.480  1.00  0.00     0.106 A 
ATOM     98  Br  UNL A   1      33.751  28.289  23.550  1.00  0.00    -0.029 Br
ENDBRANCH  89  92
ENDBRANCH  81  88
ENDBRANCH  78  81
ENDBRANCH  76  77
ENDBRANCH  75  76
ENDBRANCH   1  75
TORSDOF 17
ENDMDL
MODEL 2
REMARK VINA RESULT:     -12.4      4.998      9.582
REMARK SMILES O=C(NCCCCNC(=O)[C@H](NC(=O)c1ccc(Br)nc1)c1ccccc1)c1ccc(-c2c3nc(c(-c4c(F)cc(S(=O)(=O)[O-])cc4F)c4ccc([nH]4)c(-c4c(F)cc(S(=O)(=O)[O-])cc4F)c4nc(c(-c5c(F)cc(S(=O)(=O)[O-])cc5F)c5ccc2[nH]5)C=C4)C=C3)cc1
REMARK SMILES IDX 5 1 4 2 3 3 1 4 2 5 28 7 29 8 93 9 30 10 92 11 31 12 32 13
REMARK SMILES IDX 33 14 86 15 34 16 91 17 85 18 87 19 35 20 90 21 84 22 83 23
REMARK SMILES IDX 36 25 70 26 49 27 69 28 50 29 53 30 68 31 88 32 51 33 52 34
REMARK SMILES IDX 67 36 89 37 54 38 37 39 38 40 47 41 39 42 40 43 46 44 48 45
REMARK SMILES IDX 41 46 42 47 43 48 44 49 45 50 71 51 72 52 81 53 73 54 74 55
REMARK SMILES IDX 80 56 82 57 75 58 76 59 77 60 78 61 79 62 55 63 56 64 65 65
REMARK SMILES IDX 57 66 58 67 64 68 66 69 59 70 60 71 61 72 62 73 63 74 6 75
REMARK SMILES IDX 7 76 8 77 9 78 10 80 11 81 22 82 23 83 27 84 24 85 26 86
REMARK SMILES IDX 25 87 12 88 13 89 14 91 15 92 16 93 21 94 17 95 20 96 18 97
REMARK SMILES IDX 19 98
REMARK H PARENT 3 6 87 24 53 35 8 79 12 90
REMARK Flexibility Score: inf
ROOT
ATOM      1  C   UNL A   1      32.922  27.826  25.907  1.00  0.00     0.023 C 
ENDROOT
BRANCH   1   2
ATOM      2  C   UNL A   1      33.659  28.212  27.185  1.00  0.00     0.116 C 
BRANCH   2   3
ATOM      3  N   UNL A   1      33.507  29.612  27.556  1.00  0.00    -0.352 N 
ATOM      4  O   UNL A   1      34.140  31.615  28.386  1.00  0.00    -0.269 OA
ATOM      5  C   UNL A   1      34.452  30.472  28.068  1.00  0.00     0.251 C 
ATOM      6  H   UNL A   1      32.610  29.993  27.424  1.00  0.00     0.163 HD
BRANCH   5   7
ATOM      7  C   UNL A   1      35.831  29.985  28.277  1.00  0.00     0.039 A 
ATOM      8  C   UNL A   1      36.238  29.526  29.530  1.00  0.00     0.014 A 
ATOM      9  C   UNL A   1      36.739  30.049  27.216  1.00  0.00     0.014 A 
ATOM     10  C   UNL A   1      37.586  29.287  29.767  1.00  0.00     0.010 A 
ATOM     11  C   UNL A   1      38.081  29.729  27.437  1.00  0.00     0.010 A 
ATOM     12  C   UNL A   1      38.523  29.387  28.724  1.00  0.00    -0.014 A 
BRANCH  12  13
ATOM     13  C   UNL A   1      39.952  29.101  29.004  1.00  0.00     0.031 A 
ATOM     14  C   UNL A   1      40.568  27.777  28.639  1.00  0.00     0.074 A 
ATOM     15  C   UNL A   1      40.707  30.072  29.554  1.00  0.00     0.049 A 
ATOM     16  N   UNL A   1      41.806  27.379  28.784  1.00  0.00    -0.248 NA
ATOM     17  C   UNL A   1      39.681  26.767  28.039  1.00  0.00     0.031 C 
ATOM     18  C   UNL A   1      40.213  31.391  29.958  1.00  0.00     0.029 A 
ATOM     19  N   UNL A   1      42.045  30.114  29.844  1.00  0.00    -0.354 N 
ATOM     20  C   UNL A   1      41.845  26.069  28.319  1.00  0.00     0.074 A 
ATOM     21  C   UNL A   1      40.501  25.732  27.901  1.00  0.00     0.031 C 
ATOM     22  C   UNL A   1      41.243  32.131  30.393  1.00  0.00     0.029 A 
ATOM     23  C   UNL A   1      42.456  31.324  30.351  1.00  0.00     0.049 A 
ATOM     24  H   UNL A   1      42.653  29.354  29.703  1.00  0.00     0.167 HD
ATOM     25  C   UNL A   1      42.908  25.230  28.242  1.00  0.00     0.037 A 
ATOM     26  C   UNL A   1      43.674  31.737  30.748  1.00  0.00     0.037 A 
ATOM     27  C   UNL A   1      44.248  25.583  28.638  1.00  0.00     0.049 A 
ATOM     28  C   UNL A   1      44.833  30.789  30.648  1.00  0.00     0.074 A 
ATOM     29  C   UNL A   1      45.397  24.813  28.574  1.00  0.00     0.029 A 
ATOM     30  N   UNL A   1      44.620  26.808  29.170  1.00  0.00    -0.354 N 
ATOM     31  N   UNL A   1      44.851  29.559  30.194  1.00  0.00    -0.248 NA
ATOM     32  C   UNL A   1      46.132  31.282  31.121  1.00  0.00     0.031 C 
ATOM     33  C   UNL A   1      46.458  25.562  29.095  1.00  0.00     0.029 A 
ATOM     34  C   UNL A   1      45.977  26.812  29.453  1.00  0.00     0.049 A 
ATOM     35  H   UNL A   1      44.010  27.565  29.326  1.00  0.00     0.167 HD
ATOM     36  C   UNL A   1      46.167  29.130  30.319  1.00  0.00     0.074 A 
ATOM     37  C   UNL A   1      46.916  30.241  30.873  1.00  0.00     0.031 C 
ATOM     38  C   UNL A   1      46.703  27.925  30.009  1.00  0.00     0.037 A 
BRANCH  25  39
ATOM     39  C   UNL A   1      42.662  23.839  27.726  1.00  0.00     0.058 A 
ATOM     40  C   UNL A   1      42.465  22.753  28.591  1.00  0.00     0.135 A 
ATOM     41  C   UNL A   1      42.583  23.596  26.344  1.00  0.00     0.135 A 
ATOM     42  F   UNL A   1      42.543  22.926  29.921  1.00  0.00    -0.206 F 
ATOM     43  C   UNL A   1      42.225  21.470  28.107  1.00  0.00     0.059 A 
ATOM     44  C   UNL A   1      42.324  22.326  25.837  1.00  0.00     0.059 A 
ATOM     45  F   UNL A   1      42.761  24.601  25.470  1.00  0.00    -0.206 F 
ATOM     46  C   UNL A   1      42.161  21.265  26.727  1.00  0.00     0.060 A 
BRANCH  46  47
ATOM     47  S   UNL A   1      41.855  19.595  26.111  1.00  0.00     0.124 S 
ATOM     48  O   UNL A   1      42.747  19.545  24.958  1.00  0.00    -0.237 OA
ATOM     49  O   UNL A   1      42.243  18.764  27.247  1.00  0.00    -0.237 OA
ATOM     50  O   UNL A   1      40.429  19.603  25.803  1.00  0.00    -0.744 OA
ENDBRANCH  46  47
ENDBRANCH  25  39
BRANCH  26  51
ATOM     51  C   UNL A   1      43.845  33.116  31.269  1.00  0.00     0.058 A 
ATOM     52  C   UNL A   1      44.234  34.163  30.423  1.00  0.00     0.135 A 
ATOM     53  C   UNL A   1      43.574  33.420  32.613  1.00  0.00     0.135 A 
ATOM     54  F   UNL A   1      44.506  33.917  29.133  1.00  0.00    -0.206 F 
ATOM     55  C   UNL A   1      44.354  35.468  30.891  1.00  0.00     0.059 A 
ATOM     56  C   UNL A   1      43.665  34.720  33.097  1.00  0.00     0.059 A 
ATOM     57  F   UNL A   1      43.180  32.453  33.455  1.00  0.00    -0.206 F 
ATOM     58  C   UNL A   1      44.063  35.736  32.230  1.00  0.00     0.060 A 
BRANCH  58  59
ATOM     59  S   UNL A   1      44.153  37.442  32.816  1.00  0.00     0.124 S 
ATOM     60  O   UNL A   1      45.534  37.520  33.277  1.00  0.00    -0.237 OA
ATOM     61  O   UNL A   1      43.837  38.202  31.610  1.00  0.00    -0.237 OA
ATOM     62  O   UNL A   1      43.133  37.489  33.860  1.00  0.00    -0.744 OA
ENDBRANCH  58  59
ENDBRANCH  26  51
BRANCH  38  63
ATOM     63  C   UNL A   1      48.175  27.757  30.253  1.00  0.00     0.058 A 
ATOM     64  C   UNL A   1      48.665  27.309  31.489  1.00  0.00     0.135 A 
ATOM     65  C   UNL A   1      49.101  28.027  29.234  1.00  0.00     0.135 A 
ATOM     66  F   UNL A   1      47.817  27.046  32.497  1.00  0.00    -0.206 F 
ATOM     67  C   UNL A   1      50.028  27.159  31.717  1.00  0.00     0.059 A 
ATOM     68  C   UNL A   1      50.469  27.863  29.433  1.00  0.00     0.059 A 
ATOM     69  F   UNL A   1      48.680  28.449  28.031  1.00  0.00    -0.206 F 
ATOM     70  C   UNL A   1      50.923  27.443  30.682  1.00  0.00     0.060 A 
BRANCH  70  71
ATOM     71  S   UNL A   1      52.691  27.231  30.980  1.00  0.00     0.124 S 
ATOM     72  O   UNL A   1      53.265  27.865  29.798  1.00  0.00    -0.237 OA
ATOM     73  O   UNL A   1      52.887  27.943  32.240  1.00  0.00    -0.237 OA
ATOM     74  O   UNL A   1      52.849  25.781  31.058  1.00  0.00    -0.744 OA
ENDBRANCH  70  71
ENDBRANCH  38  63
ENDBRANCH  12  13
ENDBRANCH   5   7
ENDBRANCH   2   3
ENDBRANCH   1   2
BRANCH   1  75
ATOM     75  C   UNL A   1      31.745  26.870  26.080  1.00  0.00     0.023 C 
BRANCH  75  76
ATOM     76  C   UNL A   1      32.120  25.452  26.485  1.00  0.00     0.116 C 
BRANCH  76  77
ATOM     77  N   UNL A   1      31.700  24.449  25.527  1.00  0.00    -0.354 N 
ATOM     78  C   UNL A   1      32.255  24.006  24.363  1.00  0.00     0.247 C 
ATOM     79  H   UNL A   1      30.854  24.003  25.759  1.00  0.00     0.163 HD
ATOM     80  O   UNL A   1      31.629  23.126  23.757  1.00  0.00    -0.272 OA
BRANCH  78  81
ATOM     81  C   UNL A   1      33.526  24.635  23.717  1.00  0.00     0.202 C 
BRANCH  81  82
ATOM     82  C   UNL A   1      34.832  24.003  24.223  1.00  0.00    -0.016 A 
ATOM     83  C   UNL A   1      35.612  23.176  23.390  1.00  0.00     0.006 A 
ATOM     84  C   UNL A   1      35.353  24.310  25.494  1.00  0.00     0.006 A 
ATOM     85  C   UNL A   1      36.819  22.627  23.834  1.00  0.00     0.000 A 
ATOM     86  C   UNL A   1      36.567  23.770  25.933  1.00  0.00     0.000 A 
ATOM     87  C   UNL A   1      37.293  22.920  25.109  1.00  0.00     0.000 A 
ENDBRANCH  81  82
BRANCH  81  88
ATOM     88  N   UNL A   1      33.473  24.691  22.254  1.00  0.00    -0.336 N 
ATOM     89  C   UNL A   1      32.918  25.646  21.444  1.00  0.00     0.253 C 
ATOM     90  H   UNL A   1      33.898  23.936  21.787  1.00  0.00     0.165 HD
ATOM     91  O   UNL A   1      32.988  25.540  20.224  1.00  0.00    -0.269 OA
BRANCH  89  92
ATOM     92  C   UNL A   1      32.109  26.725  22.025  1.00  0.00     0.058 A 
ATOM     93  C   UNL A   1      30.766  26.576  22.352  1.00  0.00     0.018 A 
ATOM     94  C   UNL A   1      32.723  27.947  22.266  1.00  0.00     0.126 A 
ATOM     95  C   UNL A   1      30.076  27.674  22.865  1.00  0.00     0.037 A 
ATOM     96  N   UNL A   1      32.075  29.026  22.762  1.00  0.00    -0.249 NA
ATOM     97  C   UNL A   1      30.763  28.871  23.043  1.00  0.00     0.106 A 
ATOM     98  Br  UNL A   1      29.827  30.369  23.730  1.00  0.00    -0.029 Br
ENDBRANCH  89  92
ENDBRANCH  81  88
ENDBRANCH  78  81
ENDBRANCH  76  77
ENDBRANCH  75  76
ENDBRANCH   1  75
TORSDOF 17
ENDMDL
MODEL 3
REMARK VINA RESULT:     -12.3      4.861     10.173
REMARK SMILES O=C(NCCCCNC(=O)[C@H](NC(=O)c1ccc(Br)nc1)c1ccccc1)c1ccc(-c2c3nc(c(-c4c(F)cc(S(=O)(=O)[O-])cc4F)c4ccc([nH]4)c(-c4c(F)cc(S(=O)(=O)[O-])cc4F)c4nc(c(-c5c(F)cc(S(=O)(=O)[O-])cc5F)c5ccc2[nH]5)C=C4)C=C3)cc1
REMARK SMILES IDX 5 1 4 2 3 3 1 4 2 5 28 7 29 8 93 9 30 10 92 11 31 12 32 13
REMARK SMILES IDX 33 14 86 15 34 16 91 17 85 18 87 19 35 20 90 21 84 22 83 23
REMARK SMILES IDX 36 25 70 26 49 27 69 28 50 29 53 30 68 31 88 32 51 33 52 34
REMARK SMILES IDX 67 36 89 37 54 38 37 39 38 40 47 41 39 42 40 43 46 44 48 45
REMARK SMILES IDX 41 46 42 47 43 48 44 49 45 50 71 51 72 52 81 53 73 54 74 55
REMARK SMILES IDX 80 56 82 57 75 58 76 59 77 60 78 61 79 62 55 63 56 64 65 65
REMARK SMILES IDX 57 66 58 67 64 68 66 69 59 70 60 71 61 72 62 73 63 74 6 75
REMARK SMILES IDX 7 76 8 77 9 78 10 80 11 81 22 82 23 83 27 84 24 85 26 86
REMARK SMILES IDX 25 87 12 88 13 89 14 91 15 92 16 93 21 94 17 95 20 96 18 97
REMARK SMILES IDX 19 98
REMARK H PARENT 3 6 87 24 53 35 8 79 12 90
REMARK Flexibility Score: inf
ROOT
ATOM      1  C   UNL A   1      32.676  27.671  26.129  1.00  0.00     0.023 C 
ENDROOT
BRANCH   1   2
ATOM      2  C   UNL A   1      33.713  28.142  27.142  1.00  0.00     0.116 C 
BRANCH   2   3
ATOM      3  N   UNL A   1      33.543  29.526  27.561  1.00  0.00    -0.352 N 
ATOM      4  O   UNL A   1      34.156  31.512  28.448  1.00  0.00    -0.269 OA
ATOM      5  C   UNL A   1      34.482  30.385  28.088  1.00  0.00     0.251 C 
ATOM      6  H   UNL A   1      32.639  29.897  27.454  1.00  0.00     0.163 HD
BRANCH   5   7
ATOM      7  C   UNL A   1      35.871  29.915  28.261  1.00  0.00     0.039 A 
ATOM      8  C   UNL A   1      36.307  29.428  29.494  1.00  0.00     0.014 A 
ATOM      9  C   UNL A   1      36.761  30.023  27.188  1.00  0.00     0.014 A 
ATOM     10  C   UNL A   1      37.661  29.204  29.702  1.00  0.00     0.010 A 
ATOM     11  C   UNL A   1      38.111  29.718  27.378  1.00  0.00     0.010 A 
ATOM     12  C   UNL A   1      38.579  29.348  28.648  1.00  0.00    -0.014 A 
BRANCH  12  13
ATOM     13  C   UNL A   1      40.018  29.076  28.896  1.00  0.00     0.031 A 
ATOM     14  C   UNL A   1      40.899  30.096  29.565  1.00  0.00     0.074 A 
ATOM     15  C   UNL A   1      40.513  27.872  28.552  1.00  0.00     0.049 A 
ATOM     16  N   UNL A   1      42.165  30.005  29.885  1.00  0.00    -0.248 NA
ATOM     17  C   UNL A   1      40.286  31.388  29.914  1.00  0.00     0.031 C 
ATOM     18  C   UNL A   1      39.753  26.809  27.890  1.00  0.00     0.029 A 
ATOM     19  N   UNL A   1      41.757  27.328  28.732  1.00  0.00    -0.354 N 
ATOM     20  C   UNL A   1      42.508  31.229  30.449  1.00  0.00     0.074 A 
ATOM     21  C   UNL A   1      41.320  32.055  30.413  1.00  0.00     0.031 C 
ATOM     22  C   UNL A   1      40.529  25.724  27.768  1.00  0.00     0.029 A 
ATOM     23  C   UNL A   1      41.856  26.030  28.290  1.00  0.00     0.049 A 
ATOM     24  H   UNL A   1      42.508  27.818  29.137  1.00  0.00     0.167 HD
ATOM     25  C   UNL A   1      43.702  31.622  30.955  1.00  0.00     0.037 A 
ATOM     26  C   UNL A   1      42.900  25.181  28.296  1.00  0.00     0.037 A 
ATOM     27  C   UNL A   1      44.873  30.784  31.009  1.00  0.00     0.049 A 
ATOM     28  C   UNL A   1      44.209  25.641  28.867  1.00  0.00     0.074 A 
ATOM     29  C   UNL A   1      46.123  31.081  31.527  1.00  0.00     0.029 A 
ATOM     30  N   UNL A   1      44.941  29.485  30.529  1.00  0.00    -0.354 N 
ATOM     31  N   UNL A   1      44.509  26.797  29.407  1.00  0.00    -0.248 NA
ATOM     32  C   UNL A   1      45.322  24.684  28.823  1.00  0.00     0.031 C 
ATOM     33  C   UNL A   1      46.954  29.972  31.334  1.00  0.00     0.029 A 
ATOM     34  C   UNL A   1      46.213  28.970  30.725  1.00  0.00     0.049 A 
ATOM     35  H   UNL A   1      44.195  28.999  30.110  1.00  0.00     0.167 HD
ATOM     36  C   UNL A   1      45.846  26.707  29.774  1.00  0.00     0.074 A 
ATOM     37  C   UNL A   1      46.288  25.374  29.413  1.00  0.00     0.031 C 
ATOM     38  C   UNL A   1      46.635  27.644  30.353  1.00  0.00     0.037 A 
BRANCH  25  39
ATOM     39  C   UNL A   1      43.809  33.028  31.478  1.00  0.00     0.058 A 
ATOM     40  C   UNL A   1      44.139  34.105  30.642  1.00  0.00     0.135 A 
ATOM     41  C   UNL A   1      43.541  33.308  32.829  1.00  0.00     0.135 A 
ATOM     42  F   UNL A   1      44.419  33.893  29.345  1.00  0.00    -0.206 F 
ATOM     43  C   UNL A   1      44.224  35.406  31.129  1.00  0.00     0.059 A 
ATOM     44  C   UNL A   1      43.600  34.604  33.334  1.00  0.00     0.059 A 
ATOM     45  F   UNL A   1      43.218  32.315  33.673  1.00  0.00    -0.206 F 
ATOM     46  C   UNL A   1      43.957  35.646  32.478  1.00  0.00     0.060 A 
BRANCH  46  47
ATOM     47  S   UNL A   1      44.077  37.337  33.099  1.00  0.00     0.124 S 
ATOM     48  O   UNL A   1      45.345  37.292  33.819  1.00  0.00    -0.237 OA
ATOM     49  O   UNL A   1      44.075  38.125  31.871  1.00  0.00    -0.237 OA
ATOM     50  O   UNL A   1      42.886  37.478  33.932  1.00  0.00    -0.744 OA
ENDBRANCH  46  47
ENDBRANCH  25  39
BRANCH  26  51
ATOM     51  C   UNL A   1      42.734  23.813  27.745  1.00  0.00     0.058 A 
ATOM     52  C   UNL A   1      42.506  22.718  28.589  1.00  0.00     0.135 A 
ATOM     53  C   UNL A   1      42.750  23.584  26.360  1.00  0.00     0.135 A 
ATOM     54  F   UNL A   1      42.485  22.890  29.919  1.00  0.00    -0.206 F 
ATOM     55  C   UNL A   1      42.304  21.439  28.081  1.00  0.00     0.059 A 
ATOM     56  C   UNL A   1      42.528  22.319  25.828  1.00  0.00     0.059 A 
ATOM     57  F   UNL A   1      42.945  24.606  25.512  1.00  0.00    -0.206 F 
ATOM     58  C   UNL A   1      42.314  21.251  26.698  1.00  0.00     0.060 A 
BRANCH  58  59
ATOM     59  S   UNL A   1      41.983  19.602  26.040  1.00  0.00     0.124 S 
ATOM     60  O   UNL A   1      40.545  19.664  25.809  1.00  0.00    -0.237 OA
ATOM     61  O   UNL A   1      42.822  19.570  24.845  1.00  0.00    -0.237 OA
ATOM     62  O   UNL A   1      42.414  18.720  27.120  1.00  0.00    -0.744 OA
ENDBRANCH  58  59
ENDBRANCH  26  51
BRANCH  38  63
ATOM     63  C   UNL A   1      48.055  27.249  30.640  1.00  0.00     0.058 A 
ATOM     64  C   UNL A   1      48.399  26.562  31.814  1.00  0.00     0.135 A 
ATOM     65  C   UNL A   1      49.076  27.541  29.723  1.00  0.00     0.135 A 
ATOM     66  F   UNL A   1      47.458  26.268  32.726  1.00  0.00    -0.206 F 
ATOM     67  C   UNL A   1      49.715  26.202  32.084  1.00  0.00     0.059 A 
ATOM     68  C   UNL A   1      50.396  27.171  29.962  1.00  0.00     0.059 A 
ATOM     69  F   UNL A   1      48.794  28.189  28.581  1.00  0.00    -0.206 F 
ATOM     70  C   UNL A   1      50.707  26.515  31.152  1.00  0.00     0.060 A 
BRANCH  70  71
ATOM     71  S   UNL A   1      52.411  26.030  31.501  1.00  0.00     0.124 S 
ATOM     72  O   UNL A   1      52.836  27.088  32.410  1.00  0.00    -0.237 OA
ATOM     73  O   UNL A   1      52.247  24.708  32.098  1.00  0.00    -0.237 OA
ATOM     74  O   UNL A   1      53.040  26.039  30.183  1.00  0.00    -0.744 OA
ENDBRANCH  70  71
ENDBRANCH  38  63
ENDBRANCH  12  13
ENDBRANCH   5   7
ENDBRANCH   2   3
ENDBRANCH   1   2
BRANCH   1  75
ATOM     75  C   UNL A   1      31.986  26.347  26.449  1.00  0.00     0.023 C 
BRANCH  75  76
ATOM     76  C   UNL A   1      31.053  25.827  25.365  1.00  0.00     0.116 C 
BRANCH  76  77
ATOM     77  N   UNL A   1      31.269  24.431  25.040  1.00  0.00    -0.354 N 
ATOM     78  C   UNL A   1      32.283  23.787  24.397  1.00  0.00     0.247 C 
ATOM     79  H   UNL A   1      30.545  23.834  25.339  1.00  0.00     0.163 HD
ATOM     80  O   UNL A   1      32.160  22.561  24.267  1.00  0.00    -0.272 OA
BRANCH  78  81
ATOM     81  C   UNL A   1      33.483  24.520  23.723  1.00  0.00     0.202 C 
BRANCH  81  82
ATOM     82  C   UNL A   1      34.847  24.051  24.253  1.00  0.00    -0.016 A 
ATOM     83  C   UNL A   1      35.264  24.357  25.564  1.00  0.00     0.006 A 
ATOM     84  C   UNL A   1      35.683  23.214  23.491  1.00  0.00     0.006 A 
ATOM     85  C   UNL A   1      36.490  23.904  26.061  1.00  0.00     0.000 A 
ATOM     86  C   UNL A   1      36.904  22.751  23.994  1.00  0.00     0.000 A 
ATOM     87  C   UNL A   1      37.312  23.105  25.274  1.00  0.00     0.000 A 
ENDBRANCH  81  82
BRANCH  81  88
ATOM     88  N   UNL A   1      33.428  24.508  22.259  1.00  0.00    -0.336 N 
ATOM     89  C   UNL A   1      32.986  25.481  21.402  1.00  0.00     0.253 C 
ATOM     90  H   UNL A   1      33.758  23.685  21.830  1.00  0.00     0.165 HD
ATOM     91  O   UNL A   1      33.036  25.307  20.189  1.00  0.00    -0.269 OA
BRANCH  89  92
ATOM     92  C   UNL A   1      32.314  26.675  21.927  1.00  0.00     0.058 A 
ATOM     93  C   UNL A   1      33.001  27.784  22.410  1.00  0.00     0.018 A 
ATOM     94  C   UNL A   1      30.925  26.697  21.930  1.00  0.00     0.126 A 
ATOM     95  C   UNL A   1      32.268  28.854  22.922  1.00  0.00     0.037 A 
ATOM     96  N   UNL A   1      30.193  27.723  22.424  1.00  0.00    -0.249 NA
ATOM     97  C   UNL A   1      30.880  28.777  22.917  1.00  0.00     0.106 A 
ATOM     98  Br  UNL A   1      29.880  30.225  23.622  1.00  0.00    -0.029 Br
ENDBRANCH  89  92
ENDBRANCH  81  88
ENDBRANCH  78  81
ENDBRANCH  76  77
ENDBRANCH  75  76
ENDBRANCH   1  75
TORSDOF 17
ENDMDL
