MODEL 1
REMARK VINA RESULT:     -12.5      0.000      0.000
REMARK SMILES CC(C)Cc1cc2c(cc1Cl)C=C(C(=O)NCCCCNC(=O)c1ccc(-c3c4nc(c(-c5c(F)cc(S(=O)(=O)[O-])cc5F)c5ccc([nH]5)c(-c5c(F)cc(S(=O)(=O)[O-])cc5F)c5nc(c(-c6c(F)cc(S(=O)(=O)[O-])cc6F)c6ccc3[nH]6)C=C5)C=C4)cc1)[C@@H](C(F)(F)F)O2
REMARK SMILES IDX 19 1 18 2 17 3 16 4 14 5 15 6 13 8 5 9 6 10 10 11 7 12 9 13
REMARK SMILES IDX 11 14 8 15 95 16 12 17 90 18 4 19 2 20 1 21 3 22 91 23 92 24
REMARK SMILES IDX 93 25 94 26 20 27 21 28 22 29 23 31 24 32 25 33 89 34 26 35
REMARK SMILES IDX 88 36 27 37 28 38 29 39 82 40 30 41 87 42 81 43 83 44 31 45
REMARK SMILES IDX 86 46 80 47 79 48 32 50 66 51 45 52 65 53 46 54 49 55 64 56
REMARK SMILES IDX 84 57 47 58 48 59 63 61 85 62 50 63 33 64 34 65 43 66 35 67
REMARK SMILES IDX 36 68 42 69 44 70 37 71 38 72 39 73 40 74 41 75 67 76 68 77
REMARK SMILES IDX 77 78 69 79 70 80 76 81 78 82 71 83 72 84 73 85 74 86 75 87
REMARK SMILES IDX 51 88 52 89 61 90 53 91 54 92 60 93 62 94 55 95 56 96 57 97
REMARK SMILES IDX 58 98 59 99
REMARK H PARENT 16 7 21 30 83 49 49 60
REMARK Flexibility Score: inf
ROOT
ATOM      1  C   UNL A   1      39.742  22.139  26.869  1.00  0.00     0.023 C 
ENDROOT
BRANCH   1   2
ATOM      2  C   UNL A   1      38.571  22.800  26.139  1.00  0.00     0.023 C 
BRANCH   2   3
ATOM      3  C   UNL A   1      37.666  21.828  25.390  1.00  0.00     0.116 C 
BRANCH   3   4
ATOM      4  N   UNL A   1      36.446  21.537  26.119  1.00  0.00    -0.352 N 
ATOM      5  C   UNL A   1      35.177  22.007  26.129  1.00  0.00     0.251 C 
ATOM      6  O   UNL A   1      34.417  21.481  26.948  1.00  0.00    -0.270 OA
ATOM      7  H   UNL A   1      36.573  20.814  26.774  1.00  0.00     0.163 HD
BRANCH   5   8
ATOM      8  C   UNL A   1      34.653  23.077  25.229  1.00  0.00     0.067 C 
ATOM      9  C   UNL A   1      32.728  27.449  23.559  1.00  0.00    -0.025 A 
ATOM     10  C   UNL A   1      33.019  26.207  22.970  1.00  0.00     0.052 A 
ATOM     11  C   UNL A   1      33.086  27.646  24.902  1.00  0.00     0.045 A 
ATOM     12  C   UNL A   1      33.619  25.186  23.707  1.00  0.00     0.128 A 
ATOM     13  C   UNL A   1      33.689  26.618  25.638  1.00  0.00     0.032 A 
ATOM     14  Cl  UNL A   1      32.808  29.144  25.718  1.00  0.00    -0.084 Cl
ATOM     15  C   UNL A   1      33.948  25.381  25.044  1.00  0.00     0.019 A 
ATOM     16  O   UNL A   1      33.883  24.032  23.035  1.00  0.00    -0.475 OA
ATOM     17  C   UNL A   1      34.553  24.293  25.797  1.00  0.00     0.025 C 
ATOM     18  C   UNL A   1      34.167  22.841  23.824  1.00  0.00     0.314 C 
BRANCH   9  19
ATOM     19  C   UNL A   1      32.013  28.485  22.718  1.00  0.00     0.040 C 
BRANCH  19  20
ATOM     20  C   UNL A   1      30.476  28.420  22.846  1.00  0.00    -0.013 C 
ATOM     21  C   UNL A   1      30.010  27.233  23.690  1.00  0.00     0.008 C 
ATOM     22  C   UNL A   1      29.949  29.720  23.457  1.00  0.00     0.008 C 
ENDBRANCH  19  20
ENDBRANCH   9  19
BRANCH  18  23
ATOM     23  C   UNL A   1      32.936  21.920  23.750  1.00  0.00     0.429 C 
ATOM     24  F   UNL A   1      32.077  22.204  24.763  1.00  0.00    -0.167 F 
ATOM     25  F   UNL A   1      32.235  22.063  22.605  1.00  0.00    -0.167 F 
ATOM     26  F   UNL A   1      33.265  20.612  23.858  1.00  0.00    -0.167 F 
ENDBRANCH  18  23
ENDBRANCH   5   8
ENDBRANCH   3   4
ENDBRANCH   2   3
ENDBRANCH   1   2
BRANCH   1  27
ATOM     27  C   UNL A   1      40.973  23.019  27.075  1.00  0.00     0.116 C 
BRANCH  27  28
ATOM     28  N   UNL A   1      41.230  23.954  25.986  1.00  0.00    -0.352 N 
ATOM     29  C   UNL A   1      41.408  25.316  26.084  1.00  0.00     0.251 C 
ATOM     30  H   UNL A   1      41.282  23.569  25.082  1.00  0.00     0.163 HD
ATOM     31  O   UNL A   1      41.578  26.007  25.087  1.00  0.00    -0.269 OA
BRANCH  29  32
ATOM     32  C   UNL A   1      41.328  25.923  27.425  1.00  0.00     0.039 A 
ATOM     33  C   UNL A   1      40.097  25.982  28.084  1.00  0.00     0.014 A 
ATOM     34  C   UNL A   1      42.453  26.571  27.938  1.00  0.00     0.014 A 
ATOM     35  C   UNL A   1      39.957  26.823  29.180  1.00  0.00     0.010 A 
ATOM     36  C   UNL A   1      42.321  27.369  29.075  1.00  0.00     0.010 A 
ATOM     37  C   UNL A   1      41.059  27.545  29.669  1.00  0.00    -0.014 A 
BRANCH  37  38
ATOM     38  C   UNL A   1      40.868  28.513  30.774  1.00  0.00     0.031 A 
ATOM     39  C   UNL A   1      41.808  28.526  31.950  1.00  0.00     0.074 A 
ATOM     40  C   UNL A   1      39.881  29.423  30.684  1.00  0.00     0.049 A 
ATOM     41  N   UNL A   1      41.779  29.278  33.020  1.00  0.00    -0.248 NA
ATOM     42  C   UNL A   1      42.926  27.569  31.924  1.00  0.00     0.031 C 
ATOM     43  C   UNL A   1      38.928  29.525  29.577  1.00  0.00     0.029 A 
ATOM     44  N   UNL A   1      39.530  30.449  31.522  1.00  0.00    -0.354 N 
ATOM     45  C   UNL A   1      42.852  28.872  33.804  1.00  0.00     0.074 A 
ATOM     46  C   UNL A   1      43.512  27.800  33.091  1.00  0.00     0.031 C 
ATOM     47  C   UNL A   1      38.134  30.586  29.778  1.00  0.00     0.029 A 
ATOM     48  C   UNL A   1      38.485  31.205  31.054  1.00  0.00     0.049 A 
ATOM     49  H   UNL A   1      39.985  30.627  32.377  1.00  0.00     0.167 HD
ATOM     50  C   UNL A   1      43.249  29.353  35.006  1.00  0.00     0.037 A 
ATOM     51  C   UNL A   1      37.869  32.272  31.594  1.00  0.00     0.037 A 
ATOM     52  C   UNL A   1      42.602  30.437  35.699  1.00  0.00     0.049 A 
ATOM     53  C   UNL A   1      38.330  32.786  32.926  1.00  0.00     0.074 A 
ATOM     54  C   UNL A   1      42.907  30.976  36.937  1.00  0.00     0.029 A 
ATOM     55  N   UNL A   1      41.529  31.162  35.203  1.00  0.00    -0.354 N 
ATOM     56  N   UNL A   1      39.304  32.344  33.684  1.00  0.00    -0.248 NA
ATOM     57  C   UNL A   1      37.602  33.935  33.480  1.00  0.00     0.031 C 
ATOM     58  C   UNL A   1      42.011  32.019  37.195  1.00  0.00     0.029 A 
ATOM     59  C   UNL A   1      41.164  32.147  36.106  1.00  0.00     0.049 A 
ATOM     60  H   UNL A   1      41.091  31.000  34.336  1.00  0.00     0.167 HD
ATOM     61  C   UNL A   1      39.306  33.160  34.808  1.00  0.00     0.074 A 
ATOM     62  C   UNL A   1      38.251  34.136  34.619  1.00  0.00     0.031 C 
ATOM     63  C   UNL A   1      40.107  33.102  35.901  1.00  0.00     0.037 A 
BRANCH  50  64
ATOM     64  C   UNL A   1      44.432  28.700  35.663  1.00  0.00     0.058 A 
ATOM     65  C   UNL A   1      44.280  27.608  36.531  1.00  0.00     0.135 A 
ATOM     66  C   UNL A   1      45.736  29.139  35.382  1.00  0.00     0.135 A 
ATOM     67  F   UNL A   1      43.054  27.164  36.849  1.00  0.00    -0.206 F 
ATOM     68  C   UNL A   1      45.381  26.980  37.106  1.00  0.00     0.059 A 
ATOM     69  C   UNL A   1      46.851  28.515  35.933  1.00  0.00     0.059 A 
ATOM     70  F   UNL A   1      45.935  30.183  34.562  1.00  0.00    -0.206 F 
ATOM     71  C   UNL A   1      46.662  27.441  36.802  1.00  0.00     0.060 A 
BRANCH  71  72
ATOM     72  S   UNL A   1      48.083  26.608  37.544  1.00  0.00     0.124 S 
ATOM     73  O   UNL A   1      47.437  25.793  38.569  1.00  0.00    -0.237 OA
ATOM     74  O   UNL A   1      48.645  25.876  36.415  1.00  0.00    -0.237 OA
ATOM     75  O   UNL A   1      48.900  27.710  38.042  1.00  0.00    -0.744 OA
ENDBRANCH  71  72
ENDBRANCH  50  64
BRANCH  51  76
ATOM     76  C   UNL A   1      36.754  32.917  30.860  1.00  0.00     0.058 A 
ATOM     77  C   UNL A   1      35.422  32.684  31.230  1.00  0.00     0.135 A 
ATOM     78  C   UNL A   1      37.001  33.828  29.823  1.00  0.00     0.135 A 
ATOM     79  F   UNL A   1      35.141  31.816  32.214  1.00  0.00    -0.206 F 
ATOM     80  C   UNL A   1      34.370  33.338  30.599  1.00  0.00     0.059 A 
ATOM     81  C   UNL A   1      35.967  34.509  29.191  1.00  0.00     0.059 A 
ATOM     82  F   UNL A   1      38.262  34.095  29.448  1.00  0.00    -0.206 F 
ATOM     83  C   UNL A   1      34.654  34.256  29.585  1.00  0.00     0.060 A 
BRANCH  83  84
ATOM     84  S   UNL A   1      33.293  35.176  28.835  1.00  0.00     0.124 S 
ATOM     85  O   UNL A   1      32.520  35.562  30.009  1.00  0.00    -0.237 OA
ATOM     86  O   UNL A   1      33.990  36.258  28.145  1.00  0.00    -0.237 OA
ATOM     87  O   UNL A   1      32.669  34.189  27.960  1.00  0.00    -0.744 OA
ENDBRANCH  83  84
ENDBRANCH  51  76
BRANCH  63  88
ATOM     88  C   UNL A   1      39.870  34.128  36.967  1.00  0.00     0.058 A 
ATOM     89  C   UNL A   1      39.083  33.841  38.093  1.00  0.00     0.135 A 
ATOM     90  C   UNL A   1      40.450  35.402  36.873  1.00  0.00     0.135 A 
ATOM     91  F   UNL A   1      38.503  32.637  38.222  1.00  0.00    -0.206 F 
ATOM     92  C   UNL A   1      38.858  34.793  39.080  1.00  0.00     0.059 A 
ATOM     93  C   UNL A   1      40.251  36.365  37.857  1.00  0.00     0.059 A 
ATOM     94  F   UNL A   1      41.217  35.719  35.818  1.00  0.00    -0.206 F 
ATOM     95  C   UNL A   1      39.441  36.054  38.950  1.00  0.00     0.060 A 
BRANCH  95  96
ATOM     96  S   UNL A   1      39.151  37.285  40.240  1.00  0.00     0.124 S 
ATOM     97  O   UNL A   1      40.509  37.745  40.513  1.00  0.00    -0.237 OA
ATOM     98  O   UNL A   1      38.279  38.245  39.571  1.00  0.00    -0.237 OA
ATOM     99  O   UNL A   1      38.521  36.513  41.306  1.00  0.00    -0.744 OA
ENDBRANCH  95  96
ENDBRANCH  63  88
ENDBRANCH  37  38
ENDBRANCH  29  32
ENDBRANCH  27  28
ENDBRANCH   1  27
TORSDOF 17
ENDMDL
MODEL 2
REMARK VINA RESULT:     -12.5      6.414     11.800
REMARK SMILES CC(C)Cc1cc2c(cc1Cl)C=C(C(=O)NCCCCNC(=O)c1ccc(-c3c4nc(c(-c5c(F)cc(S(=O)(=O)[O-])cc5F)c5ccc([nH]5)c(-c5c(F)cc(S(=O)(=O)[O-])cc5F)c5nc(c(-c6c(F)cc(S(=O)(=O)[O-])cc6F)c6ccc3[nH]6)C=C5)C=C4)cc1)[C@@H](C(F)(F)F)O2
REMARK SMILES IDX 19 1 18 2 17 3 16 4 14 5 15 6 13 8 5 9 6 10 10 11 7 12 9 13
REMARK SMILES IDX 11 14 8 15 95 16 12 17 90 18 4 19 2 20 1 21 3 22 91 23 92 24
REMARK SMILES IDX 93 25 94 26 20 27 21 28 22 29 23 31 24 32 25 33 89 34 26 35
REMARK SMILES IDX 88 36 27 37 28 38 29 39 82 40 30 41 87 42 81 43 83 44 31 45
REMARK SMILES IDX 86 46 80 47 79 48 32 50 66 51 45 52 65 53 46 54 49 55 64 56
REMARK SMILES IDX 84 57 47 58 48 59 63 61 85 62 50 63 33 64 34 65 43 66 35 67
REMARK SMILES IDX 36 68 42 69 44 70 37 71 38 72 39 73 40 74 41 75 67 76 68 77
REMARK SMILES IDX 77 78 69 79 70 80 76 81 78 82 71 83 72 84 73 85 74 86 75 87
REMARK SMILES IDX 51 88 52 89 61 90 53 91 54 92 60 93 62 94 55 95 56 96 57 97
REMARK SMILES IDX 58 98 59 99
REMARK H PARENT 16 7 21 30 83 49 49 60
REMARK Flexibility Score: inf
ROOT
ATOM      1  C   UNL A   1      35.048  31.907  27.953  1.00  0.00     0.023 C 
ENDROOT
BRANCH   1   2
ATOM      2  C   UNL A   1      34.639  30.455  27.695  1.00  0.00     0.023 C 
BRANCH   2   3
ATOM      3  C   UNL A   1      33.237  30.290  27.117  1.00  0.00     0.116 C 
BRANCH   3   4
ATOM      4  N   UNL A   1      33.257  30.036  25.689  1.00  0.00    -0.352 N 
ATOM      5  C   UNL A   1      33.176  28.948  24.888  1.00  0.00     0.251 C 
ATOM      6  O   UNL A   1      33.256  29.168  23.676  1.00  0.00    -0.270 OA
ATOM      7  H   UNL A   1      33.352  30.866  25.170  1.00  0.00     0.163 HD
BRANCH   5   8
ATOM      8  C   UNL A   1      32.988  27.545  25.365  1.00  0.00     0.067 C 
ATOM      9  C   UNL A   1      33.743  22.623  26.261  1.00  0.00    -0.025 A 
ATOM     10  C   UNL A   1      32.673  23.512  26.459  1.00  0.00     0.052 A 
ATOM     11  C   UNL A   1      34.954  23.140  25.774  1.00  0.00     0.045 A 
ATOM     12  C   UNL A   1      32.800  24.866  26.152  1.00  0.00     0.128 A 
ATOM     13  C   UNL A   1      35.076  24.502  25.467  1.00  0.00     0.032 A 
ATOM     14  Cl  UNL A   1      36.346  22.146  25.525  1.00  0.00    -0.084 Cl
ATOM     15  C   UNL A   1      33.994  25.367  25.646  1.00  0.00     0.019 A 
ATOM     16  O   UNL A   1      31.713  25.647  26.407  1.00  0.00    -0.475 OA
ATOM     17  C   UNL A   1      34.094  26.779  25.313  1.00  0.00     0.025 C 
ATOM     18  C   UNL A   1      31.665  26.962  25.783  1.00  0.00     0.314 C 
BRANCH   9  19
ATOM     19  C   UNL A   1      33.512  21.155  26.551  1.00  0.00     0.040 C 
BRANCH  19  20
ATOM     20  C   UNL A   1      33.041  20.356  25.317  1.00  0.00    -0.013 C 
ATOM     21  C   UNL A   1      32.464  21.257  24.223  1.00  0.00     0.008 C 
ATOM     22  C   UNL A   1      34.205  19.542  24.748  1.00  0.00     0.008 C 
ENDBRANCH  19  20
ENDBRANCH   9  19
BRANCH  18  23
ATOM     23  C   UNL A   1      30.634  26.908  24.642  1.00  0.00     0.429 C 
ATOM     24  F   UNL A   1      31.191  26.358  23.532  1.00  0.00    -0.167 F 
ATOM     25  F   UNL A   1      29.554  26.152  24.939  1.00  0.00    -0.167 F 
ATOM     26  F   UNL A   1      30.182  28.136  24.298  1.00  0.00    -0.167 F 
ENDBRANCH  18  23
ENDBRANCH   5   8
ENDBRANCH   3   4
ENDBRANCH   2   3
ENDBRANCH   1   2
BRANCH   1  27
ATOM     27  C   UNL A   1      35.864  32.147  29.221  1.00  0.00     0.116 C 
BRANCH  27  28
ATOM     28  N   UNL A   1      35.646  31.158  30.270  1.00  0.00    -0.352 N 
ATOM     29  C   UNL A   1      36.553  30.241  30.752  1.00  0.00     0.251 C 
ATOM     30  H   UNL A   1      34.751  31.146  30.680  1.00  0.00     0.163 HD
ATOM     31  O   UNL A   1      36.237  29.429  31.613  1.00  0.00    -0.269 OA
BRANCH  29  32
ATOM     32  C   UNL A   1      37.900  30.230  30.153  1.00  0.00     0.039 A 
ATOM     33  C   UNL A   1      38.071  29.766  28.847  1.00  0.00     0.014 A 
ATOM     34  C   UNL A   1      38.997  30.532  30.961  1.00  0.00     0.014 A 
ATOM     35  C   UNL A   1      39.349  29.455  28.401  1.00  0.00     0.010 A 
ATOM     36  C   UNL A   1      40.284  30.273  30.488  1.00  0.00     0.010 A 
ATOM     37  C   UNL A   1      40.464  29.680  29.227  1.00  0.00    -0.014 A 
BRANCH  37  38
ATOM     38  C   UNL A   1      41.807  29.248  28.774  1.00  0.00     0.031 A 
ATOM     39  C   UNL A   1      42.978  30.192  28.850  1.00  0.00     0.074 A 
ATOM     40  C   UNL A   1      41.982  27.982  28.354  1.00  0.00     0.049 A 
ATOM     41  N   UNL A   1      44.216  29.999  28.473  1.00  0.00    -0.248 NA
ATOM     42  C   UNL A   1      42.728  31.526  29.420  1.00  0.00     0.031 C 
ATOM     43  C   UNL A   1      40.926  26.970  28.269  1.00  0.00     0.029 A 
ATOM     44  N   UNL A   1      43.111  27.322  27.947  1.00  0.00    -0.354 N 
ATOM     45  C   UNL A   1      44.886  31.189  28.734  1.00  0.00     0.074 A 
ATOM     46  C   UNL A   1      43.915  32.104  29.297  1.00  0.00     0.031 C 
ATOM     47  C   UNL A   1      41.466  25.806  27.884  1.00  0.00     0.029 A 
ATOM     48  C   UNL A   1      42.893  26.001  27.643  1.00  0.00     0.049 A 
ATOM     49  H   UNL A   1      43.994  27.753  27.879  1.00  0.00     0.167 HD
ATOM     50  C   UNL A   1      46.191  31.487  28.527  1.00  0.00     0.037 A 
ATOM     51  C   UNL A   1      43.744  25.054  27.209  1.00  0.00     0.037 A 
ATOM     52  C   UNL A   1      47.157  30.565  27.989  1.00  0.00     0.049 A 
ATOM     53  C   UNL A   1      45.185  25.410  26.989  1.00  0.00     0.074 A 
ATOM     54  C   UNL A   1      48.495  30.780  27.709  1.00  0.00     0.029 A 
ATOM     55  N   UNL A   1      46.891  29.241  27.670  1.00  0.00    -0.354 N 
ATOM     56  N   UNL A   1      45.784  26.561  27.177  1.00  0.00    -0.248 NA
ATOM     57  C   UNL A   1      46.061  24.343  26.487  1.00  0.00     0.031 C 
ATOM     58  C   UNL A   1      49.037  29.591  27.208  1.00  0.00     0.029 A 
ATOM     59  C   UNL A   1      48.042  28.627  27.201  1.00  0.00     0.049 A 
ATOM     60  H   UNL A   1      46.015  28.803  27.762  1.00  0.00     0.167 HD
ATOM     61  C   UNL A   1      47.110  26.358  26.815  1.00  0.00     0.074 A 
ATOM     62  C   UNL A   1      47.228  24.969  26.418  1.00  0.00     0.031 C 
ATOM     63  C   UNL A   1      48.135  27.246  26.806  1.00  0.00     0.037 A 
BRANCH  50  64
ATOM     64  C   UNL A   1      46.652  32.877  28.864  1.00  0.00     0.058 A 
ATOM     65  C   UNL A   1      46.582  33.921  27.930  1.00  0.00     0.135 A 
ATOM     66  C   UNL A   1      47.122  33.178  30.152  1.00  0.00     0.135 A 
ATOM     67  F   UNL A   1      46.160  33.681  26.679  1.00  0.00    -0.206 F 
ATOM     68  C   UNL A   1      46.972  35.216  28.259  1.00  0.00     0.059 A 
ATOM     69  C   UNL A   1      47.502  34.469  30.508  1.00  0.00     0.059 A 
ATOM     70  F   UNL A   1      47.213  32.213  31.081  1.00  0.00    -0.206 F 
ATOM     71  C   UNL A   1      47.431  35.480  29.550  1.00  0.00     0.060 A 
BRANCH  71  72
ATOM     72  S   UNL A   1      47.922  37.168  29.968  1.00  0.00     0.124 S 
ATOM     73  O   UNL A   1      48.062  37.078  31.418  1.00  0.00    -0.237 OA
ATOM     74  O   UNL A   1      49.164  37.329  29.220  1.00  0.00    -0.237 OA
ATOM     75  O   UNL A   1      46.800  37.973  29.495  1.00  0.00    -0.744 OA
ENDBRANCH  71  72
ENDBRANCH  50  64
BRANCH  51  76
ATOM     76  C   UNL A   1      43.241  23.681  26.964  1.00  0.00     0.058 A 
ATOM     77  C   UNL A   1      43.011  23.224  25.659  1.00  0.00     0.135 A 
ATOM     78  C   UNL A   1      43.046  22.781  28.022  1.00  0.00     0.135 A 
ATOM     79  F   UNL A   1      43.181  24.053  24.618  1.00  0.00    -0.206 F 
ATOM     80  C   UNL A   1      42.609  21.917  25.409  1.00  0.00     0.059 A 
ATOM     81  C   UNL A   1      42.664  21.464  27.796  1.00  0.00     0.059 A 
ATOM     82  F   UNL A   1      43.271  23.172  29.286  1.00  0.00    -0.206 F 
ATOM     83  C   UNL A   1      42.446  21.041  26.485  1.00  0.00     0.060 A 
BRANCH  83  84
ATOM     84  S   UNL A   1      42.020  19.318  26.152  1.00  0.00     0.124 S 
ATOM     85  O   UNL A   1      42.892  19.015  25.024  1.00  0.00    -0.237 OA
ATOM     86  O   UNL A   1      42.356  18.664  27.413  1.00  0.00    -0.237 OA
ATOM     87  O   UNL A   1      40.593  19.382  25.852  1.00  0.00    -0.744 OA
ENDBRANCH  83  84
ENDBRANCH  51  76
BRANCH  63  88
ATOM     88  C   UNL A   1      49.469  26.731  26.359  1.00  0.00     0.058 A 
ATOM     89  C   UNL A   1      49.942  26.965  25.059  1.00  0.00     0.135 A 
ATOM     90  C   UNL A   1      50.292  26.017  27.243  1.00  0.00     0.135 A 
ATOM     91  F   UNL A   1      49.187  27.639  24.177  1.00  0.00    -0.206 F 
ATOM     92  C   UNL A   1      51.177  26.485  24.640  1.00  0.00     0.059 A 
ATOM     93  C   UNL A   1      51.538  25.540  26.851  1.00  0.00     0.059 A 
ATOM     94  F   UNL A   1      49.884  25.776  28.499  1.00  0.00    -0.206 F 
ATOM     95  C   UNL A   1      51.966  25.768  25.542  1.00  0.00     0.060 A 
BRANCH  95  96
ATOM     96  S   UNL A   1      53.573  25.152  24.996  1.00  0.00     0.124 S 
ATOM     97  O   UNL A   1      53.543  25.483  23.574  1.00  0.00    -0.237 OA
ATOM     98  O   UNL A   1      54.503  25.930  25.808  1.00  0.00    -0.237 OA
ATOM     99  O   UNL A   1      53.515  23.729  25.313  1.00  0.00    -0.744 OA
ENDBRANCH  95  96
ENDBRANCH  63  88
ENDBRANCH  37  38
ENDBRANCH  29  32
ENDBRANCH  27  28
ENDBRANCH   1  27
TORSDOF 17
ENDMDL
MODEL 3
REMARK VINA RESULT:     -12.4      1.559      1.940
REMARK SMILES CC(C)Cc1cc2c(cc1Cl)C=C(C(=O)NCCCCNC(=O)c1ccc(-c3c4nc(c(-c5c(F)cc(S(=O)(=O)[O-])cc5F)c5ccc([nH]5)c(-c5c(F)cc(S(=O)(=O)[O-])cc5F)c5nc(c(-c6c(F)cc(S(=O)(=O)[O-])cc6F)c6ccc3[nH]6)C=C5)C=C4)cc1)[C@@H](C(F)(F)F)O2
REMARK SMILES IDX 19 1 18 2 17 3 16 4 14 5 15 6 13 8 5 9 6 10 10 11 7 12 9 13
REMARK SMILES IDX 11 14 8 15 95 16 12 17 90 18 4 19 2 20 1 21 3 22 91 23 92 24
REMARK SMILES IDX 93 25 94 26 20 27 21 28 22 29 23 31 24 32 25 33 89 34 26 35
REMARK SMILES IDX 88 36 27 37 28 38 29 39 82 40 30 41 87 42 81 43 83 44 31 45
REMARK SMILES IDX 86 46 80 47 79 48 32 50 66 51 45 52 65 53 46 54 49 55 64 56
REMARK SMILES IDX 84 57 47 58 48 59 63 61 85 62 50 63 33 64 34 65 43 66 35 67
REMARK SMILES IDX 36 68 42 69 44 70 37 71 38 72 39 73 40 74 41 75 67 76 68 77
REMARK SMILES IDX 77 78 69 79 70 80 76 81 78 82 71 83 72 84 73 85 74 86 75 87
REMARK SMILES IDX 51 88 52 89 61 90 53 91 54 92 60 93 62 94 55 95 56 96 57 97
REMARK SMILES IDX 58 98 59 99
REMARK H PARENT 16 7 21 30 83 49 49 60
REMARK Flexibility Score: inf
ROOT
ATOM      1  C   UNL A   1      37.393  23.109  25.470  1.00  0.00     0.023 C 
ENDROOT
BRANCH   1   2
ATOM      2  C   UNL A   1      37.237  21.601  25.676  1.00  0.00     0.023 C 
BRANCH   2   3
ATOM      3  C   UNL A   1      36.596  20.868  24.503  1.00  0.00     0.116 C 
BRANCH   3   4
ATOM      4  N   UNL A   1      35.503  20.010  24.921  1.00  0.00    -0.352 N 
ATOM      5  C   UNL A   1      34.169  20.145  25.102  1.00  0.00     0.251 C 
ATOM      6  O   UNL A   1      33.578  19.137  25.501  1.00  0.00    -0.270 OA
ATOM      7  H   UNL A   1      35.809  19.097  25.123  1.00  0.00     0.163 HD
BRANCH   5   8
ATOM      8  C   UNL A   1      33.391  21.394  24.844  1.00  0.00     0.067 C 
ATOM      9  C   UNL A   1      31.653  25.623  22.677  1.00  0.00    -0.025 A 
ATOM     10  C   UNL A   1      31.460  24.997  23.920  1.00  0.00     0.052 A 
ATOM     11  C   UNL A   1      32.436  24.963  21.716  1.00  0.00     0.045 A 
ATOM     12  C   UNL A   1      32.054  23.768  24.204  1.00  0.00     0.128 A 
ATOM     13  C   UNL A   1      33.030  23.728  22.006  1.00  0.00     0.032 A 
ATOM     14  Cl  UNL A   1      32.712  25.623  20.142  1.00  0.00    -0.084 Cl
ATOM     15  C   UNL A   1      32.848  23.131  23.256  1.00  0.00     0.019 A 
ATOM     16  O   UNL A   1      31.782  23.234  25.427  1.00  0.00    -0.475 OA
ATOM     17  C   UNL A   1      33.474  21.860  23.585  1.00  0.00     0.025 C 
ATOM     18  C   UNL A   1      32.643  22.159  25.902  1.00  0.00     0.314 C 
BRANCH   9  19
ATOM     19  C   UNL A   1      31.035  26.988  22.465  1.00  0.00     0.040 C 
BRANCH  19  20
ATOM     20  C   UNL A   1      30.296  27.525  23.708  1.00  0.00    -0.013 C 
ATOM     21  C   UNL A   1      31.004  28.728  24.334  1.00  0.00     0.008 C 
ATOM     22  C   UNL A   1      28.863  27.910  23.338  1.00  0.00     0.008 C 
ENDBRANCH  19  20
ENDBRANCH   9  19
BRANCH  18  23
ATOM     23  C   UNL A   1      33.555  22.735  27.001  1.00  0.00     0.429 C 
ATOM     24  F   UNL A   1      32.835  22.979  28.126  1.00  0.00    -0.167 F 
ATOM     25  F   UNL A   1      34.548  21.893  27.360  1.00  0.00    -0.167 F 
ATOM     26  F   UNL A   1      34.131  23.901  26.631  1.00  0.00    -0.167 F 
ENDBRANCH  18  23
ENDBRANCH   5   8
ENDBRANCH   3   4
ENDBRANCH   2   3
ENDBRANCH   1   2
BRANCH   1  27
ATOM     27  C   UNL A   1      38.282  23.826  26.483  1.00  0.00     0.116 C 
BRANCH  27  28
ATOM     28  N   UNL A   1      39.711  23.707  26.217  1.00  0.00    -0.352 N 
ATOM     29  C   UNL A   1      40.716  24.524  26.684  1.00  0.00     0.251 C 
ATOM     30  H   UNL A   1      39.987  22.959  25.639  1.00  0.00     0.163 HD
ATOM     31  O   UNL A   1      41.883  24.346  26.356  1.00  0.00    -0.269 OA
BRANCH  29  32
ATOM     32  C   UNL A   1      40.332  25.657  27.545  1.00  0.00     0.039 A 
ATOM     33  C   UNL A   1      40.991  26.881  27.410  1.00  0.00     0.014 A 
ATOM     34  C   UNL A   1      39.429  25.435  28.587  1.00  0.00     0.014 A 
ATOM     35  C   UNL A   1      40.863  27.833  28.413  1.00  0.00     0.010 A 
ATOM     36  C   UNL A   1      39.258  26.418  29.562  1.00  0.00     0.010 A 
ATOM     37  C   UNL A   1      40.017  27.599  29.511  1.00  0.00    -0.014 A 
BRANCH  37  38
ATOM     38  C   UNL A   1      39.971  28.581  30.621  1.00  0.00     0.031 A 
ATOM     39  C   UNL A   1      40.970  28.510  31.745  1.00  0.00     0.074 A 
ATOM     40  C   UNL A   1      39.066  29.575  30.579  1.00  0.00     0.049 A 
ATOM     41  N   UNL A   1      41.065  29.263  32.811  1.00  0.00    -0.248 NA
ATOM     42  C   UNL A   1      41.997  27.457  31.664  1.00  0.00     0.031 C 
ATOM     43  C   UNL A   1      38.069  29.761  29.522  1.00  0.00     0.029 A 
ATOM     44  N   UNL A   1      38.853  30.628  31.429  1.00  0.00    -0.354 N 
ATOM     45  C   UNL A   1      42.138  28.763  33.540  1.00  0.00     0.074 A 
ATOM     46  C   UNL A   1      42.662  27.636  32.797  1.00  0.00     0.031 C 
ATOM     47  C   UNL A   1      37.384  30.889  29.761  1.00  0.00     0.029 A 
ATOM     48  C   UNL A   1      37.855  31.474  31.013  1.00  0.00     0.049 A 
ATOM     49  H   UNL A   1      39.366  30.765  32.257  1.00  0.00     0.167 HD
ATOM     50  C   UNL A   1      42.640  29.207  34.716  1.00  0.00     0.037 A 
ATOM     51  C   UNL A   1      37.366  32.592  31.580  1.00  0.00     0.037 A 
ATOM     52  C   UNL A   1      42.130  30.344  35.437  1.00  0.00     0.049 A 
ATOM     53  C   UNL A   1      37.941  33.063  32.882  1.00  0.00     0.074 A 
ATOM     54  C   UNL A   1      42.547  30.854  36.655  1.00  0.00     0.029 A 
ATOM     55  N   UNL A   1      41.100  31.161  34.995  1.00  0.00    -0.354 N 
ATOM     56  N   UNL A   1      38.911  32.536  33.590  1.00  0.00    -0.248 NA
ATOM     57  C   UNL A   1      37.349  34.272  33.468  1.00  0.00     0.031 C 
ATOM     58  C   UNL A   1      41.761  31.973  36.955  1.00  0.00     0.029 A 
ATOM     59  C   UNL A   1      40.873  32.175  35.911  1.00  0.00     0.049 A 
ATOM     60  H   UNL A   1      40.604  31.039  34.153  1.00  0.00     0.167 HD
ATOM     61  C   UNL A   1      39.046  33.349  34.708  1.00  0.00     0.074 A 
ATOM     62  C   UNL A   1      38.073  34.415  34.571  1.00  0.00     0.031 C 
ATOM     63  C   UNL A   1      39.895  33.221  35.757  1.00  0.00     0.037 A 
BRANCH  50  64
ATOM     64  C   UNL A   1      43.794  28.451  35.313  1.00  0.00     0.058 A 
ATOM     65  C   UNL A   1      43.592  27.390  36.208  1.00  0.00     0.135 A 
ATOM     66  C   UNL A   1      45.113  28.759  34.946  1.00  0.00     0.135 A 
ATOM     67  F   UNL A   1      42.351  27.070  36.607  1.00  0.00    -0.206 F 
ATOM     68  C   UNL A   1      44.661  26.666  36.727  1.00  0.00     0.059 A 
ATOM     69  C   UNL A   1      46.196  28.038  35.440  1.00  0.00     0.059 A 
ATOM     70  F   UNL A   1      45.360  29.769  34.096  1.00  0.00    -0.206 F 
ATOM     71  C   UNL A   1      45.960  26.998  36.338  1.00  0.00     0.060 A 
BRANCH  71  72
ATOM     72  S   UNL A   1      47.338  26.041  37.010  1.00  0.00     0.124 S 
ATOM     73  O   UNL A   1      46.898  24.675  36.742  1.00  0.00    -0.237 OA
ATOM     74  O   UNL A   1      48.465  26.511  36.213  1.00  0.00    -0.237 OA
ATOM     75  O   UNL A   1      47.364  26.427  38.417  1.00  0.00    -0.744 OA
ENDBRANCH  71  72
ENDBRANCH  50  64
BRANCH  51  76
ATOM     76  C   UNL A   1      36.276  33.333  30.902  1.00  0.00     0.058 A 
ATOM     77  C   UNL A   1      34.972  33.320  31.417  1.00  0.00     0.135 A 
ATOM     78  C   UNL A   1      36.530  34.122  29.770  1.00  0.00     0.135 A 
ATOM     79  F   UNL A   1      34.684  32.575  32.495  1.00  0.00    -0.206 F 
ATOM     80  C   UNL A   1      33.955  34.068  30.835  1.00  0.00     0.059 A 
ATOM     81  C   UNL A   1      35.535  34.895  29.184  1.00  0.00     0.059 A 
ATOM     82  F   UNL A   1      37.768  34.178  29.255  1.00  0.00    -0.206 F 
ATOM     83  C   UNL A   1      34.249  34.860  29.722  1.00  0.00     0.060 A 
BRANCH  83  84
ATOM     84  S   UNL A   1      32.951  35.907  29.029  1.00  0.00     0.124 S 
ATOM     85  O   UNL A   1      33.732  36.974  28.416  1.00  0.00    -0.237 OA
ATOM     86  O   UNL A   1      32.276  34.998  28.107  1.00  0.00    -0.237 OA
ATOM     87  O   UNL A   1      32.171  36.286  30.203  1.00  0.00    -0.744 OA
ENDBRANCH  83  84
ENDBRANCH  51  76
BRANCH  63  88
ATOM     88  C   UNL A   1      39.807  34.264  36.829  1.00  0.00     0.058 A 
ATOM     89  C   UNL A   1      39.056  34.050  37.995  1.00  0.00     0.135 A 
ATOM     90  C   UNL A   1      40.496  35.479  36.701  1.00  0.00     0.135 A 
ATOM     91  F   UNL A   1      38.375  32.904  38.158  1.00  0.00    -0.206 F 
ATOM     92  C   UNL A   1      38.969  35.018  38.988  1.00  0.00     0.059 A 
ATOM     93  C   UNL A   1      40.436  36.456  37.689  1.00  0.00     0.059 A 
ATOM     94  F   UNL A   1      41.234  35.725  35.606  1.00  0.00    -0.206 F 
ATOM     95  C   UNL A   1      39.657  36.221  38.823  1.00  0.00     0.060 A 
BRANCH  95  96
ATOM     96  S   UNL A   1      39.547  37.473  40.120  1.00  0.00     0.124 S 
ATOM     97  O   UNL A   1      40.941  37.887  40.244  1.00  0.00    -0.237 OA
ATOM     98  O   UNL A   1      38.643  38.457  39.534  1.00  0.00    -0.237 OA
ATOM     99  O   UNL A   1      39.005  36.734  41.256  1.00  0.00    -0.744 OA
ENDBRANCH  95  96
ENDBRANCH  63  88
ENDBRANCH  37  38
ENDBRANCH  29  32
ENDBRANCH  27  28
ENDBRANCH   1  27
TORSDOF 17
ENDMDL
