MODEL 1
REMARK VINA RESULT:     -11.3      0.000      0.000
REMARK SMILES C[NH2+][C@]1(C(=O)NCCCCNC(=O)c2ccc(-c3c4nc(c(-c5c(F)cc(S(=O)(=O)[O-])cc5F)c5ccc([nH]5)c(-c5c(F)cc(S(=O)(=O)[O-])cc5F)c5nc(c(-c6c(F)cc(S(=O)(=O)[O-])cc6F)c6ccc3[nH]6)C=C5)C=C4)cc2)CCC[C@@H]1CCSc1cccc(Cl)c1
REMARK SMILES IDX 8 1 7 2 6 3 4 4 5 5 3 7 80 8 83 9 81 10 82 11 2 12 1 13
REMARK SMILES IDX 84 16 85 17 86 18 87 19 88 20 93 21 89 22 91 23 90 24 92 25
REMARK SMILES IDX 9 26 10 27 11 28 12 29 13 31 14 32 15 33 79 34 16 35 78 36
REMARK SMILES IDX 17 37 18 38 19 39 72 40 20 41 77 42 71 43 73 44 21 45 76 46
REMARK SMILES IDX 70 47 69 48 22 50 56 51 35 52 55 53 36 54 39 55 54 56 74 57
REMARK SMILES IDX 37 58 38 59 53 61 75 62 40 63 23 64 24 65 33 66 25 67 26 68
REMARK SMILES IDX 32 69 34 70 27 71 28 72 29 73 30 74 31 75 57 76 58 77 67 78
REMARK SMILES IDX 59 79 60 80 66 81 68 82 61 83 62 84 63 85 64 86 65 87 41 88
REMARK SMILES IDX 42 89 51 90 43 91 44 92 50 93 52 94 45 95 46 96 47 97 48 98
REMARK SMILES IDX 49 99
REMARK H PARENT 6 6 2 14 2 15 11 30 73 49 39 60
REMARK Flexibility Score: inf
ROOT
ATOM      1  C   UNL A   1      38.408  21.873  25.764  1.00  0.00     0.023 C 
ENDROOT
BRANCH   1   2
ATOM      2  C   UNL A   1      37.368  21.148  24.917  1.00  0.00     0.116 C 
BRANCH   2   3
ATOM      3  N   UNL A   1      36.819  21.972  23.859  1.00  0.00    -0.351 N 
ATOM      4  C   UNL A   1      35.617  22.592  23.719  1.00  0.00     0.281 C 
ATOM      5  O   UNL A   1      35.490  23.290  22.699  1.00  0.00    -0.268 OA
ATOM      6  H   UNL A   1      37.430  22.110  23.101  1.00  0.00     0.163 HD
BRANCH   4   7
ATOM      7  C   UNL A   1      34.399  22.450  24.707  1.00  0.00     0.178 C 
ATOM      8  C   UNL A   1      34.388  21.055  25.376  1.00  0.00     0.079 C 
ATOM      9  C   UNL A   1      34.450  23.380  25.954  1.00  0.00     0.061 C 
ATOM     10  C   UNL A   1      33.662  21.227  26.715  1.00  0.00     0.008 C 
ATOM     11  C   UNL A   1      33.422  22.729  26.887  1.00  0.00     0.011 C 
BRANCH   7  12
ATOM     12  N   UNL A   1      33.167  22.793  23.917  1.00  0.00    -0.336 N 
ATOM     13  C   UNL A   1      32.511  21.749  23.149  1.00  0.00     0.331 C 
ATOM     14  H   UNL A   1      32.480  23.156  24.577  1.00  0.00     0.346 HD
ATOM     15  H   UNL A   1      33.505  23.443  23.207  1.00  0.00     0.346 HD
ENDBRANCH   7  12
BRANCH   9  16
ATOM     16  C   UNL A   1      34.244  24.879  25.706  1.00  0.00     0.022 C 
BRANCH  16  17
ATOM     17  C   UNL A   1      32.841  25.417  26.042  1.00  0.00     0.075 C 
BRANCH  17  18
ATOM     18  S   UNL A   1      32.241  26.834  25.021  1.00  0.00    -0.126 SA
BRANCH  18  19
ATOM     19  C   UNL A   1      32.665  28.293  25.967  1.00  0.00     0.009 A 
ATOM     20  C   UNL A   1      33.834  28.405  26.721  1.00  0.00     0.015 A 
ATOM     21  C   UNL A   1      31.789  29.385  25.934  1.00  0.00     0.035 A 
ATOM     22  C   UNL A   1      34.201  29.621  27.305  1.00  0.00     0.003 A 
ATOM     23  C   UNL A   1      32.151  30.595  26.533  1.00  0.00     0.042 A 
ATOM     24  C   UNL A   1      33.368  30.725  27.191  1.00  0.00     0.020 A 
ATOM     25  Cl  UNL A   1      31.135  31.977  26.441  1.00  0.00    -0.084 Cl
ENDBRANCH  18  19
ENDBRANCH  17  18
ENDBRANCH  16  17
ENDBRANCH   9  16
ENDBRANCH   4   7
ENDBRANCH   2   3
ENDBRANCH   1   2
BRANCH   1  26
ATOM     26  C   UNL A   1      38.089  23.317  26.141  1.00  0.00     0.023 C 
BRANCH  26  27
ATOM     27  C   UNL A   1      39.218  24.130  26.767  1.00  0.00     0.116 C 
BRANCH  27  28
ATOM     28  N   UNL A   1      40.008  24.900  25.816  1.00  0.00    -0.352 N 
ATOM     29  C   UNL A   1      40.901  25.924  26.028  1.00  0.00     0.251 C 
ATOM     30  H   UNL A   1      39.883  24.647  24.873  1.00  0.00     0.163 HD
ATOM     31  O   UNL A   1      41.577  26.373  25.106  1.00  0.00    -0.269 OA
BRANCH  29  32
ATOM     32  C   UNL A   1      40.979  26.556  27.350  1.00  0.00     0.039 A 
ATOM     33  C   UNL A   1      41.706  27.747  27.462  1.00  0.00     0.014 A 
ATOM     34  C   UNL A   1      40.280  26.035  28.436  1.00  0.00     0.014 A 
ATOM     35  C   UNL A   1      41.648  28.474  28.646  1.00  0.00     0.010 A 
ATOM     36  C   UNL A   1      40.157  26.801  29.584  1.00  0.00     0.010 A 
ATOM     37  C   UNL A   1      40.829  28.030  29.692  1.00  0.00    -0.014 A 
BRANCH  37  38
ATOM     38  C   UNL A   1      40.654  28.828  30.925  1.00  0.00     0.031 A 
ATOM     39  C   UNL A   1      39.587  29.880  30.962  1.00  0.00     0.074 A 
ATOM     40  C   UNL A   1      41.521  28.670  31.944  1.00  0.00     0.049 A 
ATOM     41  N   UNL A   1      39.371  30.808  31.853  1.00  0.00    -0.248 NA
ATOM     42  C   UNL A   1      38.666  29.920  29.813  1.00  0.00     0.031 C 
ATOM     43  C   UNL A   1      42.623  27.702  31.978  1.00  0.00     0.029 A 
ATOM     44  N   UNL A   1      41.627  29.332  33.139  1.00  0.00    -0.354 N 
ATOM     45  C   UNL A   1      38.318  31.566  31.357  1.00  0.00     0.074 A 
ATOM     46  C   UNL A   1      37.968  31.016  30.065  1.00  0.00     0.031 C 
ATOM     47  C   UNL A   1      43.285  27.829  33.140  1.00  0.00     0.029 A 
ATOM     48  C   UNL A   1      42.682  28.908  33.913  1.00  0.00     0.049 A 
ATOM     49  H   UNL A   1      41.007  30.046  33.416  1.00  0.00     0.167 HD
ATOM     50  C   UNL A   1      37.692  32.615  31.938  1.00  0.00     0.037 A 
ATOM     51  C   UNL A   1      43.114  29.354  35.109  1.00  0.00     0.037 A 
ATOM     52  C   UNL A   1      38.032  33.110  33.246  1.00  0.00     0.049 A 
ATOM     53  C   UNL A   1      42.368  30.485  35.760  1.00  0.00     0.074 A 
ATOM     54  C   UNL A   1      37.434  34.125  33.968  1.00  0.00     0.029 A 
ATOM     55  N   UNL A   1      39.062  32.609  34.032  1.00  0.00    -0.354 N 
ATOM     56  N   UNL A   1      41.348  31.171  35.298  1.00  0.00    -0.248 NA
ATOM     57  C   UNL A   1      42.818  30.900  37.093  1.00  0.00     0.031 C 
ATOM     58  C   UNL A   1      38.117  34.255  35.182  1.00  0.00     0.029 A 
ATOM     59  C   UNL A   1      39.118  33.295  35.233  1.00  0.00     0.049 A 
ATOM     60  H   UNL A   1      39.664  31.873  33.775  1.00  0.00     0.167 HD
ATOM     61  C   UNL A   1      41.019  32.084  36.291  1.00  0.00     0.074 A 
ATOM     62  C   UNL A   1      41.943  31.853  37.386  1.00  0.00     0.031 C 
ATOM     63  C   UNL A   1      40.047  33.028  36.303  1.00  0.00     0.037 A 
BRANCH  50  64
ATOM     64  C   UNL A   1      36.587  33.279  31.165  1.00  0.00     0.058 A 
ATOM     65  C   UNL A   1      36.850  34.088  30.048  1.00  0.00     0.135 A 
ATOM     66  C   UNL A   1      35.246  33.110  31.546  1.00  0.00     0.135 A 
ATOM     67  F   UNL A   1      38.115  34.303  29.652  1.00  0.00    -0.206 F 
ATOM     68  C   UNL A   1      35.829  34.735  29.360  1.00  0.00     0.059 A 
ATOM     69  C   UNL A   1      34.205  33.724  30.854  1.00  0.00     0.059 A 
ATOM     70  F   UNL A   1      34.936  32.351  32.609  1.00  0.00    -0.206 F 
ATOM     71  C   UNL A   1      34.509  34.550  29.773  1.00  0.00     0.060 A 
BRANCH  71  72
ATOM     72  S   UNL A   1      33.196  35.398  28.872  1.00  0.00     0.124 S 
ATOM     73  O   UNL A   1      32.425  35.984  29.964  1.00  0.00    -0.237 OA
ATOM     74  O   UNL A   1      33.941  36.343  28.045  1.00  0.00    -0.237 OA
ATOM     75  O   UNL A   1      32.534  34.321  28.143  1.00  0.00    -0.744 OA
ENDBRANCH  71  72
ENDBRANCH  50  64
BRANCH  51  76
ATOM     76  C   UNL A   1      44.282  28.711  35.767  1.00  0.00     0.058 A 
ATOM     77  C   UNL A   1      45.584  29.176  35.534  1.00  0.00     0.135 A 
ATOM     78  C   UNL A   1      44.123  27.647  36.670  1.00  0.00     0.135 A 
ATOM     79  F   UNL A   1      45.790  30.189  34.678  1.00  0.00    -0.206 F 
ATOM     80  C   UNL A   1      46.689  28.607  36.161  1.00  0.00     0.059 A 
ATOM     81  C   UNL A   1      45.209  27.075  37.327  1.00  0.00     0.059 A 
ATOM     82  F   UNL A   1      42.897  27.177  36.945  1.00  0.00    -0.206 F 
ATOM     83  C   UNL A   1      46.490  27.557  37.059  1.00  0.00     0.060 A 
BRANCH  83  84
ATOM     84  S   UNL A   1      47.923  26.866  37.916  1.00  0.00     0.124 S 
ATOM     85  O   UNL A   1      47.357  26.542  39.221  1.00  0.00    -0.237 OA
ATOM     86  O   UNL A   1      48.268  25.728  37.070  1.00  0.00    -0.237 OA
ATOM     87  O   UNL A   1      48.886  27.963  37.900  1.00  0.00    -0.744 OA
ENDBRANCH  83  84
ENDBRANCH  51  76
BRANCH  63  88
ATOM     88  C   UNL A   1      39.916  33.857  37.547  1.00  0.00     0.058 A 
ATOM     89  C   UNL A   1      40.584  35.082  37.685  1.00  0.00     0.135 A 
ATOM     90  C   UNL A   1      39.065  33.444  38.584  1.00  0.00     0.135 A 
ATOM     91  F   UNL A   1      41.412  35.513  36.722  1.00  0.00    -0.206 F 
ATOM     92  C   UNL A   1      40.427  35.865  38.822  1.00  0.00     0.059 A 
ATOM     93  C   UNL A   1      38.875  34.223  39.719  1.00  0.00     0.059 A 
ATOM     94  F   UNL A   1      38.397  32.284  38.491  1.00  0.00    -0.206 F 
ATOM     95  C   UNL A   1      39.568  35.427  39.834  1.00  0.00     0.060 A 
BRANCH  95  96
ATOM     96  S   UNL A   1      39.342  36.470  41.290  1.00  0.00     0.124 S 
ATOM     97  O   UNL A   1      38.306  35.742  42.014  1.00  0.00    -0.237 OA
ATOM     98  O   UNL A   1      40.670  36.454  41.896  1.00  0.00    -0.237 OA
ATOM     99  O   UNL A   1      38.934  37.753  40.726  1.00  0.00    -0.744 OA
ENDBRANCH  95  96
ENDBRANCH  63  88
ENDBRANCH  37  38
ENDBRANCH  29  32
ENDBRANCH  27  28
ENDBRANCH  26  27
ENDBRANCH   1  26
TORSDOF 19
ENDMDL
MODEL 2
REMARK VINA RESULT:     -11.2      6.706     11.841
REMARK SMILES C[NH2+][C@]1(C(=O)NCCCCNC(=O)c2ccc(-c3c4nc(c(-c5c(F)cc(S(=O)(=O)[O-])cc5F)c5ccc([nH]5)c(-c5c(F)cc(S(=O)(=O)[O-])cc5F)c5nc(c(-c6c(F)cc(S(=O)(=O)[O-])cc6F)c6ccc3[nH]6)C=C5)C=C4)cc2)CCC[C@@H]1CCSc1cccc(Cl)c1
REMARK SMILES IDX 8 1 7 2 6 3 4 4 5 5 3 7 80 8 83 9 81 10 82 11 2 12 1 13
REMARK SMILES IDX 84 16 85 17 86 18 87 19 88 20 93 21 89 22 91 23 90 24 92 25
REMARK SMILES IDX 9 26 10 27 11 28 12 29 13 31 14 32 15 33 79 34 16 35 78 36
REMARK SMILES IDX 17 37 18 38 19 39 72 40 20 41 77 42 71 43 73 44 21 45 76 46
REMARK SMILES IDX 70 47 69 48 22 50 56 51 35 52 55 53 36 54 39 55 54 56 74 57
REMARK SMILES IDX 37 58 38 59 53 61 75 62 40 63 23 64 24 65 33 66 25 67 26 68
REMARK SMILES IDX 32 69 34 70 27 71 28 72 29 73 30 74 31 75 57 76 58 77 67 78
REMARK SMILES IDX 59 79 60 80 66 81 68 82 61 83 62 84 63 85 64 86 65 87 41 88
REMARK SMILES IDX 42 89 51 90 43 91 44 92 50 93 52 94 45 95 46 96 47 97 48 98
REMARK SMILES IDX 49 99
REMARK H PARENT 6 6 2 14 2 15 11 30 73 49 39 60
REMARK Flexibility Score: inf
ROOT
ATOM      1  C   UNL A   1      33.391  30.810  27.282  1.00  0.00     0.023 C 
ENDROOT
BRANCH   1   2
ATOM      2  C   UNL A   1      33.699  29.322  27.146  1.00  0.00     0.116 C 
BRANCH   2   3
ATOM      3  N   UNL A   1      32.527  28.482  27.298  1.00  0.00    -0.351 N 
ATOM      4  C   UNL A   1      31.843  27.706  26.416  1.00  0.00     0.281 C 
ATOM      5  O   UNL A   1      30.904  27.049  26.895  1.00  0.00    -0.268 OA
ATOM      6  H   UNL A   1      32.159  28.471  28.210  1.00  0.00     0.163 HD
BRANCH   4   7
ATOM      7  C   UNL A   1      32.123  27.626  24.868  1.00  0.00     0.178 C 
ATOM      8  C   UNL A   1      32.487  29.016  24.297  1.00  0.00     0.079 C 
ATOM      9  C   UNL A   1      33.379  26.798  24.467  1.00  0.00     0.061 C 
ATOM     10  C   UNL A   1      33.348  28.758  23.055  1.00  0.00     0.008 C 
ATOM     11  C   UNL A   1      33.619  27.252  23.023  1.00  0.00     0.011 C 
BRANCH   7  12
ATOM     12  N   UNL A   1      30.917  26.973  24.251  1.00  0.00    -0.336 N 
ATOM     13  C   UNL A   1      29.937  27.805  23.572  1.00  0.00     0.331 C 
ATOM     14  H   UNL A   1      31.259  26.297  23.569  1.00  0.00     0.346 HD
ATOM     15  H   UNL A   1      30.406  26.596  25.050  1.00  0.00     0.346 HD
ENDBRANCH   7  12
BRANCH   9  16
ATOM     16  C   UNL A   1      33.298  25.280  24.667  1.00  0.00     0.022 C 
BRANCH  16  17
ATOM     17  C   UNL A   1      34.198  24.444  23.739  1.00  0.00     0.075 C 
BRANCH  17  18
ATOM     18  S   UNL A   1      34.199  22.619  24.025  1.00  0.00    -0.126 SA
BRANCH  18  19
ATOM     19  C   UNL A   1      35.799  22.268  24.744  1.00  0.00     0.009 A 
ATOM     20  C   UNL A   1      36.432  21.029  24.639  1.00  0.00     0.015 A 
ATOM     21  C   UNL A   1      36.458  23.295  25.433  1.00  0.00     0.035 A 
ATOM     22  C   UNL A   1      37.749  20.854  25.072  1.00  0.00     0.003 A 
ATOM     23  C   UNL A   1      37.770  23.111  25.880  1.00  0.00     0.042 A 
ATOM     24  C   UNL A   1      38.428  21.904  25.674  1.00  0.00     0.020 A 
ATOM     25  Cl  UNL A   1      38.634  24.376  26.656  1.00  0.00    -0.084 Cl
ENDBRANCH  18  19
ENDBRANCH  17  18
ENDBRANCH  16  17
ENDBRANCH   9  16
ENDBRANCH   4   7
ENDBRANCH   2   3
ENDBRANCH   1   2
BRANCH   1  26
ATOM     26  C   UNL A   1      34.463  31.666  27.950  1.00  0.00     0.023 C 
BRANCH  26  27
ATOM     27  C   UNL A   1      35.699  30.937  28.468  1.00  0.00     0.116 C 
BRANCH  27  28
ATOM     28  N   UNL A   1      35.584  30.446  29.835  1.00  0.00    -0.352 N 
ATOM     29  C   UNL A   1      36.561  30.121  30.747  1.00  0.00     0.251 C 
ATOM     30  H   UNL A   1      34.661  30.330  30.156  1.00  0.00     0.163 HD
ATOM     31  O   UNL A   1      36.274  29.844  31.908  1.00  0.00    -0.269 OA
BRANCH  29  32
ATOM     32  C   UNL A   1      37.956  30.008  30.306  1.00  0.00     0.039 A 
ATOM     33  C   UNL A   1      38.937  29.822  31.286  1.00  0.00     0.014 A 
ATOM     34  C   UNL A   1      38.281  29.998  28.951  1.00  0.00     0.014 A 
ATOM     35  C   UNL A   1      40.239  29.523  30.901  1.00  0.00     0.010 A 
ATOM     36  C   UNL A   1      39.558  29.618  28.571  1.00  0.00     0.010 A 
ATOM     37  C   UNL A   1      40.542  29.366  29.542  1.00  0.00    -0.014 A 
BRANCH  37  38
ATOM     38  C   UNL A   1      41.886  28.942  29.096  1.00  0.00     0.031 A 
ATOM     39  C   UNL A   1      42.976  29.968  29.002  1.00  0.00     0.074 A 
ATOM     40  C   UNL A   1      42.076  27.674  28.681  1.00  0.00     0.049 A 
ATOM     41  N   UNL A   1      44.164  29.866  28.472  1.00  0.00    -0.248 NA
ATOM     42  C   UNL A   1      42.665  31.305  29.536  1.00  0.00     0.031 C 
ATOM     43  C   UNL A   1      41.060  26.617  28.691  1.00  0.00     0.029 A 
ATOM     44  N   UNL A   1      43.182  27.063  28.151  1.00  0.00    -0.354 N 
ATOM     45  C   UNL A   1      44.728  31.131  28.574  1.00  0.00     0.074 A 
ATOM     46  C   UNL A   1      43.735  31.994  29.175  1.00  0.00     0.031 C 
ATOM     47  C   UNL A   1      41.595  25.487  28.200  1.00  0.00     0.029 A 
ATOM     48  C   UNL A   1      42.974  25.747  27.806  1.00  0.00     0.049 A 
ATOM     49  H   UNL A   1      44.044  27.523  28.028  1.00  0.00     0.167 HD
ATOM     50  C   UNL A   1      45.969  31.527  28.211  1.00  0.00     0.037 A 
ATOM     51  C   UNL A   1      43.806  24.861  27.226  1.00  0.00     0.037 A 
ATOM     52  C   UNL A   1      46.952  30.634  27.658  1.00  0.00     0.049 A 
ATOM     53  C   UNL A   1      45.200  25.310  26.883  1.00  0.00     0.074 A 
ATOM     54  C   UNL A   1      48.262  30.901  27.307  1.00  0.00     0.029 A 
ATOM     55  N   UNL A   1      46.728  29.290  27.388  1.00  0.00    -0.354 N 
ATOM     56  N   UNL A   1      45.736  26.502  27.018  1.00  0.00    -0.248 NA
ATOM     57  C   UNL A   1      46.104  24.303  26.319  1.00  0.00     0.031 C 
ATOM     58  C   UNL A   1      48.825  29.723  26.802  1.00  0.00     0.029 A 
ATOM     59  C   UNL A   1      47.876  28.712  26.873  1.00  0.00     0.049 A 
ATOM     60  H   UNL A   1      45.879  28.816  27.540  1.00  0.00     0.167 HD
ATOM     61  C   UNL A   1      47.047  26.382  26.577  1.00  0.00     0.074 A 
ATOM     62  C   UNL A   1      47.226  24.997  26.182  1.00  0.00     0.031 C 
ATOM     63  C   UNL A   1      48.017  27.326  26.501  1.00  0.00     0.037 A 
BRANCH  50  64
ATOM     64  C   UNL A   1      46.321  32.976  28.407  1.00  0.00     0.058 A 
ATOM     65  C   UNL A   1      46.866  33.446  29.613  1.00  0.00     0.135 A 
ATOM     66  C   UNL A   1      46.110  33.909  27.380  1.00  0.00     0.135 A 
ATOM     67  F   UNL A   1      47.071  32.601  30.637  1.00  0.00    -0.206 F 
ATOM     68  C   UNL A   1      47.153  34.793  29.808  1.00  0.00     0.059 A 
ATOM     69  C   UNL A   1      46.416  35.257  27.541  1.00  0.00     0.059 A 
ATOM     70  F   UNL A   1      45.587  33.517  26.207  1.00  0.00    -0.206 F 
ATOM     71  C   UNL A   1      46.920  35.693  28.767  1.00  0.00     0.060 A 
BRANCH  71  72
ATOM     72  S   UNL A   1      47.294  37.438  29.034  1.00  0.00     0.124 S 
ATOM     73  O   UNL A   1      48.604  37.555  28.403  1.00  0.00    -0.237 OA
ATOM     74  O   UNL A   1      46.195  38.105  28.342  1.00  0.00    -0.237 OA
ATOM     75  O   UNL A   1      47.283  37.568  30.488  1.00  0.00    -0.744 OA
ENDBRANCH  71  72
ENDBRANCH  50  64
BRANCH  51  76
ATOM     76  C   UNL A   1      43.352  23.469  26.969  1.00  0.00     0.058 A 
ATOM     77  C   UNL A   1      43.174  23.002  25.658  1.00  0.00     0.135 A 
ATOM     78  C   UNL A   1      43.122  22.565  28.018  1.00  0.00     0.135 A 
ATOM     79  F   UNL A   1      43.378  23.828  24.619  1.00  0.00    -0.206 F 
ATOM     80  C   UNL A   1      42.777  21.695  25.394  1.00  0.00     0.059 A 
ATOM     81  C   UNL A   1      42.745  21.246  27.779  1.00  0.00     0.059 A 
ATOM     82  F   UNL A   1      43.298  22.954  29.290  1.00  0.00    -0.206 F 
ATOM     83  C   UNL A   1      42.567  20.823  26.462  1.00  0.00     0.060 A 
BRANCH  83  84
ATOM     84  S   UNL A   1      42.112  19.110  26.108  1.00  0.00     0.124 S 
ATOM     85  O   UNL A   1      42.542  18.434  27.327  1.00  0.00    -0.237 OA
ATOM     86  O   UNL A   1      40.669  19.210  25.909  1.00  0.00    -0.237 OA
ATOM     87  O   UNL A   1      42.883  18.799  24.907  1.00  0.00    -0.744 OA
ENDBRANCH  83  84
ENDBRANCH  51  76
BRANCH  63  88
ATOM     88  C   UNL A   1      49.362  26.884  26.003  1.00  0.00     0.058 A 
ATOM     89  C   UNL A   1      49.758  27.098  24.675  1.00  0.00     0.135 A 
ATOM     90  C   UNL A   1      50.282  26.293  26.883  1.00  0.00     0.135 A 
ATOM     91  F   UNL A   1      48.909  27.654  23.797  1.00  0.00    -0.206 F 
ATOM     92  C   UNL A   1      51.020  26.723  24.229  1.00  0.00     0.059 A 
ATOM     93  C   UNL A   1      51.557  25.932  26.464  1.00  0.00     0.059 A 
ATOM     94  F   UNL A   1      49.950  26.078  28.165  1.00  0.00    -0.206 F 
ATOM     95  C   UNL A   1      51.913  26.142  25.133  1.00  0.00     0.060 A 
BRANCH  95  96
ATOM     96  S   UNL A   1      53.562  25.694  24.552  1.00  0.00     0.124 S 
ATOM     97  O   UNL A   1      53.700  24.340  25.079  1.00  0.00    -0.237 OA
ATOM     98  O   UNL A   1      53.424  25.800  23.102  1.00  0.00    -0.237 OA
ATOM     99  O   UNL A   1      54.422  26.700  25.167  1.00  0.00    -0.744 OA
ENDBRANCH  95  96
ENDBRANCH  63  88
ENDBRANCH  37  38
ENDBRANCH  29  32
ENDBRANCH  27  28
ENDBRANCH  26  27
ENDBRANCH   1  26
TORSDOF 19
ENDMDL
MODEL 3
REMARK VINA RESULT:     -11.1      6.739     12.243
REMARK SMILES C[NH2+][C@]1(C(=O)NCCCCNC(=O)c2ccc(-c3c4nc(c(-c5c(F)cc(S(=O)(=O)[O-])cc5F)c5ccc([nH]5)c(-c5c(F)cc(S(=O)(=O)[O-])cc5F)c5nc(c(-c6c(F)cc(S(=O)(=O)[O-])cc6F)c6ccc3[nH]6)C=C5)C=C4)cc2)CCC[C@@H]1CCSc1cccc(Cl)c1
REMARK SMILES IDX 8 1 7 2 6 3 4 4 5 5 3 7 80 8 83 9 81 10 82 11 2 12 1 13
REMARK SMILES IDX 84 16 85 17 86 18 87 19 88 20 93 21 89 22 91 23 90 24 92 25
REMARK SMILES IDX 9 26 10 27 11 28 12 29 13 31 14 32 15 33 79 34 16 35 78 36
REMARK SMILES IDX 17 37 18 38 19 39 72 40 20 41 77 42 71 43 73 44 21 45 76 46
REMARK SMILES IDX 70 47 69 48 22 50 56 51 35 52 55 53 36 54 39 55 54 56 74 57
REMARK SMILES IDX 37 58 38 59 53 61 75 62 40 63 23 64 24 65 33 66 25 67 26 68
REMARK SMILES IDX 32 69 34 70 27 71 28 72 29 73 30 74 31 75 57 76 58 77 67 78
REMARK SMILES IDX 59 79 60 80 66 81 68 82 61 83 62 84 63 85 64 86 65 87 41 88
REMARK SMILES IDX 42 89 51 90 43 91 44 92 50 93 52 94 45 95 46 96 47 97 48 98
REMARK SMILES IDX 49 99
REMARK H PARENT 6 6 2 14 2 15 11 30 73 49 39 60
REMARK Flexibility Score: inf
ROOT
ATOM      1  C   UNL A   1      34.438  30.746  27.641  1.00  0.00     0.023 C 
ENDROOT
BRANCH   1   2
ATOM      2  C   UNL A   1      33.051  30.743  27.008  1.00  0.00     0.116 C 
BRANCH   2   3
ATOM      3  N   UNL A   1      32.215  29.655  27.472  1.00  0.00    -0.351 N 
ATOM      4  C   UNL A   1      31.869  28.467  26.908  1.00  0.00     0.281 C 
ATOM      5  O   UNL A   1      31.175  27.718  27.616  1.00  0.00    -0.268 OA
ATOM      6  H   UNL A   1      31.825  29.802  28.363  1.00  0.00     0.163 HD
BRANCH   4   7
ATOM      7  C   UNL A   1      32.237  28.014  25.445  1.00  0.00     0.178 C 
ATOM      8  C   UNL A   1      33.231  29.002  24.792  1.00  0.00     0.079 C 
ATOM      9  C   UNL A   1      33.033  26.680  25.349  1.00  0.00     0.061 C 
ATOM     10  C   UNL A   1      34.009  28.198  23.744  1.00  0.00     0.008 C 
ATOM     11  C   UNL A   1      33.591  26.737  23.922  1.00  0.00     0.011 C 
BRANCH   7  12
ATOM     12  N   UNL A   1      30.935  27.836  24.715  1.00  0.00    -0.336 N 
ATOM     13  C   UNL A   1      30.414  28.940  23.926  1.00  0.00     0.331 C 
ATOM     14  H   UNL A   1      31.053  27.046  24.081  1.00  0.00     0.346 HD
ATOM     15  H   UNL A   1      30.248  27.723  25.461  1.00  0.00     0.346 HD
ENDBRANCH   7  12
BRANCH   9  16
ATOM     16  C   UNL A   1      32.272  25.395  25.698  1.00  0.00     0.022 C 
BRANCH  16  17
ATOM     17  C   UNL A   1      33.151  24.187  26.069  1.00  0.00     0.075 C 
BRANCH  17  18
ATOM     18  S   UNL A   1      33.600  23.046  24.688  1.00  0.00    -0.126 SA
BRANCH  18  19
ATOM     19  C   UNL A   1      35.267  22.513  25.057  1.00  0.00     0.009 A 
ATOM     20  C   UNL A   1      35.747  21.236  24.764  1.00  0.00     0.015 A 
ATOM     21  C   UNL A   1      36.142  23.430  25.654  1.00  0.00     0.035 A 
ATOM     22  C   UNL A   1      37.100  20.921  24.917  1.00  0.00     0.003 A 
ATOM     23  C   UNL A   1      37.492  23.106  25.821  1.00  0.00     0.042 A 
ATOM     24  C   UNL A   1      37.979  21.866  25.426  1.00  0.00     0.020 A 
ATOM     25  Cl  UNL A   1      38.607  24.238  26.474  1.00  0.00    -0.084 Cl
ENDBRANCH  18  19
ENDBRANCH  17  18
ENDBRANCH  16  17
ENDBRANCH   9  16
ENDBRANCH   4   7
ENDBRANCH   2   3
ENDBRANCH   1   2
BRANCH   1  26
ATOM     26  C   UNL A   1      34.986  32.105  28.068  1.00  0.00     0.023 C 
BRANCH  26  27
ATOM     27  C   UNL A   1      35.887  32.125  29.300  1.00  0.00     0.116 C 
BRANCH  27  28
ATOM     28  N   UNL A   1      35.729  30.979  30.184  1.00  0.00    -0.352 N 
ATOM     29  C   UNL A   1      36.664  30.088  30.658  1.00  0.00     0.251 C 
ATOM     30  H   UNL A   1      34.809  30.816  30.491  1.00  0.00     0.163 HD
ATOM     31  O   UNL A   1      36.366  29.251  31.506  1.00  0.00    -0.269 OA
BRANCH  29  32
ATOM     32  C   UNL A   1      38.011  30.071  30.073  1.00  0.00     0.039 A 
ATOM     33  C   UNL A   1      39.102  30.077  30.950  1.00  0.00     0.014 A 
ATOM     34  C   UNL A   1      38.193  29.964  28.697  1.00  0.00     0.014 A 
ATOM     35  C   UNL A   1      40.382  29.871  30.447  1.00  0.00     0.010 A 
ATOM     36  C   UNL A   1      39.458  29.677  28.208  1.00  0.00     0.010 A 
ATOM     37  C   UNL A   1      40.558  29.616  29.081  1.00  0.00    -0.014 A 
BRANCH  37  38
ATOM     38  C   UNL A   1      41.887  29.286  28.524  1.00  0.00     0.031 A 
ATOM     39  C   UNL A   1      42.156  27.880  28.076  1.00  0.00     0.074 A 
ATOM     40  C   UNL A   1      42.858  30.219  28.529  1.00  0.00     0.049 A 
ATOM     41  N   UNL A   1      43.285  27.324  27.729  1.00  0.00    -0.248 NA
ATOM     42  C   UNL A   1      41.003  26.964  28.064  1.00  0.00     0.031 C 
ATOM     43  C   UNL A   1      42.702  31.603  28.991  1.00  0.00     0.029 A 
ATOM     44  N   UNL A   1      44.174  30.144  28.156  1.00  0.00    -0.354 N 
ATOM     45  C   UNL A   1      42.987  25.988  27.495  1.00  0.00     0.074 A 
ATOM     46  C   UNL A   1      41.581  25.807  27.782  1.00  0.00     0.031 C 
ATOM     47  C   UNL A   1      43.874  32.245  28.863  1.00  0.00     0.029 A 
ATOM     48  C   UNL A   1      44.871  31.314  28.349  1.00  0.00     0.049 A 
ATOM     49  H   UNL A   1      44.582  29.328  27.785  1.00  0.00     0.167 HD
ATOM     50  C   UNL A   1      43.813  25.008  27.063  1.00  0.00     0.037 A 
ATOM     51  C   UNL A   1      46.173  31.592  28.141  1.00  0.00     0.037 A 
ATOM     52  C   UNL A   1      45.198  25.229  26.740  1.00  0.00     0.049 A 
ATOM     53  C   UNL A   1      47.059  30.501  27.607  1.00  0.00     0.074 A 
ATOM     54  C   UNL A   1      46.121  24.332  26.237  1.00  0.00     0.029 A 
ATOM     55  N   UNL A   1      45.852  26.446  26.880  1.00  0.00    -0.354 N 
ATOM     56  N   UNL A   1      46.757  29.248  27.353  1.00  0.00    -0.248 NA
ATOM     57  C   UNL A   1      48.454  30.855  27.324  1.00  0.00     0.031 C 
ATOM     58  C   UNL A   1      47.342  25.001  26.095  1.00  0.00     0.029 A 
ATOM     59  C   UNL A   1      47.170  26.324  26.474  1.00  0.00     0.049 A 
ATOM     60  H   UNL A   1      45.441  27.274  27.219  1.00  0.00     0.167 HD
ATOM     61  C   UNL A   1      47.919  28.669  26.859  1.00  0.00     0.074 A 
ATOM     62  C   UNL A   1      48.925  29.714  26.839  1.00  0.00     0.031 C 
ATOM     63  C   UNL A   1      48.139  27.392  26.460  1.00  0.00     0.037 A 
BRANCH  50  64
ATOM     64  C   UNL A   1      43.235  23.627  26.916  1.00  0.00     0.058 A 
ATOM     65  C   UNL A   1      43.065  22.777  28.020  1.00  0.00     0.135 A 
ATOM     66  C   UNL A   1      42.850  23.145  25.656  1.00  0.00     0.135 A 
ATOM     67  F   UNL A   1      43.435  23.179  29.247  1.00  0.00    -0.206 F 
ATOM     68  C   UNL A   1      42.568  21.485  27.876  1.00  0.00     0.059 A 
ATOM     69  C   UNL A   1      42.323  21.866  25.491  1.00  0.00     0.059 A 
ATOM     70  F   UNL A   1      42.995  23.913  24.564  1.00  0.00    -0.206 F 
ATOM     71  C   UNL A   1      42.204  21.037  26.606  1.00  0.00     0.060 A 
BRANCH  71  72
ATOM     72  S   UNL A   1      41.565  19.358  26.434  1.00  0.00     0.124 S 
ATOM     73  O   UNL A   1      42.600  18.735  25.615  1.00  0.00    -0.237 OA
ATOM     74  O   UNL A   1      41.495  18.904  27.820  1.00  0.00    -0.237 OA
ATOM     75  O   UNL A   1      40.275  19.552  25.777  1.00  0.00    -0.744 OA
ENDBRANCH  71  72
ENDBRANCH  50  64
BRANCH  51  76
ATOM     76  C   UNL A   1      46.695  32.958  28.407  1.00  0.00     0.058 A 
ATOM     77  C   UNL A   1      46.990  33.372  29.715  1.00  0.00     0.135 A 
ATOM     78  C   UNL A   1      46.948  33.865  27.365  1.00  0.00     0.135 A 
ATOM     79  F   UNL A   1      46.764  32.544  30.746  1.00  0.00    -0.206 F 
ATOM     80  C   UNL A   1      47.506  34.637  29.983  1.00  0.00     0.059 A 
ATOM     81  C   UNL A   1      47.484  35.128  27.606  1.00  0.00     0.059 A 
ATOM     82  F   UNL A   1      46.704  33.512  26.094  1.00  0.00    -0.206 F 
ATOM     83  C   UNL A   1      47.752  35.507  28.921  1.00  0.00     0.060 A 
BRANCH  83  84
ATOM     84  S   UNL A   1      48.481  37.123  29.274  1.00  0.00     0.124 S 
ATOM     85  O   UNL A   1      47.660  37.578  30.390  1.00  0.00    -0.237 OA
ATOM     86  O   UNL A   1      49.861  36.773  29.599  1.00  0.00    -0.237 OA
ATOM     87  O   UNL A   1      48.306  37.851  28.021  1.00  0.00    -0.744 OA
ENDBRANCH  83  84
ENDBRANCH  51  76
BRANCH  63  88
ATOM     88  C   UNL A   1      49.508  27.067  25.939  1.00  0.00     0.058 A 
ATOM     89  C   UNL A   1      50.521  26.594  26.786  1.00  0.00     0.135 A 
ATOM     90  C   UNL A   1      49.787  27.176  24.568  1.00  0.00     0.135 A 
ATOM     91  F   UNL A   1      50.302  26.480  28.104  1.00  0.00    -0.206 F 
ATOM     92  C   UNL A   1      51.775  26.256  26.292  1.00  0.00     0.059 A 
ATOM     93  C   UNL A   1      51.027  26.821  24.049  1.00  0.00     0.059 A 
ATOM     94  F   UNL A   1      48.845  27.615  23.718  1.00  0.00    -0.206 F 
ATOM     95  C   UNL A   1      52.018  26.372  24.921  1.00  0.00     0.060 A 
BRANCH  95  96
ATOM     96  S   UNL A   1      53.638  25.893  24.285  1.00  0.00     0.124 S 
ATOM     97  O   UNL A   1      53.433  26.008  22.845  1.00  0.00    -0.237 OA
ATOM     98  O   UNL A   1      54.517  26.894  24.882  1.00  0.00    -0.237 OA
ATOM     99  O   UNL A   1      53.812  24.535  24.790  1.00  0.00    -0.744 OA
ENDBRANCH  95  96
ENDBRANCH  63  88
ENDBRANCH  37  38
ENDBRANCH  29  32
ENDBRANCH  27  28
ENDBRANCH  26  27
ENDBRANCH   1  26
TORSDOF 19
ENDMDL
