MODEL 1
REMARK VINA RESULT:     -10.2      0.000      0.000
REMARK SMILES CCn1cc(/C=C/c2cc(C(=O)NCCCCNC(=O)c3ccc(-c4c5nc(c(-c6c(F)cc(S(=O)(=O)[O-])cc6F)c6ccc([nH]6)c(-c6c(F)cc(S(=O)(=O)[O-])cc6F)c6nc(c(-c7c(F)cc(S(=O)(=O)[O-])cc7F)c7ccc4[nH]7)C=C6)C=C5)cc3)ncn2)cn1
REMARK SMILES IDX 15 1 14 2 13 3 11 4 12 5 10 7 8 8 9 9 89 10 88 11 87 12 7 13
REMARK SMILES IDX 6 14 5 15 3 16 4 17 91 18 90 19 2 20 1 21 16 22 17 23 18 24
REMARK SMILES IDX 19 25 20 27 21 28 22 29 86 30 23 31 85 32 24 33 25 34 26 35
REMARK SMILES IDX 79 36 27 37 84 38 78 39 80 40 28 41 83 42 77 43 76 44 29 46
REMARK SMILES IDX 63 47 42 48 62 49 43 50 46 51 61 52 81 53 44 54 45 55 60 57
REMARK SMILES IDX 82 58 47 59 30 60 31 61 40 62 32 63 33 64 39 65 41 66 34 67
REMARK SMILES IDX 35 68 36 69 37 70 38 71 64 72 65 73 74 74 66 75 67 76 73 77
REMARK SMILES IDX 75 78 68 79 69 80 70 81 71 82 72 83 48 84 49 85 58 86 50 87
REMARK SMILES IDX 51 88 57 89 59 90 52 91 53 92 54 93 55 94 56 95
REMARK H PARENT 13 6 18 26 80 45 46 56
REMARK Flexibility Score: inf
ROOT
ATOM      1  C   UNL A   1      45.280  22.695  26.088  1.00  0.00     0.023 C 
ENDROOT
BRANCH   1   2
ATOM      2  C   UNL A   1      45.881  23.780  25.179  1.00  0.00     0.116 C 
BRANCH   2   3
ATOM      3  N   UNL A   1      44.929  24.850  24.931  1.00  0.00    -0.351 N 
ATOM      4  C   UNL A   1      44.652  26.046  25.564  1.00  0.00     0.270 C 
ATOM      5  O   UNL A   1      43.736  26.720  25.088  1.00  0.00    -0.268 OA
ATOM      6  H   UNL A   1      44.361  24.688  24.144  1.00  0.00     0.163 HD
BRANCH   4   7
ATOM      7  C   UNL A   1      45.412  26.567  26.754  1.00  0.00     0.132 A 
ATOM      8  C   UNL A   1      46.094  26.542  28.992  1.00  0.00     0.067 A 
ATOM      9  C   UNL A   1      45.204  26.114  28.030  1.00  0.00     0.062 A 
ATOM     10  N   UNL A   1      47.014  27.490  28.770  1.00  0.00    -0.237 NA
ATOM     11  C   UNL A   1      47.080  27.942  27.509  1.00  0.00     0.223 A 
ATOM     12  N   UNL A   1      46.337  27.515  26.482  1.00  0.00    -0.231 NA
BRANCH   8  13
ATOM     13  C   UNL A   1      46.062  25.944  30.330  1.00  0.00     0.029 C 
ATOM     14  C   UNL A   1      44.905  25.805  31.004  1.00  0.00     0.013 C 
BRANCH  14  15
ATOM     15  C   UNL A   1      44.757  25.334  32.336  1.00  0.00     0.013 A 
ATOM     16  N   UNL A   1      44.352  24.019  34.043  1.00  0.00    -0.272 N 
ATOM     17  C   UNL A   1      44.442  24.038  32.678  1.00  0.00     0.116 A 
ATOM     18  N   UNL A   1      44.579  25.223  34.608  1.00  0.00    -0.181 NA
ATOM     19  C   UNL A   1      44.830  26.019  33.563  1.00  0.00     0.143 A 
BRANCH  16  20
ATOM     20  C   UNL A   1      43.965  22.895  34.875  1.00  0.00     0.141 C 
ATOM     21  C   UNL A   1      44.955  21.744  34.828  1.00  0.00     0.029 C 
ENDBRANCH  16  20
ENDBRANCH  14  15
ENDBRANCH   8  13
ENDBRANCH   4   7
ENDBRANCH   2   3
ENDBRANCH   1   2
BRANCH   1  22
ATOM     22  C   UNL A   1      44.139  21.873  25.470  1.00  0.00     0.023 C 
BRANCH  22  23
ATOM     23  C   UNL A   1      42.904  22.679  25.085  1.00  0.00     0.116 C 
BRANCH  23  24
ATOM     24  N   UNL A   1      41.658  22.149  25.658  1.00  0.00    -0.352 N 
ATOM     25  C   UNL A   1      40.928  22.667  26.716  1.00  0.00     0.251 C 
ATOM     26  H   UNL A   1      41.302  21.331  25.243  1.00  0.00     0.163 HD
ATOM     27  O   UNL A   1      40.157  21.960  27.366  1.00  0.00    -0.269 OA
BRANCH  25  28
ATOM     28  C   UNL A   1      41.070  24.099  27.013  1.00  0.00     0.039 A 
ATOM     29  C   UNL A   1      40.379  25.105  26.332  1.00  0.00     0.014 A 
ATOM     30  C   UNL A   1      41.880  24.397  28.101  1.00  0.00     0.014 A 
ATOM     31  C   UNL A   1      40.456  26.409  26.823  1.00  0.00     0.010 A 
ATOM     32  C   UNL A   1      41.745  25.606  28.713  1.00  0.00     0.010 A 
ATOM     33  C   UNL A   1      41.132  26.644  28.030  1.00  0.00    -0.014 A 
BRANCH  33  34
ATOM     34  C   UNL A   1      41.170  27.949  28.679  1.00  0.00     0.031 A 
ATOM     35  C   UNL A   1      42.322  28.800  28.292  1.00  0.00     0.074 A 
ATOM     36  C   UNL A   1      40.113  28.420  29.382  1.00  0.00     0.049 A 
ATOM     37  N   UNL A   1      43.343  29.111  29.017  1.00  0.00    -0.248 NA
ATOM     38  C   UNL A   1      42.446  29.219  26.886  1.00  0.00     0.031 C 
ATOM     39  C   UNL A   1      38.801  27.788  29.608  1.00  0.00     0.029 A 
ATOM     40  N   UNL A   1      39.957  29.627  29.987  1.00  0.00    -0.354 N 
ATOM     41  C   UNL A   1      44.107  29.980  28.245  1.00  0.00     0.074 A 
ATOM     42  C   UNL A   1      43.631  29.835  26.894  1.00  0.00     0.031 C 
ATOM     43  C   UNL A   1      37.927  28.695  30.094  1.00  0.00     0.029 A 
ATOM     44  C   UNL A   1      38.657  29.910  30.397  1.00  0.00     0.049 A 
ATOM     45  H   UNL A   1      40.704  30.253  30.124  1.00  0.00     0.167 HD
ATOM     46  C   UNL A   1      44.884  30.936  28.827  1.00  0.00     0.037 A 
ATOM     47  C   UNL A   1      38.206  31.051  30.977  1.00  0.00     0.037 A 
ATOM     48  C   UNL A   1      45.039  30.681  30.239  1.00  0.00     0.049 A 
ATOM     49  C   UNL A   1      39.394  31.702  31.582  1.00  0.00     0.074 A 
ATOM     50  C   UNL A   1      45.593  29.664  30.992  1.00  0.00     0.029 A 
ATOM     51  N   UNL A   1      44.203  31.368  31.089  1.00  0.00    -0.354 N 
ATOM     52  N   UNL A   1      40.086  31.170  32.554  1.00  0.00    -0.248 NA
ATOM     53  C   UNL A   1      40.103  32.690  30.784  1.00  0.00     0.031 C 
ATOM     54  C   UNL A   1      44.721  29.513  32.111  1.00  0.00     0.029 A 
ATOM     55  C   UNL A   1      43.724  30.488  32.029  1.00  0.00     0.049 A 
ATOM     56  H   UNL A   1      43.986  32.327  31.034  1.00  0.00     0.167 HD
ATOM     57  C   UNL A   1      41.413  31.425  32.233  1.00  0.00     0.074 A 
ATOM     58  C   UNL A   1      41.354  32.444  31.185  1.00  0.00     0.031 C 
ATOM     59  C   UNL A   1      42.412  30.586  32.642  1.00  0.00     0.037 A 
BRANCH  46  60
ATOM     60  C   UNL A   1      45.174  32.290  28.223  1.00  0.00     0.058 A 
ATOM     61  C   UNL A   1      46.506  32.637  27.914  1.00  0.00     0.135 A 
ATOM     62  C   UNL A   1      44.246  33.356  28.193  1.00  0.00     0.135 A 
ATOM     63  F   UNL A   1      47.473  31.706  27.920  1.00  0.00    -0.206 F 
ATOM     64  C   UNL A   1      46.896  33.954  27.662  1.00  0.00     0.059 A 
ATOM     65  C   UNL A   1      44.604  34.665  27.892  1.00  0.00     0.059 A 
ATOM     66  F   UNL A   1      42.967  33.200  28.551  1.00  0.00    -0.206 F 
ATOM     67  C   UNL A   1      45.938  34.963  27.668  1.00  0.00     0.060 A 
BRANCH  67  68
ATOM     68  S   UNL A   1      46.451  36.675  27.446  1.00  0.00     0.124 S 
ATOM     69  O   UNL A   1      45.235  37.275  26.909  1.00  0.00    -0.237 OA
ATOM     70  O   UNL A   1      46.808  37.061  28.808  1.00  0.00    -0.237 OA
ATOM     71  O   UNL A   1      47.570  36.572  26.515  1.00  0.00    -0.744 OA
ENDBRANCH  67  68
ENDBRANCH  46  60
BRANCH  47  72
ATOM     72  C   UNL A   1      36.923  31.751  30.703  1.00  0.00     0.058 A 
ATOM     73  C   UNL A   1      36.102  32.238  31.735  1.00  0.00     0.135 A 
ATOM     74  C   UNL A   1      36.604  32.190  29.401  1.00  0.00     0.135 A 
ATOM     75  F   UNL A   1      36.350  31.898  33.009  1.00  0.00    -0.206 F 
ATOM     76  C   UNL A   1      35.044  33.128  31.493  1.00  0.00     0.059 A 
ATOM     77  C   UNL A   1      35.558  33.074  29.135  1.00  0.00     0.059 A 
ATOM     78  F   UNL A   1      37.363  31.835  28.352  1.00  0.00    -0.206 F 
ATOM     79  C   UNL A   1      34.789  33.552  30.189  1.00  0.00     0.060 A 
BRANCH  79  80
ATOM     80  S   UNL A   1      33.512  34.800  29.886  1.00  0.00     0.124 S 
ATOM     81  O   UNL A   1      32.946  34.981  31.217  1.00  0.00    -0.237 OA
ATOM     82  O   UNL A   1      34.290  35.920  29.367  1.00  0.00    -0.237 OA
ATOM     83  O   UNL A   1      32.630  34.155  28.915  1.00  0.00    -0.744 OA
ENDBRANCH  79  80
ENDBRANCH  47  72
BRANCH  59  84
ATOM     84  C   UNL A   1      42.074  29.533  33.676  1.00  0.00     0.058 A 
ATOM     85  C   UNL A   1      41.711  28.207  33.373  1.00  0.00     0.135 A 
ATOM     86  C   UNL A   1      42.285  29.834  35.028  1.00  0.00     0.135 A 
ATOM     87  F   UNL A   1      41.580  27.802  32.105  1.00  0.00    -0.206 F 
ATOM     88  C   UNL A   1      41.540  27.237  34.363  1.00  0.00     0.059 A 
ATOM     89  C   UNL A   1      42.146  28.876  36.032  1.00  0.00     0.059 A 
ATOM     90  F   UNL A   1      42.692  31.063  35.385  1.00  0.00    -0.206 F 
ATOM     91  C   UNL A   1      41.764  27.580  35.693  1.00  0.00     0.060 A 
BRANCH  91  92
ATOM     92  S   UNL A   1      41.634  26.302  36.965  1.00  0.00     0.124 S 
ATOM     93  O   UNL A   1      42.867  26.495  37.722  1.00  0.00    -0.237 OA
ATOM     94  O   UNL A   1      40.403  26.667  37.660  1.00  0.00    -0.237 OA
ATOM     95  O   UNL A   1      41.561  25.062  36.196  1.00  0.00    -0.744 OA
ENDBRANCH  91  92
ENDBRANCH  59  84
ENDBRANCH  33  34
ENDBRANCH  25  28
ENDBRANCH  23  24
ENDBRANCH  22  23
ENDBRANCH   1  22
TORSDOF 17
ENDMDL
MODEL 2
REMARK VINA RESULT:     -10.0      3.579      6.543
REMARK SMILES CCn1cc(/C=C/c2cc(C(=O)NCCCCNC(=O)c3ccc(-c4c5nc(c(-c6c(F)cc(S(=O)(=O)[O-])cc6F)c6ccc([nH]6)c(-c6c(F)cc(S(=O)(=O)[O-])cc6F)c6nc(c(-c7c(F)cc(S(=O)(=O)[O-])cc7F)c7ccc4[nH]7)C=C6)C=C5)cc3)ncn2)cn1
REMARK SMILES IDX 15 1 14 2 13 3 11 4 12 5 10 7 8 8 9 9 89 10 88 11 87 12 7 13
REMARK SMILES IDX 6 14 5 15 3 16 4 17 91 18 90 19 2 20 1 21 16 22 17 23 18 24
REMARK SMILES IDX 19 25 20 27 21 28 22 29 86 30 23 31 85 32 24 33 25 34 26 35
REMARK SMILES IDX 79 36 27 37 84 38 78 39 80 40 28 41 83 42 77 43 76 44 29 46
REMARK SMILES IDX 63 47 42 48 62 49 43 50 46 51 61 52 81 53 44 54 45 55 60 57
REMARK SMILES IDX 82 58 47 59 30 60 31 61 40 62 32 63 33 64 39 65 41 66 34 67
REMARK SMILES IDX 35 68 36 69 37 70 38 71 64 72 65 73 74 74 66 75 67 76 73 77
REMARK SMILES IDX 75 78 68 79 69 80 70 81 71 82 72 83 48 84 49 85 58 86 50 87
REMARK SMILES IDX 51 88 57 89 59 90 52 91 53 92 54 93 55 94 56 95
REMARK H PARENT 13 6 18 26 80 45 46 56
REMARK Flexibility Score: inf
ROOT
ATOM      1  C   UNL A   1      36.418  21.044  25.076  1.00  0.00     0.023 C 
ENDROOT
BRANCH   1   2
ATOM      2  C   UNL A   1      35.265  21.431  26.017  1.00  0.00     0.116 C 
BRANCH   2   3
ATOM      3  N   UNL A   1      34.083  20.623  25.766  1.00  0.00    -0.351 N 
ATOM      4  C   UNL A   1      32.785  20.920  25.398  1.00  0.00     0.270 C 
ATOM      5  O   UNL A   1      32.012  19.965  25.296  1.00  0.00    -0.268 OA
ATOM      6  H   UNL A   1      34.241  19.659  25.883  1.00  0.00     0.163 HD
BRANCH   4   7
ATOM      7  C   UNL A   1      32.290  22.308  25.097  1.00  0.00     0.132 A 
ATOM      8  C   UNL A   1      32.106  24.609  25.482  1.00  0.00     0.067 A 
ATOM      9  C   UNL A   1      32.438  23.360  25.962  1.00  0.00     0.062 A 
ATOM     10  N   UNL A   1      31.498  24.804  24.305  1.00  0.00    -0.237 NA
ATOM     11  C   UNL A   1      31.309  23.701  23.566  1.00  0.00     0.223 A 
ATOM     12  N   UNL A   1      31.691  22.462  23.893  1.00  0.00    -0.231 NA
BRANCH   8  13
ATOM     13  C   UNL A   1      32.428  25.801  26.273  1.00  0.00     0.029 C 
ATOM     14  C   UNL A   1      32.704  26.977  25.680  1.00  0.00     0.013 C 
BRANCH  14  15
ATOM     15  C   UNL A   1      33.122  28.170  26.329  1.00  0.00     0.013 A 
ATOM     16  N   UNL A   1      34.355  29.626  27.409  1.00  0.00    -0.272 N 
ATOM     17  C   UNL A   1      34.385  28.386  26.833  1.00  0.00     0.116 A 
ATOM     18  N   UNL A   1      33.149  30.225  27.321  1.00  0.00    -0.181 NA
ATOM     19  C   UNL A   1      32.404  29.334  26.657  1.00  0.00     0.143 A 
BRANCH  16  20
ATOM     20  C   UNL A   1      35.427  30.271  28.144  1.00  0.00     0.141 C 
ATOM     21  C   UNL A   1      36.803  30.003  27.560  1.00  0.00     0.029 C 
ENDBRANCH  16  20
ENDBRANCH  14  15
ENDBRANCH   8  13
ENDBRANCH   4   7
ENDBRANCH   2   3
ENDBRANCH   1   2
BRANCH   1  22
ATOM     22  C   UNL A   1      37.331  22.200  24.640  1.00  0.00     0.023 C 
BRANCH  22  23
ATOM     23  C   UNL A   1      37.961  22.987  25.783  1.00  0.00     0.116 C 
BRANCH  23  24
ATOM     24  N   UNL A   1      38.931  22.208  26.565  1.00  0.00    -0.352 N 
ATOM     25  C   UNL A   1      40.120  22.652  27.121  1.00  0.00     0.251 C 
ATOM     26  H   UNL A   1      38.712  21.259  26.709  1.00  0.00     0.163 HD
ATOM     27  O   UNL A   1      41.030  21.868  27.394  1.00  0.00    -0.269 OA
BRANCH  25  28
ATOM     28  C   UNL A   1      40.246  24.087  27.416  1.00  0.00     0.039 A 
ATOM     29  C   UNL A   1      39.225  25.016  27.201  1.00  0.00     0.014 A 
ATOM     30  C   UNL A   1      41.437  24.459  28.025  1.00  0.00     0.014 A 
ATOM     31  C   UNL A   1      39.396  26.312  27.688  1.00  0.00     0.010 A 
ATOM     32  C   UNL A   1      41.489  25.634  28.711  1.00  0.00     0.010 A 
ATOM     33  C   UNL A   1      40.532  26.605  28.459  1.00  0.00    -0.014 A 
BRANCH  33  34
ATOM     34  C   UNL A   1      40.742  27.895  29.105  1.00  0.00     0.031 A 
ATOM     35  C   UNL A   1      41.899  28.666  28.586  1.00  0.00     0.074 A 
ATOM     36  C   UNL A   1      39.815  28.432  29.933  1.00  0.00     0.049 A 
ATOM     37  N   UNL A   1      43.020  28.893  29.184  1.00  0.00    -0.248 NA
ATOM     38  C   UNL A   1      41.883  29.093  27.177  1.00  0.00     0.031 C 
ATOM     39  C   UNL A   1      38.497  27.894  30.313  1.00  0.00     0.029 A 
ATOM     40  N   UNL A   1      39.822  29.639  30.558  1.00  0.00    -0.354 N 
ATOM     41  C   UNL A   1      43.747  29.714  28.329  1.00  0.00     0.074 A 
ATOM     42  C   UNL A   1      43.103  29.621  27.045  1.00  0.00     0.031 C 
ATOM     43  C   UNL A   1      37.757  28.855  30.905  1.00  0.00     0.029 A 
ATOM     44  C   UNL A   1      38.604  30.010  31.123  1.00  0.00     0.049 A 
ATOM     45  H   UNL A   1      40.624  30.208  30.606  1.00  0.00     0.167 HD
ATOM     46  C   UNL A   1      44.657  30.604  28.817  1.00  0.00     0.037 A 
ATOM     47  C   UNL A   1      38.312  31.172  31.758  1.00  0.00     0.037 A 
ATOM     48  C   UNL A   1      44.961  30.320  30.200  1.00  0.00     0.049 A 
ATOM     49  C   UNL A   1      39.608  31.728  32.218  1.00  0.00     0.074 A 
ATOM     50  C   UNL A   1      45.525  29.255  30.875  1.00  0.00     0.029 A 
ATOM     51  N   UNL A   1      44.286  31.053  31.147  1.00  0.00    -0.354 N 
ATOM     52  N   UNL A   1      40.371  31.135  33.098  1.00  0.00    -0.248 NA
ATOM     53  C   UNL A   1      40.286  32.673  31.345  1.00  0.00     0.031 C 
ATOM     54  C   UNL A   1      44.785  29.152  32.091  1.00  0.00     0.029 A 
ATOM     55  C   UNL A   1      43.860  30.199  32.133  1.00  0.00     0.049 A 
ATOM     56  H   UNL A   1      44.134  32.026  31.123  1.00  0.00     0.167 HD
ATOM     57  C   UNL A   1      41.665  31.297  32.620  1.00  0.00     0.074 A 
ATOM     58  C   UNL A   1      41.556  32.331  31.591  1.00  0.00     0.031 C 
ATOM     59  C   UNL A   1      42.642  30.382  32.901  1.00  0.00     0.037 A 
BRANCH  46  60
ATOM     60  C   UNL A   1      44.970  31.940  28.189  1.00  0.00     0.058 A 
ATOM     61  C   UNL A   1      46.282  32.202  27.739  1.00  0.00     0.135 A 
ATOM     62  C   UNL A   1      44.118  33.066  28.261  1.00  0.00     0.135 A 
ATOM     63  F   UNL A   1      47.180  31.209  27.639  1.00  0.00    -0.206 F 
ATOM     64  C   UNL A   1      46.731  33.492  27.450  1.00  0.00     0.059 A 
ATOM     65  C   UNL A   1      44.529  34.351  27.926  1.00  0.00     0.059 A 
ATOM     66  F   UNL A   1      42.877  32.992  28.754  1.00  0.00    -0.206 F 
ATOM     67  C   UNL A   1      45.848  34.562  27.561  1.00  0.00     0.060 A 
BRANCH  67  68
ATOM     68  S   UNL A   1      46.448  36.239  27.289  1.00  0.00     0.124 S 
ATOM     69  O   UNL A   1      46.398  36.332  25.835  1.00  0.00    -0.237 OA
ATOM     70  O   UNL A   1      45.464  37.032  28.018  1.00  0.00    -0.237 OA
ATOM     71  O   UNL A   1      47.785  36.215  27.875  1.00  0.00    -0.744 OA
ENDBRANCH  67  68
ENDBRANCH  46  60
BRANCH  47  72
ATOM     72  C   UNL A   1      37.059  31.967  31.644  1.00  0.00     0.058 A 
ATOM     73  C   UNL A   1      36.198  32.166  32.737  1.00  0.00     0.135 A 
ATOM     74  C   UNL A   1      36.818  32.775  30.513  1.00  0.00     0.135 A 
ATOM     75  F   UNL A   1      36.373  31.464  33.867  1.00  0.00    -0.206 F 
ATOM     76  C   UNL A   1      35.173  33.125  32.718  1.00  0.00     0.059 A 
ATOM     77  C   UNL A   1      35.806  33.734  30.469  1.00  0.00     0.059 A 
ATOM     78  F   UNL A   1      37.621  32.709  29.439  1.00  0.00    -0.206 F 
ATOM     79  C   UNL A   1      34.994  33.915  31.583  1.00  0.00     0.060 A 
BRANCH  79  80
ATOM     80  S   UNL A   1      33.762  35.242  31.600  1.00  0.00     0.124 S 
ATOM     81  O   UNL A   1      32.748  34.700  32.497  1.00  0.00    -0.237 OA
ATOM     82  O   UNL A   1      34.530  36.371  32.115  1.00  0.00    -0.237 OA
ATOM     83  O   UNL A   1      33.362  35.352  30.200  1.00  0.00    -0.744 OA
ENDBRANCH  79  80
ENDBRANCH  47  72
BRANCH  59  84
ATOM     84  C   UNL A   1      42.353  29.344  33.963  1.00  0.00     0.058 A 
ATOM     85  C   UNL A   1      41.806  28.073  33.706  1.00  0.00     0.135 A 
ATOM     86  C   UNL A   1      42.802  29.582  35.270  1.00  0.00     0.135 A 
ATOM     87  F   UNL A   1      41.438  27.720  32.471  1.00  0.00    -0.206 F 
ATOM     88  C   UNL A   1      41.684  27.099  34.701  1.00  0.00     0.059 A 
ATOM     89  C   UNL A   1      42.716  28.617  36.273  1.00  0.00     0.059 A 
ATOM     90  F   UNL A   1      43.391  30.751  35.572  1.00  0.00    -0.206 F 
ATOM     91  C   UNL A   1      42.146  27.379  35.983  1.00  0.00     0.060 A 
BRANCH  91  92
ATOM     92  S   UNL A   1      42.075  26.088  37.246  1.00  0.00     0.124 S 
ATOM     93  O   UNL A   1      40.663  26.096  37.614  1.00  0.00    -0.237 OA
ATOM     94  O   UNL A   1      42.532  24.905  36.520  1.00  0.00    -0.237 OA
ATOM     95  O   UNL A   1      42.992  26.568  38.276  1.00  0.00    -0.744 OA
ENDBRANCH  91  92
ENDBRANCH  59  84
ENDBRANCH  33  34
ENDBRANCH  25  28
ENDBRANCH  23  24
ENDBRANCH  22  23
ENDBRANCH   1  22
TORSDOF 17
ENDMDL
MODEL 3
REMARK VINA RESULT:      -9.8      3.953      7.124
REMARK SMILES CCn1cc(/C=C/c2cc(C(=O)NCCCCNC(=O)c3ccc(-c4c5nc(c(-c6c(F)cc(S(=O)(=O)[O-])cc6F)c6ccc([nH]6)c(-c6c(F)cc(S(=O)(=O)[O-])cc6F)c6nc(c(-c7c(F)cc(S(=O)(=O)[O-])cc7F)c7ccc4[nH]7)C=C6)C=C5)cc3)ncn2)cn1
REMARK SMILES IDX 15 1 14 2 13 3 11 4 12 5 10 7 8 8 9 9 89 10 88 11 87 12 7 13
REMARK SMILES IDX 6 14 5 15 3 16 4 17 91 18 90 19 2 20 1 21 16 22 17 23 18 24
REMARK SMILES IDX 19 25 20 27 21 28 22 29 86 30 23 31 85 32 24 33 25 34 26 35
REMARK SMILES IDX 79 36 27 37 84 38 78 39 80 40 28 41 83 42 77 43 76 44 29 46
REMARK SMILES IDX 63 47 42 48 62 49 43 50 46 51 61 52 81 53 44 54 45 55 60 57
REMARK SMILES IDX 82 58 47 59 30 60 31 61 40 62 32 63 33 64 39 65 41 66 34 67
REMARK SMILES IDX 35 68 36 69 37 70 38 71 64 72 65 73 74 74 66 75 67 76 73 77
REMARK SMILES IDX 75 78 68 79 69 80 70 81 71 82 72 83 48 84 49 85 58 86 50 87
REMARK SMILES IDX 51 88 57 89 59 90 52 91 53 92 54 93 55 94 56 95
REMARK H PARENT 13 6 18 26 80 45 46 56
REMARK Flexibility Score: inf
ROOT
ATOM      1  C   UNL A   1      38.537  23.244  26.629  1.00  0.00     0.023 C 
ENDROOT
BRANCH   1   2
ATOM      2  C   UNL A   1      37.228  23.706  25.967  1.00  0.00     0.116 C 
BRANCH   2   3
ATOM      3  N   UNL A   1      37.231  23.432  24.540  1.00  0.00    -0.351 N 
ATOM      4  C   UNL A   1      36.241  23.135  23.624  1.00  0.00     0.270 C 
ATOM      5  O   UNL A   1      36.608  22.930  22.466  1.00  0.00    -0.268 OA
ATOM      6  H   UNL A   1      38.130  23.465  24.141  1.00  0.00     0.163 HD
BRANCH   4   7
ATOM      7  C   UNL A   1      34.774  23.082  23.955  1.00  0.00     0.132 A 
ATOM      8  C   UNL A   1      32.649  24.011  24.264  1.00  0.00     0.067 A 
ATOM      9  C   UNL A   1      34.009  24.201  24.151  1.00  0.00     0.062 A 
ATOM     10  N   UNL A   1      32.083  22.801  24.364  1.00  0.00    -0.237 NA
ATOM     11  C   UNL A   1      32.926  21.763  24.255  1.00  0.00     0.223 A 
ATOM     12  N   UNL A   1      34.243  21.840  24.037  1.00  0.00    -0.231 NA
BRANCH   8  13
ATOM     13  C   UNL A   1      31.750  25.170  24.269  1.00  0.00     0.029 C 
ATOM     14  C   UNL A   1      32.017  26.262  23.529  1.00  0.00     0.013 C 
BRANCH  14  15
ATOM     15  C   UNL A   1      31.280  27.477  23.525  1.00  0.00     0.013 A 
ATOM     16  N   UNL A   1      29.884  29.060  22.930  1.00  0.00    -0.272 N 
ATOM     17  C   UNL A   1      30.303  27.798  22.609  1.00  0.00     0.116 A 
ATOM     18  N   UNL A   1      30.534  29.583  23.991  1.00  0.00    -0.181 NA
ATOM     19  C   UNL A   1      31.379  28.611  24.351  1.00  0.00     0.143 A 
BRANCH  16  20
ATOM     20  C   UNL A   1      28.918  29.867  22.208  1.00  0.00     0.141 C 
ATOM     21  C   UNL A   1      27.523  29.812  22.804  1.00  0.00     0.029 C 
ENDBRANCH  16  20
ENDBRANCH  14  15
ENDBRANCH   8  13
ENDBRANCH   4   7
ENDBRANCH   2   3
ENDBRANCH   1   2
BRANCH   1  22
ATOM     22  C   UNL A   1      39.138  21.945  26.069  1.00  0.00     0.023 C 
BRANCH  22  23
ATOM     23  C   UNL A   1      40.394  21.459  26.782  1.00  0.00     0.116 C 
BRANCH  23  24
ATOM     24  N   UNL A   1      41.623  21.659  26.002  1.00  0.00    -0.352 N 
ATOM     25  C   UNL A   1      42.263  22.857  25.725  1.00  0.00     0.251 C 
ATOM     26  H   UNL A   1      42.040  20.848  25.632  1.00  0.00     0.163 HD
ATOM     27  O   UNL A   1      43.022  22.968  24.762  1.00  0.00    -0.269 OA
BRANCH  25  28
ATOM     28  C   UNL A   1      42.040  23.983  26.643  1.00  0.00     0.039 A 
ATOM     29  C   UNL A   1      42.556  24.042  27.940  1.00  0.00     0.014 A 
ATOM     30  C   UNL A   1      41.347  25.057  26.099  1.00  0.00     0.014 A 
ATOM     31  C   UNL A   1      42.432  25.236  28.649  1.00  0.00     0.010 A 
ATOM     32  C   UNL A   1      41.454  26.279  26.690  1.00  0.00     0.010 A 
ATOM     33  C   UNL A   1      41.891  26.359  28.003  1.00  0.00    -0.014 A 
BRANCH  33  34
ATOM     34  C   UNL A   1      41.825  27.677  28.621  1.00  0.00     0.031 A 
ATOM     35  C   UNL A   1      42.970  28.566  28.306  1.00  0.00     0.074 A 
ATOM     36  C   UNL A   1      40.698  28.120  29.226  1.00  0.00     0.049 A 
ATOM     37  N   UNL A   1      43.917  28.934  29.103  1.00  0.00    -0.248 NA
ATOM     38  C   UNL A   1      43.191  28.960  26.905  1.00  0.00     0.031 C 
ATOM     39  C   UNL A   1      39.397  27.440  29.362  1.00  0.00     0.029 A 
ATOM     40  N   UNL A   1      40.446  29.332  29.787  1.00  0.00    -0.354 N 
ATOM     41  C   UNL A   1      44.706  29.816  28.374  1.00  0.00     0.074 A 
ATOM     42  C   UNL A   1      44.347  29.623  26.993  1.00  0.00     0.031 C 
ATOM     43  C   UNL A   1      38.452  28.321  29.754  1.00  0.00     0.029 A 
ATOM     44  C   UNL A   1      39.107  29.570  30.084  1.00  0.00     0.049 A 
ATOM     45  H   UNL A   1      41.154  29.991  29.968  1.00  0.00     0.167 HD
ATOM     46  C   UNL A   1      45.396  30.816  28.992  1.00  0.00     0.037 A 
ATOM     47  C   UNL A   1      38.567  30.704  30.599  1.00  0.00     0.037 A 
ATOM     48  C   UNL A   1      45.446  30.597  30.418  1.00  0.00     0.049 A 
ATOM     49  C   UNL A   1      39.676  31.416  31.280  1.00  0.00     0.074 A 
ATOM     50  C   UNL A   1      45.976  29.620  31.237  1.00  0.00     0.029 A 
ATOM     51  N   UNL A   1      44.519  31.267  31.182  1.00  0.00    -0.354 N 
ATOM     52  N   UNL A   1      40.307  30.934  32.318  1.00  0.00    -0.248 NA
ATOM     53  C   UNL A   1      40.408  32.415  30.518  1.00  0.00     0.031 C 
ATOM     54  C   UNL A   1      45.024  29.457  32.287  1.00  0.00     0.029 A 
ATOM     55  C   UNL A   1      44.000  30.389  32.101  1.00  0.00     0.049 A 
ATOM     56  H   UNL A   1      44.269  32.215  31.086  1.00  0.00     0.167 HD
ATOM     57  C   UNL A   1      41.645  31.235  32.097  1.00  0.00     0.074 A 
ATOM     58  C   UNL A   1      41.631  32.228  31.023  1.00  0.00     0.031 C 
ATOM     59  C   UNL A   1      42.640  30.446  32.605  1.00  0.00     0.037 A 
BRANCH  46  60
ATOM     60  C   UNL A   1      45.681  32.166  28.380  1.00  0.00     0.058 A 
ATOM     61  C   UNL A   1      47.014  32.621  28.299  1.00  0.00     0.135 A 
ATOM     62  C   UNL A   1      44.690  33.143  28.127  1.00  0.00     0.135 A 
ATOM     63  F   UNL A   1      48.037  31.782  28.530  1.00  0.00    -0.206 F 
ATOM     64  C   UNL A   1      47.336  33.957  28.054  1.00  0.00     0.059 A 
ATOM     65  C   UNL A   1      44.990  34.467  27.828  1.00  0.00     0.059 A 
ATOM     66  F   UNL A   1      43.384  32.886  28.255  1.00  0.00    -0.206 F 
ATOM     67  C   UNL A   1      46.313  34.876  27.833  1.00  0.00     0.060 A 
BRANCH  67  68
ATOM     68  S   UNL A   1      46.717  36.618  27.618  1.00  0.00     0.124 S 
ATOM     69  O   UNL A   1      47.094  36.997  28.975  1.00  0.00    -0.237 OA
ATOM     70  O   UNL A   1      47.802  36.557  26.644  1.00  0.00    -0.237 OA
ATOM     71  O   UNL A   1      45.469  37.193  27.125  1.00  0.00    -0.744 OA
ENDBRANCH  67  68
ENDBRANCH  46  60
BRANCH  47  72
ATOM     72  C   UNL A   1      37.283  31.345  30.206  1.00  0.00     0.058 A 
ATOM     73  C   UNL A   1      36.427  31.942  31.147  1.00  0.00     0.135 A 
ATOM     74  C   UNL A   1      36.998  31.618  28.851  1.00  0.00     0.135 A 
ATOM     75  F   UNL A   1      36.641  31.762  32.459  1.00  0.00    -0.206 F 
ATOM     76  C   UNL A   1      35.366  32.779  30.770  1.00  0.00     0.059 A 
ATOM     77  C   UNL A   1      35.949  32.446  28.451  1.00  0.00     0.059 A 
ATOM     78  F   UNL A   1      37.792  31.150  27.875  1.00  0.00    -0.206 F 
ATOM     79  C   UNL A   1      35.144  33.037  29.417  1.00  0.00     0.060 A 
BRANCH  79  80
ATOM     80  S   UNL A   1      33.861  34.218  28.929  1.00  0.00     0.124 S 
ATOM     81  O   UNL A   1      33.240  34.535  30.210  1.00  0.00    -0.237 OA
ATOM     82  O   UNL A   1      34.642  35.289  28.318  1.00  0.00    -0.237 OA
ATOM     83  O   UNL A   1      33.028  33.453  28.004  1.00  0.00    -0.744 OA
ENDBRANCH  79  80
ENDBRANCH  47  72
BRANCH  59  84
ATOM     84  C   UNL A   1      42.260  29.403  33.634  1.00  0.00     0.058 A 
ATOM     85  C   UNL A   1      42.050  28.041  33.347  1.00  0.00     0.135 A 
ATOM     86  C   UNL A   1      42.271  29.766  34.988  1.00  0.00     0.135 A 
ATOM     87  F   UNL A   1      42.116  27.584  32.092  1.00  0.00    -0.206 F 
ATOM     88  C   UNL A   1      41.834  27.093  34.350  1.00  0.00     0.059 A 
ATOM     89  C   UNL A   1      42.084  28.833  36.008  1.00  0.00     0.059 A 
ATOM     90  F   UNL A   1      42.526  31.037  35.338  1.00  0.00    -0.206 F 
ATOM     91  C   UNL A   1      41.857  27.498  35.681  1.00  0.00     0.060 A 
BRANCH  91  92
ATOM     92  S   UNL A   1      41.672  26.257  36.982  1.00  0.00     0.124 S 
ATOM     93  O   UNL A   1      41.629  25.015  36.218  1.00  0.00    -0.237 OA
ATOM     94  O   UNL A   1      42.871  26.460  37.791  1.00  0.00    -0.237 OA
ATOM     95  O   UNL A   1      40.420  26.632  37.635  1.00  0.00    -0.744 OA
ENDBRANCH  91  92
ENDBRANCH  59  84
ENDBRANCH  33  34
ENDBRANCH  25  28
ENDBRANCH  23  24
ENDBRANCH  22  23
ENDBRANCH   1  22
TORSDOF 17
ENDMDL
