MODEL 1
REMARK VINA RESULT:     -12.6      0.000      0.000
REMARK SMILES O=C(CN1C(=O)CN(C(=O)OCC2c3ccccc3-c3ccccc32)c2ccccc21)NCCCCNC(=O)c1ccc(-c2c3nc(c(-c4c(F)cc(S(=O)(=O)[O-])cc4F)c4ccc([nH]4)c(-c4c(F)cc(S(=O)(=O)[O-])cc4F)c4nc(c(-c5c(F)cc(S(=O)(=O)[O-])cc5F)c5ccc2[nH]5)C=C4)C=C3)cc1
REMARK SMILES IDX 33 1 32 2 1 3 2 4 3 6 4 7 5 8 31 9 6 10 7 11 26 12 30 13
REMARK SMILES IDX 8 14 27 15 29 16 28 17 9 18 10 19 11 20 12 21 13 22 14 23
REMARK SMILES IDX 25 24 15 25 19 26 20 27 24 28 16 29 18 30 21 31 23 32 17 33
REMARK SMILES IDX 22 34 34 35 35 36 36 37 37 38 38 39 39 41 40 42 41 43 105 44
REMARK SMILES IDX 42 45 104 46 43 47 44 48 45 49 98 50 46 51 103 52 97 53
REMARK SMILES IDX 99 54 47 55 102 56 96 57 95 58 48 60 82 61 61 62 81 63 62 64
REMARK SMILES IDX 65 65 80 66 100 67 63 68 64 69 79 71 101 72 66 73 49 74
REMARK SMILES IDX 50 75 59 76 51 77 52 78 58 79 60 80 53 81 54 82 55 83 56 84
REMARK SMILES IDX 57 85 83 86 84 87 93 88 85 89 86 90 92 91 94 92 87 93 88 94
REMARK SMILES IDX 89 95 90 96 91 97 67 98 68 99 77 100 69 101 70 102 76 103
REMARK SMILES IDX 78 104 71 105 72 106 73 107 74 108 75 109
REMARK H PARENT 32 5 37 40 99 59 65 70
REMARK Flexibility Score: inf
ROOT
ATOM      1  C   UNL A   1      33.971  31.826  27.663  1.00  0.00     0.116 C 
ENDROOT
BRANCH   1   2
ATOM      2  N   UNL A   1      33.918  30.378  27.638  1.00  0.00    -0.355 N 
ATOM      3  O   UNL A   1      31.752  30.254  26.912  1.00  0.00    -0.273 OA
ATOM      4  C   UNL A   1      32.842  29.710  27.094  1.00  0.00     0.240 C 
ATOM      5  H   UNL A   1      34.665  29.861  28.019  1.00  0.00     0.163 HD
BRANCH   4   6
ATOM      6  C   UNL A   1      33.006  28.190  26.881  1.00  0.00     0.225 C 
BRANCH   6   7
ATOM      7  N   UNL A   1      32.981  27.667  25.506  1.00  0.00    -0.299 N 
ATOM      8  C   UNL A   1      33.897  28.198  24.606  1.00  0.00     0.247 C 
ATOM      9  C   UNL A   1      31.851  26.925  25.015  1.00  0.00     0.068 A 
ATOM     10  O   UNL A   1      34.684  29.097  24.908  1.00  0.00    -0.272 OA
ATOM     11  C   UNL A   1      33.877  27.669  23.188  1.00  0.00     0.229 C 
ATOM     12  C   UNL A   1      31.875  26.360  23.716  1.00  0.00     0.071 A 
ATOM     13  C   UNL A   1      30.706  26.730  25.812  1.00  0.00     0.028 A 
ATOM     14  N   UNL A   1      33.048  26.510  22.919  1.00  0.00    -0.266 N 
ATOM     15  C   UNL A   1      30.776  25.597  23.288  1.00  0.00     0.029 A 
ATOM     16  C   UNL A   1      29.619  25.980  25.358  1.00  0.00     0.002 A 
ATOM     17  C   UNL A   1      29.657  25.410  24.098  1.00  0.00     0.002 A 
BRANCH  14  18
ATOM     18  C   UNL A   1      33.390  25.648  21.875  1.00  0.00     0.414 C 
ATOM     19  O   UNL A   1      33.018  25.735  20.717  1.00  0.00    -0.224 OA
BRANCH  18  20
ATOM     20  O   UNL A   1      34.110  24.578  22.339  1.00  0.00    -0.448 OA
BRANCH  20  21
ATOM     21  C   UNL A   1      33.427  23.308  22.301  1.00  0.00     0.248 C 
BRANCH  21  22
ATOM     22  C   UNL A   1      33.817  22.400  23.490  1.00  0.00     0.088 C 
ATOM     23  C   UNL A   1      35.133  22.776  24.168  1.00  0.00    -0.029 A 
ATOM     24  C   UNL A   1      32.824  22.594  24.634  1.00  0.00    -0.029 A 
ATOM     25  C   UNL A   1      36.430  22.642  23.694  1.00  0.00     0.005 A 
ATOM     26  C   UNL A   1      34.888  23.288  25.459  1.00  0.00    -0.014 A 
ATOM     27  C   UNL A   1      33.479  23.159  25.752  1.00  0.00    -0.014 A 
ATOM     28  C   UNL A   1      31.467  22.310  24.663  1.00  0.00     0.005 A 
ATOM     29  C   UNL A   1      37.478  23.127  24.476  1.00  0.00     0.000 A 
ATOM     30  C   UNL A   1      35.928  23.765  26.240  1.00  0.00     0.009 A 
ATOM     31  C   UNL A   1      32.777  23.455  26.905  1.00  0.00     0.009 A 
ATOM     32  C   UNL A   1      30.759  22.612  25.827  1.00  0.00     0.000 A 
ATOM     33  C   UNL A   1      37.228  23.699  25.732  1.00  0.00     0.001 A 
ATOM     34  C   UNL A   1      31.408  23.183  26.935  1.00  0.00     0.001 A 
ENDBRANCH  21  22
ENDBRANCH  20  21
ENDBRANCH  18  20
ENDBRANCH  14  18
ENDBRANCH   6   7
ENDBRANCH   4   6
ENDBRANCH   1   2
BRANCH   1  35
ATOM     35  C   UNL A   1      34.369  32.403  29.017  1.00  0.00     0.023 C 
BRANCH  35  36
ATOM     36  C   UNL A   1      35.703  33.153  29.041  1.00  0.00     0.023 C 
BRANCH  36  37
ATOM     37  C   UNL A   1      36.537  32.995  30.310  1.00  0.00     0.116 C 
BRANCH  37  38
ATOM     38  N   UNL A   1      36.128  31.871  31.137  1.00  0.00    -0.352 N 
ATOM     39  C   UNL A   1      36.767  30.673  31.360  1.00  0.00     0.251 C 
ATOM     40  H   UNL A   1      35.270  31.983  31.604  1.00  0.00     0.163 HD
ATOM     41  O   UNL A   1      36.204  29.798  32.013  1.00  0.00    -0.269 OA
BRANCH  39  42
ATOM     42  C   UNL A   1      38.111  30.418  30.790  1.00  0.00     0.039 A 
ATOM     43  C   UNL A   1      39.199  30.310  31.663  1.00  0.00     0.014 A 
ATOM     44  C   UNL A   1      38.309  30.289  29.412  1.00  0.00     0.014 A 
ATOM     45  C   UNL A   1      40.466  29.997  31.162  1.00  0.00     0.010 A 
ATOM     46  C   UNL A   1      39.560  29.916  28.919  1.00  0.00     0.010 A 
ATOM     47  C   UNL A   1      40.650  29.759  29.789  1.00  0.00    -0.014 A 
BRANCH  47  48
ATOM     48  C   UNL A   1      41.968  29.324  29.253  1.00  0.00     0.031 A 
ATOM     49  C   UNL A   1      43.097  30.311  29.116  1.00  0.00     0.074 A 
ATOM     50  C   UNL A   1      42.127  28.055  28.829  1.00  0.00     0.049 A 
ATOM     51  N   UNL A   1      44.292  30.133  28.613  1.00  0.00    -0.248 NA
ATOM     52  C   UNL A   1      42.843  31.678  29.594  1.00  0.00     0.031 C 
ATOM     53  C   UNL A   1      41.098  27.012  28.870  1.00  0.00     0.029 A 
ATOM     54  N   UNL A   1      43.211  27.426  28.269  1.00  0.00    -0.354 N 
ATOM     55  C   UNL A   1      44.926  31.368  28.695  1.00  0.00     0.074 A 
ATOM     56  C   UNL A   1      43.970  32.293  29.264  1.00  0.00     0.031 C 
ATOM     57  C   UNL A   1      41.604  25.874  28.371  1.00  0.00     0.029 A 
ATOM     58  C   UNL A   1      42.979  26.110  27.943  1.00  0.00     0.049 A 
ATOM     59  H   UNL A   1      44.073  27.875  28.113  1.00  0.00     0.167 HD
ATOM     60  C   UNL A   1      46.195  31.695  28.347  1.00  0.00     0.037 A 
ATOM     61  C   UNL A   1      43.780  25.199  27.357  1.00  0.00     0.037 A 
ATOM     62  C   UNL A   1      47.148  30.765  27.798  1.00  0.00     0.049 A 
ATOM     63  C   UNL A   1      45.181  25.588  26.970  1.00  0.00     0.074 A 
ATOM     64  C   UNL A   1      48.473  30.986  27.467  1.00  0.00     0.029 A 
ATOM     65  N   UNL A   1      46.876  29.439  27.493  1.00  0.00    -0.354 N 
ATOM     66  N   UNL A   1      45.782  26.745  27.109  1.00  0.00    -0.248 NA
ATOM     67  C   UNL A   1      46.013  24.547  26.350  1.00  0.00     0.031 C 
ATOM     68  C   UNL A   1      48.993  29.805  26.928  1.00  0.00     0.029 A 
ATOM     69  C   UNL A   1      48.004  28.836  26.962  1.00  0.00     0.049 A 
ATOM     70  H   UNL A   1      46.010  28.993  27.635  1.00  0.00     0.167 HD
ATOM     71  C   UNL A   1      47.069  26.565  26.618  1.00  0.00     0.074 A 
ATOM     72  C   UNL A   1      47.163  25.186  26.184  1.00  0.00     0.031 C 
ATOM     73  C   UNL A   1      48.083  27.460  26.537  1.00  0.00     0.037 A 
BRANCH  60  74
ATOM     74  C   UNL A   1      46.627  33.122  28.546  1.00  0.00     0.058 A 
ATOM     75  C   UNL A   1      47.196  33.559  29.752  1.00  0.00     0.135 A 
ATOM     76  C   UNL A   1      46.500  34.059  27.508  1.00  0.00     0.135 A 
ATOM     77  F   UNL A   1      47.346  32.707  30.779  1.00  0.00    -0.206 F 
ATOM     78  C   UNL A   1      47.579  34.885  29.938  1.00  0.00     0.059 A 
ATOM     79  C   UNL A   1      46.888  35.385  27.665  1.00  0.00     0.059 A 
ATOM     80  F   UNL A   1      45.997  33.688  26.320  1.00  0.00    -0.206 F 
ATOM     81  C   UNL A   1      47.411  35.792  28.891  1.00  0.00     0.060 A 
BRANCH  81  82
ATOM     82  S   UNL A   1      47.891  37.512  29.152  1.00  0.00     0.124 S 
ATOM     83  O   UNL A   1      48.115  37.533  30.594  1.00  0.00    -0.237 OA
ATOM     84  O   UNL A   1      49.085  37.634  28.322  1.00  0.00    -0.237 OA
ATOM     85  O   UNL A   1      46.729  38.263  28.687  1.00  0.00    -0.744 OA
ENDBRANCH  81  82
ENDBRANCH  60  74
BRANCH  61  86
ATOM     86  C   UNL A   1      43.283  23.819  27.117  1.00  0.00     0.058 A 
ATOM     87  C   UNL A   1      42.844  23.425  25.845  1.00  0.00     0.135 A 
ATOM     88  C   UNL A   1      43.247  22.866  28.148  1.00  0.00     0.135 A 
ATOM     89  F   UNL A   1      42.853  24.304  24.832  1.00  0.00    -0.206 F 
ATOM     90  C   UNL A   1      42.375  22.138  25.603  1.00  0.00     0.059 A 
ATOM     91  C   UNL A   1      42.801  21.567  27.924  1.00  0.00     0.059 A 
ATOM     92  F   UNL A   1      43.668  23.192  29.380  1.00  0.00    -0.206 F 
ATOM     93  C   UNL A   1      42.358  21.216  26.651  1.00  0.00     0.060 A 
BRANCH  93  94
ATOM     94  S   UNL A   1      41.795  19.532  26.316  1.00  0.00     0.124 S 
ATOM     95  O   UNL A   1      42.527  19.215  25.096  1.00  0.00    -0.237 OA
ATOM     96  O   UNL A   1      42.218  18.820  27.518  1.00  0.00    -0.237 OA
ATOM     97  O   UNL A   1      40.352  19.689  26.165  1.00  0.00    -0.744 OA
ENDBRANCH  93  94
ENDBRANCH  61  86
BRANCH  73  98
ATOM     98  C   UNL A   1      49.393  26.973  25.987  1.00  0.00     0.058 A 
ATOM     99  C   UNL A   1      49.679  27.025  24.613  1.00  0.00     0.135 A 
ATOM    100  C   UNL A   1      50.393  26.496  26.849  1.00  0.00     0.135 A 
ATOM    101  F   UNL A   1      48.753  27.468  23.747  1.00  0.00    -0.206 F 
ATOM    102  C   UNL A   1      50.906  26.605  24.112  1.00  0.00     0.059 A 
ATOM    103  C   UNL A   1      51.635  26.091  26.372  1.00  0.00     0.059 A 
ATOM    104  F   UNL A   1      50.172  26.434  28.171  1.00  0.00    -0.206 F 
ATOM    105  C   UNL A   1      51.879  26.138  24.999  1.00  0.00     0.060 A 
BRANCH 105 106
ATOM    106  S   UNL A   1      53.482  25.630  24.342  1.00  0.00     0.124 S 
ATOM    107  O   UNL A   1      54.395  26.451  25.130  1.00  0.00    -0.237 OA
ATOM    108  O   UNL A   1      53.503  24.200  24.632  1.00  0.00    -0.237 OA
ATOM    109  O   UNL A   1      53.391  25.974  22.926  1.00  0.00    -0.744 OA
ENDBRANCH 105 106
ENDBRANCH  73  98
ENDBRANCH  47  48
ENDBRANCH  39  42
ENDBRANCH  37  38
ENDBRANCH  36  37
ENDBRANCH  35  36
ENDBRANCH   1  35
TORSDOF 19
ENDMDL
MODEL 2
REMARK VINA RESULT:     -12.1      0.948      2.288
REMARK SMILES O=C(CN1C(=O)CN(C(=O)OCC2c3ccccc3-c3ccccc32)c2ccccc21)NCCCCNC(=O)c1ccc(-c2c3nc(c(-c4c(F)cc(S(=O)(=O)[O-])cc4F)c4ccc([nH]4)c(-c4c(F)cc(S(=O)(=O)[O-])cc4F)c4nc(c(-c5c(F)cc(S(=O)(=O)[O-])cc5F)c5ccc2[nH]5)C=C4)C=C3)cc1
REMARK SMILES IDX 33 1 32 2 1 3 2 4 3 6 4 7 5 8 31 9 6 10 7 11 26 12 30 13
REMARK SMILES IDX 8 14 27 15 29 16 28 17 9 18 10 19 11 20 12 21 13 22 14 23
REMARK SMILES IDX 25 24 15 25 19 26 20 27 24 28 16 29 18 30 21 31 23 32 17 33
REMARK SMILES IDX 22 34 34 35 35 36 36 37 37 38 38 39 39 41 40 42 41 43 105 44
REMARK SMILES IDX 42 45 104 46 43 47 44 48 45 49 98 50 46 51 103 52 97 53
REMARK SMILES IDX 99 54 47 55 102 56 96 57 95 58 48 60 82 61 61 62 81 63 62 64
REMARK SMILES IDX 65 65 80 66 100 67 63 68 64 69 79 71 101 72 66 73 49 74
REMARK SMILES IDX 50 75 59 76 51 77 52 78 58 79 60 80 53 81 54 82 55 83 56 84
REMARK SMILES IDX 57 85 83 86 84 87 93 88 85 89 86 90 92 91 94 92 87 93 88 94
REMARK SMILES IDX 89 95 90 96 91 97 67 98 68 99 77 100 69 101 70 102 76 103
REMARK SMILES IDX 78 104 71 105 72 106 73 107 74 108 75 109
REMARK H PARENT 32 5 37 40 99 59 65 70
REMARK Flexibility Score: inf
ROOT
ATOM      1  C   UNL A   1      33.399  31.945  27.296  1.00  0.00     0.116 C 
ENDROOT
BRANCH   1   2
ATOM      2  N   UNL A   1      33.781  30.552  27.188  1.00  0.00    -0.355 N 
ATOM      3  O   UNL A   1      32.006  29.943  25.879  1.00  0.00    -0.273 OA
ATOM      4  C   UNL A   1      33.123  29.693  26.333  1.00  0.00     0.240 C 
ATOM      5  H   UNL A   1      34.524  30.209  27.737  1.00  0.00     0.163 HD
BRANCH   4   6
ATOM      6  C   UNL A   1      33.774  28.313  26.102  1.00  0.00     0.225 C 
BRANCH   6   7
ATOM      7  N   UNL A   1      33.409  27.558  24.892  1.00  0.00    -0.299 N 
ATOM      8  C   UNL A   1      33.853  28.055  23.673  1.00  0.00     0.247 C 
ATOM      9  C   UNL A   1      32.356  26.578  24.919  1.00  0.00     0.068 A 
ATOM     10  O   UNL A   1      34.496  29.102  23.575  1.00  0.00    -0.272 OA
ATOM     11  C   UNL A   1      33.480  27.288  22.423  1.00  0.00     0.229 C 
ATOM     12  C   UNL A   1      32.070  25.804  23.768  1.00  0.00     0.071 A 
ATOM     13  C   UNL A   1      31.598  26.355  26.084  1.00  0.00     0.028 A 
ATOM     14  N   UNL A   1      32.862  25.988  22.596  1.00  0.00    -0.266 N 
ATOM     15  C   UNL A   1      31.070  24.820  23.843  1.00  0.00     0.029 A 
ATOM     16  C   UNL A   1      30.599  25.381  26.131  1.00  0.00     0.002 A 
ATOM     17  C   UNL A   1      30.338  24.610  25.012  1.00  0.00     0.002 A 
BRANCH  14  18
ATOM     18  C   UNL A   1      33.013  25.017  21.603  1.00  0.00     0.414 C 
ATOM     19  O   UNL A   1      32.943  25.200  20.400  1.00  0.00    -0.224 OA
BRANCH  18  20
ATOM     20  O   UNL A   1      33.121  23.767  22.154  1.00  0.00    -0.448 OA
BRANCH  20  21
ATOM     21  C   UNL A   1      34.415  23.440  22.701  1.00  0.00     0.248 C 
BRANCH  21  22
ATOM     22  C   UNL A   1      34.318  22.903  24.148  1.00  0.00     0.088 C 
ATOM     23  C   UNL A   1      33.837  21.458  24.254  1.00  0.00    -0.029 A 
ATOM     24  C   UNL A   1      35.716  22.799  24.753  1.00  0.00    -0.029 A 
ATOM     25  C   UNL A   1      32.572  20.938  24.021  1.00  0.00     0.005 A 
ATOM     26  C   UNL A   1      34.888  20.624  24.689  1.00  0.00    -0.014 A 
ATOM     27  C   UNL A   1      36.031  21.446  25.013  1.00  0.00    -0.014 A 
ATOM     28  C   UNL A   1      36.621  23.814  25.028  1.00  0.00     0.005 A 
ATOM     29  C   UNL A   1      32.391  19.558  24.117  1.00  0.00     0.000 A 
ATOM     30  C   UNL A   1      34.708  19.254  24.791  1.00  0.00     0.009 A 
ATOM     31  C   UNL A   1      37.262  21.097  25.539  1.00  0.00     0.009 A 
ATOM     32  C   UNL A   1      37.863  23.459  25.556  1.00  0.00     0.000 A 
ATOM     33  C   UNL A   1      33.454  18.720  24.483  1.00  0.00     0.001 A 
ATOM     34  C   UNL A   1      38.181  22.113  25.803  1.00  0.00     0.001 A 
ENDBRANCH  21  22
ENDBRANCH  20  21
ENDBRANCH  18  20
ENDBRANCH  14  18
ENDBRANCH   6   7
ENDBRANCH   4   6
ENDBRANCH   1   2
BRANCH   1  35
ATOM     35  C   UNL A   1      34.186  32.718  28.349  1.00  0.00     0.023 C 
BRANCH  35  36
ATOM     36  C   UNL A   1      35.663  32.946  28.024  1.00  0.00     0.023 C 
BRANCH  36  37
ATOM     37  C   UNL A   1      36.636  32.806  29.193  1.00  0.00     0.116 C 
BRANCH  37  38
ATOM     38  N   UNL A   1      36.104  32.028  30.300  1.00  0.00    -0.352 N 
ATOM     39  C   UNL A   1      36.594  30.878  30.874  1.00  0.00     0.251 C 
ATOM     40  H   UNL A   1      35.273  32.374  30.696  1.00  0.00     0.163 HD
ATOM     41  O   UNL A   1      35.937  30.305  31.740  1.00  0.00    -0.269 OA
BRANCH  39  42
ATOM     42  C   UNL A   1      37.889  30.307  30.432  1.00  0.00     0.039 A 
ATOM     43  C   UNL A   1      38.143  30.206  29.060  1.00  0.00     0.014 A 
ATOM     44  C   UNL A   1      38.848  29.871  31.351  1.00  0.00     0.014 A 
ATOM     45  C   UNL A   1      39.382  29.741  28.613  1.00  0.00     0.010 A 
ATOM     46  C   UNL A   1      40.108  29.467  30.905  1.00  0.00     0.010 A 
ATOM     47  C   UNL A   1      40.390  29.404  29.532  1.00  0.00    -0.014 A 
BRANCH  47  48
ATOM     48  C   UNL A   1      41.748  29.007  29.074  1.00  0.00     0.031 A 
ATOM     49  C   UNL A   1      42.857  30.023  29.008  1.00  0.00     0.074 A 
ATOM     50  C   UNL A   1      41.967  27.744  28.655  1.00  0.00     0.049 A 
ATOM     51  N   UNL A   1      44.084  29.880  28.576  1.00  0.00    -0.248 NA
ATOM     52  C   UNL A   1      42.539  31.381  29.474  1.00  0.00     0.031 C 
ATOM     53  C   UNL A   1      40.964  26.675  28.631  1.00  0.00     0.029 A 
ATOM     54  N   UNL A   1      43.098  27.147  28.159  1.00  0.00    -0.354 N 
ATOM     55  C   UNL A   1      44.679  31.131  28.701  1.00  0.00     0.074 A 
ATOM     56  C   UNL A   1      43.667  32.027  29.215  1.00  0.00     0.031 C 
ATOM     57  C   UNL A   1      41.530  25.552  28.159  1.00  0.00     0.029 A 
ATOM     58  C   UNL A   1      42.921  25.827  27.815  1.00  0.00     0.049 A 
ATOM     59  H   UNL A   1      43.956  27.620  28.057  1.00  0.00     0.167 HD
ATOM     60  C   UNL A   1      45.957  31.493  28.430  1.00  0.00     0.037 A 
ATOM     61  C   UNL A   1      43.779  24.940  27.274  1.00  0.00     0.037 A 
ATOM     62  C   UNL A   1      46.966  30.591  27.936  1.00  0.00     0.049 A 
ATOM     63  C   UNL A   1      45.190  25.368  26.973  1.00  0.00     0.074 A 
ATOM     64  C   UNL A   1      48.302  30.848  27.686  1.00  0.00     0.029 A 
ATOM     65  N   UNL A   1      46.748  29.260  27.611  1.00  0.00    -0.354 N 
ATOM     66  N   UNL A   1      45.751  26.540  27.152  1.00  0.00    -0.248 NA
ATOM     67  C   UNL A   1      46.085  24.353  26.400  1.00  0.00     0.031 C 
ATOM     68  C   UNL A   1      48.885  29.684  27.174  1.00  0.00     0.029 A 
ATOM     69  C   UNL A   1      47.921  28.689  27.146  1.00  0.00     0.049 A 
ATOM     70  H   UNL A   1      45.887  28.790  27.699  1.00  0.00     0.167 HD
ATOM     71  C   UNL A   1      47.069  26.396  26.738  1.00  0.00     0.074 A 
ATOM     72  C   UNL A   1      47.226  25.023  26.306  1.00  0.00     0.031 C 
ATOM     73  C   UNL A   1      48.063  27.319  26.722  1.00  0.00     0.037 A 
BRANCH  60  74
ATOM     74  C   UNL A   1      46.339  32.929  28.661  1.00  0.00     0.058 A 
ATOM     75  C   UNL A   1      46.181  33.904  27.663  1.00  0.00     0.135 A 
ATOM     76  C   UNL A   1      46.839  33.345  29.906  1.00  0.00     0.135 A 
ATOM     77  F   UNL A   1      45.704  33.565  26.455  1.00  0.00    -0.206 F 
ATOM     78  C   UNL A   1      46.552  35.229  27.876  1.00  0.00     0.059 A 
ATOM     79  C   UNL A   1      47.203  34.666  30.145  1.00  0.00     0.059 A 
ATOM     80  F   UNL A   1      46.975  32.464  30.908  1.00  0.00    -0.206 F 
ATOM     81  C   UNL A   1      47.071  35.597  29.118  1.00  0.00     0.060 A 
BRANCH  81  82
ATOM     82  S   UNL A   1      47.568  37.314  29.373  1.00  0.00     0.124 S 
ATOM     83  O   UNL A   1      49.007  37.234  29.144  1.00  0.00    -0.237 OA
ATOM     84  O   UNL A   1      46.801  38.017  28.350  1.00  0.00    -0.237 OA
ATOM     85  O   UNL A   1      47.165  37.582  30.749  1.00  0.00    -0.744 OA
ENDBRANCH  81  82
ENDBRANCH  60  74
BRANCH  61  86
ATOM     86  C   UNL A   1      43.334  23.549  27.001  1.00  0.00     0.058 A 
ATOM     87  C   UNL A   1      43.080  23.121  25.690  1.00  0.00     0.135 A 
ATOM     88  C   UNL A   1      43.166  22.619  28.038  1.00  0.00     0.135 A 
ATOM     89  F   UNL A   1      43.221  23.978  24.667  1.00  0.00    -0.206 F 
ATOM     90  C   UNL A   1      42.662  21.824  25.415  1.00  0.00     0.059 A 
ATOM     91  C   UNL A   1      42.768  21.309  27.786  1.00  0.00     0.059 A 
ATOM     92  F   UNL A   1      43.409  22.977  29.309  1.00  0.00    -0.206 F 
ATOM     93  C   UNL A   1      42.510  20.924  26.472  1.00  0.00     0.060 A 
BRANCH  93  94
ATOM     94  S   UNL A   1      42.016  19.226  26.102  1.00  0.00     0.124 S 
ATOM     95  O   UNL A   1      40.578  19.375  25.910  1.00  0.00    -0.237 OA
ATOM     96  O   UNL A   1      42.793  18.932  24.902  1.00  0.00    -0.237 OA
ATOM     97  O   UNL A   1      42.422  18.494  27.298  1.00  0.00    -0.744 OA
ENDBRANCH  93  94
ENDBRANCH  61  86
BRANCH  73  98
ATOM     98  C   UNL A   1      49.415  26.869  26.249  1.00  0.00     0.058 A 
ATOM     99  C   UNL A   1      50.307  26.200  27.101  1.00  0.00     0.135 A 
ATOM    100  C   UNL A   1      49.803  27.065  24.914  1.00  0.00     0.135 A 
ATOM    101  F   UNL A   1      49.985  25.994  28.389  1.00  0.00    -0.206 F 
ATOM    102  C   UNL A   1      51.545  25.755  26.650  1.00  0.00     0.059 A 
ATOM    103  C   UNL A   1      51.027  26.610  24.436  1.00  0.00     0.059 A 
ATOM    104  F   UNL A   1      48.982  27.692  24.057  1.00  0.00    -0.206 F 
ATOM    105  C   UNL A   1      51.897  25.965  25.315  1.00  0.00     0.060 A 
BRANCH 105 106
ATOM    106  S   UNL A   1      53.491  25.350  24.730  1.00  0.00     0.124 S 
ATOM    107  O   UNL A   1      53.423  23.945  25.116  1.00  0.00    -0.237 OA
ATOM    108  O   UNL A   1      53.426  25.618  23.297  1.00  0.00    -0.237 OA
ATOM    109  O   UNL A   1      54.457  26.159  25.469  1.00  0.00    -0.744 OA
ENDBRANCH 105 106
ENDBRANCH  73  98
ENDBRANCH  47  48
ENDBRANCH  39  42
ENDBRANCH  37  38
ENDBRANCH  36  37
ENDBRANCH  35  36
ENDBRANCH   1  35
TORSDOF 19
ENDMDL
MODEL 3
REMARK VINA RESULT:     -11.9      1.061      7.960
REMARK SMILES O=C(CN1C(=O)CN(C(=O)OCC2c3ccccc3-c3ccccc32)c2ccccc21)NCCCCNC(=O)c1ccc(-c2c3nc(c(-c4c(F)cc(S(=O)(=O)[O-])cc4F)c4ccc([nH]4)c(-c4c(F)cc(S(=O)(=O)[O-])cc4F)c4nc(c(-c5c(F)cc(S(=O)(=O)[O-])cc5F)c5ccc2[nH]5)C=C4)C=C3)cc1
REMARK SMILES IDX 33 1 32 2 1 3 2 4 3 6 4 7 5 8 31 9 6 10 7 11 26 12 30 13
REMARK SMILES IDX 8 14 27 15 29 16 28 17 9 18 10 19 11 20 12 21 13 22 14 23
REMARK SMILES IDX 25 24 15 25 19 26 20 27 24 28 16 29 18 30 21 31 23 32 17 33
REMARK SMILES IDX 22 34 34 35 35 36 36 37 37 38 38 39 39 41 40 42 41 43 105 44
REMARK SMILES IDX 42 45 104 46 43 47 44 48 45 49 98 50 46 51 103 52 97 53
REMARK SMILES IDX 99 54 47 55 102 56 96 57 95 58 48 60 82 61 61 62 81 63 62 64
REMARK SMILES IDX 65 65 80 66 100 67 63 68 64 69 79 71 101 72 66 73 49 74
REMARK SMILES IDX 50 75 59 76 51 77 52 78 58 79 60 80 53 81 54 82 55 83 56 84
REMARK SMILES IDX 57 85 83 86 84 87 93 88 85 89 86 90 92 91 94 92 87 93 88 94
REMARK SMILES IDX 89 95 90 96 91 97 67 98 68 99 77 100 69 101 70 102 76 103
REMARK SMILES IDX 78 104 71 105 72 106 73 107 74 108 75 109
REMARK H PARENT 32 5 37 40 99 59 65 70
REMARK Flexibility Score: inf
ROOT
ATOM      1  C   UNL A   1      33.086  31.994  27.592  1.00  0.00     0.116 C 
ENDROOT
BRANCH   1   2
ATOM      2  N   UNL A   1      33.498  30.618  27.396  1.00  0.00    -0.355 N 
ATOM      3  O   UNL A   1      32.090  30.220  25.636  1.00  0.00    -0.273 OA
ATOM      4  C   UNL A   1      33.071  29.891  26.305  1.00  0.00     0.240 C 
ATOM      5  H   UNL A   1      34.093  30.193  28.055  1.00  0.00     0.163 HD
BRANCH   4   6
ATOM      6  C   UNL A   1      33.773  28.540  26.055  1.00  0.00     0.225 C 
BRANCH   6   7
ATOM      7  N   UNL A   1      33.378  27.750  24.879  1.00  0.00    -0.299 N 
ATOM      8  C   UNL A   1      33.913  28.122  23.652  1.00  0.00     0.247 C 
ATOM      9  C   UNL A   1      32.231  26.882  24.920  1.00  0.00     0.068 A 
ATOM     10  O   UNL A   1      34.661  29.092  23.518  1.00  0.00    -0.272 OA
ATOM     11  C   UNL A   1      33.509  27.317  22.435  1.00  0.00     0.229 C 
ATOM     12  C   UNL A   1      31.909  26.068  23.806  1.00  0.00     0.071 A 
ATOM     13  C   UNL A   1      31.413  26.809  26.064  1.00  0.00     0.028 A 
ATOM     14  N   UNL A   1      32.757  26.097  22.660  1.00  0.00    -0.266 N 
ATOM     15  C   UNL A   1      30.813  25.193  23.898  1.00  0.00     0.029 A 
ATOM     16  C   UNL A   1      30.320  25.943  26.127  1.00  0.00     0.002 A 
ATOM     17  C   UNL A   1      30.023  25.132  25.045  1.00  0.00     0.002 A 
BRANCH  14  18
ATOM     18  C   UNL A   1      32.844  25.056  21.734  1.00  0.00     0.414 C 
ATOM     19  O   UNL A   1      32.925  25.173  20.523  1.00  0.00    -0.224 OA
BRANCH  18  20
ATOM     20  O   UNL A   1      32.691  23.840  22.349  1.00  0.00    -0.448 OA
BRANCH  20  21
ATOM     21  C   UNL A   1      33.916  23.150  22.670  1.00  0.00     0.248 C 
BRANCH  21  22
ATOM     22  C   UNL A   1      33.909  22.588  24.111  1.00  0.00     0.088 C 
ATOM     23  C   UNL A   1      33.659  21.084  24.201  1.00  0.00    -0.029 A 
ATOM     24  C   UNL A   1      35.307  22.697  24.713  1.00  0.00    -0.029 A 
ATOM     25  C   UNL A   1      32.490  20.376  23.963  1.00  0.00     0.005 A 
ATOM     26  C   UNL A   1      34.829  20.420  24.625  1.00  0.00    -0.014 A 
ATOM     27  C   UNL A   1      35.831  21.407  24.957  1.00  0.00    -0.014 A 
ATOM     28  C   UNL A   1      36.044  23.837  24.998  1.00  0.00     0.005 A 
ATOM     29  C   UNL A   1      32.527  18.983  24.044  1.00  0.00     0.000 A 
ATOM     30  C   UNL A   1      34.866  19.038  24.711  1.00  0.00     0.009 A 
ATOM     31  C   UNL A   1      37.102  21.248  25.477  1.00  0.00     0.009 A 
ATOM     32  C   UNL A   1      37.328  23.675  25.520  1.00  0.00     0.000 A 
ATOM     33  C   UNL A   1      33.709  18.318  24.399  1.00  0.00     0.001 A 
ATOM     34  C   UNL A   1      37.852  22.392  25.752  1.00  0.00     0.001 A 
ENDBRANCH  21  22
ENDBRANCH  20  21
ENDBRANCH  18  20
ENDBRANCH  14  18
ENDBRANCH   6   7
ENDBRANCH   4   6
ENDBRANCH   1   2
BRANCH   1  35
ATOM     35  C   UNL A   1      34.026  32.795  28.486  1.00  0.00     0.023 C 
BRANCH  35  36
ATOM     36  C   UNL A   1      35.479  32.864  28.010  1.00  0.00     0.023 C 
BRANCH  36  37
ATOM     37  C   UNL A   1      36.539  32.469  29.036  1.00  0.00     0.116 C 
BRANCH  37  38
ATOM     38  N   UNL A   1      36.044  31.565  30.061  1.00  0.00    -0.352 N 
ATOM     39  C   UNL A   1      36.586  30.388  30.524  1.00  0.00     0.251 C 
ATOM     40  H   UNL A   1      35.199  31.834  30.487  1.00  0.00     0.163 HD
ATOM     41  O   UNL A   1      35.957  29.706  31.329  1.00  0.00    -0.269 OA
BRANCH  39  42
ATOM     42  C   UNL A   1      37.905  29.921  30.033  1.00  0.00     0.039 A 
ATOM     43  C   UNL A   1      38.105  29.812  28.653  1.00  0.00     0.014 A 
ATOM     44  C   UNL A   1      38.938  29.589  30.914  1.00  0.00     0.014 A 
ATOM     45  C   UNL A   1      39.359  29.446  28.157  1.00  0.00     0.010 A 
ATOM     46  C   UNL A   1      40.207  29.285  30.418  1.00  0.00     0.010 A 
ATOM     47  C   UNL A   1      40.432  29.216  29.034  1.00  0.00    -0.014 A 
BRANCH  47  48
ATOM     48  C   UNL A   1      41.798  28.927  28.521  1.00  0.00     0.031 A 
ATOM     49  C   UNL A   1      42.166  27.537  28.077  1.00  0.00     0.074 A 
ATOM     50  C   UNL A   1      42.727  29.904  28.516  1.00  0.00     0.049 A 
ATOM     51  N   UNL A   1      43.320  27.081  27.662  1.00  0.00    -0.248 NA
ATOM     52  C   UNL A   1      41.100  26.525  28.118  1.00  0.00     0.031 C 
ATOM     53  C   UNL A   1      42.508  31.284  28.960  1.00  0.00     0.029 A 
ATOM     54  N   UNL A   1      44.046  29.885  28.136  1.00  0.00    -0.354 N 
ATOM     55  C   UNL A   1      43.126  25.727  27.411  1.00  0.00     0.074 A 
ATOM     56  C   UNL A   1      41.752  25.429  27.755  1.00  0.00     0.031 C 
ATOM     57  C   UNL A   1      43.647  31.979  28.813  1.00  0.00     0.029 A 
ATOM     58  C   UNL A   1      44.686  31.092  28.299  1.00  0.00     0.049 A 
ATOM     59  H   UNL A   1      44.493  29.082  27.782  1.00  0.00     0.167 HD
ATOM     60  C   UNL A   1      44.006  24.820  26.921  1.00  0.00     0.037 A 
ATOM     61  C   UNL A   1      45.966  31.442  28.070  1.00  0.00     0.037 A 
ATOM     62  C   UNL A   1      45.367  25.126  26.563  1.00  0.00     0.049 A 
ATOM     63  C   UNL A   1      46.927  30.415  27.535  1.00  0.00     0.074 A 
ATOM     64  C   UNL A   1      46.319  24.291  26.005  1.00  0.00     0.029 A 
ATOM     65  N   UNL A   1      45.973  26.363  26.733  1.00  0.00    -0.354 N 
ATOM     66  N   UNL A   1      46.710  29.154  27.250  1.00  0.00    -0.248 NA
ATOM     67  C   UNL A   1      48.306  30.860  27.289  1.00  0.00     0.031 C 
ATOM     68  C   UNL A   1      47.511  25.011  25.872  1.00  0.00     0.029 A 
ATOM     69  C   UNL A   1      47.290  26.307  26.308  1.00  0.00     0.049 A 
ATOM     70  H   UNL A   1      45.531  27.162  27.102  1.00  0.00     0.167 HD
ATOM     71  C   UNL A   1      47.916  28.662  26.766  1.00  0.00     0.074 A 
ATOM     72  C   UNL A   1      48.859  29.762  26.792  1.00  0.00     0.031 C 
ATOM     73  C   UNL A   1      48.215  27.412  26.337  1.00  0.00     0.037 A 
BRANCH  60  74
ATOM     74  C   UNL A   1      43.525  23.406  26.744  1.00  0.00     0.058 A 
ATOM     75  C   UNL A   1      43.294  22.562  27.842  1.00  0.00     0.135 A 
ATOM     76  C   UNL A   1      43.260  22.896  25.463  1.00  0.00     0.135 A 
ATOM     77  F   UNL A   1      43.526  22.997  29.090  1.00  0.00    -0.206 F 
ATOM     78  C   UNL A   1      42.865  21.249  27.672  1.00  0.00     0.059 A 
ATOM     79  C   UNL A   1      42.818  21.591  25.269  1.00  0.00     0.059 A 
ATOM     80  F   UNL A   1      43.427  23.669  24.379  1.00  0.00    -0.206 F 
ATOM     81  C   UNL A   1      42.640  20.770  26.380  1.00  0.00     0.060 A 
BRANCH  81  82
ATOM     82  S   UNL A   1      42.105  19.059  26.174  1.00  0.00     0.124 S 
ATOM     83  O   UNL A   1      43.029  18.591  25.145  1.00  0.00    -0.237 OA
ATOM     84  O   UNL A   1      42.307  18.504  27.508  1.00  0.00    -0.237 OA
ATOM     85  O   UNL A   1      40.713  19.187  25.755  1.00  0.00    -0.744 OA
ENDBRANCH  81  82
ENDBRANCH  60  74
BRANCH  61  86
ATOM     86  C   UNL A   1      46.411  32.837  28.326  1.00  0.00     0.058 A 
ATOM     87  C   UNL A   1      46.969  33.197  29.561  1.00  0.00     0.135 A 
ATOM     88  C   UNL A   1      46.299  33.831  27.342  1.00  0.00     0.135 A 
ATOM     89  F   UNL A   1      47.089  32.281  30.534  1.00  0.00    -0.206 F 
ATOM     90  C   UNL A   1      47.390  34.497  29.819  1.00  0.00     0.059 A 
ATOM     91  C   UNL A   1      46.732  35.134  27.569  1.00  0.00     0.059 A 
ATOM     92  F   UNL A   1      45.783  33.532  26.139  1.00  0.00    -0.206 F 
ATOM     93  C   UNL A   1      47.268  35.459  28.814  1.00  0.00     0.060 A 
BRANCH  93  94
ATOM     94  S   UNL A   1      47.863  37.134  29.139  1.00  0.00     0.124 S 
ATOM     95  O   UNL A   1      46.860  37.939  28.454  1.00  0.00    -0.237 OA
ATOM     96  O   UNL A   1      47.841  37.192  30.597  1.00  0.00    -0.237 OA
ATOM     97  O   UNL A   1      49.193  37.135  28.539  1.00  0.00    -0.744 OA
ENDBRANCH  93  94
ENDBRANCH  61  86
BRANCH  73  98
ATOM     98  C   UNL A   1      49.608  27.170  25.830  1.00  0.00     0.058 A 
ATOM     99  C   UNL A   1      50.629  26.707  26.676  1.00  0.00     0.135 A 
ATOM    100  C   UNL A   1      49.913  27.355  24.472  1.00  0.00     0.135 A 
ATOM    101  F   UNL A   1      50.389  26.521  27.984  1.00  0.00    -0.206 F 
ATOM    102  C   UNL A   1      51.909  26.452  26.195  1.00  0.00     0.059 A 
ATOM    103  C   UNL A   1      51.180  27.086  23.966  1.00  0.00     0.059 A 
ATOM    104  F   UNL A   1      48.970  27.788  23.621  1.00  0.00    -0.206 F 
ATOM    105  C   UNL A   1      52.175  26.645  24.838  1.00  0.00     0.060 A 
BRANCH 105 106
ATOM    106  S   UNL A   1      53.830  26.274  24.217  1.00  0.00     0.124 S 
ATOM    107  O   UNL A   1      53.528  25.640  22.938  1.00  0.00    -0.237 OA
ATOM    108  O   UNL A   1      54.441  27.597  24.140  1.00  0.00    -0.237 OA
ATOM    109  O   UNL A   1      54.385  25.393  25.240  1.00  0.00    -0.744 OA
ENDBRANCH 105 106
ENDBRANCH  73  98
ENDBRANCH  47  48
ENDBRANCH  39  42
ENDBRANCH  37  38
ENDBRANCH  36  37
ENDBRANCH  35  36
ENDBRANCH   1  35
TORSDOF 19
ENDMDL
