MODEL 1
REMARK VINA RESULT:     -11.0      0.000      0.000
REMARK SMILES C[C@@H](C(=O)NCCCCNC(=O)c1ccc(-c2c3nc(c(-c4c(F)cc(S(=O)(=O)[O-])cc4F)c4ccc([nH]4)c(-c4c(F)cc(S(=O)(=O)[O-])cc4F)c4nc(c(-c5c(F)cc(S(=O)(=O)[O-])cc5F)c5ccc2[nH]5)C=C4)C=C3)cc1)N1C(=O)CC2(CCCC2)C1=O
REMARK SMILES IDX 8 1 7 2 6 3 5 4 3 5 4 6 2 8 1 9 79 10 80 11 88 12 81 13
REMARK SMILES IDX 82 14 83 15 89 16 84 17 87 18 85 19 86 20 9 21 10 22 11 23
REMARK SMILES IDX 12 25 13 26 14 27 78 28 15 29 77 30 16 31 17 32 18 33 71 34
REMARK SMILES IDX 19 35 76 36 70 37 72 38 20 39 75 40 69 41 68 42 21 44 55 45
REMARK SMILES IDX 34 46 54 47 35 48 38 49 53 50 73 51 36 52 37 53 52 55 74 56
REMARK SMILES IDX 39 57 22 58 23 59 32 60 24 61 25 62 31 63 33 64 26 65 27 66
REMARK SMILES IDX 28 67 29 68 30 69 56 70 57 71 66 72 58 73 59 74 65 75 67 76
REMARK SMILES IDX 60 77 61 78 62 79 63 80 64 81 40 82 41 83 50 84 42 85 43 86
REMARK SMILES IDX 49 87 51 88 44 89 45 90 46 91 47 92 48 93
REMARK H PARENT 5 7 10 24 72 43 38 54
REMARK Flexibility Score: inf
ROOT
ATOM      1  C   UNL A   1      32.741  27.609  26.488  1.00  0.00     0.023 C 
ENDROOT
BRANCH   1   2
ATOM      2  C   UNL A   1      33.034  26.169  26.071  1.00  0.00     0.023 C 
BRANCH   2   3
ATOM      3  C   UNL A   1      32.297  25.691  24.821  1.00  0.00     0.116 C 
BRANCH   3   4
ATOM      4  N   UNL A   1      31.348  24.632  25.099  1.00  0.00    -0.354 N 
ATOM      5  C   UNL A   1      31.453  23.288  24.871  1.00  0.00     0.243 C 
ATOM      6  O   UNL A   1      30.649  22.561  25.459  1.00  0.00    -0.273 OA
ATOM      7  H   UNL A   1      30.504  24.923  25.514  1.00  0.00     0.163 HD
BRANCH   5   8
ATOM      8  C   UNL A   1      32.594  22.732  23.988  1.00  0.00     0.179 C 
ATOM      9  C   UNL A   1      32.280  21.441  23.240  1.00  0.00     0.042 C 
BRANCH   8  10
ATOM     10  N   UNL A   1      33.820  22.566  24.768  1.00  0.00    -0.270 N 
ATOM     11  C   UNL A   1      33.996  21.632  25.749  1.00  0.00     0.231 C 
ATOM     12  C   UNL A   1      35.013  23.082  24.351  1.00  0.00     0.236 C 
ATOM     13  O   UNL A   1      33.235  20.727  26.062  1.00  0.00    -0.274 OA
ATOM     14  C   UNL A   1      35.344  21.854  26.372  1.00  0.00     0.117 C 
ATOM     15  C   UNL A   1      36.106  22.582  25.266  1.00  0.00     0.059 C 
ATOM     16  O   UNL A   1      35.197  23.751  23.344  1.00  0.00    -0.274 OA
ATOM     17  C   UNL A   1      36.999  23.720  25.746  1.00  0.00     0.017 C 
ATOM     18  C   UNL A   1      37.091  21.662  24.538  1.00  0.00     0.017 C 
ATOM     19  C   UNL A   1      38.323  23.065  26.113  1.00  0.00     0.001 C 
ATOM     20  C   UNL A   1      38.358  21.721  25.388  1.00  0.00     0.001 C 
ENDBRANCH   8  10
ENDBRANCH   5   8
ENDBRANCH   3   4
ENDBRANCH   2   3
ENDBRANCH   1   2
BRANCH   1  21
ATOM     21  C   UNL A   1      33.925  28.562  26.419  1.00  0.00     0.116 C 
BRANCH  21  22
ATOM     22  N   UNL A   1      33.683  29.819  27.109  1.00  0.00    -0.352 N 
ATOM     23  C   UNL A   1      34.495  30.489  27.993  1.00  0.00     0.251 C 
ATOM     24  H   UNL A   1      32.818  30.249  26.917  1.00  0.00     0.163 HD
ATOM     25  O   UNL A   1      34.068  31.470  28.593  1.00  0.00    -0.269 OA
BRANCH  23  26
ATOM     26  C   UNL A   1      35.871  30.004  28.235  1.00  0.00     0.039 A 
ATOM     27  C   UNL A   1      36.810  30.085  27.203  1.00  0.00     0.014 A 
ATOM     28  C   UNL A   1      36.239  29.487  29.479  1.00  0.00     0.014 A 
ATOM     29  C   UNL A   1      38.132  29.701  27.440  1.00  0.00     0.010 A 
ATOM     30  C   UNL A   1      37.572  29.187  29.738  1.00  0.00     0.010 A 
ATOM     31  C   UNL A   1      38.531  29.278  28.718  1.00  0.00    -0.014 A 
BRANCH  31  32
ATOM     32  C   UNL A   1      39.940  28.904  29.004  1.00  0.00     0.031 A 
ATOM     33  C   UNL A   1      40.875  29.908  29.623  1.00  0.00     0.074 A 
ATOM     34  C   UNL A   1      40.396  27.685  28.650  1.00  0.00     0.049 A 
ATOM     35  N   UNL A   1      42.148  29.793  29.901  1.00  0.00    -0.248 NA
ATOM     36  C   UNL A   1      40.308  31.227  29.946  1.00  0.00     0.031 C 
ATOM     37  C   UNL A   1      39.602  26.640  28.002  1.00  0.00     0.029 A 
ATOM     38  N   UNL A   1      41.641  27.122  28.782  1.00  0.00    -0.354 N 
ATOM     39  C   UNL A   1      42.537  31.026  30.413  1.00  0.00     0.074 A 
ATOM     40  C   UNL A   1      41.380  31.893  30.347  1.00  0.00     0.031 C 
ATOM     41  C   UNL A   1      40.370  25.553  27.823  1.00  0.00     0.029 A 
ATOM     42  C   UNL A   1      41.719  25.836  28.303  1.00  0.00     0.049 A 
ATOM     43  H   UNL A   1      42.406  27.595  29.183  1.00  0.00     0.167 HD
ATOM     44  C   UNL A   1      43.739  31.396  30.917  1.00  0.00     0.037 A 
ATOM     45  C   UNL A   1      42.759  24.981  28.254  1.00  0.00     0.037 A 
ATOM     46  C   UNL A   1      44.880  30.521  30.992  1.00  0.00     0.049 A 
ATOM     47  C   UNL A   1      44.089  25.415  28.809  1.00  0.00     0.074 A 
ATOM     48  C   UNL A   1      46.127  30.778  31.533  1.00  0.00     0.029 A 
ATOM     49  N   UNL A   1      44.917  29.222  30.504  1.00  0.00    -0.354 N 
ATOM     50  N   UNL A   1      44.424  26.561  29.350  1.00  0.00    -0.248 NA
ATOM     51  C   UNL A   1      45.182  24.434  28.754  1.00  0.00     0.031 C 
ATOM     52  C   UNL A   1      46.935  29.655  31.323  1.00  0.00     0.029 A 
ATOM     53  C   UNL A   1      46.173  28.674  30.708  1.00  0.00     0.049 A 
ATOM     54  H   UNL A   1      44.161  28.758  30.075  1.00  0.00     0.167 HD
ATOM     55  C   UNL A   1      45.754  26.429  29.733  1.00  0.00     0.074 A 
ATOM     56  C   UNL A   1      46.161  25.088  29.365  1.00  0.00     0.031 C 
ATOM     57  C   UNL A   1      46.563  27.333  30.342  1.00  0.00     0.037 A 
BRANCH  44  58
ATOM     58  C   UNL A   1      43.876  32.812  31.412  1.00  0.00     0.058 A 
ATOM     59  C   UNL A   1      43.562  33.171  32.734  1.00  0.00     0.135 A 
ATOM     60  C   UNL A   1      44.327  33.828  30.552  1.00  0.00     0.135 A 
ATOM     61  F   UNL A   1      43.114  32.246  33.597  1.00  0.00    -0.206 F 
ATOM     62  C   UNL A   1      43.638  34.490  33.169  1.00  0.00     0.059 A 
ATOM     63  C   UNL A   1      44.446  35.148  30.978  1.00  0.00     0.059 A 
ATOM     64  F   UNL A   1      44.647  33.545  29.279  1.00  0.00    -0.206 F 
ATOM     65  C   UNL A   1      44.075  35.473  32.281  1.00  0.00     0.060 A 
BRANCH  65  66
ATOM     66  S   UNL A   1      44.139  37.184  32.853  1.00  0.00     0.124 S 
ATOM     67  O   UNL A   1      43.848  37.912  31.622  1.00  0.00    -0.237 OA
ATOM     68  O   UNL A   1      43.091  37.212  33.868  1.00  0.00    -0.237 OA
ATOM     69  O   UNL A   1      45.502  37.324  33.358  1.00  0.00    -0.744 OA
ENDBRANCH  65  66
ENDBRANCH  44  58
BRANCH  45  70
ATOM     70  C   UNL A   1      42.566  23.614  27.698  1.00  0.00     0.058 A 
ATOM     71  C   UNL A   1      42.642  23.384  26.316  1.00  0.00     0.135 A 
ATOM     72  C   UNL A   1      42.340  22.510  28.533  1.00  0.00     0.135 A 
ATOM     73  F   UNL A   1      42.848  24.409  25.475  1.00  0.00    -0.206 F 
ATOM     74  C   UNL A   1      42.495  22.108  25.781  1.00  0.00     0.059 A 
ATOM     75  C   UNL A   1      42.217  21.221  28.024  1.00  0.00     0.059 A 
ATOM     76  F   UNL A   1      42.273  22.674  29.864  1.00  0.00    -0.206 F 
ATOM     77  C   UNL A   1      42.291  21.031  26.645  1.00  0.00     0.060 A 
BRANCH  77  78
ATOM     78  S   UNL A   1      42.176  19.371  25.941  1.00  0.00     0.124 S 
ATOM     79  O   UNL A   1      43.040  19.486  24.772  1.00  0.00    -0.237 OA
ATOM     80  O   UNL A   1      42.683  18.544  27.032  1.00  0.00    -0.237 OA
ATOM     81  O   UNL A   1      40.752  19.223  25.662  1.00  0.00    -0.744 OA
ENDBRANCH  77  78
ENDBRANCH  45  70
BRANCH  57  82
ATOM     82  C   UNL A   1      47.959  26.892  30.693  1.00  0.00     0.058 A 
ATOM     83  C   UNL A   1      49.054  27.136  29.850  1.00  0.00     0.135 A 
ATOM     84  C   UNL A   1      48.210  26.256  31.921  1.00  0.00     0.135 A 
ATOM     85  F   UNL A   1      48.872  27.735  28.662  1.00  0.00    -0.206 F 
ATOM     86  C   UNL A   1      50.343  26.742  30.198  1.00  0.00     0.059 A 
ATOM     87  C   UNL A   1      49.493  25.882  32.304  1.00  0.00     0.059 A 
ATOM     88  F   UNL A   1      47.201  26.007  32.772  1.00  0.00    -0.206 F 
ATOM     89  C   UNL A   1      50.552  26.118  31.429  1.00  0.00     0.060 A 
BRANCH  89  90
ATOM     90  S   UNL A   1      52.233  25.638  31.881  1.00  0.00     0.124 S 
ATOM     91  O   UNL A   1      52.958  25.905  30.644  1.00  0.00    -0.237 OA
ATOM     92  O   UNL A   1      52.525  26.536  32.994  1.00  0.00    -0.237 OA
ATOM     93  O   UNL A   1      52.100  24.228  32.239  1.00  0.00    -0.744 OA
ENDBRANCH  89  90
ENDBRANCH  57  82
ENDBRANCH  31  32
ENDBRANCH  23  26
ENDBRANCH  21  22
ENDBRANCH   1  21
TORSDOF 15
ENDMDL
MODEL 2
REMARK VINA RESULT:     -10.9      2.912      9.505
REMARK SMILES C[C@@H](C(=O)NCCCCNC(=O)c1ccc(-c2c3nc(c(-c4c(F)cc(S(=O)(=O)[O-])cc4F)c4ccc([nH]4)c(-c4c(F)cc(S(=O)(=O)[O-])cc4F)c4nc(c(-c5c(F)cc(S(=O)(=O)[O-])cc5F)c5ccc2[nH]5)C=C4)C=C3)cc1)N1C(=O)CC2(CCCC2)C1=O
REMARK SMILES IDX 8 1 7 2 6 3 5 4 3 5 4 6 2 8 1 9 79 10 80 11 88 12 81 13
REMARK SMILES IDX 82 14 83 15 89 16 84 17 87 18 85 19 86 20 9 21 10 22 11 23
REMARK SMILES IDX 12 25 13 26 14 27 78 28 15 29 77 30 16 31 17 32 18 33 71 34
REMARK SMILES IDX 19 35 76 36 70 37 72 38 20 39 75 40 69 41 68 42 21 44 55 45
REMARK SMILES IDX 34 46 54 47 35 48 38 49 53 50 73 51 36 52 37 53 52 55 74 56
REMARK SMILES IDX 39 57 22 58 23 59 32 60 24 61 25 62 31 63 33 64 26 65 27 66
REMARK SMILES IDX 28 67 29 68 30 69 56 70 57 71 66 72 58 73 59 74 65 75 67 76
REMARK SMILES IDX 60 77 61 78 62 79 63 80 64 81 40 82 41 83 50 84 42 85 43 86
REMARK SMILES IDX 49 87 51 88 44 89 45 90 46 91 47 92 48 93
REMARK H PARENT 5 7 10 24 72 43 38 54
REMARK Flexibility Score: inf
ROOT
ATOM      1  C   UNL A   1      35.638  23.724  25.841  1.00  0.00     0.023 C 
ENDROOT
BRANCH   1   2
ATOM      2  C   UNL A   1      34.505  24.671  25.447  1.00  0.00     0.023 C 
BRANCH   2   3
ATOM      3  C   UNL A   1      33.115  24.041  25.407  1.00  0.00     0.116 C 
BRANCH   3   4
ATOM      4  N   UNL A   1      32.486  24.150  24.105  1.00  0.00    -0.354 N 
ATOM      5  C   UNL A   1      31.600  25.081  23.642  1.00  0.00     0.243 C 
ATOM      6  O   UNL A   1      31.439  25.136  22.421  1.00  0.00    -0.273 OA
ATOM      7  H   UNL A   1      32.735  23.450  23.460  1.00  0.00     0.163 HD
BRANCH   5   8
ATOM      8  C   UNL A   1      30.920  26.068  24.620  1.00  0.00     0.179 C 
ATOM      9  C   UNL A   1      29.571  26.617  24.172  1.00  0.00     0.042 C 
BRANCH   8  10
ATOM     10  N   UNL A   1      31.820  27.173  24.951  1.00  0.00    -0.270 N 
ATOM     11  C   UNL A   1      32.223  28.136  24.070  1.00  0.00     0.231 C 
ATOM     12  C   UNL A   1      32.052  27.549  26.242  1.00  0.00     0.236 C 
ATOM     13  O   UNL A   1      31.832  28.309  22.924  1.00  0.00    -0.274 OA
ATOM     14  C   UNL A   1      33.215  29.022  24.766  1.00  0.00     0.117 C 
ATOM     15  C   UNL A   1      32.863  28.824  26.239  1.00  0.00     0.059 C 
ATOM     16  O   UNL A   1      31.595  27.016  27.243  1.00  0.00    -0.274 OA
ATOM     17  C   UNL A   1      34.061  28.727  27.176  1.00  0.00     0.017 C 
ATOM     18  C   UNL A   1      32.078  30.008  26.812  1.00  0.00     0.017 C 
ATOM     19  C   UNL A   1      34.406  30.166  27.538  1.00  0.00     0.001 C 
ATOM     20  C   UNL A   1      33.157  30.997  27.248  1.00  0.00     0.001 C 
ENDBRANCH   8  10
ENDBRANCH   5   8
ENDBRANCH   3   4
ENDBRANCH   2   3
ENDBRANCH   1   2
BRANCH   1  21
ATOM     21  C   UNL A   1      36.931  23.892  25.055  1.00  0.00     0.116 C 
BRANCH  21  22
ATOM     22  N   UNL A   1      37.916  22.867  25.361  1.00  0.00    -0.352 N 
ATOM     23  C   UNL A   1      39.075  22.974  26.093  1.00  0.00     0.251 C 
ATOM     24  H   UNL A   1      37.728  21.973  24.993  1.00  0.00     0.163 HD
ATOM     25  O   UNL A   1      39.865  22.037  26.128  1.00  0.00    -0.269 OA
BRANCH  23  26
ATOM     26  C   UNL A   1      39.374  24.233  26.809  1.00  0.00     0.039 A 
ATOM     27  C   UNL A   1      38.883  24.409  28.105  1.00  0.00     0.014 A 
ATOM     28  C   UNL A   1      40.150  25.229  26.212  1.00  0.00     0.014 A 
ATOM     29  C   UNL A   1      39.220  25.559  28.823  1.00  0.00     0.010 A 
ATOM     30  C   UNL A   1      40.555  26.332  26.958  1.00  0.00     0.010 A 
ATOM     31  C   UNL A   1      40.084  26.516  28.265  1.00  0.00    -0.014 A 
BRANCH  31  32
ATOM     32  C   UNL A   1      40.489  27.727  29.025  1.00  0.00     0.031 A 
ATOM     33  C   UNL A   1      41.825  27.769  29.719  1.00  0.00     0.074 A 
ATOM     34  C   UNL A   1      39.634  28.762  29.144  1.00  0.00     0.049 A 
ATOM     35  N   UNL A   1      42.338  28.708  30.471  1.00  0.00    -0.248 NA
ATOM     36  C   UNL A   1      42.684  26.584  29.569  1.00  0.00     0.031 C 
ATOM     37  C   UNL A   1      38.294  28.824  28.558  1.00  0.00     0.029 A 
ATOM     38  N   UNL A   1      39.763  29.960  29.803  1.00  0.00    -0.354 N 
ATOM     39  C   UNL A   1      43.569  28.221  30.897  1.00  0.00     0.074 A 
ATOM     40  C   UNL A   1      43.695  26.879  30.372  1.00  0.00     0.031 C 
ATOM     41  C   UNL A   1      37.738  30.010  28.855  1.00  0.00     0.029 A 
ATOM     42  C   UNL A   1      38.662  30.775  29.687  1.00  0.00     0.049 A 
ATOM     43  H   UNL A   1      40.568  30.211  30.310  1.00  0.00     0.167 HD
ATOM     44  C   UNL A   1      44.519  28.843  31.636  1.00  0.00     0.037 A 
ATOM     45  C   UNL A   1      38.423  32.000  30.195  1.00  0.00     0.037 A 
ATOM     46  C   UNL A   1      44.390  30.185  32.142  1.00  0.00     0.049 A 
ATOM     47  C   UNL A   1      39.486  32.670  31.022  1.00  0.00     0.074 A 
ATOM     48  C   UNL A   1      45.313  30.930  32.854  1.00  0.00     0.029 A 
ATOM     49  N   UNL A   1      43.262  30.983  31.997  1.00  0.00    -0.354 N 
ATOM     50  N   UNL A   1      40.672  32.223  31.362  1.00  0.00    -0.248 NA
ATOM     51  C   UNL A   1      39.183  34.015  31.529  1.00  0.00     0.031 C 
ATOM     52  C   UNL A   1      44.725  32.155  33.187  1.00  0.00     0.029 A 
ATOM     53  C   UNL A   1      43.458  32.201  32.628  1.00  0.00     0.049 A 
ATOM     54  H   UNL A   1      42.444  30.721  31.516  1.00  0.00     0.167 HD
ATOM     55  C   UNL A   1      41.270  33.245  32.091  1.00  0.00     0.074 A 
ATOM     56  C   UNL A   1      40.316  34.335  32.139  1.00  0.00     0.031 C 
ATOM     57  C   UNL A   1      42.501  33.281  32.662  1.00  0.00     0.037 A 
BRANCH  44  58
ATOM     58  C   UNL A   1      45.772  28.067  31.949  1.00  0.00     0.058 A 
ATOM     59  C   UNL A   1      46.945  28.215  31.189  1.00  0.00     0.135 A 
ATOM     60  C   UNL A   1      45.801  27.161  33.022  1.00  0.00     0.135 A 
ATOM     61  F   UNL A   1      46.973  29.057  30.144  1.00  0.00    -0.206 F 
ATOM     62  C   UNL A   1      48.081  27.455  31.449  1.00  0.00     0.059 A 
ATOM     63  C   UNL A   1      46.939  26.418  33.321  1.00  0.00     0.059 A 
ATOM     64  F   UNL A   1      44.712  26.981  33.786  1.00  0.00    -0.206 F 
ATOM     65  C   UNL A   1      48.067  26.554  32.513  1.00  0.00     0.060 A 
BRANCH  65  66
ATOM     66  S   UNL A   1      49.538  25.554  32.817  1.00  0.00     0.124 S 
ATOM     67  O   UNL A   1      48.961  24.373  33.449  1.00  0.00    -0.237 OA
ATOM     68  O   UNL A   1      50.065  25.358  31.469  1.00  0.00    -0.237 OA
ATOM     69  O   UNL A   1      50.351  26.399  33.687  1.00  0.00    -0.744 OA
ENDBRANCH  65  66
ENDBRANCH  44  58
BRANCH  45  70
ATOM     70  C   UNL A   1      37.137  32.686  29.893  1.00  0.00     0.058 A 
ATOM     71  C   UNL A   1      36.013  32.497  30.711  1.00  0.00     0.135 A 
ATOM     72  C   UNL A   1      37.015  33.568  28.809  1.00  0.00     0.135 A 
ATOM     73  F   UNL A   1      36.077  31.657  31.756  1.00  0.00    -0.206 F 
ATOM     74  C   UNL A   1      34.812  33.154  30.463  1.00  0.00     0.059 A 
ATOM     75  C   UNL A   1      35.833  34.256  28.555  1.00  0.00     0.059 A 
ATOM     76  F   UNL A   1      38.065  33.794  28.004  1.00  0.00    -0.206 F 
ATOM     77  C   UNL A   1      34.735  34.039  29.387  1.00  0.00     0.060 A 
BRANCH  77  78
ATOM     78  S   UNL A   1      33.192  34.940  29.120  1.00  0.00     0.124 S 
ATOM     79  O   UNL A   1      33.681  36.229  28.645  1.00  0.00    -0.237 OA
ATOM     80  O   UNL A   1      32.521  34.106  28.128  1.00  0.00    -0.237 OA
ATOM     81  O   UNL A   1      32.575  34.947  30.443  1.00  0.00    -0.744 OA
ENDBRANCH  77  78
ENDBRANCH  45  70
BRANCH  57  82
ATOM     82  C   UNL A   1      42.912  34.555  33.352  1.00  0.00     0.058 A 
ATOM     83  C   UNL A   1      42.756  34.740  34.734  1.00  0.00     0.135 A 
ATOM     84  C   UNL A   1      43.517  35.590  32.618  1.00  0.00     0.135 A 
ATOM     85  F   UNL A   1      42.179  33.787  35.482  1.00  0.00    -0.206 F 
ATOM     86  C   UNL A   1      43.160  35.915  35.361  1.00  0.00     0.059 A 
ATOM     87  C   UNL A   1      43.958  36.759  33.228  1.00  0.00     0.059 A 
ATOM     88  F   UNL A   1      43.701  35.463  31.294  1.00  0.00    -0.206 F 
ATOM     89  C   UNL A   1      43.762  36.918  34.599  1.00  0.00     0.060 A 
BRANCH  89  90
ATOM     90  S   UNL A   1      44.309  38.425  35.429  1.00  0.00     0.124 S 
ATOM     91  O   UNL A   1      43.873  38.180  36.800  1.00  0.00    -0.237 OA
ATOM     92  O   UNL A   1      45.751  38.397  35.208  1.00  0.00    -0.237 OA
ATOM     93  O   UNL A   1      43.593  39.483  34.722  1.00  0.00    -0.744 OA
ENDBRANCH  89  90
ENDBRANCH  57  82
ENDBRANCH  31  32
ENDBRANCH  23  26
ENDBRANCH  21  22
ENDBRANCH   1  21
TORSDOF 15
ENDMDL
MODEL 3
REMARK VINA RESULT:     -10.9      4.883     10.424
REMARK SMILES C[C@@H](C(=O)NCCCCNC(=O)c1ccc(-c2c3nc(c(-c4c(F)cc(S(=O)(=O)[O-])cc4F)c4ccc([nH]4)c(-c4c(F)cc(S(=O)(=O)[O-])cc4F)c4nc(c(-c5c(F)cc(S(=O)(=O)[O-])cc5F)c5ccc2[nH]5)C=C4)C=C3)cc1)N1C(=O)CC2(CCCC2)C1=O
REMARK SMILES IDX 8 1 7 2 6 3 5 4 3 5 4 6 2 8 1 9 79 10 80 11 88 12 81 13
REMARK SMILES IDX 82 14 83 15 89 16 84 17 87 18 85 19 86 20 9 21 10 22 11 23
REMARK SMILES IDX 12 25 13 26 14 27 78 28 15 29 77 30 16 31 17 32 18 33 71 34
REMARK SMILES IDX 19 35 76 36 70 37 72 38 20 39 75 40 69 41 68 42 21 44 55 45
REMARK SMILES IDX 34 46 54 47 35 48 38 49 53 50 73 51 36 52 37 53 52 55 74 56
REMARK SMILES IDX 39 57 22 58 23 59 32 60 24 61 25 62 31 63 33 64 26 65 27 66
REMARK SMILES IDX 28 67 29 68 30 69 56 70 57 71 66 72 58 73 59 74 65 75 67 76
REMARK SMILES IDX 60 77 61 78 62 79 63 80 64 81 40 82 41 83 50 84 42 85 43 86
REMARK SMILES IDX 49 87 51 88 44 89 45 90 46 91 47 92 48 93
REMARK H PARENT 5 7 10 24 72 43 38 54
REMARK Flexibility Score: inf
ROOT
ATOM      1  C   UNL A   1      37.481  23.545  25.506  1.00  0.00     0.023 C 
ENDROOT
BRANCH   1   2
ATOM      2  C   UNL A   1      36.092  24.181  25.540  1.00  0.00     0.023 C 
BRANCH   2   3
ATOM      3  C   UNL A   1      35.054  23.430  26.371  1.00  0.00     0.116 C 
BRANCH   3   4
ATOM      4  N   UNL A   1      33.693  23.732  25.976  1.00  0.00    -0.354 N 
ATOM      5  C   UNL A   1      32.949  23.213  24.952  1.00  0.00     0.243 C 
ATOM      6  O   UNL A   1      31.732  23.405  24.999  1.00  0.00    -0.273 OA
ATOM      7  H   UNL A   1      33.237  24.410  26.524  1.00  0.00     0.163 HD
BRANCH   5   8
ATOM      8  C   UNL A   1      33.619  22.351  23.857  1.00  0.00     0.179 C 
ATOM      9  C   UNL A   1      33.489  22.877  22.433  1.00  0.00     0.042 C 
BRANCH   8  10
ATOM     10  N   UNL A   1      33.144  20.970  23.921  1.00  0.00    -0.270 N 
ATOM     11  C   UNL A   1      32.303  20.395  23.010  1.00  0.00     0.231 C 
ATOM     12  C   UNL A   1      33.769  20.028  24.685  1.00  0.00     0.236 C 
ATOM     13  O   UNL A   1      31.904  20.874  21.958  1.00  0.00    -0.274 OA
ATOM     14  C   UNL A   1      31.976  19.008  23.483  1.00  0.00     0.117 C 
ATOM     15  C   UNL A   1      33.160  18.677  24.389  1.00  0.00     0.059 C 
ATOM     16  O   UNL A   1      34.735  20.214  25.411  1.00  0.00    -0.274 OA
ATOM     17  C   UNL A   1      32.799  17.934  25.669  1.00  0.00     0.017 C 
ATOM     18  C   UNL A   1      34.158  17.729  23.716  1.00  0.00     0.017 C 
ATOM     19  C   UNL A   1      32.785  16.460  25.288  1.00  0.00     0.001 C 
ATOM     20  C   UNL A   1      33.605  16.336  24.005  1.00  0.00     0.001 C 
ENDBRANCH   8  10
ENDBRANCH   5   8
ENDBRANCH   3   4
ENDBRANCH   2   3
ENDBRANCH   1   2
BRANCH   1  21
ATOM     21  C   UNL A   1      38.446  24.030  26.578  1.00  0.00     0.116 C 
BRANCH  21  22
ATOM     22  N   UNL A   1      39.839  23.950  26.166  1.00  0.00    -0.352 N 
ATOM     23  C   UNL A   1      40.890  24.766  26.510  1.00  0.00     0.251 C 
ATOM     24  H   UNL A   1      40.059  23.208  25.557  1.00  0.00     0.163 HD
ATOM     25  O   UNL A   1      41.974  24.635  25.951  1.00  0.00    -0.269 OA
BRANCH  23  26
ATOM     26  C   UNL A   1      40.695  25.817  27.532  1.00  0.00     0.039 A 
ATOM     27  C   UNL A   1      39.693  25.653  28.490  1.00  0.00     0.014 A 
ATOM     28  C   UNL A   1      41.511  26.951  27.555  1.00  0.00     0.014 A 
ATOM     29  C   UNL A   1      39.546  26.601  29.507  1.00  0.00     0.010 A 
ATOM     30  C   UNL A   1      41.420  27.847  28.616  1.00  0.00     0.010 A 
ATOM     31  C   UNL A   1      40.430  27.689  29.596  1.00  0.00    -0.014 A 
BRANCH  31  32
ATOM     32  C   UNL A   1      40.319  28.687  30.692  1.00  0.00     0.031 A 
ATOM     33  C   UNL A   1      41.199  28.570  31.908  1.00  0.00     0.074 A 
ATOM     34  C   UNL A   1      39.388  29.659  30.623  1.00  0.00     0.049 A 
ATOM     35  N   UNL A   1      41.219  29.305  32.989  1.00  0.00    -0.248 NA
ATOM     36  C   UNL A   1      42.165  27.459  31.920  1.00  0.00     0.031 C 
ATOM     37  C   UNL A   1      38.444  29.851  29.520  1.00  0.00     0.029 A 
ATOM     38  N   UNL A   1      39.077  30.666  31.504  1.00  0.00    -0.354 N 
ATOM     39  C   UNL A   1      42.183  28.738  33.815  1.00  0.00     0.074 A 
ATOM     40  C   UNL A   1      42.679  27.560  33.136  1.00  0.00     0.031 C 
ATOM     41  C   UNL A   1      37.685  30.929  29.774  1.00  0.00     0.029 A 
ATOM     42  C   UNL A   1      38.055  31.479  31.075  1.00  0.00     0.049 A 
ATOM     43  H   UNL A   1      39.543  30.793  32.361  1.00  0.00     0.167 HD
ATOM     44  C   UNL A   1      42.634  29.171  35.017  1.00  0.00     0.037 A 
ATOM     45  C   UNL A   1      37.480  32.546  31.663  1.00  0.00     0.037 A 
ATOM     46  C   UNL A   1      42.145  30.353  35.678  1.00  0.00     0.049 A 
ATOM     47  C   UNL A   1      37.987  33.005  33.003  1.00  0.00     0.074 A 
ATOM     48  C   UNL A   1      42.570  30.911  36.870  1.00  0.00     0.029 A 
ATOM     49  N   UNL A   1      41.114  31.156  35.208  1.00  0.00    -0.354 N 
ATOM     50  N   UNL A   1      38.944  32.497  33.742  1.00  0.00    -0.248 NA
ATOM     51  C   UNL A   1      37.342  34.189  33.587  1.00  0.00     0.031 C 
ATOM     52  C   UNL A   1      41.761  32.018  37.149  1.00  0.00     0.029 A 
ATOM     53  C   UNL A   1      40.872  32.189  36.098  1.00  0.00     0.049 A 
ATOM     54  H   UNL A   1      40.626  31.012  34.364  1.00  0.00     0.167 HD
ATOM     55  C   UNL A   1      39.041  33.319  34.859  1.00  0.00     0.074 A 
ATOM     56  C   UNL A   1      38.047  34.360  34.696  1.00  0.00     0.031 C 
ATOM     57  C   UNL A   1      39.882  33.225  35.920  1.00  0.00     0.037 A 
BRANCH  44  58
ATOM     58  C   UNL A   1      43.700  28.350  35.694  1.00  0.00     0.058 A 
ATOM     59  C   UNL A   1      43.385  27.346  36.625  1.00  0.00     0.135 A 
ATOM     60  C   UNL A   1      45.058  28.570  35.408  1.00  0.00     0.135 A 
ATOM     61  F   UNL A   1      42.106  27.100  36.947  1.00  0.00    -0.206 F 
ATOM     62  C   UNL A   1      44.377  26.629  37.287  1.00  0.00     0.059 A 
ATOM     63  C   UNL A   1      46.065  27.839  36.033  1.00  0.00     0.059 A 
ATOM     64  F   UNL A   1      45.420  29.512  34.524  1.00  0.00    -0.206 F 
ATOM     65  C   UNL A   1      45.714  26.887  36.989  1.00  0.00     0.060 A 
BRANCH  65  66
ATOM     66  S   UNL A   1      46.989  25.970  37.880  1.00  0.00     0.124 S 
ATOM     67  O   UNL A   1      47.417  25.011  36.867  1.00  0.00    -0.237 OA
ATOM     68  O   UNL A   1      47.952  27.016  38.209  1.00  0.00    -0.237 OA
ATOM     69  O   UNL A   1      46.269  25.404  39.017  1.00  0.00    -0.744 OA
ENDBRANCH  65  66
ENDBRANCH  44  58
BRANCH  45  70
ATOM     70  C   UNL A   1      36.390  33.276  30.962  1.00  0.00     0.058 A 
ATOM     71  C   UNL A   1      35.067  33.211  31.426  1.00  0.00     0.135 A 
ATOM     72  C   UNL A   1      36.649  34.080  29.841  1.00  0.00     0.135 A 
ATOM     73  F   UNL A   1      34.766  32.450  32.489  1.00  0.00    -0.206 F 
ATOM     74  C   UNL A   1      34.040  33.913  30.802  1.00  0.00     0.059 A 
ATOM     75  C   UNL A   1      35.644  34.811  29.216  1.00  0.00     0.059 A 
ATOM     76  F   UNL A   1      37.900  34.188  29.366  1.00  0.00    -0.206 F 
ATOM     77  C   UNL A   1      34.341  34.717  29.702  1.00  0.00     0.060 A 
BRANCH  77  78
ATOM     78  S   UNL A   1      33.011  35.679  28.948  1.00  0.00     0.124 S 
ATOM     79  O   UNL A   1      33.758  36.716  28.245  1.00  0.00    -0.237 OA
ATOM     80  O   UNL A   1      32.355  34.683  28.107  1.00  0.00    -0.237 OA
ATOM     81  O   UNL A   1      32.231  36.131  30.095  1.00  0.00    -0.744 OA
ENDBRANCH  77  78
ENDBRANCH  45  70
BRANCH  57  82
ATOM     82  C   UNL A   1      39.801  34.300  36.971  1.00  0.00     0.058 A 
ATOM     83  C   UNL A   1      40.379  35.566  36.790  1.00  0.00     0.135 A 
ATOM     84  C   UNL A   1      39.088  34.071  38.160  1.00  0.00     0.135 A 
ATOM     85  F   UNL A   1      41.077  35.837  35.676  1.00  0.00    -0.206 F 
ATOM     86  C   UNL A   1      40.278  36.557  37.762  1.00  0.00     0.059 A 
ATOM     87  C   UNL A   1      38.945  35.058  39.130  1.00  0.00     0.059 A 
ATOM     88  F   UNL A   1      38.504  32.882  38.382  1.00  0.00    -0.206 F 
ATOM     89  C   UNL A   1      39.556  36.294  38.927  1.00  0.00     0.060 A 
BRANCH  89  90
ATOM     90  S   UNL A   1      39.407  37.599  40.167  1.00  0.00     0.124 S 
ATOM     91  O   UNL A   1      40.763  38.135  40.193  1.00  0.00    -0.237 OA
ATOM     92  O   UNL A   1      38.392  38.469  39.582  1.00  0.00    -0.237 OA
ATOM     93  O   UNL A   1      38.992  36.881  41.369  1.00  0.00    -0.744 OA
ENDBRANCH  89  90
ENDBRANCH  57  82
ENDBRANCH  31  32
ENDBRANCH  23  26
ENDBRANCH  21  22
ENDBRANCH   1  21
TORSDOF 15
ENDMDL
