MODEL 1
REMARK VINA RESULT:     -12.1      0.000      0.000
REMARK SMILES O=C(COc1cc(-c2ccccc2)nc(NCc2ccc(Cl)cc2)n1)NCCCCNC(=O)c1ccc(-c2c3nc(c(-c4c(F)cc(S(=O)(=O)[O-])cc4F)c4ccc([nH]4)c(-c4c(F)cc(S(=O)(=O)[O-])cc4F)c4nc(c(-c5c(F)cc(S(=O)(=O)[O-])cc5F)c5ccc2[nH]5)C=C4)C=C3)cc1
REMARK SMILES IDX 27 1 26 2 1 3 2 4 3 6 4 7 5 8 6 9 25 10 7 11 15 12 14 13
REMARK SMILES IDX 8 14 9 15 13 16 10 17 12 18 11 19 16 20 17 22 18 23 19 24
REMARK SMILES IDX 24 25 20 26 23 27 21 28 22 29 28 30 29 31 30 32 31 33 32 34
REMARK SMILES IDX 33 36 34 37 35 38 99 39 36 40 98 41 37 42 38 43 39 44 92 45
REMARK SMILES IDX 40 46 97 47 91 48 93 49 41 50 96 51 90 52 89 53 42 55 76 56
REMARK SMILES IDX 55 57 75 58 56 59 59 60 74 61 94 62 57 63 58 64 73 66 95 67
REMARK SMILES IDX 60 68 43 69 44 70 53 71 45 72 46 73 52 74 54 75 47 76 48 77
REMARK SMILES IDX 49 78 50 79 51 80 77 81 78 82 87 83 79 84 80 85 86 86 88 87
REMARK SMILES IDX 81 88 82 89 83 90 84 91 85 92 61 93 62 94 71 95 63 96 64 97
REMARK SMILES IDX 70 98 72 99 65 100 66 101 67 102 68 103 69 104
REMARK H PARENT 26 5 16 21 31 35 93 54 59 65
REMARK Flexibility Score: inf
ROOT
ATOM      1  C   UNL A   1      31.801  27.078  23.367  1.00  0.00     0.116 C 
ENDROOT
BRANCH   1   2
ATOM      2  N   UNL A   1      32.121  25.675  23.178  1.00  0.00    -0.353 N 
ATOM      3  O   UNL A   1      33.371  25.957  21.267  1.00  0.00    -0.271 OA
ATOM      4  C   UNL A   1      32.990  25.246  22.193  1.00  0.00     0.258 C 
ATOM      5  H   UNL A   1      31.706  25.009  23.772  1.00  0.00     0.163 HD
BRANCH   4   6
ATOM      6  C   UNL A   1      33.510  23.814  22.391  1.00  0.00     0.331 C 
BRANCH   6   7
ATOM      7  O   UNL A   1      32.598  22.770  22.051  1.00  0.00    -0.467 OA
BRANCH   7   8
ATOM      8  C   UNL A   1      32.264  21.949  23.102  1.00  0.00     0.219 A 
ATOM      9  C   UNL A   1      32.582  20.619  23.097  1.00  0.00     0.097 A 
ATOM     10  N   UNL A   1      31.777  22.571  24.184  1.00  0.00    -0.177 NA
ATOM     11  C   UNL A   1      32.376  19.927  24.266  1.00  0.00     0.080 A 
ATOM     12  C   UNL A   1      31.566  21.817  25.275  1.00  0.00     0.226 A 
ATOM     13  N   UNL A   1      31.839  20.506  25.353  1.00  0.00    -0.213 NA
BRANCH  11  14
ATOM     14  C   UNL A   1      32.782  18.518  24.359  1.00  0.00     0.000 A 
ATOM     15  C   UNL A   1      33.411  17.866  23.291  1.00  0.00     0.010 A 
ATOM     16  C   UNL A   1      32.618  17.809  25.566  1.00  0.00     0.010 A 
ATOM     17  C   UNL A   1      33.899  16.563  23.440  1.00  0.00     0.001 A 
ATOM     18  C   UNL A   1      33.101  16.509  25.715  1.00  0.00     0.001 A 
ATOM     19  C   UNL A   1      33.751  15.891  24.653  1.00  0.00     0.000 A 
ENDBRANCH  11  14
BRANCH  12  20
ATOM     20  N   UNL A   1      31.049  22.362  26.414  1.00  0.00    -0.350 N 
ATOM     21  H   UNL A   1      30.127  22.128  26.664  1.00  0.00     0.164 HD
BRANCH  20  22
ATOM     22  C   UNL A   1      31.775  23.261  27.268  1.00  0.00     0.152 C 
BRANCH  22  23
ATOM     23  C   UNL A   1      33.200  23.387  26.772  1.00  0.00    -0.029 A 
ATOM     24  C   UNL A   1      34.120  22.351  26.995  1.00  0.00     0.007 A 
ATOM     25  C   UNL A   1      33.628  24.534  26.081  1.00  0.00     0.007 A 
ATOM     26  C   UNL A   1      35.436  22.457  26.539  1.00  0.00     0.021 A 
ATOM     27  C   UNL A   1      34.941  24.636  25.617  1.00  0.00     0.021 A 
ATOM     28  C   UNL A   1      35.841  23.598  25.850  1.00  0.00     0.041 A 
ATOM     29  Cl  UNL A   1      37.460  23.726  25.283  1.00  0.00    -0.084 Cl
ENDBRANCH  22  23
ENDBRANCH  20  22
ENDBRANCH  12  20
ENDBRANCH   7   8
ENDBRANCH   6   7
ENDBRANCH   4   6
ENDBRANCH   1   2
BRANCH   1  30
ATOM     30  C   UNL A   1      31.981  27.553  24.803  1.00  0.00     0.023 C 
BRANCH  30  31
ATOM     31  C   UNL A   1      33.254  28.361  25.056  1.00  0.00     0.023 C 
BRANCH  31  32
ATOM     32  C   UNL A   1      33.687  28.473  26.516  1.00  0.00     0.116 C 
BRANCH  32  33
ATOM     33  N   UNL A   1      33.546  29.818  27.051  1.00  0.00    -0.352 N 
ATOM     34  C   UNL A   1      34.425  30.550  27.816  1.00  0.00     0.251 C 
ATOM     35  H   UNL A   1      32.698  30.271  26.835  1.00  0.00     0.163 HD
ATOM     36  O   UNL A   1      34.063  31.623  28.296  1.00  0.00    -0.269 OA
BRANCH  34  37
ATOM     37  C   UNL A   1      35.788  30.039  28.089  1.00  0.00     0.039 A 
ATOM     38  C   UNL A   1      36.739  30.071  27.065  1.00  0.00     0.014 A 
ATOM     39  C   UNL A   1      36.134  29.534  29.345  1.00  0.00     0.014 A 
ATOM     40  C   UNL A   1      38.053  29.668  27.323  1.00  0.00     0.010 A 
ATOM     41  C   UNL A   1      37.461  29.206  29.622  1.00  0.00     0.010 A 
ATOM     42  C   UNL A   1      38.437  29.272  28.615  1.00  0.00    -0.014 A 
BRANCH  42  43
ATOM     43  C   UNL A   1      39.853  28.940  28.935  1.00  0.00     0.031 A 
ATOM     44  C   UNL A   1      40.758  29.974  29.550  1.00  0.00     0.074 A 
ATOM     45  C   UNL A   1      40.342  27.726  28.611  1.00  0.00     0.049 A 
ATOM     46  N   UNL A   1      42.032  29.890  29.838  1.00  0.00    -0.248 NA
ATOM     47  C   UNL A   1      40.161  31.283  29.858  1.00  0.00     0.031 C 
ATOM     48  C   UNL A   1      39.581  26.649  27.972  1.00  0.00     0.029 A 
ATOM     49  N   UNL A   1      41.598  27.193  28.766  1.00  0.00    -0.354 N 
ATOM     50  C   UNL A   1      42.391  31.134  30.346  1.00  0.00     0.074 A 
ATOM     51  C   UNL A   1      41.213  31.970  30.278  1.00  0.00     0.031 C 
ATOM     52  C   UNL A   1      40.377  25.580  27.814  1.00  0.00     0.029 A 
ATOM     53  C   UNL A   1      41.716  25.904  28.297  1.00  0.00     0.049 A 
ATOM     54  H   UNL A   1      42.346  27.686  29.175  1.00  0.00     0.167 HD
ATOM     55  C   UNL A   1      43.587  31.534  30.842  1.00  0.00     0.037 A 
ATOM     56  C   UNL A   1      42.781  25.079  28.251  1.00  0.00     0.037 A 
ATOM     57  C   UNL A   1      44.750  30.689  30.927  1.00  0.00     0.049 A 
ATOM     58  C   UNL A   1      44.102  25.553  28.794  1.00  0.00     0.074 A 
ATOM     59  C   UNL A   1      45.988  30.984  31.473  1.00  0.00     0.029 A 
ATOM     60  N   UNL A   1      44.826  29.389  30.449  1.00  0.00    -0.354 N 
ATOM     61  N   UNL A   1      44.404  26.710  29.335  1.00  0.00    -0.248 NA
ATOM     62  C   UNL A   1      45.226  24.610  28.726  1.00  0.00     0.031 C 
ATOM     63  C   UNL A   1      46.828  29.884  31.273  1.00  0.00     0.029 A 
ATOM     64  C   UNL A   1      46.097  28.879  30.660  1.00  0.00     0.049 A 
ATOM     65  H   UNL A   1      44.086  28.900  30.023  1.00  0.00     0.167 HD
ATOM     66  C   UNL A   1      45.743  26.621  29.700  1.00  0.00     0.074 A 
ATOM     67  C   UNL A   1      46.189  25.294  29.329  1.00  0.00     0.031 C 
ATOM     68  C   UNL A   1      46.530  27.553  30.293  1.00  0.00     0.037 A 
BRANCH  55  69
ATOM     69  C   UNL A   1      43.703  32.954  31.331  1.00  0.00     0.058 A 
ATOM     70  C   UNL A   1      43.281  33.333  32.615  1.00  0.00     0.135 A 
ATOM     71  C   UNL A   1      44.285  33.942  30.518  1.00  0.00     0.135 A 
ATOM     72  F   UNL A   1      42.705  32.435  33.431  1.00  0.00    -0.206 F 
ATOM     73  C   UNL A   1      43.402  34.644  33.065  1.00  0.00     0.059 A 
ATOM     74  C   UNL A   1      44.447  35.252  30.959  1.00  0.00     0.059 A 
ATOM     75  F   UNL A   1      44.708  33.637  29.282  1.00  0.00    -0.206 F 
ATOM     76  C   UNL A   1      43.987  35.597  32.230  1.00  0.00     0.060 A 
BRANCH  76  77
ATOM     77  S   UNL A   1      44.141  37.291  32.832  1.00  0.00     0.124 S 
ATOM     78  O   UNL A   1      43.263  37.266  33.997  1.00  0.00    -0.237 OA
ATOM     79  O   UNL A   1      45.569  37.392  33.117  1.00  0.00    -0.237 OA
ATOM     80  O   UNL A   1      43.670  38.096  31.709  1.00  0.00    -0.744 OA
ENDBRANCH  76  77
ENDBRANCH  55  69
BRANCH  56  81
ATOM     81  C   UNL A   1      42.638  23.709  27.687  1.00  0.00     0.058 A 
ATOM     82  C   UNL A   1      42.487  22.595  28.526  1.00  0.00     0.135 A 
ATOM     83  C   UNL A   1      42.644  23.485  26.300  1.00  0.00     0.135 A 
ATOM     84  F   UNL A   1      42.483  22.755  29.858  1.00  0.00    -0.206 F 
ATOM     85  C   UNL A   1      42.366  21.307  28.015  1.00  0.00     0.059 A 
ATOM     86  C   UNL A   1      42.495  22.209  25.765  1.00  0.00     0.059 A 
ATOM     87  F   UNL A   1      42.770  24.517  25.452  1.00  0.00    -0.206 F 
ATOM     88  C   UNL A   1      42.366  21.124  26.632  1.00  0.00     0.060 A 
BRANCH  88  89
ATOM     89  S   UNL A   1      42.160  19.453  25.979  1.00  0.00     0.124 S 
ATOM     90  O   UNL A   1      40.727  19.416  25.710  1.00  0.00    -0.237 OA
ATOM     91  O   UNL A   1      43.031  19.475  24.807  1.00  0.00    -0.237 OA
ATOM     92  O   UNL A   1      42.619  18.606  27.075  1.00  0.00    -0.744 OA
ENDBRANCH  88  89
ENDBRANCH  56  81
BRANCH  68  93
ATOM     93  C   UNL A   1      47.947  27.164  30.617  1.00  0.00     0.058 A 
ATOM     94  C   UNL A   1      49.023  27.514  29.786  1.00  0.00     0.135 A 
ATOM     95  C   UNL A   1      48.238  26.474  31.807  1.00  0.00     0.135 A 
ATOM     96  F   UNL A   1      48.802  28.167  28.635  1.00  0.00    -0.206 F 
ATOM     97  C   UNL A   1      50.332  27.173  30.110  1.00  0.00     0.059 A 
ATOM     98  C   UNL A   1      49.542  26.152  32.166  1.00  0.00     0.059 A 
ATOM     99  F   UNL A   1      47.248  26.123  32.644  1.00  0.00    -0.206 F 
ATOM    100  C   UNL A   1      50.583  26.495  31.305  1.00  0.00     0.060 A 
BRANCH 100 101
ATOM    101  S   UNL A   1      52.291  26.091  31.730  1.00  0.00     0.124 S 
ATOM    102  O   UNL A   1      52.888  25.918  30.411  1.00  0.00    -0.237 OA
ATOM    103  O   UNL A   1      52.715  27.277  32.468  1.00  0.00    -0.237 OA
ATOM    104  O   UNL A   1      52.165  24.876  32.528  1.00  0.00    -0.744 OA
ENDBRANCH 100 101
ENDBRANCH  68  93
ENDBRANCH  42  43
ENDBRANCH  34  37
ENDBRANCH  32  33
ENDBRANCH  31  32
ENDBRANCH  30  31
ENDBRANCH   1  30
TORSDOF 20
ENDMDL
MODEL 2
REMARK VINA RESULT:     -11.9      2.393      2.976
REMARK SMILES O=C(COc1cc(-c2ccccc2)nc(NCc2ccc(Cl)cc2)n1)NCCCCNC(=O)c1ccc(-c2c3nc(c(-c4c(F)cc(S(=O)(=O)[O-])cc4F)c4ccc([nH]4)c(-c4c(F)cc(S(=O)(=O)[O-])cc4F)c4nc(c(-c5c(F)cc(S(=O)(=O)[O-])cc5F)c5ccc2[nH]5)C=C4)C=C3)cc1
REMARK SMILES IDX 27 1 26 2 1 3 2 4 3 6 4 7 5 8 6 9 25 10 7 11 15 12 14 13
REMARK SMILES IDX 8 14 9 15 13 16 10 17 12 18 11 19 16 20 17 22 18 23 19 24
REMARK SMILES IDX 24 25 20 26 23 27 21 28 22 29 28 30 29 31 30 32 31 33 32 34
REMARK SMILES IDX 33 36 34 37 35 38 99 39 36 40 98 41 37 42 38 43 39 44 92 45
REMARK SMILES IDX 40 46 97 47 91 48 93 49 41 50 96 51 90 52 89 53 42 55 76 56
REMARK SMILES IDX 55 57 75 58 56 59 59 60 74 61 94 62 57 63 58 64 73 66 95 67
REMARK SMILES IDX 60 68 43 69 44 70 53 71 45 72 46 73 52 74 54 75 47 76 48 77
REMARK SMILES IDX 49 78 50 79 51 80 77 81 78 82 87 83 79 84 80 85 86 86 88 87
REMARK SMILES IDX 81 88 82 89 83 90 84 91 85 92 61 93 62 94 71 95 63 96 64 97
REMARK SMILES IDX 70 98 72 99 65 100 66 101 67 102 68 103 69 104
REMARK H PARENT 26 5 16 21 31 35 93 54 59 65
REMARK Flexibility Score: inf
ROOT
ATOM      1  C   UNL A   1      31.558  26.822  23.232  1.00  0.00     0.116 C 
ENDROOT
BRANCH   1   2
ATOM      2  N   UNL A   1      31.933  25.451  22.940  1.00  0.00    -0.353 N 
ATOM      3  O   UNL A   1      33.617  25.961  21.457  1.00  0.00    -0.271 OA
ATOM      4  C   UNL A   1      33.026  25.140  22.153  1.00  0.00     0.258 C 
ATOM      5  H   UNL A   1      31.392  24.719  23.315  1.00  0.00     0.163 HD
BRANCH   4   6
ATOM      6  C   UNL A   1      33.498  23.683  22.278  1.00  0.00     0.331 C 
BRANCH   6   7
ATOM      7  O   UNL A   1      32.516  22.687  21.999  1.00  0.00    -0.467 OA
BRANCH   7   8
ATOM      8  C   UNL A   1      32.214  21.878  23.069  1.00  0.00     0.219 A 
ATOM      9  C   UNL A   1      32.529  20.547  23.069  1.00  0.00     0.097 A 
ATOM     10  N   UNL A   1      31.764  22.512  24.159  1.00  0.00    -0.177 NA
ATOM     11  C   UNL A   1      32.360  19.867  24.250  1.00  0.00     0.080 A 
ATOM     12  C   UNL A   1      31.586  21.771  25.264  1.00  0.00     0.226 A 
ATOM     13  N   UNL A   1      31.859  20.460  25.348  1.00  0.00    -0.213 NA
BRANCH  11  14
ATOM     14  C   UNL A   1      32.766  18.459  24.346  1.00  0.00     0.000 A 
ATOM     15  C   UNL A   1      33.472  17.829  23.313  1.00  0.00     0.010 A 
ATOM     16  C   UNL A   1      32.520  17.727  25.525  1.00  0.00     0.010 A 
ATOM     17  C   UNL A   1      33.955  16.526  23.472  1.00  0.00     0.001 A 
ATOM     18  C   UNL A   1      32.999  16.426  25.683  1.00  0.00     0.001 A 
ATOM     19  C   UNL A   1      33.725  15.830  24.658  1.00  0.00     0.000 A 
ENDBRANCH  11  14
BRANCH  12  20
ATOM     20  N   UNL A   1      31.107  22.329  26.414  1.00  0.00    -0.350 N 
ATOM     21  H   UNL A   1      30.155  22.207  26.627  1.00  0.00     0.164 HD
BRANCH  20  22
ATOM     22  C   UNL A   1      31.915  23.087  27.328  1.00  0.00     0.152 C 
BRANCH  22  23
ATOM     23  C   UNL A   1      33.305  23.259  26.751  1.00  0.00    -0.029 A 
ATOM     24  C   UNL A   1      34.258  22.238  26.892  1.00  0.00     0.007 A 
ATOM     25  C   UNL A   1      33.665  24.431  26.064  1.00  0.00     0.007 A 
ATOM     26  C   UNL A   1      35.542  22.386  26.362  1.00  0.00     0.021 A 
ATOM     27  C   UNL A   1      34.946  24.574  25.525  1.00  0.00     0.021 A 
ATOM     28  C   UNL A   1      35.880  23.552  25.678  1.00  0.00     0.041 A 
ATOM     29  Cl  UNL A   1      37.459  23.730  25.018  1.00  0.00    -0.084 Cl
ENDBRANCH  22  23
ENDBRANCH  20  22
ENDBRANCH  12  20
ENDBRANCH   7   8
ENDBRANCH   6   7
ENDBRANCH   4   6
ENDBRANCH   1   2
BRANCH   1  30
ATOM     30  C   UNL A   1      32.014  27.296  24.605  1.00  0.00     0.023 C 
BRANCH  30  31
ATOM     31  C   UNL A   1      33.334  28.067  24.611  1.00  0.00     0.023 C 
BRANCH  31  32
ATOM     32  C   UNL A   1      33.889  28.418  25.990  1.00  0.00     0.116 C 
BRANCH  32  33
ATOM     33  N   UNL A   1      33.683  29.812  26.349  1.00  0.00    -0.352 N 
ATOM     34  C   UNL A   1      34.388  30.600  27.230  1.00  0.00     0.251 C 
ATOM     35  H   UNL A   1      32.931  30.258  25.897  1.00  0.00     0.163 HD
ATOM     36  O   UNL A   1      33.970  31.723  27.508  1.00  0.00    -0.269 OA
BRANCH  34  37
ATOM     37  C   UNL A   1      35.626  30.093  27.866  1.00  0.00     0.039 A 
ATOM     38  C   UNL A   1      36.830  30.171  27.160  1.00  0.00     0.014 A 
ATOM     39  C   UNL A   1      35.607  29.545  29.152  1.00  0.00     0.014 A 
ATOM     40  C   UNL A   1      38.022  29.772  27.771  1.00  0.00     0.010 A 
ATOM     41  C   UNL A   1      36.805  29.220  29.786  1.00  0.00     0.010 A 
ATOM     42  C   UNL A   1      38.028  29.332  29.106  1.00  0.00    -0.014 A 
BRANCH  42  43
ATOM     43  C   UNL A   1      39.298  29.002  29.807  1.00  0.00     0.031 A 
ATOM     44  C   UNL A   1      39.727  29.788  31.019  1.00  0.00     0.074 A 
ATOM     45  C   UNL A   1      40.100  28.036  29.315  1.00  0.00     0.049 A 
ATOM     46  N   UNL A   1      40.828  29.689  31.720  1.00  0.00    -0.248 NA
ATOM     47  C   UNL A   1      38.812  30.840  31.488  1.00  0.00     0.031 C 
ATOM     48  C   UNL A   1      39.822  27.230  28.124  1.00  0.00     0.029 A 
ATOM     49  N   UNL A   1      41.318  27.571  29.748  1.00  0.00    -0.354 N 
ATOM     50  C   UNL A   1      40.744  30.671  32.701  1.00  0.00     0.074 A 
ATOM     51  C   UNL A   1      39.509  31.389  32.472  1.00  0.00     0.031 C 
ATOM     52  C   UNL A   1      40.823  26.356  27.937  1.00  0.00     0.029 A 
ATOM     53  C   UNL A   1      41.839  26.565  28.965  1.00  0.00     0.049 A 
ATOM     54  H   UNL A   1      41.777  27.924  30.545  1.00  0.00     0.167 HD
ATOM     55  C   UNL A   1      41.607  30.936  33.712  1.00  0.00     0.037 A 
ATOM     56  C   UNL A   1      43.003  25.894  29.057  1.00  0.00     0.037 A 
ATOM     57  C   UNL A   1      42.824  30.204  33.947  1.00  0.00     0.049 A 
ATOM     58  C   UNL A   1      43.952  26.218  30.180  1.00  0.00     0.074 A 
ATOM     59  C   UNL A   1      43.731  30.355  34.983  1.00  0.00     0.029 A 
ATOM     60  N   UNL A   1      43.312  29.188  33.138  1.00  0.00    -0.354 N 
ATOM     61  N   UNL A   1      43.822  27.104  31.140  1.00  0.00    -0.248 NA
ATOM     62  C   UNL A   1      45.203  25.449  30.237  1.00  0.00     0.031 C 
ATOM     63  C   UNL A   1      44.794  29.472  34.767  1.00  0.00     0.029 A 
ATOM     64  C   UNL A   1      44.520  28.725  33.633  1.00  0.00     0.049 A 
ATOM     65  H   UNL A   1      42.864  28.846  32.330  1.00  0.00     0.167 HD
ATOM     66  C   UNL A   1      44.959  26.975  31.931  1.00  0.00     0.074 A 
ATOM     67  C   UNL A   1      45.759  25.920  31.345  1.00  0.00     0.031 C 
ATOM     68  C   UNL A   1      45.306  27.668  33.045  1.00  0.00     0.037 A 
BRANCH  55  69
ATOM     69  C   UNL A   1      41.269  32.072  34.641  1.00  0.00     0.058 A 
ATOM     70  C   UNL A   1      41.629  33.398  34.354  1.00  0.00     0.135 A 
ATOM     71  C   UNL A   1      40.535  31.836  35.817  1.00  0.00     0.135 A 
ATOM     72  F   UNL A   1      42.342  33.682  33.252  1.00  0.00    -0.206 F 
ATOM     73  C   UNL A   1      41.303  34.444  35.211  1.00  0.00     0.059 A 
ATOM     74  C   UNL A   1      40.169  32.872  36.672  1.00  0.00     0.059 A 
ATOM     75  F   UNL A   1      40.162  30.589  36.142  1.00  0.00    -0.206 F 
ATOM     76  C   UNL A   1      40.572  34.171  36.367  1.00  0.00     0.060 A 
BRANCH  76  77
ATOM     77  S   UNL A   1      40.152  35.542  37.465  1.00  0.00     0.124 S 
ATOM     78  O   UNL A   1      41.330  35.595  38.325  1.00  0.00    -0.237 OA
ATOM     79  O   UNL A   1      40.000  36.653  36.531  1.00  0.00    -0.237 OA
ATOM     80  O   UNL A   1      38.923  35.096  38.112  1.00  0.00    -0.744 OA
ENDBRANCH  76  77
ENDBRANCH  55  69
BRANCH  56  81
ATOM     81  C   UNL A   1      43.331  24.831  28.068  1.00  0.00     0.058 A 
ATOM     82  C   UNL A   1      43.003  23.489  28.315  1.00  0.00     0.135 A 
ATOM     83  C   UNL A   1      43.971  25.133  26.855  1.00  0.00     0.135 A 
ATOM     84  F   UNL A   1      42.398  23.148  29.464  1.00  0.00    -0.206 F 
ATOM     85  C   UNL A   1      43.314  22.483  27.407  1.00  0.00     0.059 A 
ATOM     86  C   UNL A   1      44.265  24.148  25.918  1.00  0.00     0.059 A 
ATOM     87  F   UNL A   1      44.293  26.402  26.562  1.00  0.00    -0.206 F 
ATOM     88  C   UNL A   1      43.942  22.823  26.208  1.00  0.00     0.060 A 
BRANCH  88  89
ATOM     89  S   UNL A   1      44.298  21.514  25.016  1.00  0.00     0.124 S 
ATOM     90  O   UNL A   1      45.575  21.009  25.505  1.00  0.00    -0.237 OA
ATOM     91  O   UNL A   1      43.151  20.626  25.187  1.00  0.00    -0.237 OA
ATOM     92  O   UNL A   1      44.345  22.225  23.742  1.00  0.00    -0.744 OA
ENDBRANCH  88  89
ENDBRANCH  56  81
BRANCH  68  93
ATOM     93  C   UNL A   1      46.588  27.283  33.733  1.00  0.00     0.058 A 
ATOM     94  C   UNL A   1      47.809  27.905  33.431  1.00  0.00     0.135 A 
ATOM     95  C   UNL A   1      46.583  26.311  34.749  1.00  0.00     0.135 A 
ATOM     96  F   UNL A   1      47.873  28.835  32.465  1.00  0.00    -0.206 F 
ATOM     97  C   UNL A   1      48.984  27.562  34.093  1.00  0.00     0.059 A 
ATOM     98  C   UNL A   1      47.739  25.976  35.446  1.00  0.00     0.059 A 
ATOM     99  F   UNL A   1      45.441  25.692  35.086  1.00  0.00    -0.206 F 
ATOM    100  C   UNL A   1      48.938  26.598  35.102  1.00  0.00     0.060 A 
BRANCH 100 101
ATOM    101  S   UNL A   1      50.463  26.188  35.977  1.00  0.00     0.124 S 
ATOM    102  O   UNL A   1      50.785  24.883  35.410  1.00  0.00    -0.237 OA
ATOM    103  O   UNL A   1      51.347  27.283  35.591  1.00  0.00    -0.237 OA
ATOM    104  O   UNL A   1      50.060  26.181  37.380  1.00  0.00    -0.744 OA
ENDBRANCH 100 101
ENDBRANCH  68  93
ENDBRANCH  42  43
ENDBRANCH  34  37
ENDBRANCH  32  33
ENDBRANCH  31  32
ENDBRANCH  30  31
ENDBRANCH   1  30
TORSDOF 20
ENDMDL
MODEL 3
REMARK VINA RESULT:     -11.5      3.358      5.951
REMARK SMILES O=C(COc1cc(-c2ccccc2)nc(NCc2ccc(Cl)cc2)n1)NCCCCNC(=O)c1ccc(-c2c3nc(c(-c4c(F)cc(S(=O)(=O)[O-])cc4F)c4ccc([nH]4)c(-c4c(F)cc(S(=O)(=O)[O-])cc4F)c4nc(c(-c5c(F)cc(S(=O)(=O)[O-])cc5F)c5ccc2[nH]5)C=C4)C=C3)cc1
REMARK SMILES IDX 27 1 26 2 1 3 2 4 3 6 4 7 5 8 6 9 25 10 7 11 15 12 14 13
REMARK SMILES IDX 8 14 9 15 13 16 10 17 12 18 11 19 16 20 17 22 18 23 19 24
REMARK SMILES IDX 24 25 20 26 23 27 21 28 22 29 28 30 29 31 30 32 31 33 32 34
REMARK SMILES IDX 33 36 34 37 35 38 99 39 36 40 98 41 37 42 38 43 39 44 92 45
REMARK SMILES IDX 40 46 97 47 91 48 93 49 41 50 96 51 90 52 89 53 42 55 76 56
REMARK SMILES IDX 55 57 75 58 56 59 59 60 74 61 94 62 57 63 58 64 73 66 95 67
REMARK SMILES IDX 60 68 43 69 44 70 53 71 45 72 46 73 52 74 54 75 47 76 48 77
REMARK SMILES IDX 49 78 50 79 51 80 77 81 78 82 87 83 79 84 80 85 86 86 88 87
REMARK SMILES IDX 81 88 82 89 83 90 84 91 85 92 61 93 62 94 71 95 63 96 64 97
REMARK SMILES IDX 70 98 72 99 65 100 66 101 67 102 68 103 69 104
REMARK H PARENT 26 5 16 21 31 35 93 54 59 65
REMARK Flexibility Score: inf
ROOT
ATOM      1  C   UNL A   1      34.347  34.531  29.327  1.00  0.00     0.116 C 
ENDROOT
BRANCH   1   2
ATOM      2  N   UNL A   1      33.502  33.701  28.489  1.00  0.00    -0.353 N 
ATOM      3  O   UNL A   1      35.193  32.380  27.658  1.00  0.00    -0.271 OA
ATOM      4  C   UNL A   1      33.994  32.604  27.806  1.00  0.00     0.258 C 
ATOM      5  H   UNL A   1      32.547  33.926  28.405  1.00  0.00     0.163 HD
BRANCH   4   6
ATOM      6  C   UNL A   1      32.912  31.635  27.308  1.00  0.00     0.331 C 
BRANCH   6   7
ATOM      7  O   UNL A   1      33.349  30.304  27.037  1.00  0.00    -0.467 OA
BRANCH   7   8
ATOM      8  C   UNL A   1      32.541  29.613  26.165  1.00  0.00     0.219 A 
ATOM      9  C   UNL A   1      31.501  30.223  25.519  1.00  0.00     0.097 A 
ATOM     10  N   UNL A   1      32.949  28.373  25.864  1.00  0.00    -0.177 NA
ATOM     11  C   UNL A   1      30.873  29.502  24.532  1.00  0.00     0.080 A 
ATOM     12  C   UNL A   1      32.259  27.719  24.916  1.00  0.00     0.226 A 
ATOM     13  N   UNL A   1      31.222  28.238  24.242  1.00  0.00    -0.213 NA
BRANCH  11  14
ATOM     14  C   UNL A   1      29.810  30.130  23.736  1.00  0.00     0.000 A 
ATOM     15  C   UNL A   1      29.302  31.394  24.061  1.00  0.00     0.010 A 
ATOM     16  C   UNL A   1      29.332  29.502  22.568  1.00  0.00     0.010 A 
ATOM     17  C   UNL A   1      28.378  32.027  23.223  1.00  0.00     0.001 A 
ATOM     18  C   UNL A   1      28.407  30.131  21.734  1.00  0.00     0.001 A 
ATOM     19  C   UNL A   1      27.939  31.399  22.057  1.00  0.00     0.000 A 
ENDBRANCH  11  14
BRANCH  12  20
ATOM     20  N   UNL A   1      32.590  26.443  24.563  1.00  0.00    -0.350 N 
ATOM     21  H   UNL A   1      32.059  25.705  24.938  1.00  0.00     0.164 HD
BRANCH  20  22
ATOM     22  C   UNL A   1      33.672  26.117  23.676  1.00  0.00     0.152 C 
BRANCH  22  23
ATOM     23  C   UNL A   1      34.324  24.827  24.129  1.00  0.00    -0.029 A 
ATOM     24  C   UNL A   1      34.302  23.695  23.299  1.00  0.00     0.007 A 
ATOM     25  C   UNL A   1      34.963  24.738  25.377  1.00  0.00     0.007 A 
ATOM     26  C   UNL A   1      34.902  22.502  23.707  1.00  0.00     0.021 A 
ATOM     27  C   UNL A   1      35.572  23.547  25.781  1.00  0.00     0.021 A 
ATOM     28  C   UNL A   1      35.537  22.433  24.945  1.00  0.00     0.041 A 
ATOM     29  Cl  UNL A   1      36.283  20.965  25.444  1.00  0.00    -0.084 Cl
ENDBRANCH  22  23
ENDBRANCH  20  22
ENDBRANCH  12  20
ENDBRANCH   7   8
ENDBRANCH   6   7
ENDBRANCH   4   6
ENDBRANCH   1   2
BRANCH   1  30
ATOM     30  C   UNL A   1      34.494  34.006  30.749  1.00  0.00     0.023 C 
BRANCH  30  31
ATOM     31  C   UNL A   1      35.935  33.919  31.253  1.00  0.00     0.023 C 
BRANCH  31  32
ATOM     32  C   UNL A   1      36.759  32.758  30.701  1.00  0.00     0.116 C 
BRANCH  32  33
ATOM     33  N   UNL A   1      36.024  31.504  30.662  1.00  0.00    -0.352 N 
ATOM     34  C   UNL A   1      36.438  30.263  30.236  1.00  0.00     0.251 C 
ATOM     35  H   UNL A   1      35.096  31.550  30.987  1.00  0.00     0.163 HD
ATOM     36  O   UNL A   1      35.619  29.349  30.145  1.00  0.00    -0.269 OA
BRANCH  34  37
ATOM     37  C   UNL A   1      37.851  30.031  29.858  1.00  0.00     0.039 A 
ATOM     38  C   UNL A   1      38.784  29.764  30.864  1.00  0.00     0.014 A 
ATOM     39  C   UNL A   1      38.259  30.071  28.522  1.00  0.00     0.014 A 
ATOM     40  C   UNL A   1      40.107  29.464  30.524  1.00  0.00     0.010 A 
ATOM     41  C   UNL A   1      39.558  29.696  28.181  1.00  0.00     0.010 A 
ATOM     42  C   UNL A   1      40.497  29.385  29.177  1.00  0.00    -0.014 A 
BRANCH  42  43
ATOM     43  C   UNL A   1      41.872  28.965  28.792  1.00  0.00     0.031 A 
ATOM     44  C   UNL A   1      42.993  29.970  28.752  1.00  0.00     0.074 A 
ATOM     45  C   UNL A   1      42.099  27.690  28.415  1.00  0.00     0.049 A 
ATOM     46  N   UNL A   1      44.237  29.804  28.380  1.00  0.00    -0.248 NA
ATOM     47  C   UNL A   1      42.668  31.346  29.158  1.00  0.00     0.031 C 
ATOM     48  C   UNL A   1      41.090  26.628  28.367  1.00  0.00     0.029 A 
ATOM     49  N   UNL A   1      43.248  27.069  27.990  1.00  0.00    -0.354 N 
ATOM     50  C   UNL A   1      44.838  31.054  28.493  1.00  0.00     0.074 A 
ATOM     51  C   UNL A   1      43.809  31.977  28.918  1.00  0.00     0.031 C 
ATOM     52  C   UNL A   1      41.668  25.487  27.964  1.00  0.00     0.029 A 
ATOM     53  C   UNL A   1      43.078  25.738  27.680  1.00  0.00     0.049 A 
ATOM     54  H   UNL A   1      44.114  27.532  27.914  1.00  0.00     0.167 HD
ATOM     55  C   UNL A   1      46.132  31.395  28.282  1.00  0.00     0.037 A 
ATOM     56  C   UNL A   1      43.953  24.826  27.211  1.00  0.00     0.037 A 
ATOM     57  C   UNL A   1      47.157  30.466  27.880  1.00  0.00     0.049 A 
ATOM     58  C   UNL A   1      45.382  25.234  26.970  1.00  0.00     0.074 A 
ATOM     59  C   UNL A   1      48.509  30.703  27.704  1.00  0.00     0.029 A 
ATOM     60  N   UNL A   1      46.946  29.127  27.584  1.00  0.00    -0.354 N 
ATOM     61  N   UNL A   1      45.946  26.405  27.150  1.00  0.00    -0.248 NA
ATOM     62  C   UNL A   1      46.293  24.198  26.467  1.00  0.00     0.031 C 
ATOM     63  C   UNL A   1      49.105  29.523  27.246  1.00  0.00     0.029 A 
ATOM     64  C   UNL A   1      48.137  28.533  27.198  1.00  0.00     0.049 A 
ATOM     65  H   UNL A   1      46.078  28.666  27.641  1.00  0.00     0.167 HD
ATOM     66  C   UNL A   1      47.285  26.236  26.814  1.00  0.00     0.074 A 
ATOM     67  C   UNL A   1      47.448  24.849  26.430  1.00  0.00     0.031 C 
ATOM     68  C   UNL A   1      48.290  27.148  26.825  1.00  0.00     0.037 A 
BRANCH  55  69
ATOM     69  C   UNL A   1      46.517  32.837  28.478  1.00  0.00     0.058 A 
ATOM     70  C   UNL A   1      46.949  33.327  29.721  1.00  0.00     0.135 A 
ATOM     71  C   UNL A   1      46.496  33.733  27.395  1.00  0.00     0.135 A 
ATOM     72  F   UNL A   1      46.977  32.521  30.794  1.00  0.00    -0.206 F 
ATOM     73  C   UNL A   1      47.316  34.659  29.892  1.00  0.00     0.059 A 
ATOM     74  C   UNL A   1      46.890  35.061  27.536  1.00  0.00     0.059 A 
ATOM     75  F   UNL A   1      46.094  33.320  26.184  1.00  0.00    -0.206 F 
ATOM     76  C   UNL A   1      47.284  35.518  28.793  1.00  0.00     0.060 A 
BRANCH  76  77
ATOM     77  S   UNL A   1      47.768  37.240  29.033  1.00  0.00     0.124 S 
ATOM     78  O   UNL A   1      46.621  37.765  29.767  1.00  0.00    -0.237 OA
ATOM     79  O   UNL A   1      49.004  37.113  29.796  1.00  0.00    -0.237 OA
ATOM     80  O   UNL A   1      47.923  37.743  27.671  1.00  0.00    -0.744 OA
ENDBRANCH  76  77
ENDBRANCH  55  69
BRANCH  56  81
ATOM     81  C   UNL A   1      43.508  23.429  26.958  1.00  0.00     0.058 A 
ATOM     82  C   UNL A   1      43.220  22.559  28.020  1.00  0.00     0.135 A 
ATOM     83  C   UNL A   1      43.356  22.936  25.652  1.00  0.00     0.135 A 
ATOM     84  F   UNL A   1      43.359  22.980  29.287  1.00  0.00    -0.206 F 
ATOM     85  C   UNL A   1      42.816  21.247  27.801  1.00  0.00     0.059 A 
ATOM     86  C   UNL A   1      42.924  21.636  25.407  1.00  0.00     0.059 A 
ATOM     87  F   UNL A   1      43.602  23.730  24.599  1.00  0.00    -0.206 F 
ATOM     88  C   UNL A   1      42.666  20.795  26.489  1.00  0.00     0.060 A 
BRANCH  88  89
ATOM     89  S   UNL A   1      42.095  19.103  26.215  1.00  0.00     0.124 S 
ATOM     90  O   UNL A   1      42.369  18.488  27.509  1.00  0.00    -0.237 OA
ATOM     91  O   UNL A   1      40.687  19.306  25.888  1.00  0.00    -0.237 OA
ATOM     92  O   UNL A   1      42.928  18.643  25.108  1.00  0.00    -0.744 OA
ENDBRANCH  88  89
ENDBRANCH  56  81
BRANCH  68  93
ATOM     93  C   UNL A   1      49.668  26.672  26.450  1.00  0.00     0.058 A 
ATOM     94  C   UNL A   1      50.157  26.772  25.138  1.00  0.00     0.135 A 
ATOM     95  C   UNL A   1      50.530  26.155  27.432  1.00  0.00     0.135 A 
ATOM     96  F   UNL A   1      49.374  27.252  24.159  1.00  0.00    -0.206 F 
ATOM     97  C   UNL A   1      51.442  26.354  24.808  1.00  0.00     0.059 A 
ATOM     98  C   UNL A   1      51.830  25.761  27.131  1.00  0.00     0.059 A 
ATOM     99  F   UNL A   1      50.117  26.046  28.705  1.00  0.00    -0.206 F 
ATOM    100  C   UNL A   1      52.273  25.853  25.812  1.00  0.00     0.060 A 
BRANCH 100 101
ATOM    101  S   UNL A   1      53.951  25.349  25.377  1.00  0.00     0.124 S 
ATOM    102  O   UNL A   1      53.706  24.103  24.658  1.00  0.00    -0.237 OA
ATOM    103  O   UNL A   1      54.412  26.470  24.564  1.00  0.00    -0.237 OA
ATOM    104  O   UNL A   1      54.611  25.208  26.671  1.00  0.00    -0.744 OA
ENDBRANCH 100 101
ENDBRANCH  68  93
ENDBRANCH  42  43
ENDBRANCH  34  37
ENDBRANCH  32  33
ENDBRANCH  31  32
ENDBRANCH  30  31
ENDBRANCH   1  30
TORSDOF 20
ENDMDL
