MODEL 1
REMARK VINA RESULT:     -12.8      0.000      0.000
REMARK SMILES O=C(C[C@@H]1C(=O)NCCN1C(=O)OCC1c2ccccc2-c2ccccc21)NCCCCNC(=O)c1ccc(-c2c3nc(c(-c4c(F)cc(S(=O)(=O)[O-])cc4F)c4ccc([nH]4)c(-c4c(F)cc(S(=O)(=O)[O-])cc4F)c4nc(c(-c5c(F)cc(S(=O)(=O)[O-])cc5F)c5ccc2[nH]5)C=C4)C=C3)cc1
REMARK SMILES IDX 29 1 28 2 1 3 2 4 3 6 4 7 5 8 10 9 6 10 7 11 9 12 8 13 11 15
REMARK SMILES IDX 12 16 13 17 14 18 15 19 16 20 27 21 17 22 21 23 22 24 26 25
REMARK SMILES IDX 18 26 20 27 23 28 25 29 19 30 24 31 30 32 31 33 32 34 33 35
REMARK SMILES IDX 34 36 35 38 36 39 37 40 101 41 38 42 100 43 39 44 40 45
REMARK SMILES IDX 41 46 94 47 42 48 99 49 93 50 95 51 43 52 98 53 92 54 91 55
REMARK SMILES IDX 44 57 78 58 57 59 77 60 58 61 61 62 76 63 96 64 59 65 60 66
REMARK SMILES IDX 75 68 97 69 62 70 45 71 46 72 55 73 47 74 48 75 54 76 56 77
REMARK SMILES IDX 49 78 50 79 51 80 52 81 53 82 79 83 80 84 89 85 81 86 82 87
REMARK SMILES IDX 88 88 90 89 83 90 84 91 85 92 86 93 87 94 63 95 64 96 73 97
REMARK SMILES IDX 65 98 66 99 72 100 74 101 67 102 68 103 69 104 70 105 71 106
REMARK H PARENT 28 5 7 14 33 37 95 56 61 67
REMARK Flexibility Score: inf
ROOT
ATOM      1  C   UNL A   1      33.702  28.620  26.810  1.00  0.00     0.116 C 
ENDROOT
BRANCH   1   2
ATOM      2  N   UNL A   1      33.635  28.476  25.371  1.00  0.00    -0.356 N 
ATOM      3  O   UNL A   1      31.781  29.775  25.084  1.00  0.00    -0.275 OA
ATOM      4  C   UNL A   1      32.663  29.065  24.608  1.00  0.00     0.222 C 
ATOM      5  H   UNL A   1      34.319  27.930  24.922  1.00  0.00     0.163 HD
BRANCH   4   6
ATOM      6  C   UNL A   1      32.674  28.685  23.138  1.00  0.00     0.135 C 
BRANCH   6   7
ATOM      7  C   UNL A   1      31.772  27.540  22.625  1.00  0.00     0.187 C 
ATOM      8  C   UNL A   1      30.281  27.989  22.570  1.00  0.00     0.243 C 
ATOM      9  N   UNL A   1      31.978  26.179  23.219  1.00  0.00    -0.294 N 
ATOM     10  O   UNL A   1      29.917  28.956  21.900  1.00  0.00    -0.273 OA
ATOM     11  N   UNL A   1      29.364  27.311  23.328  1.00  0.00    -0.353 N 
ATOM     12  C   UNL A   1      30.791  25.338  23.329  1.00  0.00     0.145 C 
ATOM     13  C   UNL A   1      29.683  26.097  24.042  1.00  0.00     0.137 C 
ATOM     14  H   UNL A   1      28.447  27.666  23.386  1.00  0.00     0.163 HD
BRANCH   9  15
ATOM     15  C   UNL A   1      33.195  25.542  23.414  1.00  0.00     0.410 C 
ATOM     16  O   UNL A   1      33.868  25.060  22.508  1.00  0.00    -0.224 OA
BRANCH  15  17
ATOM     17  O   UNL A   1      33.542  25.441  24.717  1.00  0.00    -0.448 OA
BRANCH  17  18
ATOM     18  C   UNL A   1      34.909  25.090  25.003  1.00  0.00     0.248 C 
BRANCH  18  19
ATOM     19  C   UNL A   1      35.119  23.861  25.931  1.00  0.00     0.088 C 
ATOM     20  C   UNL A   1      34.436  22.557  25.531  1.00  0.00    -0.029 A 
ATOM     21  C   UNL A   1      36.582  23.422  26.005  1.00  0.00    -0.029 A 
ATOM     22  C   UNL A   1      33.086  22.288  25.398  1.00  0.00     0.005 A 
ATOM     23  C   UNL A   1      35.400  21.553  25.289  1.00  0.00    -0.014 A 
ATOM     24  C   UNL A   1      36.709  22.072  25.614  1.00  0.00    -0.014 A 
ATOM     25  C   UNL A   1      37.681  24.155  26.428  1.00  0.00     0.005 A 
ATOM     26  C   UNL A   1      32.702  21.030  24.928  1.00  0.00     0.000 A 
ATOM     27  C   UNL A   1      35.018  20.303  24.826  1.00  0.00     0.009 A 
ATOM     28  C   UNL A   1      37.944  21.446  25.634  1.00  0.00     0.009 A 
ATOM     29  C   UNL A   1      38.926  23.524  26.448  1.00  0.00     0.000 A 
ATOM     30  C   UNL A   1      33.660  20.050  24.629  1.00  0.00     0.001 A 
ATOM     31  C   UNL A   1      39.057  22.182  26.053  1.00  0.00     0.001 A 
ENDBRANCH  18  19
ENDBRANCH  17  18
ENDBRANCH  15  17
ENDBRANCH   9  15
ENDBRANCH   6   7
ENDBRANCH   4   6
ENDBRANCH   1   2
BRANCH   1  32
ATOM     32  C   UNL A   1      34.951  29.384  27.245  1.00  0.00     0.023 C 
BRANCH  32  33
ATOM     33  C   UNL A   1      34.716  30.852  27.607  1.00  0.00     0.023 C 
BRANCH  33  34
ATOM     34  C   UNL A   1      35.762  31.468  28.530  1.00  0.00     0.116 C 
BRANCH  34  35
ATOM     35  N   UNL A   1      35.637  31.000  29.902  1.00  0.00    -0.352 N 
ATOM     36  C   UNL A   1      36.528  30.288  30.668  1.00  0.00     0.251 C 
ATOM     37  H   UNL A   1      34.789  31.228  30.347  1.00  0.00     0.163 HD
ATOM     38  O   UNL A   1      36.170  29.834  31.753  1.00  0.00    -0.269 OA
BRANCH  36  39
ATOM     39  C   UNL A   1      37.905  30.045  30.183  1.00  0.00     0.039 A 
ATOM     40  C   UNL A   1      38.948  29.985  31.112  1.00  0.00     0.014 A 
ATOM     41  C   UNL A   1      38.174  29.878  28.822  1.00  0.00     0.014 A 
ATOM     42  C   UNL A   1      40.245  29.693  30.683  1.00  0.00     0.010 A 
ATOM     43  C   UNL A   1      39.451  29.510  28.405  1.00  0.00     0.010 A 
ATOM     44  C   UNL A   1      40.502  29.413  29.330  1.00  0.00    -0.014 A 
BRANCH  44  45
ATOM     45  C   UNL A   1      41.857  29.007  28.870  1.00  0.00     0.031 A 
ATOM     46  C   UNL A   1      42.964  30.023  28.769  1.00  0.00     0.074 A 
ATOM     47  C   UNL A   1      42.078  27.733  28.487  1.00  0.00     0.049 A 
ATOM     48  N   UNL A   1      44.187  29.872  28.330  1.00  0.00    -0.248 NA
ATOM     49  C   UNL A   1      42.645  31.397  29.193  1.00  0.00     0.031 C 
ATOM     50  C   UNL A   1      41.077  26.664  28.493  1.00  0.00     0.029 A 
ATOM     51  N   UNL A   1      43.209  27.122  28.006  1.00  0.00    -0.354 N 
ATOM     52  C   UNL A   1      44.781  31.126  28.417  1.00  0.00     0.074 A 
ATOM     53  C   UNL A   1      43.765  32.040  28.895  1.00  0.00     0.031 C 
ATOM     54  C   UNL A   1      41.644  25.526  28.059  1.00  0.00     0.029 A 
ATOM     55  C   UNL A   1      43.033  25.792  27.700  1.00  0.00     0.049 A 
ATOM     56  H   UNL A   1      44.068  27.592  27.892  1.00  0.00     0.167 HD
ATOM     57  C   UNL A   1      46.061  31.480  28.149  1.00  0.00     0.037 A 
ATOM     58  C   UNL A   1      43.887  24.891  27.175  1.00  0.00     0.037 A 
ATOM     59  C   UNL A   1      47.071  30.563  27.684  1.00  0.00     0.049 A 
ATOM     60  C   UNL A   1      45.298  25.311  26.866  1.00  0.00     0.074 A 
ATOM     61  C   UNL A   1      48.407  30.814  27.427  1.00  0.00     0.029 A 
ATOM     62  N   UNL A   1      46.856  29.222  27.399  1.00  0.00    -0.354 N 
ATOM     63  N   UNL A   1      45.860  26.488  27.014  1.00  0.00    -0.248 NA
ATOM     64  C   UNL A   1      46.196  24.281  26.325  1.00  0.00     0.031 C 
ATOM     65  C   UNL A   1      48.987  29.640  26.935  1.00  0.00     0.029 A 
ATOM     66  C   UNL A   1      48.028  28.639  26.945  1.00  0.00     0.049 A 
ATOM     67  H   UNL A   1      45.996  28.753  27.504  1.00  0.00     0.167 HD
ATOM     68  C   UNL A   1      47.183  26.332  26.612  1.00  0.00     0.074 A 
ATOM     69  C   UNL A   1      47.340  24.944  26.228  1.00  0.00     0.031 C 
ATOM     70  C   UNL A   1      48.176  27.255  26.568  1.00  0.00     0.037 A 
BRANCH  57  71
ATOM     71  C   UNL A   1      46.445  32.922  28.352  1.00  0.00     0.058 A 
ATOM     72  C   UNL A   1      46.344  33.867  27.317  1.00  0.00     0.135 A 
ATOM     73  C   UNL A   1      46.887  33.376  29.605  1.00  0.00     0.135 A 
ATOM     74  F   UNL A   1      45.939  33.489  26.094  1.00  0.00    -0.206 F 
ATOM     75  C   UNL A   1      46.699  35.198  27.507  1.00  0.00     0.059 A 
ATOM     76  C   UNL A   1      47.217  34.711  29.828  1.00  0.00     0.059 A 
ATOM     77  F   UNL A   1      47.003  32.519  30.633  1.00  0.00    -0.206 F 
ATOM     78  C   UNL A   1      47.136  35.610  28.767  1.00  0.00     0.060 A 
BRANCH  78  79
ATOM     79  S   UNL A   1      47.594  37.342  28.994  1.00  0.00     0.124 S 
ATOM     80  O   UNL A   1      47.325  37.890  27.668  1.00  0.00    -0.237 OA
ATOM     81  O   UNL A   1      46.685  37.768  30.053  1.00  0.00    -0.237 OA
ATOM     82  O   UNL A   1      49.003  37.275  29.370  1.00  0.00    -0.744 OA
ENDBRANCH  78  79
ENDBRANCH  57  71
BRANCH  58  83
ATOM     83  C   UNL A   1      43.429  23.497  26.921  1.00  0.00     0.058 A 
ATOM     84  C   UNL A   1      43.190  23.038  25.617  1.00  0.00     0.135 A 
ATOM     85  C   UNL A   1      43.237  22.591  27.976  1.00  0.00     0.135 A 
ATOM     86  F   UNL A   1      43.352  23.867  24.573  1.00  0.00    -0.206 F 
ATOM     87  C   UNL A   1      42.764  21.738  25.367  1.00  0.00     0.059 A 
ATOM     88  C   UNL A   1      42.838  21.278  27.750  1.00  0.00     0.059 A 
ATOM     89  F   UNL A   1      43.466  22.975  29.242  1.00  0.00    -0.206 F 
ATOM     90  C   UNL A   1      42.595  20.862  26.442  1.00  0.00     0.060 A 
BRANCH  90  91
ATOM     91  S   UNL A   1      42.091  19.162  26.102  1.00  0.00     0.124 S 
ATOM     92  O   UNL A   1      42.508  18.481  27.323  1.00  0.00    -0.237 OA
ATOM     93  O   UNL A   1      40.651  19.304  25.909  1.00  0.00    -0.237 OA
ATOM     94  O   UNL A   1      42.846  18.822  24.900  1.00  0.00    -0.744 OA
ENDBRANCH  90  91
ENDBRANCH  58  83
BRANCH  70  95
ATOM     95  C   UNL A   1      49.537  26.790  26.123  1.00  0.00     0.058 A 
ATOM     96  C   UNL A   1      49.982  26.954  24.802  1.00  0.00     0.135 A 
ATOM     97  C   UNL A   1      50.430  26.223  27.047  1.00  0.00     0.135 A 
ATOM     98  F   UNL A   1      49.168  27.485  23.875  1.00  0.00    -0.206 F 
ATOM     99  C   UNL A   1      51.253  26.548  24.406  1.00  0.00     0.059 A 
ATOM    100  C   UNL A   1      51.717  25.840  26.682  1.00  0.00     0.059 A 
ATOM    101  F   UNL A   1      50.061  26.053  28.327  1.00  0.00    -0.206 F 
ATOM    102  C   UNL A   1      52.115  25.995  25.356  1.00  0.00     0.060 A 
BRANCH 102 103
ATOM    103  S   UNL A   1      53.774  25.507  24.837  1.00  0.00     0.124 S 
ATOM    104  O   UNL A   1      53.702  24.054  24.950  1.00  0.00    -0.237 OA
ATOM    105  O   UNL A   1      53.843  26.035  23.478  1.00  0.00    -0.237 OA
ATOM    106  O   UNL A   1      54.643  26.170  25.806  1.00  0.00    -0.744 OA
ENDBRANCH 102 103
ENDBRANCH  70  95
ENDBRANCH  44  45
ENDBRANCH  36  39
ENDBRANCH  34  35
ENDBRANCH  33  34
ENDBRANCH  32  33
ENDBRANCH   1  32
TORSDOF 19
ENDMDL
MODEL 2
REMARK VINA RESULT:     -12.5      6.321     13.115
REMARK SMILES O=C(C[C@@H]1C(=O)NCCN1C(=O)OCC1c2ccccc2-c2ccccc21)NCCCCNC(=O)c1ccc(-c2c3nc(c(-c4c(F)cc(S(=O)(=O)[O-])cc4F)c4ccc([nH]4)c(-c4c(F)cc(S(=O)(=O)[O-])cc4F)c4nc(c(-c5c(F)cc(S(=O)(=O)[O-])cc5F)c5ccc2[nH]5)C=C4)C=C3)cc1
REMARK SMILES IDX 29 1 28 2 1 3 2 4 3 6 4 7 5 8 10 9 6 10 7 11 9 12 8 13 11 15
REMARK SMILES IDX 12 16 13 17 14 18 15 19 16 20 27 21 17 22 21 23 22 24 26 25
REMARK SMILES IDX 18 26 20 27 23 28 25 29 19 30 24 31 30 32 31 33 32 34 33 35
REMARK SMILES IDX 34 36 35 38 36 39 37 40 101 41 38 42 100 43 39 44 40 45
REMARK SMILES IDX 41 46 94 47 42 48 99 49 93 50 95 51 43 52 98 53 92 54 91 55
REMARK SMILES IDX 44 57 78 58 57 59 77 60 58 61 61 62 76 63 96 64 59 65 60 66
REMARK SMILES IDX 75 68 97 69 62 70 45 71 46 72 55 73 47 74 48 75 54 76 56 77
REMARK SMILES IDX 49 78 50 79 51 80 52 81 53 82 79 83 80 84 89 85 81 86 82 87
REMARK SMILES IDX 88 88 90 89 83 90 84 91 85 92 86 93 87 94 63 95 64 96 73 97
REMARK SMILES IDX 65 98 66 99 72 100 74 101 67 102 68 103 69 104 70 105 71 106
REMARK H PARENT 28 5 7 14 33 37 95 56 61 67
REMARK Flexibility Score: inf
ROOT
ATOM      1  C   UNL A   1      38.835  20.685  25.834  1.00  0.00     0.116 C 
ENDROOT
BRANCH   1   2
ATOM      2  N   UNL A   1      40.277  20.777  25.766  1.00  0.00    -0.356 N 
ATOM      3  O   UNL A   1      40.668  20.071  27.900  1.00  0.00    -0.275 OA
ATOM      4  C   UNL A   1      41.095  20.467  26.819  1.00  0.00     0.222 C 
ATOM      5  H   UNL A   1      40.689  21.076  24.923  1.00  0.00     0.163 HD
BRANCH   4   6
ATOM      6  C   UNL A   1      42.569  20.759  26.604  1.00  0.00     0.135 C 
BRANCH   6   7
ATOM      7  C   UNL A   1      43.338  20.072  25.454  1.00  0.00     0.187 C 
ATOM      8  C   UNL A   1      43.624  18.578  25.791  1.00  0.00     0.243 C 
ATOM      9  N   UNL A   1      44.512  20.801  24.874  1.00  0.00    -0.294 N 
ATOM     10  O   UNL A   1      42.717  17.782  26.040  1.00  0.00    -0.273 OA
ATOM     11  N   UNL A   1      44.925  18.158  25.857  1.00  0.00    -0.353 N 
ATOM     12  C   UNL A   1      45.609  19.971  24.383  1.00  0.00     0.145 C 
ATOM     13  C   UNL A   1      46.037  18.990  25.462  1.00  0.00     0.137 C 
ATOM     14  H   UNL A   1      45.110  17.248  26.186  1.00  0.00     0.163 HD
BRANCH   9  15
ATOM     15  C   UNL A   1      44.550  22.139  24.506  1.00  0.00     0.410 C 
ATOM     16  O   UNL A   1      43.719  22.671  23.778  1.00  0.00    -0.224 OA
BRANCH  15  17
ATOM     17  O   UNL A   1      45.638  22.791  24.975  1.00  0.00    -0.448 OA
BRANCH  17  18
ATOM     18  C   UNL A   1      45.689  23.041  26.392  1.00  0.00     0.248 C 
BRANCH  18  19
ATOM     19  C   UNL A   1      44.613  24.010  26.955  1.00  0.00     0.088 C 
ATOM     20  C   UNL A   1      44.428  24.048  28.468  1.00  0.00    -0.029 A 
ATOM     21  C   UNL A   1      44.924  25.476  26.654  1.00  0.00    -0.029 A 
ATOM     22  C   UNL A   1      44.032  23.033  29.322  1.00  0.00     0.005 A 
ATOM     23  C   UNL A   1      44.721  25.337  28.966  1.00  0.00    -0.014 A 
ATOM     24  C   UNL A   1      44.989  26.219  27.853  1.00  0.00    -0.014 A 
ATOM     25  C   UNL A   1      45.085  26.087  25.420  1.00  0.00     0.005 A 
ATOM     26  C   UNL A   1      44.022  23.287  30.696  1.00  0.00     0.000 A 
ATOM     27  C   UNL A   1      44.708  25.589  30.330  1.00  0.00     0.009 A 
ATOM     28  C   UNL A   1      45.228  27.582  27.824  1.00  0.00     0.009 A 
ATOM     29  C   UNL A   1      45.326  27.462  25.391  1.00  0.00     0.000 A 
ATOM     30  C   UNL A   1      44.372  24.549  31.198  1.00  0.00     0.001 A 
ATOM     31  C   UNL A   1      45.399  28.203  26.582  1.00  0.00     0.001 A 
ENDBRANCH  18  19
ENDBRANCH  17  18
ENDBRANCH  15  17
ENDBRANCH   9  15
ENDBRANCH   6   7
ENDBRANCH   4   6
ENDBRANCH   1   2
BRANCH   1  32
ATOM     32  C   UNL A   1      38.158  21.884  25.175  1.00  0.00     0.023 C 
BRANCH  32  33
ATOM     33  C   UNL A   1      37.491  22.862  26.146  1.00  0.00     0.023 C 
BRANCH  33  34
ATOM     34  C   UNL A   1      38.292  24.123  26.449  1.00  0.00     0.116 C 
BRANCH  34  35
ATOM     35  N   UNL A   1      39.703  23.977  26.124  1.00  0.00    -0.352 N 
ATOM     36  C   UNL A   1      40.773  24.752  26.501  1.00  0.00     0.251 C 
ATOM     37  H   UNL A   1      39.923  23.210  25.549  1.00  0.00     0.163 HD
ATOM     38  O   UNL A   1      41.871  24.568  25.980  1.00  0.00    -0.269 OA
BRANCH  36  39
ATOM     39  C   UNL A   1      40.604  25.822  27.509  1.00  0.00     0.039 A 
ATOM     40  C   UNL A   1      39.616  25.680  28.487  1.00  0.00     0.014 A 
ATOM     41  C   UNL A   1      41.410  26.965  27.495  1.00  0.00     0.014 A 
ATOM     42  C   UNL A   1      39.481  26.647  29.486  1.00  0.00     0.010 A 
ATOM     43  C   UNL A   1      41.327  27.887  28.536  1.00  0.00     0.010 A 
ATOM     44  C   UNL A   1      40.362  27.740  29.543  1.00  0.00    -0.014 A 
BRANCH  44  45
ATOM     45  C   UNL A   1      40.295  28.728  30.654  1.00  0.00     0.031 A 
ATOM     46  C   UNL A   1      41.175  28.574  31.865  1.00  0.00     0.074 A 
ATOM     47  C   UNL A   1      39.398  29.733  30.599  1.00  0.00     0.049 A 
ATOM     48  N   UNL A   1      41.214  29.294  32.957  1.00  0.00    -0.248 NA
ATOM     49  C   UNL A   1      42.121  27.445  31.860  1.00  0.00     0.031 C 
ATOM     50  C   UNL A   1      38.455  29.965  29.502  1.00  0.00     0.029 A 
ATOM     51  N   UNL A   1      39.121  30.741  31.489  1.00  0.00    -0.354 N 
ATOM     52  C   UNL A   1      42.177  28.706  33.768  1.00  0.00     0.074 A 
ATOM     53  C   UNL A   1      42.657  27.534  33.069  1.00  0.00     0.031 C 
ATOM     54  C   UNL A   1      37.720  31.055  29.774  1.00  0.00     0.029 A 
ATOM     55  C   UNL A   1      38.105  31.575  31.083  1.00  0.00     0.049 A 
ATOM     56  H   UNL A   1      39.605  30.856  32.339  1.00  0.00     0.167 HD
ATOM     57  C   UNL A   1      42.637  29.118  34.974  1.00  0.00     0.037 A 
ATOM     58  C   UNL A   1      37.536  32.631  31.699  1.00  0.00     0.037 A 
ATOM     59  C   UNL A   1      42.162  30.293  35.660  1.00  0.00     0.049 A 
ATOM     60  C   UNL A   1      38.050  33.059  33.046  1.00  0.00     0.074 A 
ATOM     61  C   UNL A   1      42.598  30.819  36.864  1.00  0.00     0.029 A 
ATOM     62  N   UNL A   1      41.143  31.119  35.210  1.00  0.00    -0.354 N 
ATOM     63  N   UNL A   1      39.006  32.526  33.772  1.00  0.00    -0.248 NA
ATOM     64  C   UNL A   1      37.415  34.234  33.658  1.00  0.00     0.031 C 
ATOM     65  C   UNL A   1      41.804  31.931  37.168  1.00  0.00     0.029 A 
ATOM     66  C   UNL A   1      40.917  32.136  36.123  1.00  0.00     0.049 A 
ATOM     67  H   UNL A   1      40.652  30.999  34.365  1.00  0.00     0.167 HD
ATOM     68  C   UNL A   1      39.106  33.318  34.911  1.00  0.00     0.074 A 
ATOM     69  C   UNL A   1      38.123  34.373  34.772  1.00  0.00     0.031 C 
ATOM     70  C   UNL A   1      39.938  33.185  35.974  1.00  0.00     0.037 A 
BRANCH  57  71
ATOM     71  C   UNL A   1      43.713  28.292  35.631  1.00  0.00     0.058 A 
ATOM     72  C   UNL A   1      43.406  27.282  36.557  1.00  0.00     0.135 A 
ATOM     73  C   UNL A   1      45.065  28.489  35.306  1.00  0.00     0.135 A 
ATOM     74  F   UNL A   1      42.132  27.056  36.916  1.00  0.00    -0.206 F 
ATOM     75  C   UNL A   1      44.400  26.521  37.163  1.00  0.00     0.059 A 
ATOM     76  C   UNL A   1      46.075  27.717  35.875  1.00  0.00     0.059 A 
ATOM     77  F   UNL A   1      45.419  29.439  34.426  1.00  0.00    -0.206 F 
ATOM     78  C   UNL A   1      45.733  26.747  36.815  1.00  0.00     0.060 A 
BRANCH  78  79
ATOM     79  S   UNL A   1      47.010  25.750  37.613  1.00  0.00     0.124 S 
ATOM     80  O   UNL A   1      47.342  24.802  36.553  1.00  0.00    -0.237 OA
ATOM     81  O   UNL A   1      48.035  26.744  37.918  1.00  0.00    -0.237 OA
ATOM     82  O   UNL A   1      46.327  25.182  38.771  1.00  0.00    -0.744 OA
ENDBRANCH  78  79
ENDBRANCH  57  71
BRANCH  58  83
ATOM     83  C   UNL A   1      36.422  33.362  31.036  1.00  0.00     0.058 A 
ATOM     84  C   UNL A   1      36.647  34.156  29.902  1.00  0.00     0.135 A 
ATOM     85  C   UNL A   1      35.105  33.270  31.515  1.00  0.00     0.135 A 
ATOM     86  F   UNL A   1      37.889  34.284  29.409  1.00  0.00    -0.206 F 
ATOM     87  C   UNL A   1      35.614  34.843  29.274  1.00  0.00     0.059 A 
ATOM     88  C   UNL A   1      34.050  33.924  30.888  1.00  0.00     0.059 A 
ATOM     89  F   UNL A   1      34.831  32.512  32.589  1.00  0.00    -0.206 F 
ATOM     90  C   UNL A   1      34.315  34.716  29.772  1.00  0.00     0.060 A 
BRANCH  90  91
ATOM     91  S   UNL A   1      32.973  35.572  28.919  1.00  0.00     0.124 S 
ATOM     92  O   UNL A   1      32.162  36.039  30.037  1.00  0.00    -0.237 OA
ATOM     93  O   UNL A   1      33.692  36.602  28.176  1.00  0.00    -0.237 OA
ATOM     94  O   UNL A   1      32.374  34.522  28.100  1.00  0.00    -0.744 OA
ENDBRANCH  90  91
ENDBRANCH  58  83
BRANCH  70  95
ATOM     95  C   UNL A   1      39.852  34.225  37.059  1.00  0.00     0.058 A 
ATOM     96  C   UNL A   1      39.097  34.021  38.224  1.00  0.00     0.135 A 
ATOM     97  C   UNL A   1      40.582  35.420  36.954  1.00  0.00     0.135 A 
ATOM     98  F   UNL A   1      38.375  32.899  38.374  1.00  0.00    -0.206 F 
ATOM     99  C   UNL A   1      39.047  34.976  39.236  1.00  0.00     0.059 A 
ATOM    100  C   UNL A   1      40.574  36.374  37.967  1.00  0.00     0.059 A 
ATOM    101  F   UNL A   1      41.330  35.662  35.866  1.00  0.00    -0.206 F 
ATOM    102  C   UNL A   1      39.794  36.149  39.099  1.00  0.00     0.060 A 
BRANCH 102 103
ATOM    103  S   UNL A   1      39.749  37.362  40.435  1.00  0.00     0.124 S 
ATOM    104  O   UNL A   1      39.002  38.453  39.817  1.00  0.00    -0.237 OA
ATOM    105  O   UNL A   1      39.052  36.636  41.492  1.00  0.00    -0.237 OA
ATOM    106  O   UNL A   1      41.159  37.635  40.694  1.00  0.00    -0.744 OA
ENDBRANCH 102 103
ENDBRANCH  70  95
ENDBRANCH  44  45
ENDBRANCH  36  39
ENDBRANCH  34  35
ENDBRANCH  33  34
ENDBRANCH  32  33
ENDBRANCH   1  32
TORSDOF 19
ENDMDL
MODEL 3
REMARK VINA RESULT:     -12.4      6.442     12.722
REMARK SMILES O=C(C[C@@H]1C(=O)NCCN1C(=O)OCC1c2ccccc2-c2ccccc21)NCCCCNC(=O)c1ccc(-c2c3nc(c(-c4c(F)cc(S(=O)(=O)[O-])cc4F)c4ccc([nH]4)c(-c4c(F)cc(S(=O)(=O)[O-])cc4F)c4nc(c(-c5c(F)cc(S(=O)(=O)[O-])cc5F)c5ccc2[nH]5)C=C4)C=C3)cc1
REMARK SMILES IDX 29 1 28 2 1 3 2 4 3 6 4 7 5 8 10 9 6 10 7 11 9 12 8 13 11 15
REMARK SMILES IDX 12 16 13 17 14 18 15 19 16 20 27 21 17 22 21 23 22 24 26 25
REMARK SMILES IDX 18 26 20 27 23 28 25 29 19 30 24 31 30 32 31 33 32 34 33 35
REMARK SMILES IDX 34 36 35 38 36 39 37 40 101 41 38 42 100 43 39 44 40 45
REMARK SMILES IDX 41 46 94 47 42 48 99 49 93 50 95 51 43 52 98 53 92 54 91 55
REMARK SMILES IDX 44 57 78 58 57 59 77 60 58 61 61 62 76 63 96 64 59 65 60 66
REMARK SMILES IDX 75 68 97 69 62 70 45 71 46 72 55 73 47 74 48 75 54 76 56 77
REMARK SMILES IDX 49 78 50 79 51 80 52 81 53 82 79 83 80 84 89 85 81 86 82 87
REMARK SMILES IDX 88 88 90 89 83 90 84 91 85 92 86 93 87 94 63 95 64 96 73 97
REMARK SMILES IDX 65 98 66 99 72 100 74 101 67 102 68 103 69 104 70 105 71 106
REMARK H PARENT 28 5 7 14 33 37 95 56 61 67
REMARK Flexibility Score: inf
ROOT
ATOM      1  C   UNL A   1      38.861  20.726  25.885  1.00  0.00     0.116 C 
ENDROOT
BRANCH   1   2
ATOM      2  N   UNL A   1      40.246  20.364  26.096  1.00  0.00    -0.356 N 
ATOM      3  O   UNL A   1      40.501  21.509  28.053  1.00  0.00    -0.275 OA
ATOM      4  C   UNL A   1      40.973  20.794  27.173  1.00  0.00     0.222 C 
ATOM      5  H   UNL A   1      40.685  19.782  25.434  1.00  0.00     0.163 HD
BRANCH   4   6
ATOM      6  C   UNL A   1      42.446  20.427  27.150  1.00  0.00     0.135 C 
BRANCH   6   7
ATOM      7  C   UNL A   1      43.129  20.039  25.819  1.00  0.00     0.187 C 
ATOM      8  C   UNL A   1      43.509  18.529  25.809  1.00  0.00     0.243 C 
ATOM      9  N   UNL A   1      44.210  20.944  25.308  1.00  0.00    -0.294 N 
ATOM     10  O   UNL A   1      42.664  17.644  25.960  1.00  0.00    -0.273 OA
ATOM     11  N   UNL A   1      44.827  18.185  25.673  1.00  0.00    -0.353 N 
ATOM     12  C   UNL A   1      45.288  20.302  24.562  1.00  0.00     0.145 C 
ATOM     13  C   UNL A   1      45.859  19.147  25.369  1.00  0.00     0.137 C 
ATOM     14  H   UNL A   1      45.081  17.240  25.785  1.00  0.00     0.163 HD
BRANCH   9  15
ATOM     15  C   UNL A   1      44.156  22.328  25.229  1.00  0.00     0.410 C 
ATOM     16  O   UNL A   1      43.432  22.940  24.451  1.00  0.00    -0.224 OA
BRANCH  15  17
ATOM     17  O   UNL A   1      45.035  22.944  26.050  1.00  0.00    -0.448 OA
BRANCH  17  18
ATOM     18  C   UNL A   1      45.038  24.384  26.042  1.00  0.00     0.248 C 
BRANCH  18  19
ATOM     19  C   UNL A   1      44.052  25.076  27.023  1.00  0.00     0.088 C 
ATOM     20  C   UNL A   1      44.015  24.559  28.458  1.00  0.00    -0.029 A 
ATOM     21  C   UNL A   1      44.381  26.553  27.246  1.00  0.00    -0.029 A 
ATOM     22  C   UNL A   1      43.670  23.302  28.920  1.00  0.00     0.005 A 
ATOM     23  C   UNL A   1      44.396  25.580  29.357  1.00  0.00    -0.014 A 
ATOM     24  C   UNL A   1      44.585  26.808  28.619  1.00  0.00    -0.014 A 
ATOM     25  C   UNL A   1      44.443  27.573  26.308  1.00  0.00     0.005 A 
ATOM     26  C   UNL A   1      43.800  23.038  30.286  1.00  0.00     0.000 A 
ATOM     27  C   UNL A   1      44.522  25.318  30.713  1.00  0.00     0.009 A 
ATOM     28  C   UNL A   1      44.865  28.090  29.063  1.00  0.00     0.009 A 
ATOM     29  C   UNL A   1      44.725  28.864  26.756  1.00  0.00     0.000 A 
ATOM     30  C   UNL A   1      44.237  24.031  31.173  1.00  0.00     0.001 A 
ATOM     31  C   UNL A   1      44.935  29.121  28.121  1.00  0.00     0.001 A 
ENDBRANCH  18  19
ENDBRANCH  17  18
ENDBRANCH  15  17
ENDBRANCH   9  15
ENDBRANCH   6   7
ENDBRANCH   4   6
ENDBRANCH   1   2
BRANCH   1  32
ATOM     32  C   UNL A   1      38.722  22.153  25.359  1.00  0.00     0.023 C 
BRANCH  32  33
ATOM     33  C   UNL A   1      37.878  23.083  26.235  1.00  0.00     0.023 C 
BRANCH  33  34
ATOM     34  C   UNL A   1      38.582  24.354  26.696  1.00  0.00     0.116 C 
BRANCH  34  35
ATOM     35  N   UNL A   1      39.738  24.680  25.875  1.00  0.00    -0.352 N 
ATOM     36  C   UNL A   1      40.677  25.669  26.038  1.00  0.00     0.251 C 
ATOM     37  H   UNL A   1      39.865  24.106  25.085  1.00  0.00     0.163 HD
ATOM     38  O   UNL A   1      41.484  25.895  25.139  1.00  0.00    -0.269 OA
BRANCH  36  39
ATOM     39  C   UNL A   1      40.705  26.478  27.277  1.00  0.00     0.039 A 
ATOM     40  C   UNL A   1      41.055  27.828  27.195  1.00  0.00     0.014 A 
ATOM     41  C   UNL A   1      40.393  25.913  28.517  1.00  0.00     0.014 A 
ATOM     42  C   UNL A   1      41.026  28.625  28.342  1.00  0.00     0.010 A 
ATOM     43  C   UNL A   1      40.288  26.725  29.644  1.00  0.00     0.010 A 
ATOM     44  C   UNL A   1      40.604  28.090  29.570  1.00  0.00    -0.014 A 
BRANCH  44  45
ATOM     45  C   UNL A   1      40.475  28.946  30.781  1.00  0.00     0.031 A 
ATOM     46  C   UNL A   1      39.449  30.046  30.831  1.00  0.00     0.074 A 
ATOM     47  C   UNL A   1      41.324  28.771  31.814  1.00  0.00     0.049 A 
ATOM     48  N   UNL A   1      39.231  30.932  31.769  1.00  0.00    -0.248 NA
ATOM     49  C   UNL A   1      38.566  30.185  29.661  1.00  0.00     0.031 C 
ATOM     50  C   UNL A   1      42.393  27.771  31.870  1.00  0.00     0.029 A 
ATOM     51  N   UNL A   1      41.432  29.434  33.012  1.00  0.00    -0.354 N 
ATOM     52  C   UNL A   1      38.197  31.734  31.304  1.00  0.00     0.074 A 
ATOM     53  C   UNL A   1      37.870  31.269  29.973  1.00  0.00     0.031 C 
ATOM     54  C   UNL A   1      43.033  27.873  33.046  1.00  0.00     0.029 A 
ATOM     55  C   UNL A   1      42.452  28.973  33.810  1.00  0.00     0.049 A 
ATOM     56  H   UNL A   1      40.833  30.171  33.274  1.00  0.00     0.167 HD
ATOM     57  C   UNL A   1      37.560  32.750  31.935  1.00  0.00     0.037 A 
ATOM     58  C   UNL A   1      42.884  29.395  35.016  1.00  0.00     0.037 A 
ATOM     59  C   UNL A   1      37.884  33.202  33.265  1.00  0.00     0.049 A 
ATOM     60  C   UNL A   1      42.175  30.538  35.690  1.00  0.00     0.074 A 
ATOM     61  C   UNL A   1      37.267  34.193  34.009  1.00  0.00     0.029 A 
ATOM     62  N   UNL A   1      38.915  32.701  34.046  1.00  0.00    -0.354 N 
ATOM     63  N   UNL A   1      41.156  31.246  35.259  1.00  0.00    -0.248 NA
ATOM     64  C   UNL A   1      42.666  30.937  37.015  1.00  0.00     0.031 C 
ATOM     65  C   UNL A   1      37.960  34.328  35.216  1.00  0.00     0.029 A 
ATOM     66  C   UNL A   1      38.968  33.378  35.254  1.00  0.00     0.049 A 
ATOM     67  H   UNL A   1      39.519  31.970  33.781  1.00  0.00     0.167 HD
ATOM     68  C   UNL A   1      40.868  32.154  36.273  1.00  0.00     0.074 A 
ATOM     69  C   UNL A   1      41.811  31.896  37.343  1.00  0.00     0.031 C 
ATOM     70  C   UNL A   1      39.908  33.112  36.314  1.00  0.00     0.037 A 
BRANCH  57  71
ATOM     71  C   UNL A   1      36.447  33.444  31.195  1.00  0.00     0.058 A 
ATOM     72  C   UNL A   1      36.697  34.262  30.080  1.00  0.00     0.135 A 
ATOM     73  C   UNL A   1      35.109  33.265  31.583  1.00  0.00     0.135 A 
ATOM     74  F   UNL A   1      37.957  34.481  29.671  1.00  0.00    -0.206 F 
ATOM     75  C   UNL A   1      35.668  34.903  29.399  1.00  0.00     0.059 A 
ATOM     76  C   UNL A   1      34.059  33.869  30.895  1.00  0.00     0.059 A 
ATOM     77  F   UNL A   1      34.808  32.494  32.639  1.00  0.00    -0.206 F 
ATOM     78  C   UNL A   1      34.351  34.700  29.815  1.00  0.00     0.060 A 
BRANCH  78  79
ATOM     79  S   UNL A   1      33.027  35.541  28.919  1.00  0.00     0.124 S 
ATOM     80  O   UNL A   1      33.777  36.539  28.162  1.00  0.00    -0.237 OA
ATOM     81  O   UNL A   1      32.444  34.457  28.135  1.00  0.00    -0.237 OA
ATOM     82  O   UNL A   1      32.178  36.069  29.983  1.00  0.00    -0.744 OA
ENDBRANCH  78  79
ENDBRANCH  57  71
BRANCH  58  83
ATOM     83  C   UNL A   1      44.042  28.722  35.666  1.00  0.00     0.058 A 
ATOM     84  C   UNL A   1      45.360  29.117  35.391  1.00  0.00     0.135 A 
ATOM     85  C   UNL A   1      43.853  27.680  36.587  1.00  0.00     0.135 A 
ATOM     86  F   UNL A   1      45.594  30.104  34.511  1.00  0.00    -0.206 F 
ATOM     87  C   UNL A   1      46.448  28.496  35.992  1.00  0.00     0.059 A 
ATOM     88  C   UNL A   1      44.924  27.062  37.224  1.00  0.00     0.059 A 
ATOM     89  F   UNL A   1      42.612  27.272  36.897  1.00  0.00    -0.206 F 
ATOM     90  C   UNL A   1      46.220  27.471  36.913  1.00  0.00     0.060 A 
BRANCH  90  91
ATOM     91  S   UNL A   1      47.640  26.707  37.727  1.00  0.00     0.124 S 
ATOM     92  O   UNL A   1      48.712  26.992  36.780  1.00  0.00    -0.237 OA
ATOM     93  O   UNL A   1      47.694  27.433  38.992  1.00  0.00    -0.237 OA
ATOM     94  O   UNL A   1      47.249  25.304  37.835  1.00  0.00    -0.744 OA
ENDBRANCH  90  91
ENDBRANCH  58  83
BRANCH  70  95
ATOM     95  C   UNL A   1      39.799  33.933  37.571  1.00  0.00     0.058 A 
ATOM     96  C   UNL A   1      40.444  35.173  37.706  1.00  0.00     0.135 A 
ATOM     97  C   UNL A   1      38.992  33.497  38.635  1.00  0.00     0.135 A 
ATOM     98  F   UNL A   1      41.233  35.635  36.723  1.00  0.00    -0.206 F 
ATOM     99  C   UNL A   1      40.313  35.939  38.860  1.00  0.00     0.059 A 
ATOM    100  C   UNL A   1      38.821  34.262  39.785  1.00  0.00     0.059 A 
ATOM    101  F   UNL A   1      38.344  32.325  38.555  1.00  0.00    -0.206 F 
ATOM    102  C   UNL A   1      39.495  35.476  39.893  1.00  0.00     0.060 A 
BRANCH 102 103
ATOM    103  S   UNL A   1      39.306  36.498  41.370  1.00  0.00     0.124 S 
ATOM    104  O   UNL A   1      39.044  37.810  40.788  1.00  0.00    -0.237 OA
ATOM    105  O   UNL A   1      38.176  35.865  42.044  1.00  0.00    -0.237 OA
ATOM    106  O   UNL A   1      40.592  36.358  42.048  1.00  0.00    -0.744 OA
ENDBRANCH 102 103
ENDBRANCH  70  95
ENDBRANCH  44  45
ENDBRANCH  36  39
ENDBRANCH  34  35
ENDBRANCH  33  34
ENDBRANCH  32  33
ENDBRANCH   1  32
TORSDOF 19
ENDMDL
