MODEL 1
REMARK VINA RESULT:     -14.1      0.000      0.000
REMARK SMILES Cc1cc(C(=O)N[C@H]2C=C[C@H](C(=O)NCCCCNC(=O)c3ccc(-c4c5nc(c(-c6c(F)cc(S(=O)(=O)[O-])cc6F)c6ccc([nH]6)c(-c6c(F)cc(S(=O)(=O)[O-])cc6F)c6nc(c(-c7c(F)cc(S(=O)(=O)[O-])cc7F)c7ccc4[nH]7)C=C6)C=C5)cc3)C2)ccc1F
REMARK SMILES IDX 17 1 16 2 15 3 14 4 12 5 13 6 11 8 8 9 9 10 88 11 10 12 7 13
REMARK SMILES IDX 5 14 6 15 4 17 1 18 2 19 3 20 91 21 90 22 92 23 89 24 18 25
REMARK SMILES IDX 19 26 20 27 21 29 22 30 23 31 87 32 24 33 86 34 25 35 26 36
REMARK SMILES IDX 27 37 80 38 28 39 85 40 79 41 81 42 29 43 84 44 78 45 77 46
REMARK SMILES IDX 30 48 64 49 43 50 63 51 44 52 47 53 62 54 82 55 45 56 46 57
REMARK SMILES IDX 61 59 83 60 48 61 31 62 32 63 41 64 33 65 34 66 40 67 42 68
REMARK SMILES IDX 35 69 36 70 37 71 38 72 39 73 65 74 66 75 75 76 67 77 68 78
REMARK SMILES IDX 74 79 76 80 69 81 70 82 71 83 72 84 73 85 49 86 50 87 59 88
REMARK SMILES IDX 51 89 52 90 58 91 60 92 53 93 54 94 55 95 56 96 57 97
REMARK H PARENT 14 7 7 16 19 28 81 47 47 58
REMARK Flexibility Score: inf
ROOT
ATOM      1  C   UNL A   1      33.380  28.641  25.889  1.00  0.00     0.023 C 
ENDROOT
BRANCH   1   2
ATOM      2  C   UNL A   1      33.859  28.251  24.483  1.00  0.00     0.023 C 
BRANCH   2   3
ATOM      3  C   UNL A   1      33.280  29.104  23.359  1.00  0.00     0.116 C 
BRANCH   3   4
ATOM      4  N   UNL A   1      32.552  28.284  22.419  1.00  0.00    -0.356 N 
ATOM      5  C   UNL A   1      31.315  27.740  22.473  1.00  0.00     0.227 C 
ATOM      6  O   UNL A   1      31.056  26.911  21.592  1.00  0.00    -0.274 OA
ATOM      7  H   UNL A   1      33.045  28.086  21.590  1.00  0.00     0.163 HD
BRANCH   5   8
ATOM      8  C   UNL A   1      30.277  28.065  23.574  1.00  0.00     0.103 C 
ATOM      9  C   UNL A   1      29.908  25.896  24.546  1.00  0.00     0.106 C 
ATOM     10  C   UNL A   1      28.631  26.415  23.975  1.00  0.00    -0.006 C 
ATOM     11  C   UNL A   1      30.644  27.214  24.808  1.00  0.00     0.047 C 
ATOM     12  C   UNL A   1      28.846  27.613  23.414  1.00  0.00    -0.016 C 
BRANCH   9  13
ATOM     13  N   UNL A   1      29.694  25.094  25.717  1.00  0.00    -0.346 N 
ATOM     14  C   UNL A   1      30.458  24.073  26.235  1.00  0.00     0.251 C 
ATOM     15  O   UNL A   1      30.097  23.563  27.296  1.00  0.00    -0.269 OA
ATOM     16  H   UNL A   1      28.879  25.305  26.226  1.00  0.00     0.164 HD
BRANCH  14  17
ATOM     17  C   UNL A   1      31.741  23.616  25.613  1.00  0.00     0.040 A 
ATOM     18  C   UNL A   1      35.515  23.628  26.157  1.00  0.00     0.047 C 
ATOM     19  C   UNL A   1      34.173  23.380  25.535  1.00  0.00    -0.015 A 
ATOM     20  C   UNL A   1      33.017  23.969  26.070  1.00  0.00     0.020 A 
ATOM     21  C   UNL A   1      34.044  22.539  24.432  1.00  0.00     0.126 A 
ATOM     22  C   UNL A   1      32.795  22.255  23.891  1.00  0.00     0.040 A 
ATOM     23  F   UNL A   1      35.133  21.988  23.878  1.00  0.00    -0.207 F 
ATOM     24  C   UNL A   1      31.645  22.777  24.491  1.00  0.00     0.017 A 
ENDBRANCH  14  17
ENDBRANCH   9  13
ENDBRANCH   5   8
ENDBRANCH   3   4
ENDBRANCH   2   3
ENDBRANCH   1   2
BRANCH   1  25
ATOM     25  C   UNL A   1      34.511  28.794  26.897  1.00  0.00     0.116 C 
BRANCH  25  26
ATOM     26  N   UNL A   1      34.877  30.194  27.051  1.00  0.00    -0.352 N 
ATOM     27  C   UNL A   1      35.904  30.705  27.815  1.00  0.00     0.251 C 
ATOM     28  H   UNL A   1      34.332  30.848  26.556  1.00  0.00     0.163 HD
ATOM     29  O   UNL A   1      35.738  31.784  28.371  1.00  0.00    -0.269 OA
BRANCH  27  30
ATOM     30  C   UNL A   1      37.137  29.907  27.963  1.00  0.00     0.039 A 
ATOM     31  C   UNL A   1      38.122  29.898  26.966  1.00  0.00     0.014 A 
ATOM     32  C   UNL A   1      37.287  29.140  29.116  1.00  0.00     0.014 A 
ATOM     33  C   UNL A   1      39.301  29.177  27.166  1.00  0.00     0.010 A 
ATOM     34  C   UNL A   1      38.473  28.502  29.354  1.00  0.00     0.010 A 
ATOM     35  C   UNL A   1      39.472  28.505  28.375  1.00  0.00    -0.014 A 
BRANCH  35  36
ATOM     36  C   UNL A   1      40.665  27.793  28.789  1.00  0.00     0.031 A 
ATOM     37  C   UNL A   1      40.871  26.386  28.408  1.00  0.00     0.074 A 
ATOM     38  C   UNL A   1      41.673  28.561  29.252  1.00  0.00     0.049 A 
ATOM     39  N   UNL A   1      41.838  25.667  28.850  1.00  0.00    -0.248 NA
ATOM     40  C   UNL A   1      39.994  25.659  27.494  1.00  0.00     0.031 C 
ATOM     41  C   UNL A   1      43.103  28.295  29.260  1.00  0.00     0.029 A 
ATOM     42  N   UNL A   1      41.559  29.767  29.925  1.00  0.00    -0.354 N 
ATOM     43  C   UNL A   1      41.901  24.519  28.092  1.00  0.00     0.074 A 
ATOM     44  C   UNL A   1      40.678  24.519  27.322  1.00  0.00     0.031 C 
ATOM     45  C   UNL A   1      43.700  29.164  30.097  1.00  0.00     0.029 A 
ATOM     46  C   UNL A   1      42.642  29.878  30.795  1.00  0.00     0.049 A 
ATOM     47  H   UNL A   1      40.840  30.430  29.809  1.00  0.00     0.167 HD
ATOM     48  C   UNL A   1      43.053  23.788  28.124  1.00  0.00     0.037 A 
ATOM     49  C   UNL A   1      42.415  29.781  32.143  1.00  0.00     0.037 A 
ATOM     50  C   UNL A   1      44.005  24.399  29.054  1.00  0.00     0.049 A 
ATOM     51  C   UNL A   1      43.063  28.568  32.768  1.00  0.00     0.074 A 
ATOM     52  C   UNL A   1      45.069  25.267  28.874  1.00  0.00     0.029 A 
ATOM     53  N   UNL A   1      43.710  24.414  30.410  1.00  0.00    -0.354 N 
ATOM     54  N   UNL A   1      43.384  27.477  32.128  1.00  0.00    -0.248 NA
ATOM     55  C   UNL A   1      43.466  28.533  34.165  1.00  0.00     0.031 C 
ATOM     56  C   UNL A   1      45.411  25.810  30.140  1.00  0.00     0.029 A 
ATOM     57  C   UNL A   1      44.563  25.262  31.089  1.00  0.00     0.049 A 
ATOM     58  H   UNL A   1      42.990  23.891  30.831  1.00  0.00     0.167 HD
ATOM     59  C   UNL A   1      44.038  26.610  32.973  1.00  0.00     0.074 A 
ATOM     60  C   UNL A   1      44.080  27.338  34.229  1.00  0.00     0.031 C 
ATOM     61  C   UNL A   1      44.482  25.384  32.543  1.00  0.00     0.037 A 
BRANCH  48  62
ATOM     62  C   UNL A   1      43.439  22.667  27.179  1.00  0.00     0.058 A 
ATOM     63  C   UNL A   1      42.747  21.432  27.216  1.00  0.00     0.135 A 
ATOM     64  C   UNL A   1      44.464  22.730  26.214  1.00  0.00     0.135 A 
ATOM     65  F   UNL A   1      41.723  21.223  28.054  1.00  0.00    -0.206 F 
ATOM     66  C   UNL A   1      43.071  20.343  26.406  1.00  0.00     0.059 A 
ATOM     67  C   UNL A   1      44.834  21.638  25.416  1.00  0.00     0.059 A 
ATOM     68  F   UNL A   1      45.121  23.869  25.968  1.00  0.00    -0.206 F 
ATOM     69  C   UNL A   1      44.129  20.446  25.517  1.00  0.00     0.060 A 
BRANCH  69  70
ATOM     70  S   UNL A   1      44.539  19.017  24.498  1.00  0.00     0.124 S 
ATOM     71  O   UNL A   1      45.885  18.688  24.959  1.00  0.00    -0.237 OA
ATOM     72  O   UNL A   1      43.494  18.067  24.867  1.00  0.00    -0.237 OA
ATOM     73  O   UNL A   1      44.461  19.535  23.135  1.00  0.00    -0.744 OA
ENDBRANCH  69  70
ENDBRANCH  48  62
BRANCH  49  74
ATOM     74  C   UNL A   1      41.099  30.385  32.540  1.00  0.00     0.058 A 
ATOM     75  C   UNL A   1      40.117  29.486  33.004  1.00  0.00     0.135 A 
ATOM     76  C   UNL A   1      41.039  31.709  33.011  1.00  0.00     0.135 A 
ATOM     77  F   UNL A   1      40.108  28.217  32.561  1.00  0.00    -0.206 F 
ATOM     78  C   UNL A   1      39.272  29.813  34.060  1.00  0.00     0.059 A 
ATOM     79  C   UNL A   1      40.193  32.058  34.068  1.00  0.00     0.059 A 
ATOM     80  F   UNL A   1      41.922  32.621  32.578  1.00  0.00    -0.206 F 
ATOM     81  C   UNL A   1      39.385  31.074  34.640  1.00  0.00     0.060 A 
BRANCH  81  82
ATOM     82  S   UNL A   1      38.635  31.319  36.269  1.00  0.00     0.124 S 
ATOM     83  O   UNL A   1      37.503  32.189  35.958  1.00  0.00    -0.237 OA
ATOM     84  O   UNL A   1      38.286  29.945  36.628  1.00  0.00    -0.237 OA
ATOM     85  O   UNL A   1      39.707  31.935  37.039  1.00  0.00    -0.744 OA
ENDBRANCH  81  82
ENDBRANCH  49  74
BRANCH  61  86
ATOM     86  C   UNL A   1      44.935  24.182  33.379  1.00  0.00     0.058 A 
ATOM     87  C   UNL A   1      44.178  23.025  33.629  1.00  0.00     0.135 A 
ATOM     88  C   UNL A   1      46.268  24.116  33.886  1.00  0.00     0.135 A 
ATOM     89  F   UNL A   1      42.927  22.878  33.190  1.00  0.00    -0.206 F 
ATOM     90  C   UNL A   1      44.681  21.918  34.318  1.00  0.00     0.059 A 
ATOM     91  C   UNL A   1      46.809  22.997  34.519  1.00  0.00     0.059 A 
ATOM     92  F   UNL A   1      47.128  25.136  33.775  1.00  0.00    -0.206 F 
ATOM     93  C   UNL A   1      46.001  21.902  34.742  1.00  0.00     0.060 A 
BRANCH  93  94
ATOM     94  S   UNL A   1      46.643  20.426  35.541  1.00  0.00     0.124 S 
ATOM     95  O   UNL A   1      45.576  19.464  35.278  1.00  0.00    -0.237 OA
ATOM     96  O   UNL A   1      47.888  20.201  34.814  1.00  0.00    -0.237 OA
ATOM     97  O   UNL A   1      46.800  20.827  36.935  1.00  0.00    -0.744 OA
ENDBRANCH  93  94
ENDBRANCH  61  86
ENDBRANCH  35  36
ENDBRANCH  27  30
ENDBRANCH  25  26
ENDBRANCH   1  25
TORSDOF 16
ENDMDL
MODEL 2
REMARK VINA RESULT:     -14.0      1.084      1.844
REMARK SMILES Cc1cc(C(=O)N[C@H]2C=C[C@H](C(=O)NCCCCNC(=O)c3ccc(-c4c5nc(c(-c6c(F)cc(S(=O)(=O)[O-])cc6F)c6ccc([nH]6)c(-c6c(F)cc(S(=O)(=O)[O-])cc6F)c6nc(c(-c7c(F)cc(S(=O)(=O)[O-])cc7F)c7ccc4[nH]7)C=C6)C=C5)cc3)C2)ccc1F
REMARK SMILES IDX 17 1 16 2 15 3 14 4 12 5 13 6 11 8 8 9 9 10 88 11 10 12 7 13
REMARK SMILES IDX 5 14 6 15 4 17 1 18 2 19 3 20 91 21 90 22 92 23 89 24 18 25
REMARK SMILES IDX 19 26 20 27 21 29 22 30 23 31 87 32 24 33 86 34 25 35 26 36
REMARK SMILES IDX 27 37 80 38 28 39 85 40 79 41 81 42 29 43 84 44 78 45 77 46
REMARK SMILES IDX 30 48 64 49 43 50 63 51 44 52 47 53 62 54 82 55 45 56 46 57
REMARK SMILES IDX 61 59 83 60 48 61 31 62 32 63 41 64 33 65 34 66 40 67 42 68
REMARK SMILES IDX 35 69 36 70 37 71 38 72 39 73 65 74 66 75 75 76 67 77 68 78
REMARK SMILES IDX 74 79 76 80 69 81 70 82 71 83 72 84 73 85 49 86 50 87 59 88
REMARK SMILES IDX 51 89 52 90 58 91 60 92 53 93 54 94 55 95 56 96 57 97
REMARK H PARENT 14 7 7 16 19 28 81 47 47 58
REMARK Flexibility Score: inf
ROOT
ATOM      1  C   UNL A   1      34.214  28.336  26.020  1.00  0.00     0.023 C 
ENDROOT
BRANCH   1   2
ATOM      2  C   UNL A   1      32.991  28.719  25.175  1.00  0.00     0.023 C 
BRANCH   2   3
ATOM      3  C   UNL A   1      31.651  28.519  25.876  1.00  0.00     0.116 C 
BRANCH   3   4
ATOM      4  N   UNL A   1      31.528  27.166  26.366  1.00  0.00    -0.356 N 
ATOM      5  C   UNL A   1      30.826  26.106  25.905  1.00  0.00     0.227 C 
ATOM      6  O   UNL A   1      30.763  25.133  26.668  1.00  0.00    -0.274 OA
ATOM      7  H   UNL A   1      32.048  26.982  27.181  1.00  0.00     0.163 HD
BRANCH   5   8
ATOM      8  C   UNL A   1      30.092  26.082  24.542  1.00  0.00     0.103 C 
ATOM      9  C   UNL A   1      31.874  25.476  23.046  1.00  0.00     0.106 C 
ATOM     10  C   UNL A   1      31.340  26.818  22.673  1.00  0.00    -0.006 C 
ATOM     11  C   UNL A   1      30.650  24.882  23.749  1.00  0.00     0.047 C 
ATOM     12  C   UNL A   1      30.363  27.162  23.524  1.00  0.00    -0.016 C 
BRANCH   9  13
ATOM     13  N   UNL A   1      32.320  24.732  21.902  1.00  0.00    -0.346 N 
ATOM     14  C   UNL A   1      33.205  23.681  21.827  1.00  0.00     0.251 C 
ATOM     15  O   UNL A   1      33.391  23.159  20.726  1.00  0.00    -0.269 OA
ATOM     16  H   UNL A   1      31.934  25.015  21.042  1.00  0.00     0.164 HD
BRANCH  14  17
ATOM     17  C   UNL A   1      33.884  23.097  23.027  1.00  0.00     0.040 A 
ATOM     18  C   UNL A   1      36.791  23.693  25.421  1.00  0.00     0.047 C 
ATOM     19  C   UNL A   1      35.594  23.063  24.774  1.00  0.00    -0.015 A 
ATOM     20  C   UNL A   1      35.096  23.557  23.559  1.00  0.00     0.020 A 
ATOM     21  C   UNL A   1      34.935  21.996  25.381  1.00  0.00     0.126 A 
ATOM     22  C   UNL A   1      33.788  21.451  24.818  1.00  0.00     0.040 A 
ATOM     23  F   UNL A   1      35.407  21.482  26.525  1.00  0.00    -0.207 F 
ATOM     24  C   UNL A   1      33.253  22.011  23.654  1.00  0.00     0.017 A 
ENDBRANCH  14  17
ENDBRANCH   9  13
ENDBRANCH   5   8
ENDBRANCH   3   4
ENDBRANCH   2   3
ENDBRANCH   1   2
BRANCH   1  25
ATOM     25  C   UNL A   1      34.223  28.976  27.402  1.00  0.00     0.116 C 
BRANCH  25  26
ATOM     26  N   UNL A   1      34.654  30.363  27.325  1.00  0.00    -0.352 N 
ATOM     27  C   UNL A   1      35.760  30.926  27.924  1.00  0.00     0.251 C 
ATOM     28  H   UNL A   1      34.092  30.968  26.786  1.00  0.00     0.163 HD
ATOM     29  O   UNL A   1      35.683  32.079  28.331  1.00  0.00    -0.269 OA
BRANCH  27  30
ATOM     30  C   UNL A   1      36.971  30.097  28.087  1.00  0.00     0.039 A 
ATOM     31  C   UNL A   1      37.910  29.971  27.054  1.00  0.00     0.014 A 
ATOM     32  C   UNL A   1      37.145  29.420  29.292  1.00  0.00     0.014 A 
ATOM     33  C   UNL A   1      39.072  29.226  27.265  1.00  0.00     0.010 A 
ATOM     34  C   UNL A   1      38.318  28.760  29.532  1.00  0.00     0.010 A 
ATOM     35  C   UNL A   1      39.272  28.647  28.517  1.00  0.00    -0.014 A 
BRANCH  35  36
ATOM     36  C   UNL A   1      40.458  27.927  28.939  1.00  0.00     0.031 A 
ATOM     37  C   UNL A   1      40.640  26.509  28.589  1.00  0.00     0.074 A 
ATOM     38  C   UNL A   1      41.480  28.690  29.377  1.00  0.00     0.049 A 
ATOM     39  N   UNL A   1      41.600  25.785  29.041  1.00  0.00    -0.248 NA
ATOM     40  C   UNL A   1      39.746  25.774  27.698  1.00  0.00     0.031 C 
ATOM     41  C   UNL A   1      42.906  28.402  29.381  1.00  0.00     0.029 A 
ATOM     42  N   UNL A   1      41.389  29.913  30.023  1.00  0.00    -0.354 N 
ATOM     43  C   UNL A   1      41.640  24.620  28.309  1.00  0.00     0.074 A 
ATOM     44  C   UNL A   1      40.412  24.620  27.548  1.00  0.00     0.031 C 
ATOM     45  C   UNL A   1      43.523  29.281  30.194  1.00  0.00     0.029 A 
ATOM     46  C   UNL A   1      42.481  30.027  30.883  1.00  0.00     0.049 A 
ATOM     47  H   UNL A   1      40.680  30.583  29.896  1.00  0.00     0.167 HD
ATOM     48  C   UNL A   1      42.781  23.871  28.350  1.00  0.00     0.037 A 
ATOM     49  C   UNL A   1      42.261  29.964  32.234  1.00  0.00     0.037 A 
ATOM     50  C   UNL A   1      43.748  24.489  29.258  1.00  0.00     0.049 A 
ATOM     51  C   UNL A   1      42.896  28.756  32.882  1.00  0.00     0.074 A 
ATOM     52  C   UNL A   1      44.824  25.337  29.051  1.00  0.00     0.029 A 
ATOM     53  N   UNL A   1      43.464  24.540  30.616  1.00  0.00    -0.354 N 
ATOM     54  N   UNL A   1      43.196  27.647  32.265  1.00  0.00    -0.248 NA
ATOM     55  C   UNL A   1      43.308  28.747  34.276  1.00  0.00     0.031 C 
ATOM     56  C   UNL A   1      45.183  25.904  30.302  1.00  0.00     0.029 A 
ATOM     57  C   UNL A   1      44.334  25.390  31.269  1.00  0.00     0.049 A 
ATOM     58  H   UNL A   1      42.739  24.037  31.054  1.00  0.00     0.167 HD
ATOM     59  C   UNL A   1      43.843  26.789  33.125  1.00  0.00     0.074 A 
ATOM     60  C   UNL A   1      43.905  27.545  34.364  1.00  0.00     0.031 C 
ATOM     61  C   UNL A   1      44.266  25.547  32.720  1.00  0.00     0.037 A 
BRANCH  48  62
ATOM     62  C   UNL A   1      43.143  22.723  27.428  1.00  0.00     0.058 A 
ATOM     63  C   UNL A   1      42.387  21.526  27.447  1.00  0.00     0.135 A 
ATOM     64  C   UNL A   1      44.206  22.724  26.502  1.00  0.00     0.135 A 
ATOM     65  F   UNL A   1      41.322  21.379  28.248  1.00  0.00    -0.206 F 
ATOM     66  C   UNL A   1      42.684  20.415  26.658  1.00  0.00     0.059 A 
ATOM     67  C   UNL A   1      44.548  21.607  25.726  1.00  0.00     0.059 A 
ATOM     68  F   UNL A   1      44.931  23.826  26.274  1.00  0.00    -0.206 F 
ATOM     69  C   UNL A   1      43.778  20.455  25.810  1.00  0.00     0.060 A 
BRANCH  69  70
ATOM     70  S   UNL A   1      44.152  18.997  24.817  1.00  0.00     0.124 S 
ATOM     71  O   UNL A   1      42.993  18.146  25.075  1.00  0.00    -0.237 OA
ATOM     72  O   UNL A   1      44.240  19.556  23.473  1.00  0.00    -0.237 OA
ATOM     73  O   UNL A   1      45.411  18.515  25.379  1.00  0.00    -0.744 OA
ENDBRANCH  69  70
ENDBRANCH  48  62
BRANCH  49  74
ATOM     74  C   UNL A   1      40.957  30.597  32.626  1.00  0.00     0.058 A 
ATOM     75  C   UNL A   1      39.935  29.715  33.032  1.00  0.00     0.135 A 
ATOM     76  C   UNL A   1      40.931  31.902  33.148  1.00  0.00     0.135 A 
ATOM     77  F   UNL A   1      39.894  28.466  32.537  1.00  0.00    -0.206 F 
ATOM     78  C   UNL A   1      39.078  30.028  34.081  1.00  0.00     0.059 A 
ATOM     79  C   UNL A   1      40.073  32.239  34.200  1.00  0.00     0.059 A 
ATOM     80  F   UNL A   1      41.854  32.800  32.772  1.00  0.00    -0.206 F 
ATOM     81  C   UNL A   1      39.220  31.261  34.714  1.00  0.00     0.060 A 
BRANCH  81  82
ATOM     82  S   UNL A   1      38.440  31.467  36.334  1.00  0.00     0.124 S 
ATOM     83  O   UNL A   1      38.096  30.093  36.688  1.00  0.00    -0.237 OA
ATOM     84  O   UNL A   1      39.539  32.054  37.102  1.00  0.00    -0.237 OA
ATOM     85  O   UNL A   1      37.311  32.344  36.051  1.00  0.00    -0.744 OA
ENDBRANCH  81  82
ENDBRANCH  49  74
BRANCH  61  86
ATOM     86  C   UNL A   1      44.706  24.357  33.581  1.00  0.00     0.058 A 
ATOM     87  C   UNL A   1      43.850  23.465  34.247  1.00  0.00     0.135 A 
ATOM     88  C   UNL A   1      46.086  24.001  33.668  1.00  0.00     0.135 A 
ATOM     89  F   UNL A   1      42.523  23.602  34.238  1.00  0.00    -0.206 F 
ATOM     90  C   UNL A   1      44.308  22.340  34.938  1.00  0.00     0.059 A 
ATOM     91  C   UNL A   1      46.558  22.849  34.296  1.00  0.00     0.059 A 
ATOM     92  F   UNL A   1      47.056  24.749  33.125  1.00  0.00    -0.206 F 
ATOM     93  C   UNL A   1      45.658  22.026  34.942  1.00  0.00     0.060 A 
BRANCH  93  94
ATOM     94  S   UNL A   1      46.202  20.521  35.759  1.00  0.00     0.124 S 
ATOM     95  O   UNL A   1      45.864  20.806  37.151  1.00  0.00    -0.237 OA
ATOM     96  O   UNL A   1      45.382  19.505  35.106  1.00  0.00    -0.237 OA
ATOM     97  O   UNL A   1      47.628  20.459  35.457  1.00  0.00    -0.744 OA
ENDBRANCH  93  94
ENDBRANCH  61  86
ENDBRANCH  35  36
ENDBRANCH  27  30
ENDBRANCH  25  26
ENDBRANCH   1  25
TORSDOF 16
ENDMDL
MODEL 3
REMARK VINA RESULT:     -13.9      1.323      2.876
REMARK SMILES Cc1cc(C(=O)N[C@H]2C=C[C@H](C(=O)NCCCCNC(=O)c3ccc(-c4c5nc(c(-c6c(F)cc(S(=O)(=O)[O-])cc6F)c6ccc([nH]6)c(-c6c(F)cc(S(=O)(=O)[O-])cc6F)c6nc(c(-c7c(F)cc(S(=O)(=O)[O-])cc7F)c7ccc4[nH]7)C=C6)C=C5)cc3)C2)ccc1F
REMARK SMILES IDX 17 1 16 2 15 3 14 4 12 5 13 6 11 8 8 9 9 10 88 11 10 12 7 13
REMARK SMILES IDX 5 14 6 15 4 17 1 18 2 19 3 20 91 21 90 22 92 23 89 24 18 25
REMARK SMILES IDX 19 26 20 27 21 29 22 30 23 31 87 32 24 33 86 34 25 35 26 36
REMARK SMILES IDX 27 37 80 38 28 39 85 40 79 41 81 42 29 43 84 44 78 45 77 46
REMARK SMILES IDX 30 48 64 49 43 50 63 51 44 52 47 53 62 54 82 55 45 56 46 57
REMARK SMILES IDX 61 59 83 60 48 61 31 62 32 63 41 64 33 65 34 66 40 67 42 68
REMARK SMILES IDX 35 69 36 70 37 71 38 72 39 73 65 74 66 75 75 76 67 77 68 78
REMARK SMILES IDX 74 79 76 80 69 81 70 82 71 83 72 84 73 85 49 86 50 87 59 88
REMARK SMILES IDX 51 89 52 90 58 91 60 92 53 93 54 94 55 95 56 96 57 97
REMARK H PARENT 14 7 7 16 19 28 81 47 47 58
REMARK Flexibility Score: inf
ROOT
ATOM      1  C   UNL A   1      32.989  28.912  26.340  1.00  0.00     0.023 C 
ENDROOT
BRANCH   1   2
ATOM      2  C   UNL A   1      32.102  27.785  26.891  1.00  0.00     0.023 C 
BRANCH   2   3
ATOM      3  C   UNL A   1      32.279  26.442  26.191  1.00  0.00     0.116 C 
BRANCH   3   4
ATOM      4  N   UNL A   1      31.477  25.424  26.830  1.00  0.00    -0.356 N 
ATOM      5  C   UNL A   1      31.536  24.074  26.779  1.00  0.00     0.227 C 
ATOM      6  O   UNL A   1      30.573  23.477  27.278  1.00  0.00    -0.274 OA
ATOM      7  H   UNL A   1      30.759  25.776  27.403  1.00  0.00     0.163 HD
BRANCH   5   8
ATOM      8  C   UNL A   1      32.687  23.284  26.111  1.00  0.00     0.103 C 
ATOM      9  C   UNL A   1      32.255  23.682  23.779  1.00  0.00     0.106 C 
ATOM     10  C   UNL A   1      32.171  22.219  24.063  1.00  0.00    -0.006 C 
ATOM     11  C   UNL A   1      33.180  24.127  24.916  1.00  0.00     0.047 C 
ATOM     12  C   UNL A   1      32.390  22.005  25.368  1.00  0.00    -0.016 C 
BRANCH   9  13
ATOM     13  N   UNL A   1      32.761  23.951  22.463  1.00  0.00    -0.346 N 
ATOM     14  C   UNL A   1      32.690  25.102  21.712  1.00  0.00     0.251 C 
ATOM     15  O   UNL A   1      33.255  25.113  20.617  1.00  0.00    -0.269 OA
ATOM     16  H   UNL A   1      33.230  23.200  22.033  1.00  0.00     0.164 HD
BRANCH  14  17
ATOM     17  C   UNL A   1      32.031  26.355  22.199  1.00  0.00     0.040 A 
ATOM     18  C   UNL A   1      28.704  27.694  23.493  1.00  0.00     0.047 C 
ATOM     19  C   UNL A   1      30.138  27.642  23.056  1.00  0.00    -0.015 A 
ATOM     20  C   UNL A   1      30.661  26.487  22.456  1.00  0.00     0.020 A 
ATOM     21  C   UNL A   1      30.986  28.727  23.265  1.00  0.00     0.126 A 
ATOM     22  C   UNL A   1      32.331  28.661  22.921  1.00  0.00     0.040 A 
ATOM     23  F   UNL A   1      30.508  29.856  23.807  1.00  0.00    -0.207 F 
ATOM     24  C   UNL A   1      32.857  27.472  22.407  1.00  0.00     0.017 A 
ENDBRANCH  14  17
ENDBRANCH   9  13
ENDBRANCH   5   8
ENDBRANCH   3   4
ENDBRANCH   2   3
ENDBRANCH   1   2
BRANCH   1  25
ATOM     25  C   UNL A   1      34.344  29.010  27.028  1.00  0.00     0.116 C 
BRANCH  25  26
ATOM     26  N   UNL A   1      34.734  30.401  27.202  1.00  0.00    -0.352 N 
ATOM     27  C   UNL A   1      35.761  30.885  27.983  1.00  0.00     0.251 C 
ATOM     28  H   UNL A   1      34.206  31.070  26.708  1.00  0.00     0.163 HD
ATOM     29  O   UNL A   1      35.609  31.961  28.548  1.00  0.00    -0.269 OA
BRANCH  27  30
ATOM     30  C   UNL A   1      36.978  30.064  28.136  1.00  0.00     0.039 A 
ATOM     31  C   UNL A   1      37.943  29.998  27.122  1.00  0.00     0.014 A 
ATOM     32  C   UNL A   1      37.131  29.331  29.311  1.00  0.00     0.014 A 
ATOM     33  C   UNL A   1      39.109  29.257  27.326  1.00  0.00     0.010 A 
ATOM     34  C   UNL A   1      38.306  28.673  29.549  1.00  0.00     0.010 A 
ATOM     35  C   UNL A   1      39.286  28.621  28.553  1.00  0.00    -0.014 A 
BRANCH  35  36
ATOM     36  C   UNL A   1      40.470  27.895  28.969  1.00  0.00     0.031 A 
ATOM     37  C   UNL A   1      40.650  26.480  28.606  1.00  0.00     0.074 A 
ATOM     38  C   UNL A   1      41.493  28.652  29.416  1.00  0.00     0.049 A 
ATOM     39  N   UNL A   1      41.608  25.750  29.053  1.00  0.00    -0.248 NA
ATOM     40  C   UNL A   1      39.756  25.755  27.707  1.00  0.00     0.031 C 
ATOM     41  C   UNL A   1      42.919  28.362  29.419  1.00  0.00     0.029 A 
ATOM     42  N   UNL A   1      41.404  29.869  30.073  1.00  0.00    -0.354 N 
ATOM     43  C   UNL A   1      41.647  24.592  28.310  1.00  0.00     0.074 A 
ATOM     44  C   UNL A   1      40.420  24.601  27.548  1.00  0.00     0.031 C 
ATOM     45  C   UNL A   1      43.536  29.232  30.241  1.00  0.00     0.029 A 
ATOM     46  C   UNL A   1      42.495  29.973  30.935  1.00  0.00     0.049 A 
ATOM     47  H   UNL A   1      40.696  30.542  29.952  1.00  0.00     0.167 HD
ATOM     48  C   UNL A   1      42.787  23.841  28.345  1.00  0.00     0.037 A 
ATOM     49  C   UNL A   1      42.274  29.898  32.285  1.00  0.00     0.037 A 
ATOM     50  C   UNL A   1      43.754  24.449  29.260  1.00  0.00     0.049 A 
ATOM     51  C   UNL A   1      42.905  28.683  32.923  1.00  0.00     0.074 A 
ATOM     52  C   UNL A   1      44.832  25.297  29.062  1.00  0.00     0.029 A 
ATOM     53  N   UNL A   1      43.468  24.487  30.618  1.00  0.00    -0.354 N 
ATOM     54  N   UNL A   1      43.205  27.579  32.296  1.00  0.00    -0.248 NA
ATOM     55  C   UNL A   1      43.317  28.660  34.317  1.00  0.00     0.031 C 
ATOM     56  C   UNL A   1      45.191  25.851  30.319  1.00  0.00     0.029 A 
ATOM     57  C   UNL A   1      44.340  25.330  31.280  1.00  0.00     0.049 A 
ATOM     58  H   UNL A   1      42.743  23.982  31.051  1.00  0.00     0.167 HD
ATOM     59  C   UNL A   1      43.849  26.712  33.149  1.00  0.00     0.074 A 
ATOM     60  C   UNL A   1      43.911  27.456  34.394  1.00  0.00     0.031 C 
ATOM     61  C   UNL A   1      44.270  25.473  32.732  1.00  0.00     0.037 A 
BRANCH  48  62
ATOM     62  C   UNL A   1      43.148  22.701  27.412  1.00  0.00     0.058 A 
ATOM     63  C   UNL A   1      42.401  21.498  27.432  1.00  0.00     0.135 A 
ATOM     64  C   UNL A   1      44.202  22.715  26.476  1.00  0.00     0.135 A 
ATOM     65  F   UNL A   1      41.346  21.339  28.243  1.00  0.00    -0.206 F 
ATOM     66  C   UNL A   1      42.698  20.394  26.634  1.00  0.00     0.059 A 
ATOM     67  C   UNL A   1      44.544  21.605  25.691  1.00  0.00     0.059 A 
ATOM     68  F   UNL A   1      44.916  23.824  26.247  1.00  0.00    -0.206 F 
ATOM     69  C   UNL A   1      43.783  20.447  25.775  1.00  0.00     0.060 A 
BRANCH  69  70
ATOM     70  S   UNL A   1      44.157  18.998  24.770  1.00  0.00     0.124 S 
ATOM     71  O   UNL A   1      45.439  18.565  25.320  1.00  0.00    -0.237 OA
ATOM     72  O   UNL A   1      43.021  18.127  25.053  1.00  0.00    -0.237 OA
ATOM     73  O   UNL A   1      44.215  19.529  23.411  1.00  0.00    -0.744 OA
ENDBRANCH  69  70
ENDBRANCH  48  62
BRANCH  49  74
ATOM     74  C   UNL A   1      40.970  30.529  32.682  1.00  0.00     0.058 A 
ATOM     75  C   UNL A   1      39.953  29.646  33.097  1.00  0.00     0.135 A 
ATOM     76  C   UNL A   1      40.944  31.837  33.199  1.00  0.00     0.135 A 
ATOM     77  F   UNL A   1      39.912  28.395  32.608  1.00  0.00    -0.206 F 
ATOM     78  C   UNL A   1      39.101  29.962  34.150  1.00  0.00     0.059 A 
ATOM     79  C   UNL A   1      40.091  32.176  34.254  1.00  0.00     0.059 A 
ATOM     80  F   UNL A   1      41.862  32.735  32.814  1.00  0.00    -0.206 F 
ATOM     81  C   UNL A   1      39.243  31.198  34.777  1.00  0.00     0.060 A 
BRANCH  81  82
ATOM     82  S   UNL A   1      38.472  31.409  36.401  1.00  0.00     0.124 S 
ATOM     83  O   UNL A   1      39.552  32.012  37.178  1.00  0.00    -0.237 OA
ATOM     84  O   UNL A   1      37.364  32.306  36.071  1.00  0.00    -0.237 OA
ATOM     85  O   UNL A   1      38.110  30.049  36.777  1.00  0.00    -0.744 OA
ENDBRANCH  81  82
ENDBRANCH  49  74
BRANCH  61  86
ATOM     86  C   UNL A   1      44.708  24.275  33.583  1.00  0.00     0.058 A 
ATOM     87  C   UNL A   1      43.855  23.305  34.134  1.00  0.00     0.135 A 
ATOM     88  C   UNL A   1      46.095  23.996  33.778  1.00  0.00     0.135 A 
ATOM     89  F   UNL A   1      42.528  23.364  34.012  1.00  0.00    -0.206 F 
ATOM     90  C   UNL A   1      44.320  22.179  34.819  1.00  0.00     0.059 A 
ATOM     91  C   UNL A   1      46.581  22.848  34.401  1.00  0.00     0.059 A 
ATOM     92  F   UNL A   1      47.059  24.824  33.353  1.00  0.00    -0.206 F 
ATOM     93  C   UNL A   1      45.682  21.946  34.931  1.00  0.00     0.060 A 
BRANCH  93  94
ATOM     94  S   UNL A   1      46.246  20.441  35.735  1.00  0.00     0.124 S 
ATOM     95  O   UNL A   1      45.319  19.453  35.190  1.00  0.00    -0.237 OA
ATOM     96  O   UNL A   1      47.624  20.341  35.264  1.00  0.00    -0.237 OA
ATOM     97  O   UNL A   1      46.094  20.730  37.157  1.00  0.00    -0.744 OA
ENDBRANCH  93  94
ENDBRANCH  61  86
ENDBRANCH  35  36
ENDBRANCH  27  30
ENDBRANCH  25  26
ENDBRANCH   1  25
TORSDOF 16
ENDMDL
