MODEL 1
REMARK VINA RESULT:     -12.4      0.000      0.000
REMARK SMILES O=C(NCCCCNC(=O)c1ccccc1NC(=S)NC(=O)c1ccc2ccccc2c1)c1ccc(-c2c3nc(c(-c4c(F)cc(S(=O)(=O)[O-])cc4F)c4ccc([nH]4)c(-c4c(F)cc(S(=O)(=O)[O-])cc4F)c4nc(c(-c5c(F)cc(S(=O)(=O)[O-])cc5F)c5ccc2[nH]5)C=C4)C=C3)cc1
REMARK SMILES IDX 6 1 5 2 4 3 3 4 1 5 2 6 33 8 34 9 98 10 35 11 97 12 36 13
REMARK SMILES IDX 37 14 38 15 91 16 39 17 96 18 90 19 92 20 40 21 95 22 89 23
REMARK SMILES IDX 88 24 41 26 75 27 54 28 74 29 55 30 58 31 73 32 93 33 56 34
REMARK SMILES IDX 57 35 72 37 94 38 59 39 42 40 43 41 52 42 44 43 45 44 51 45
REMARK SMILES IDX 53 46 46 47 47 48 48 49 49 50 50 51 76 52 77 53 86 54 78 55
REMARK SMILES IDX 79 56 85 57 87 58 80 59 81 60 82 61 83 62 84 63 60 64 61 65
REMARK SMILES IDX 70 66 62 67 63 68 69 69 71 70 64 71 65 72 66 73 67 74 68 75
REMARK SMILES IDX 7 76 8 77 9 78 10 80 11 81 12 82 16 83 13 84 15 85 14 86
REMARK SMILES IDX 17 87 18 89 19 90 20 91 21 92 22 94 23 95 24 96 32 97 25 98
REMARK SMILES IDX 31 99 26 100 30 101 27 102 29 103 28 104
REMARK H PARENT 3 7 92 25 58 36 8 79 17 88 20 93
REMARK Flexibility Score: inf
ROOT
ATOM      1  C   UNL A   1      40.216  21.551  26.242  1.00  0.00     0.023 C 
ENDROOT
BRANCH   1   2
ATOM      2  C   UNL A   1      40.931  21.937  27.534  1.00  0.00     0.023 C 
BRANCH   2   3
ATOM      3  C   UNL A   1      41.994  23.011  27.356  1.00  0.00     0.116 C 
BRANCH   3   4
ATOM      4  N   UNL A   1      41.780  23.807  26.161  1.00  0.00    -0.352 N 
ATOM      5  O   UNL A   1      41.104  25.629  25.009  1.00  0.00    -0.269 OA
ATOM      6  C   UNL A   1      41.421  25.131  26.084  1.00  0.00     0.251 C 
ATOM      7  H   UNL A   1      41.910  23.342  25.302  1.00  0.00     0.163 HD
BRANCH   6   8
ATOM      8  C   UNL A   1      41.379  25.922  27.331  1.00  0.00     0.039 A 
ATOM      9  C   UNL A   1      40.300  25.787  28.207  1.00  0.00     0.014 A 
ATOM     10  C   UNL A   1      42.376  26.866  27.574  1.00  0.00     0.014 A 
ATOM     11  C   UNL A   1      40.117  26.723  29.213  1.00  0.00     0.010 A 
ATOM     12  C   UNL A   1      42.252  27.725  28.669  1.00  0.00     0.010 A 
ATOM     13  C   UNL A   1      41.100  27.692  29.471  1.00  0.00    -0.014 A 
BRANCH  13  14
ATOM     14  C   UNL A   1      40.925  28.618  30.619  1.00  0.00     0.031 A 
ATOM     15  C   UNL A   1      41.812  28.541  31.832  1.00  0.00     0.074 A 
ATOM     16  C   UNL A   1      39.954  29.551  30.549  1.00  0.00     0.049 A 
ATOM     17  N   UNL A   1      41.791  29.277  32.915  1.00  0.00    -0.248 NA
ATOM     18  C   UNL A   1      42.850  27.498  31.839  1.00  0.00     0.031 C 
ATOM     19  C   UNL A   1      39.032  29.722  29.423  1.00  0.00     0.029 A 
ATOM     20  N   UNL A   1      39.588  30.537  31.427  1.00  0.00    -0.354 N 
ATOM     21  C   UNL A   1      42.790  28.774  33.741  1.00  0.00     0.074 A 
ATOM     22  C   UNL A   1      43.375  27.646  33.048  1.00  0.00     0.031 C 
ATOM     23  C   UNL A   1      38.246  30.781  29.652  1.00  0.00     0.029 A 
ATOM     24  C   UNL A   1      38.548  31.312  30.975  1.00  0.00     0.049 A 
ATOM     25  H   UNL A   1      40.028  30.676  32.297  1.00  0.00     0.167 HD
ATOM     26  C   UNL A   1      43.182  29.216  34.962  1.00  0.00     0.037 A 
ATOM     27  C   UNL A   1      37.889  32.326  31.565  1.00  0.00     0.037 A 
ATOM     28  C   UNL A   1      42.583  30.338  35.642  1.00  0.00     0.049 A 
ATOM     29  C   UNL A   1      38.306  32.760  32.940  1.00  0.00     0.074 A 
ATOM     30  C   UNL A   1      42.928  30.889  36.864  1.00  0.00     0.029 A 
ATOM     31  N   UNL A   1      41.499  31.070  35.172  1.00  0.00    -0.354 N 
ATOM     32  N   UNL A   1      39.275  32.297  33.692  1.00  0.00    -0.248 NA
ATOM     33  C   UNL A   1      37.540  33.856  33.545  1.00  0.00     0.031 C 
ATOM     34  C   UNL A   1      42.007  31.896  37.169  1.00  0.00     0.029 A 
ATOM     35  C   UNL A   1      41.142  32.040  36.097  1.00  0.00     0.049 A 
ATOM     36  H   UNL A   1      41.051  30.922  34.308  1.00  0.00     0.167 HD
ATOM     37  C   UNL A   1      39.263  33.073  34.845  1.00  0.00     0.074 A 
ATOM     38  C   UNL A   1      38.193  34.037  34.685  1.00  0.00     0.031 C 
ATOM     39  C   UNL A   1      40.074  32.999  35.931  1.00  0.00     0.037 A 
BRANCH  26  40
ATOM     40  C   UNL A   1      44.280  28.454  35.664  1.00  0.00     0.058 A 
ATOM     41  C   UNL A   1      45.641  28.752  35.476  1.00  0.00     0.135 A 
ATOM     42  C   UNL A   1      43.964  27.414  36.555  1.00  0.00     0.135 A 
ATOM     43  F   UNL A   1      46.010  29.729  34.633  1.00  0.00    -0.206 F 
ATOM     44  C   UNL A   1      46.643  28.013  36.100  1.00  0.00     0.059 A 
ATOM     45  C   UNL A   1      44.948  26.689  37.221  1.00  0.00     0.059 A 
ATOM     46  F   UNL A   1      42.682  27.087  36.785  1.00  0.00    -0.206 F 
ATOM     47  C   UNL A   1      46.286  26.980  36.968  1.00  0.00     0.060 A 
BRANCH  47  48
ATOM     48  S   UNL A   1      47.598  26.012  37.741  1.00  0.00     0.124 S 
ATOM     49  O   UNL A   1      48.709  26.243  36.823  1.00  0.00    -0.237 OA
ATOM     50  O   UNL A   1      47.720  26.643  39.051  1.00  0.00    -0.237 OA
ATOM     51  O   UNL A   1      47.064  24.654  37.749  1.00  0.00    -0.744 OA
ENDBRANCH  47  48
ENDBRANCH  26  40
BRANCH  27  52
ATOM     52  C   UNL A   1      36.778  33.001  30.842  1.00  0.00     0.058 A 
ATOM     53  C   UNL A   1      35.444  32.798  31.223  1.00  0.00     0.135 A 
ATOM     54  C   UNL A   1      37.030  33.893  29.787  1.00  0.00     0.135 A 
ATOM     55  F   UNL A   1      35.153  31.952  32.222  1.00  0.00    -0.206 F 
ATOM     56  C   UNL A   1      34.397  33.448  30.578  1.00  0.00     0.059 A 
ATOM     57  C   UNL A   1      36.003  34.581  29.150  1.00  0.00     0.059 A 
ATOM     58  F   UNL A   1      38.291  34.136  29.397  1.00  0.00    -0.206 F 
ATOM     59  C   UNL A   1      34.688  34.345  29.549  1.00  0.00     0.060 A 
BRANCH  59  60
ATOM     60  S   UNL A   1      33.324  35.233  28.768  1.00  0.00     0.124 S 
ATOM     61  O   UNL A   1      34.034  36.248  28.000  1.00  0.00    -0.237 OA
ATOM     62  O   UNL A   1      32.683  34.176  27.992  1.00  0.00    -0.237 OA
ATOM     63  O   UNL A   1      32.550  35.726  29.903  1.00  0.00    -0.744 OA
ENDBRANCH  59  60
ENDBRANCH  27  52
BRANCH  39  64
ATOM     64  C   UNL A   1      39.879  34.030  37.012  1.00  0.00     0.058 A 
ATOM     65  C   UNL A   1      40.480  35.299  36.960  1.00  0.00     0.135 A 
ATOM     66  C   UNL A   1      39.044  33.750  38.107  1.00  0.00     0.135 A 
ATOM     67  F   UNL A   1      41.294  35.621  35.943  1.00  0.00    -0.206 F 
ATOM     68  C   UNL A   1      40.286  36.237  37.969  1.00  0.00     0.059 A 
ATOM     69  C   UNL A   1      38.804  34.686  39.106  1.00  0.00     0.059 A 
ATOM     70  F   UNL A   1      38.437  32.557  38.207  1.00  0.00    -0.206 F 
ATOM     71  C   UNL A   1      39.441  35.923  39.037  1.00  0.00     0.060 A 
BRANCH  71  72
ATOM     72  S   UNL A   1      39.178  37.160  40.324  1.00  0.00     0.124 S 
ATOM     73  O   UNL A   1      38.352  38.140  39.627  1.00  0.00    -0.237 OA
ATOM     74  O   UNL A   1      38.505  36.387  41.363  1.00  0.00    -0.237 OA
ATOM     75  O   UNL A   1      40.530  37.601  40.656  1.00  0.00    -0.744 OA
ENDBRANCH  71  72
ENDBRANCH  39  64
ENDBRANCH  13  14
ENDBRANCH   6   8
ENDBRANCH   3   4
ENDBRANCH   2   3
ENDBRANCH   1   2
BRANCH   1  76
ATOM     76  C   UNL A   1      38.727  21.858  26.269  1.00  0.00     0.116 C 
BRANCH  76  77
ATOM     77  N   UNL A   1      38.159  21.900  24.934  1.00  0.00    -0.352 N 
ATOM     78  C   UNL A   1      36.989  22.453  24.489  1.00  0.00     0.253 C 
ATOM     79  H   UNL A   1      38.701  21.462  24.239  1.00  0.00     0.163 HD
ATOM     80  O   UNL A   1      36.665  22.411  23.336  1.00  0.00    -0.269 OA
BRANCH  78  81
ATOM     81  C   UNL A   1      35.987  22.725  25.500  1.00  0.00     0.063 A 
ATOM     82  C   UNL A   1      35.727  24.079  25.383  1.00  0.00     0.016 A 
ATOM     83  C   UNL A   1      35.074  21.864  26.154  1.00  0.00     0.053 A 
ATOM     84  C   UNL A   1      34.542  24.465  25.866  1.00  0.00     0.001 A 
ATOM     85  C   UNL A   1      34.221  22.379  27.066  1.00  0.00     0.027 A 
ATOM     86  C   UNL A   1      33.895  23.658  26.771  1.00  0.00     0.002 A 
BRANCH  83  87
ATOM     87  N   UNL A   1      34.771  20.572  25.748  1.00  0.00    -0.332 N 
ATOM     88  H   UNL A   1      35.243  19.858  26.236  1.00  0.00     0.169 HD
BRANCH  87  89
ATOM     89  C   UNL A   1      33.918  20.143  24.775  1.00  0.00     0.177 C 
ATOM     90  S   UNL A   1      33.665  18.479  24.726  1.00  0.00    -0.040 S 
BRANCH  89  91
ATOM     91  N   UNL A   1      33.235  20.952  23.784  1.00  0.00    -0.299 N 
ATOM     92  C   UNL A   1      32.380  22.011  23.090  1.00  0.00     0.257 C 
ATOM     93  H   UNL A   1      33.545  20.477  22.980  1.00  0.00     0.172 HD
ATOM     94  O   UNL A   1      32.138  21.743  21.902  1.00  0.00    -0.269 OA
BRANCH  92  95
ATOM     95  C   UNL A   1      31.736  23.306  23.641  1.00  0.00     0.040 A 
ATOM     96  C   UNL A   1      30.856  23.265  24.752  1.00  0.00     0.014 A 
ATOM     97  C   UNL A   1      32.044  24.599  23.163  1.00  0.00     0.022 A 
ATOM     98  C   UNL A   1      30.650  24.459  25.555  1.00  0.00     0.009 A 
ATOM     99  C   UNL A   1      31.815  25.816  23.931  1.00  0.00    -0.018 A 
ATOM    100  C   UNL A   1      31.202  25.736  25.206  1.00  0.00    -0.018 A 
ATOM    101  C   UNL A   1      32.422  27.057  23.578  1.00  0.00     0.009 A 
ATOM    102  C   UNL A   1      31.421  26.834  26.136  1.00  0.00     0.009 A 
ATOM    103  C   UNL A   1      32.586  28.129  24.483  1.00  0.00     0.001 A 
ATOM    104  C   UNL A   1      32.130  28.003  25.785  1.00  0.00     0.001 A 
ENDBRANCH  92  95
ENDBRANCH  89  91
ENDBRANCH  87  89
ENDBRANCH  83  87
ENDBRANCH  78  81
ENDBRANCH  76  77
ENDBRANCH   1  76
TORSDOF 18
ENDMDL
MODEL 2
REMARK VINA RESULT:     -12.0      1.480      2.732
REMARK SMILES O=C(NCCCCNC(=O)c1ccccc1NC(=S)NC(=O)c1ccc2ccccc2c1)c1ccc(-c2c3nc(c(-c4c(F)cc(S(=O)(=O)[O-])cc4F)c4ccc([nH]4)c(-c4c(F)cc(S(=O)(=O)[O-])cc4F)c4nc(c(-c5c(F)cc(S(=O)(=O)[O-])cc5F)c5ccc2[nH]5)C=C4)C=C3)cc1
REMARK SMILES IDX 6 1 5 2 4 3 3 4 1 5 2 6 33 8 34 9 98 10 35 11 97 12 36 13
REMARK SMILES IDX 37 14 38 15 91 16 39 17 96 18 90 19 92 20 40 21 95 22 89 23
REMARK SMILES IDX 88 24 41 26 75 27 54 28 74 29 55 30 58 31 73 32 93 33 56 34
REMARK SMILES IDX 57 35 72 37 94 38 59 39 42 40 43 41 52 42 44 43 45 44 51 45
REMARK SMILES IDX 53 46 46 47 47 48 48 49 49 50 50 51 76 52 77 53 86 54 78 55
REMARK SMILES IDX 79 56 85 57 87 58 80 59 81 60 82 61 83 62 84 63 60 64 61 65
REMARK SMILES IDX 70 66 62 67 63 68 69 69 71 70 64 71 65 72 66 73 67 74 68 75
REMARK SMILES IDX 7 76 8 77 9 78 10 80 11 81 12 82 16 83 13 84 15 85 14 86
REMARK SMILES IDX 17 87 18 89 19 90 20 91 21 92 22 94 23 95 24 96 32 97 25 98
REMARK SMILES IDX 31 99 26 100 30 101 27 102 29 103 28 104
REMARK H PARENT 3 7 92 25 58 36 8 79 17 88 20 93
REMARK Flexibility Score: inf
ROOT
ATOM      1  C   UNL A   1      37.565  22.368  24.716  1.00  0.00     0.023 C 
ENDROOT
BRANCH   1   2
ATOM      2  C   UNL A   1      37.040  23.610  25.431  1.00  0.00     0.023 C 
BRANCH   2   3
ATOM      3  C   UNL A   1      37.978  24.152  26.499  1.00  0.00     0.116 C 
BRANCH   3   4
ATOM      4  N   UNL A   1      39.376  23.998  26.137  1.00  0.00    -0.352 N 
ATOM      5  O   UNL A   1      41.537  24.638  26.001  1.00  0.00    -0.269 OA
ATOM      6  C   UNL A   1      40.438  24.780  26.523  1.00  0.00     0.251 C 
ATOM      7  H   UNL A   1      39.588  23.240  25.545  1.00  0.00     0.163 HD
BRANCH   6   8
ATOM      8  C   UNL A   1      40.207  25.824  27.543  1.00  0.00     0.039 A 
ATOM      9  C   UNL A   1      40.883  27.043  27.459  1.00  0.00     0.014 A 
ATOM     10  C   UNL A   1      39.384  25.543  28.633  1.00  0.00     0.014 A 
ATOM     11  C   UNL A   1      40.892  27.895  28.553  1.00  0.00     0.010 A 
ATOM     12  C   UNL A   1      39.293  26.466  29.678  1.00  0.00     0.010 A 
ATOM     13  C   UNL A   1      40.081  27.629  29.668  1.00  0.00    -0.014 A 
BRANCH  13  14
ATOM     14  C   UNL A   1      40.033  28.611  30.782  1.00  0.00     0.031 A 
ATOM     15  C   UNL A   1      40.961  28.504  31.961  1.00  0.00     0.074 A 
ATOM     16  C   UNL A   1      39.143  29.621  30.711  1.00  0.00     0.049 A 
ATOM     17  N   UNL A   1      41.049  29.280  33.013  1.00  0.00    -0.248 NA
ATOM     18  C   UNL A   1      41.906  27.376  31.971  1.00  0.00     0.031 C 
ATOM     19  C   UNL A   1      38.192  29.828  29.615  1.00  0.00     0.029 A 
ATOM     20  N   UNL A   1      38.900  30.668  31.561  1.00  0.00    -0.354 N 
ATOM     21  C   UNL A   1      42.036  28.724  33.819  1.00  0.00     0.074 A 
ATOM     22  C   UNL A   1      42.493  27.524  33.151  1.00  0.00     0.031 C 
ATOM     23  C   UNL A   1      37.510  30.959  29.831  1.00  0.00     0.029 A 
ATOM     24  C   UNL A   1      37.911  31.513  31.117  1.00  0.00     0.049 A 
ATOM     25  H   UNL A   1      39.387  30.802  32.406  1.00  0.00     0.167 HD
ATOM     26  C   UNL A   1      42.517  29.177  35.004  1.00  0.00     0.037 A 
ATOM     27  C   UNL A   1      37.366  32.601  31.690  1.00  0.00     0.037 A 
ATOM     28  C   UNL A   1      42.044  30.373  35.659  1.00  0.00     0.049 A 
ATOM     29  C   UNL A   1      37.877  33.051  33.027  1.00  0.00     0.074 A 
ATOM     30  C   UNL A   1      42.487  30.939  36.842  1.00  0.00     0.029 A 
ATOM     31  N   UNL A   1      41.007  31.177  35.201  1.00  0.00    -0.354 N 
ATOM     32  N   UNL A   1      38.835  32.534  33.760  1.00  0.00    -0.248 NA
ATOM     33  C   UNL A   1      37.234  34.231  33.616  1.00  0.00     0.031 C 
ATOM     34  C   UNL A   1      41.668  32.032  37.141  1.00  0.00     0.029 A 
ATOM     35  C   UNL A   1      40.773  32.209  36.098  1.00  0.00     0.049 A 
ATOM     36  H   UNL A   1      40.511  31.036  34.363  1.00  0.00     0.167 HD
ATOM     37  C   UNL A   1      38.938  33.352  34.879  1.00  0.00     0.074 A 
ATOM     38  C   UNL A   1      37.947  34.398  34.720  1.00  0.00     0.031 C 
ATOM     39  C   UNL A   1      39.784  33.250  35.934  1.00  0.00     0.037 A 
BRANCH  26  40
ATOM     40  C   UNL A   1      43.574  28.351  35.694  1.00  0.00     0.058 A 
ATOM     41  C   UNL A   1      43.255  27.338  36.615  1.00  0.00     0.135 A 
ATOM     42  C   UNL A   1      44.936  28.567  35.418  1.00  0.00     0.135 A 
ATOM     43  F   UNL A   1      41.974  27.087  36.928  1.00  0.00    -0.206 F 
ATOM     44  C   UNL A   1      44.244  26.612  37.274  1.00  0.00     0.059 A 
ATOM     45  C   UNL A   1      45.940  27.826  36.034  1.00  0.00     0.059 A 
ATOM     46  F   UNL A   1      45.305  29.515  34.541  1.00  0.00    -0.206 F 
ATOM     47  C   UNL A   1      45.585  26.866  36.979  1.00  0.00     0.060 A 
BRANCH  47  48
ATOM     48  S   UNL A   1      46.854  25.939  37.867  1.00  0.00     0.124 S 
ATOM     49  O   UNL A   1      46.040  25.043  38.683  1.00  0.00    -0.237 OA
ATOM     50  O   UNL A   1      47.594  25.307  36.779  1.00  0.00    -0.237 OA
ATOM     51  O   UNL A   1      47.580  26.969  38.601  1.00  0.00    -0.744 OA
ENDBRANCH  47  48
ENDBRANCH  26  40
BRANCH  27  52
ATOM     52  C   UNL A   1      36.287  33.341  30.983  1.00  0.00     0.058 A 
ATOM     53  C   UNL A   1      34.964  33.299  31.444  1.00  0.00     0.135 A 
ATOM     54  C   UNL A   1      36.563  34.139  29.860  1.00  0.00     0.135 A 
ATOM     55  F   UNL A   1      34.649  32.548  32.510  1.00  0.00    -0.206 F 
ATOM     56  C   UNL A   1      33.951  34.012  30.814  1.00  0.00     0.059 A 
ATOM     57  C   UNL A   1      35.574  34.888  29.234  1.00  0.00     0.059 A 
ATOM     58  F   UNL A   1      37.818  34.228  29.390  1.00  0.00    -0.206 F 
ATOM     59  C   UNL A   1      34.268  34.812  29.715  1.00  0.00     0.060 A 
BRANCH  59  60
ATOM     60  S   UNL A   1      32.954  35.786  28.950  1.00  0.00     0.124 S 
ATOM     61  O   UNL A   1      33.714  36.850  28.304  1.00  0.00    -0.237 OA
ATOM     62  O   UNL A   1      32.337  34.810  28.058  1.00  0.00    -0.237 OA
ATOM     63  O   UNL A   1      32.134  36.195  30.086  1.00  0.00    -0.744 OA
ENDBRANCH  59  60
ENDBRANCH  27  52
BRANCH  39  64
ATOM     64  C   UNL A   1      39.724  34.335  36.978  1.00  0.00     0.058 A 
ATOM     65  C   UNL A   1      38.971  34.205  38.157  1.00  0.00     0.135 A 
ATOM     66  C   UNL A   1      40.467  35.515  36.807  1.00  0.00     0.135 A 
ATOM     67  F   UNL A   1      38.236  33.102  38.372  1.00  0.00    -0.206 F 
ATOM     68  C   UNL A   1      38.930  35.218  39.110  1.00  0.00     0.059 A 
ATOM     69  C   UNL A   1      40.473  36.524  37.765  1.00  0.00     0.059 A 
ATOM     70  F   UNL A   1      41.211  35.693  35.705  1.00  0.00    -0.206 F 
ATOM     71  C   UNL A   1      39.689  36.373  38.906  1.00  0.00     0.060 A 
BRANCH  71  72
ATOM     72  S   UNL A   1      39.648  37.667  40.163  1.00  0.00     0.124 S 
ATOM     73  O   UNL A   1      38.704  38.615  39.580  1.00  0.00    -0.237 OA
ATOM     74  O   UNL A   1      39.176  36.943  41.339  1.00  0.00    -0.237 OA
ATOM     75  O   UNL A   1      41.034  38.123  40.230  1.00  0.00    -0.744 OA
ENDBRANCH  71  72
ENDBRANCH  39  64
ENDBRANCH  13  14
ENDBRANCH   6   8
ENDBRANCH   3   4
ENDBRANCH   2   3
ENDBRANCH   1   2
BRANCH   1  76
ATOM     76  C   UNL A   1      36.666  21.155  24.888  1.00  0.00     0.116 C 
BRANCH  76  77
ATOM     77  N   UNL A   1      35.704  21.341  25.959  1.00  0.00    -0.352 N 
ATOM     78  C   UNL A   1      34.432  20.858  26.098  1.00  0.00     0.253 C 
ATOM     79  H   UNL A   1      36.017  21.905  26.704  1.00  0.00     0.163 HD
ATOM     80  O   UNL A   1      33.762  21.098  27.062  1.00  0.00    -0.269 OA
BRANCH  78  81
ATOM     81  C   UNL A   1      33.789  20.395  24.884  1.00  0.00     0.063 A 
ATOM     82  C   UNL A   1      34.155  19.065  24.776  1.00  0.00     0.016 A 
ATOM     83  C   UNL A   1      32.673  20.900  24.176  1.00  0.00     0.053 A 
ATOM     84  C   UNL A   1      33.340  18.318  24.026  1.00  0.00     0.001 A 
ATOM     85  C   UNL A   1      32.260  20.265  23.058  1.00  0.00     0.027 A 
ATOM     86  C   UNL A   1      32.513  18.939  23.120  1.00  0.00     0.002 A 
BRANCH  83  87
ATOM     87  N   UNL A   1      31.773  21.832  24.674  1.00  0.00    -0.332 N 
ATOM     88  H   UNL A   1      30.938  21.457  25.037  1.00  0.00     0.169 HD
BRANCH  87  89
ATOM     89  C   UNL A   1      31.872  23.190  24.735  1.00  0.00     0.177 C 
ATOM     90  S   UNL A   1      31.028  23.915  25.998  1.00  0.00    -0.040 S 
BRANCH  89  91
ATOM     91  N   UNL A   1      32.599  24.061  23.830  1.00  0.00    -0.299 N 
ATOM     92  C   UNL A   1      33.172  25.282  23.111  1.00  0.00     0.257 C 
ATOM     93  H   UNL A   1      33.040  23.365  23.293  1.00  0.00     0.172 HD
ATOM     94  O   UNL A   1      33.686  25.008  22.015  1.00  0.00    -0.269 OA
BRANCH  92  95
ATOM     95  C   UNL A   1      33.159  26.779  23.502  1.00  0.00     0.040 A 
ATOM     96  C   UNL A   1      32.316  27.699  22.828  1.00  0.00     0.014 A 
ATOM     97  C   UNL A   1      33.883  27.311  24.591  1.00  0.00     0.022 A 
ATOM     98  C   UNL A   1      31.938  28.943  23.479  1.00  0.00     0.009 A 
ATOM     99  C   UNL A   1      33.549  28.573  25.240  1.00  0.00    -0.018 A 
ATOM    100  C   UNL A   1      32.481  29.357  24.740  1.00  0.00    -0.018 A 
ATOM    101  C   UNL A   1      34.074  28.927  26.518  1.00  0.00     0.009 A 
ATOM    102  C   UNL A   1      31.859  30.314  25.644  1.00  0.00     0.009 A 
ATOM    103  C   UNL A   1      33.481  29.890  27.364  1.00  0.00     0.001 A 
ATOM    104  C   UNL A   1      32.338  30.555  26.950  1.00  0.00     0.001 A 
ENDBRANCH  92  95
ENDBRANCH  89  91
ENDBRANCH  87  89
ENDBRANCH  83  87
ENDBRANCH  78  81
ENDBRANCH  76  77
ENDBRANCH   1  76
TORSDOF 18
ENDMDL
MODEL 3
REMARK VINA RESULT:     -12.0      6.005      8.118
REMARK SMILES O=C(NCCCCNC(=O)c1ccccc1NC(=S)NC(=O)c1ccc2ccccc2c1)c1ccc(-c2c3nc(c(-c4c(F)cc(S(=O)(=O)[O-])cc4F)c4ccc([nH]4)c(-c4c(F)cc(S(=O)(=O)[O-])cc4F)c4nc(c(-c5c(F)cc(S(=O)(=O)[O-])cc5F)c5ccc2[nH]5)C=C4)C=C3)cc1
REMARK SMILES IDX 6 1 5 2 4 3 3 4 1 5 2 6 33 8 34 9 98 10 35 11 97 12 36 13
REMARK SMILES IDX 37 14 38 15 91 16 39 17 96 18 90 19 92 20 40 21 95 22 89 23
REMARK SMILES IDX 88 24 41 26 75 27 54 28 74 29 55 30 58 31 73 32 93 33 56 34
REMARK SMILES IDX 57 35 72 37 94 38 59 39 42 40 43 41 52 42 44 43 45 44 51 45
REMARK SMILES IDX 53 46 46 47 47 48 48 49 49 50 50 51 76 52 77 53 86 54 78 55
REMARK SMILES IDX 79 56 85 57 87 58 80 59 81 60 82 61 83 62 84 63 60 64 61 65
REMARK SMILES IDX 70 66 62 67 63 68 69 69 71 70 64 71 65 72 66 73 67 74 68 75
REMARK SMILES IDX 7 76 8 77 9 78 10 80 11 81 12 82 16 83 13 84 15 85 14 86
REMARK SMILES IDX 17 87 18 89 19 90 20 91 21 92 22 94 23 95 24 96 32 97 25 98
REMARK SMILES IDX 31 99 26 100 30 101 27 102 29 103 28 104
REMARK H PARENT 3 7 92 25 58 36 8 79 17 88 20 93
REMARK Flexibility Score: inf
ROOT
ATOM      1  C   UNL A   1      39.702  22.647  26.690  1.00  0.00     0.023 C 
ENDROOT
BRANCH   1   2
ATOM      2  C   UNL A   1      39.754  21.237  26.108  1.00  0.00     0.023 C 
BRANCH   2   3
ATOM      3  C   UNL A   1      40.392  20.210  27.032  1.00  0.00     0.116 C 
BRANCH   3   4
ATOM      4  N   UNL A   1      41.262  19.291  26.321  1.00  0.00    -0.352 N 
ATOM      5  O   UNL A   1      43.029  18.730  25.030  1.00  0.00    -0.269 OA
ATOM      6  C   UNL A   1      42.484  19.558  25.751  1.00  0.00     0.251 C 
ATOM      7  H   UNL A   1      40.938  18.365  26.238  1.00  0.00     0.163 HD
BRANCH   6   8
ATOM      8  C   UNL A   1      43.097  20.881  25.990  1.00  0.00     0.039 A 
ATOM      9  C   UNL A   1      43.395  21.286  27.293  1.00  0.00     0.014 A 
ATOM     10  C   UNL A   1      43.286  21.749  24.915  1.00  0.00     0.014 A 
ATOM     11  C   UNL A   1      43.694  22.617  27.540  1.00  0.00     0.010 A 
ATOM     12  C   UNL A   1      43.714  23.056  25.159  1.00  0.00     0.010 A 
ATOM     13  C   UNL A   1      43.878  23.516  26.476  1.00  0.00    -0.014 A 
BRANCH  13  14
ATOM     14  C   UNL A   1      44.296  24.911  26.768  1.00  0.00     0.031 A 
ATOM     15  C   UNL A   1      45.716  25.364  26.559  1.00  0.00     0.074 A 
ATOM     16  C   UNL A   1      43.367  25.780  27.213  1.00  0.00     0.049 A 
ATOM     17  N   UNL A   1      46.240  26.547  26.761  1.00  0.00    -0.248 NA
ATOM     18  C   UNL A   1      46.675  24.362  26.069  1.00  0.00     0.031 C 
ATOM     19  C   UNL A   1      41.958  25.456  27.453  1.00  0.00     0.029 A 
ATOM     20  N   UNL A   1      43.457  27.110  27.530  1.00  0.00    -0.354 N 
ATOM     21  C   UNL A   1      47.590  26.427  26.451  1.00  0.00     0.074 A 
ATOM     22  C   UNL A   1      47.811  25.045  26.081  1.00  0.00     0.031 C 
ATOM     23  C   UNL A   1      41.306  26.564  27.824  1.00  0.00     0.029 A 
ATOM     24  C   UNL A   1      42.262  27.658  27.932  1.00  0.00     0.049 A 
ATOM     25  H   UNL A   1      44.296  27.624  27.474  1.00  0.00     0.167 HD
ATOM     26  C   UNL A   1      48.553  27.383  26.472  1.00  0.00     0.037 A 
ATOM     27  C   UNL A   1      41.968  28.898  28.363  1.00  0.00     0.037 A 
ATOM     28  C   UNL A   1      48.316  28.754  26.852  1.00  0.00     0.049 A 
ATOM     29  C   UNL A   1      43.062  29.923  28.430  1.00  0.00     0.074 A 
ATOM     30  C   UNL A   1      49.213  29.809  26.873  1.00  0.00     0.029 A 
ATOM     31  N   UNL A   1      47.101  29.261  27.298  1.00  0.00    -0.354 N 
ATOM     32  N   UNL A   1      44.326  29.802  28.100  1.00  0.00    -0.248 NA
ATOM     33  C   UNL A   1      42.690  31.252  28.927  1.00  0.00     0.031 C 
ATOM     34  C   UNL A   1      48.564  30.926  27.408  1.00  0.00     0.029 A 
ATOM     35  C   UNL A   1      47.237  30.599  27.633  1.00  0.00     0.049 A 
ATOM     36  H   UNL A   1      46.266  28.744  27.367  1.00  0.00     0.167 HD
ATOM     37  C   UNL A   1      44.892  31.054  28.310  1.00  0.00     0.074 A 
ATOM     38  C   UNL A   1      43.830  31.914  28.791  1.00  0.00     0.031 C 
ATOM     39  C   UNL A   1      46.174  31.453  28.111  1.00  0.00     0.037 A 
BRANCH  26  40
ATOM     40  C   UNL A   1      49.961  26.968  26.122  1.00  0.00     0.058 A 
ATOM     41  C   UNL A   1      50.471  27.070  24.816  1.00  0.00     0.135 A 
ATOM     42  C   UNL A   1      50.822  26.471  27.115  1.00  0.00     0.135 A 
ATOM     43  F   UNL A   1      49.698  27.531  23.820  1.00  0.00    -0.206 F 
ATOM     44  C   UNL A   1      51.760  26.645  24.500  1.00  0.00     0.059 A 
ATOM     45  C   UNL A   1      52.127  26.078  26.830  1.00  0.00     0.059 A 
ATOM     46  F   UNL A   1      50.397  26.357  28.383  1.00  0.00    -0.206 F 
ATOM     47  C   UNL A   1      52.579  26.146  25.514  1.00  0.00     0.060 A 
BRANCH  47  48
ATOM     48  S   UNL A   1      54.233  25.569  25.081  1.00  0.00     0.124 S 
ATOM     49  O   UNL A   1      55.056  26.300  26.039  1.00  0.00    -0.237 OA
ATOM     50  O   UNL A   1      54.128  24.130  25.306  1.00  0.00    -0.237 OA
ATOM     51  O   UNL A   1      54.383  25.974  23.687  1.00  0.00    -0.744 OA
ENDBRANCH  47  48
ENDBRANCH  26  40
BRANCH  27  52
ATOM     52  C   UNL A   1      40.570  29.230  28.747  1.00  0.00     0.058 A 
ATOM     53  C   UNL A   1      40.210  29.382  30.094  1.00  0.00     0.135 A 
ATOM     54  C   UNL A   1      39.577  29.443  27.776  1.00  0.00     0.135 A 
ATOM     55  F   UNL A   1      41.122  29.184  31.057  1.00  0.00    -0.206 F 
ATOM     56  C   UNL A   1      38.916  29.724  30.467  1.00  0.00     0.059 A 
ATOM     57  C   UNL A   1      38.284  29.820  28.123  1.00  0.00     0.059 A 
ATOM     58  F   UNL A   1      39.874  29.328  26.472  1.00  0.00    -0.206 F 
ATOM     59  C   UNL A   1      37.962  29.951  29.472  1.00  0.00     0.060 A 
BRANCH  59  60
ATOM     60  S   UNL A   1      36.304  30.463  29.970  1.00  0.00     0.124 S 
ATOM     61  O   UNL A   1      35.516  30.084  28.803  1.00  0.00    -0.237 OA
ATOM     62  O   UNL A   1      36.090  29.663  31.172  1.00  0.00    -0.237 OA
ATOM     63  O   UNL A   1      36.448  31.897  30.197  1.00  0.00    -0.744 OA
ENDBRANCH  59  60
ENDBRANCH  27  52
BRANCH  39  64
ATOM     64  C   UNL A   1      46.492  32.906  28.352  1.00  0.00     0.058 A 
ATOM     65  C   UNL A   1      46.353  33.884  27.353  1.00  0.00     0.135 A 
ATOM     66  C   UNL A   1      46.912  33.330  29.624  1.00  0.00     0.135 A 
ATOM     67  F   UNL A   1      45.961  33.537  26.117  1.00  0.00    -0.206 F 
ATOM     68  C   UNL A   1      46.650  35.221  27.597  1.00  0.00     0.059 A 
ATOM     69  C   UNL A   1      47.177  34.667  29.902  1.00  0.00     0.059 A 
ATOM     70  F   UNL A   1      47.056  32.443  30.620  1.00  0.00    -0.206 F 
ATOM     71  C   UNL A   1      47.058  35.604  28.878  1.00  0.00     0.060 A 
BRANCH  71  72
ATOM     72  S   UNL A   1      47.415  37.346  29.187  1.00  0.00     0.124 S 
ATOM     73  O   UNL A   1      48.860  37.391  28.989  1.00  0.00    -0.237 OA
ATOM     74  O   UNL A   1      46.613  38.012  28.166  1.00  0.00    -0.237 OA
ATOM     75  O   UNL A   1      46.963  37.547  30.561  1.00  0.00    -0.744 OA
ENDBRANCH  71  72
ENDBRANCH  39  64
ENDBRANCH  13  14
ENDBRANCH   6   8
ENDBRANCH   3   4
ENDBRANCH   2   3
ENDBRANCH   1   2
BRANCH   1  76
ATOM     76  C   UNL A   1      38.452  23.414  26.287  1.00  0.00     0.116 C 
BRANCH  76  77
ATOM     77  N   UNL A   1      37.931  22.965  25.009  1.00  0.00    -0.352 N 
ATOM     78  C   UNL A   1      36.639  22.803  24.589  1.00  0.00     0.253 C 
ATOM     79  H   UNL A   1      38.615  22.743  24.337  1.00  0.00     0.163 HD
ATOM     80  O   UNL A   1      36.372  22.429  23.483  1.00  0.00    -0.269 OA
BRANCH  78  81
ATOM     81  C   UNL A   1      35.637  22.708  25.632  1.00  0.00     0.063 A 
ATOM     82  C   UNL A   1      35.136  23.991  25.758  1.00  0.00     0.016 A 
ATOM     83  C   UNL A   1      34.914  21.595  26.124  1.00  0.00     0.053 A 
ATOM     84  C   UNL A   1      33.917  24.066  26.302  1.00  0.00     0.001 A 
ATOM     85  C   UNL A   1      34.012  21.780  27.112  1.00  0.00     0.027 A 
ATOM     86  C   UNL A   1      33.454  23.010  27.049  1.00  0.00     0.002 A 
BRANCH  83  87
ATOM     87  N   UNL A   1      34.833  20.360  25.495  1.00  0.00    -0.332 N 
ATOM     88  H   UNL A   1      35.574  19.742  25.690  1.00  0.00     0.169 HD
BRANCH  87  89
ATOM     89  C   UNL A   1      33.882  19.876  24.647  1.00  0.00     0.177 C 
ATOM     90  S   UNL A   1      33.604  18.220  24.753  1.00  0.00    -0.040 S 
BRANCH  89  91
ATOM     91  N   UNL A   1      33.114  20.621  23.667  1.00  0.00    -0.299 N 
ATOM     92  C   UNL A   1      32.364  21.722  22.919  1.00  0.00     0.257 C 
ATOM     93  H   UNL A   1      32.980  19.896  23.017  1.00  0.00     0.172 HD
ATOM     94  O   UNL A   1      31.647  21.290  22.002  1.00  0.00    -0.269 OA
BRANCH  92  95
ATOM     95  C   UNL A   1      32.316  23.250  23.158  1.00  0.00     0.040 A 
ATOM     96  C   UNL A   1      33.285  24.108  22.578  1.00  0.00     0.014 A 
ATOM     97  C   UNL A   1      31.280  23.901  23.864  1.00  0.00     0.022 A 
ATOM     98  C   UNL A   1      32.980  25.517  22.386  1.00  0.00     0.009 A 
ATOM     99  C   UNL A   1      30.976  25.320  23.719  1.00  0.00    -0.018 A 
ATOM    100  C   UNL A   1      31.778  26.126  22.875  1.00  0.00    -0.018 A 
ATOM    101  C   UNL A   1      29.746  25.878  24.176  1.00  0.00     0.009 A 
ATOM    102  C   UNL A   1      31.200  27.362  22.365  1.00  0.00     0.009 A 
ATOM    103  C   UNL A   1      29.222  27.101  23.703  1.00  0.00     0.001 A 
ATOM    104  C   UNL A   1      29.925  27.826  22.755  1.00  0.00     0.001 A 
ENDBRANCH  92  95
ENDBRANCH  89  91
ENDBRANCH  87  89
ENDBRANCH  83  87
ENDBRANCH  78  81
ENDBRANCH  76  77
ENDBRANCH   1  76
TORSDOF 18
ENDMDL
