MODEL 1
REMARK VINA RESULT:     -11.9      0.000      0.000
REMARK SMILES C[NH+](C)CCc1nc(Nc2ccc(O)c(C(=O)NCCCCNC(=O)c3ccc(-c4c5nc(c(-c6c(F)cc(S(=O)(=O)[O-])cc6F)c6ccc([nH]6)c(-c6c(F)cc(S(=O)(=O)[O-])cc6F)c6nc(c(-c7c(F)cc(S(=O)(=O)[O-])cc7F)c7ccc4[nH]7)C=C6)C=C5)cc3)c2)c2ccccc2n1
REMARK SMILES IDX 19 1 18 2 16 3 17 4 15 6 10 7 11 8 92 9 12 10 13 11 9 12
REMARK SMILES IDX 8 14 6 15 7 16 99 17 98 18 93 19 97 20 94 21 96 22 95 23
REMARK SMILES IDX 5 24 4 25 2 26 1 27 3 28 14 30 20 32 21 33 22 34 23 35 24 36
REMARK SMILES IDX 25 38 26 39 27 40 91 41 28 42 90 43 29 44 30 45 31 46 84 47
REMARK SMILES IDX 32 48 89 49 83 50 85 51 33 52 88 53 82 54 81 55 34 57 68 58
REMARK SMILES IDX 47 59 67 60 48 61 51 62 66 63 86 64 49 65 50 66 65 68 87 69
REMARK SMILES IDX 52 70 35 71 36 72 45 73 37 74 38 75 44 76 46 77 39 78 40 79
REMARK SMILES IDX 41 80 42 81 43 82 69 83 70 84 79 85 71 86 72 87 78 88 80 89
REMARK SMILES IDX 73 90 74 91 75 92 76 93 77 94 53 95 54 96 63 97 55 98 56 99
REMARK SMILES IDX 62 100 64 101 57 102 58 103 59 104 60 105 61 106
REMARK H PARENT 18 5 9 13 2 29 14 31 23 37 85 56 51 67
REMARK Flexibility Score: inf
ROOT
ATOM      1  C   UNL A   1      34.356  20.705  25.102  1.00  0.00     0.116 C 
ENDROOT
BRANCH   1   2
ATOM      2  N   UNL A   1      33.459  20.856  23.981  1.00  0.00    -0.352 N 
ATOM      3  C   UNL A   1      32.400  21.690  23.751  1.00  0.00     0.255 C 
ATOM      4  O   UNL A   1      31.790  21.501  22.692  1.00  0.00    -0.269 OA
ATOM      5  H   UNL A   1      33.647  20.239  23.237  1.00  0.00     0.163 HD
BRANCH   3   6
ATOM      6  C   UNL A   1      31.969  22.838  24.611  1.00  0.00     0.083 A 
ATOM      7  C   UNL A   1      32.170  25.284  24.817  1.00  0.00     0.041 A 
ATOM      8  C   UNL A   1      31.332  25.248  25.929  1.00  0.00     0.030 A 
ATOM      9  C   UNL A   1      32.484  24.082  24.179  1.00  0.00     0.043 A 
ATOM     10  C   UNL A   1      30.801  24.044  26.377  1.00  0.00     0.049 A 
ATOM     11  C   UNL A   1      31.108  22.849  25.717  1.00  0.00     0.128 A 
BRANCH   7  12
ATOM     12  N   UNL A   1      32.764  26.485  24.399  1.00  0.00    -0.340 N 
ATOM     13  H   UNL A   1      33.612  26.420  23.904  1.00  0.00     0.168 HD
BRANCH  12  14
ATOM     14  C   UNL A   1      32.250  27.778  24.629  1.00  0.00     0.142 A 
ATOM     15  C   UNL A   1      30.719  29.402  24.072  1.00  0.00     0.137 A 
ATOM     16  N   UNL A   1      31.215  28.177  23.871  1.00  0.00    -0.215 NA
ATOM     17  N   UNL A   1      31.175  30.261  24.997  1.00  0.00    -0.233 NA
ATOM     18  C   UNL A   1      32.206  29.859  25.750  1.00  0.00     0.076 A 
ATOM     19  C   UNL A   1      32.815  28.605  25.606  1.00  0.00     0.043 A 
ATOM     20  C   UNL A   1      32.707  30.726  26.713  1.00  0.00     0.029 A 
ATOM     21  C   UNL A   1      33.936  28.267  26.406  1.00  0.00     0.014 A 
ATOM     22  C   UNL A   1      33.805  30.392  27.514  1.00  0.00     0.002 A 
ATOM     23  C   UNL A   1      34.427  29.162  27.354  1.00  0.00     0.001 A 
BRANCH  15  24
ATOM     24  C   UNL A   1      29.579  29.830  23.194  1.00  0.00     0.138 C 
BRANCH  24  25
ATOM     25  C   UNL A   1      28.994  31.213  23.537  1.00  0.00     0.269 C 
BRANCH  25  26
ATOM     26  N   UNL A   1      29.148  32.353  22.613  1.00  0.00    -0.339 N 
ATOM     27  C   UNL A   1      28.109  32.388  21.590  1.00  0.00     0.332 C 
ATOM     28  C   UNL A   1      29.277  33.640  23.292  1.00  0.00     0.332 C 
ATOM     29  H   UNL A   1      30.036  32.191  22.139  1.00  0.00     0.347 HD
ENDBRANCH  25  26
ENDBRANCH  24  25
ENDBRANCH  15  24
ENDBRANCH  12  14
ENDBRANCH   7  12
BRANCH  11  30
ATOM     30  O   UNL A   1      30.483  21.734  26.185  1.00  0.00    -0.507 OA
ATOM     31  H   UNL A   1      30.974  20.949  26.331  1.00  0.00     0.293 HD
ENDBRANCH  11  30
ENDBRANCH   3   6
ENDBRANCH   1   2
BRANCH   1  32
ATOM     32  C   UNL A   1      35.646  21.495  24.858  1.00  0.00     0.023 C 
BRANCH  32  33
ATOM     33  C   UNL A   1      35.624  22.938  25.360  1.00  0.00     0.023 C 
BRANCH  33  34
ATOM     34  C   UNL A   1      36.975  23.636  25.349  1.00  0.00     0.116 C 
BRANCH  34  35
ATOM     35  N   UNL A   1      38.100  22.723  25.483  1.00  0.00    -0.352 N 
ATOM     36  C   UNL A   1      39.308  22.943  26.107  1.00  0.00     0.251 C 
ATOM     37  H   UNL A   1      37.983  21.835  25.075  1.00  0.00     0.163 HD
ATOM     38  O   UNL A   1      40.195  22.108  26.059  1.00  0.00    -0.269 OA
BRANCH  36  39
ATOM     39  C   UNL A   1      39.521  24.235  26.793  1.00  0.00     0.039 A 
ATOM     40  C   UNL A   1      39.012  24.400  28.082  1.00  0.00     0.014 A 
ATOM     41  C   UNL A   1      40.276  25.244  26.190  1.00  0.00     0.014 A 
ATOM     42  C   UNL A   1      39.325  25.556  28.799  1.00  0.00     0.010 A 
ATOM     43  C   UNL A   1      40.644  26.362  26.931  1.00  0.00     0.010 A 
ATOM     44  C   UNL A   1      40.175  26.527  28.243  1.00  0.00    -0.014 A 
BRANCH  44  45
ATOM     45  C   UNL A   1      40.596  27.717  29.020  1.00  0.00     0.031 A 
ATOM     46  C   UNL A   1      41.914  27.713  29.744  1.00  0.00     0.074 A 
ATOM     47  C   UNL A   1      39.755  28.764  29.140  1.00  0.00     0.049 A 
ATOM     48  N   UNL A   1      42.422  28.621  30.535  1.00  0.00    -0.248 NA
ATOM     49  C   UNL A   1      42.756  26.517  29.581  1.00  0.00     0.031 C 
ATOM     50  C   UNL A   1      38.422  28.853  28.538  1.00  0.00     0.029 A 
ATOM     51  N   UNL A   1      39.889  29.947  29.823  1.00  0.00    -0.354 N 
ATOM     52  C   UNL A   1      43.629  28.098  30.983  1.00  0.00     0.074 A 
ATOM     53  C   UNL A   1      43.758  26.776  30.409  1.00  0.00     0.031 C 
ATOM     54  C   UNL A   1      37.868  30.032  28.867  1.00  0.00     0.029 A 
ATOM     55  C   UNL A   1      38.790  30.768  29.726  1.00  0.00     0.049 A 
ATOM     56  H   UNL A   1      40.695  30.184  30.334  1.00  0.00     0.167 HD
ATOM     57  C   UNL A   1      44.555  28.678  31.783  1.00  0.00     0.037 A 
ATOM     58  C   UNL A   1      38.552  31.975  30.274  1.00  0.00     0.037 A 
ATOM     59  C   UNL A   1      44.439  30.009  32.314  1.00  0.00     0.049 A 
ATOM     60  C   UNL A   1      39.613  32.612  31.130  1.00  0.00     0.074 A 
ATOM     61  C   UNL A   1      45.361  30.721  33.060  1.00  0.00     0.029 A 
ATOM     62  N   UNL A   1      43.332  30.830  32.155  1.00  0.00    -0.354 N 
ATOM     63  N   UNL A   1      40.788  32.139  31.473  1.00  0.00    -0.248 NA
ATOM     64  C   UNL A   1      39.322  33.948  31.667  1.00  0.00     0.031 C 
ATOM     65  C   UNL A   1      44.798  31.960  33.384  1.00  0.00     0.029 A 
ATOM     66  C   UNL A   1      43.541  32.035  32.805  1.00  0.00     0.049 A 
ATOM     67  H   UNL A   1      42.519  30.592  31.654  1.00  0.00     0.167 HD
ATOM     68  C   UNL A   1      41.385  33.128  32.245  1.00  0.00     0.074 A 
ATOM     69  C   UNL A   1      40.447  34.231  32.309  1.00  0.00     0.031 C 
ATOM     70  C   UNL A   1      42.599  33.125  32.849  1.00  0.00     0.037 A 
BRANCH  57  71
ATOM     71  C   UNL A   1      45.782  27.878  32.123  1.00  0.00     0.058 A 
ATOM     72  C   UNL A   1      46.930  27.911  31.315  1.00  0.00     0.135 A 
ATOM     73  C   UNL A   1      45.824  27.099  33.290  1.00  0.00     0.135 A 
ATOM     74  F   UNL A   1      46.937  28.627  30.180  1.00  0.00    -0.206 F 
ATOM     75  C   UNL A   1      48.068  27.180  31.640  1.00  0.00     0.059 A 
ATOM     76  C   UNL A   1      46.960  26.378  33.647  1.00  0.00     0.059 A 
ATOM     77  F   UNL A   1      44.752  27.030  34.096  1.00  0.00    -0.206 F 
ATOM     78  C   UNL A   1      48.072  26.415  32.808  1.00  0.00     0.060 A 
BRANCH  78  79
ATOM     79  S   UNL A   1      49.561  25.481  33.221  1.00  0.00     0.124 S 
ATOM     80  O   UNL A   1      50.164  25.299  31.905  1.00  0.00    -0.237 OA
ATOM     81  O   UNL A   1      50.264  26.392  34.118  1.00  0.00    -0.237 OA
ATOM     82  O   UNL A   1      49.039  24.270  33.846  1.00  0.00    -0.744 OA
ENDBRANCH  78  79
ENDBRANCH  57  71
BRANCH  58  83
ATOM     83  C   UNL A   1      37.263  32.670  30.015  1.00  0.00     0.058 A 
ATOM     84  C   UNL A   1      37.158  33.639  29.007  1.00  0.00     0.135 A 
ATOM     85  C   UNL A   1      36.114  32.379  30.765  1.00  0.00     0.135 A 
ATOM     86  F   UNL A   1      38.231  33.955  28.266  1.00  0.00    -0.206 F 
ATOM     87  C   UNL A   1      35.965  34.313  28.764  1.00  0.00     0.059 A 
ATOM     88  C   UNL A   1      34.903  33.021  30.526  1.00  0.00     0.059 A 
ATOM     89  F   UNL A   1      36.158  31.446  31.729  1.00  0.00    -0.206 F 
ATOM     90  C   UNL A   1      34.843  33.997  29.531  1.00  0.00     0.060 A 
BRANCH  90  91
ATOM     91  S   UNL A   1      33.287  34.848  29.185  1.00  0.00     0.124 S 
ATOM     92  O   UNL A   1      32.678  34.895  30.509  1.00  0.00    -0.237 OA
ATOM     93  O   UNL A   1      33.747  36.126  28.648  1.00  0.00    -0.237 OA
ATOM     94  O   UNL A   1      32.634  33.971  28.217  1.00  0.00    -0.744 OA
ENDBRANCH  90  91
ENDBRANCH  58  83
BRANCH  70  95
ATOM     95  C   UNL A   1      42.998  34.360  33.604  1.00  0.00     0.058 A 
ATOM     96  C   UNL A   1      42.731  34.501  34.974  1.00  0.00     0.135 A 
ATOM     97  C   UNL A   1      43.704  35.389  32.961  1.00  0.00     0.135 A 
ATOM     98  F   UNL A   1      42.053  33.549  35.633  1.00  0.00    -0.206 F 
ATOM     99  C   UNL A   1      43.136  35.631  35.679  1.00  0.00     0.059 A 
ATOM    100  C   UNL A   1      44.140  36.516  33.650  1.00  0.00     0.059 A 
ATOM    101  F   UNL A   1      43.992  35.296  31.653  1.00  0.00    -0.206 F 
ATOM    102  C   UNL A   1      43.841  36.633  35.007  1.00  0.00     0.060 A 
BRANCH 102 103
ATOM    103  S   UNL A   1      44.396  38.076  35.939  1.00  0.00     0.124 S 
ATOM    104  O   UNL A   1      43.643  37.930  37.181  1.00  0.00    -0.237 OA
ATOM    105  O   UNL A   1      45.835  37.851  36.039  1.00  0.00    -0.237 OA
ATOM    106  O   UNL A   1      44.001  39.198  35.092  1.00  0.00    -0.744 OA
ENDBRANCH 102 103
ENDBRANCH  70  95
ENDBRANCH  44  45
ENDBRANCH  36  39
ENDBRANCH  34  35
ENDBRANCH  33  34
ENDBRANCH  32  33
ENDBRANCH   1  32
TORSDOF 20
ENDMDL
MODEL 2
REMARK VINA RESULT:     -11.7      2.868      3.711
REMARK SMILES C[NH+](C)CCc1nc(Nc2ccc(O)c(C(=O)NCCCCNC(=O)c3ccc(-c4c5nc(c(-c6c(F)cc(S(=O)(=O)[O-])cc6F)c6ccc([nH]6)c(-c6c(F)cc(S(=O)(=O)[O-])cc6F)c6nc(c(-c7c(F)cc(S(=O)(=O)[O-])cc7F)c7ccc4[nH]7)C=C6)C=C5)cc3)c2)c2ccccc2n1
REMARK SMILES IDX 19 1 18 2 16 3 17 4 15 6 10 7 11 8 92 9 12 10 13 11 9 12
REMARK SMILES IDX 8 14 6 15 7 16 99 17 98 18 93 19 97 20 94 21 96 22 95 23
REMARK SMILES IDX 5 24 4 25 2 26 1 27 3 28 14 30 20 32 21 33 22 34 23 35 24 36
REMARK SMILES IDX 25 38 26 39 27 40 91 41 28 42 90 43 29 44 30 45 31 46 84 47
REMARK SMILES IDX 32 48 89 49 83 50 85 51 33 52 88 53 82 54 81 55 34 57 68 58
REMARK SMILES IDX 47 59 67 60 48 61 51 62 66 63 86 64 49 65 50 66 65 68 87 69
REMARK SMILES IDX 52 70 35 71 36 72 45 73 37 74 38 75 44 76 46 77 39 78 40 79
REMARK SMILES IDX 41 80 42 81 43 82 69 83 70 84 79 85 71 86 72 87 78 88 80 89
REMARK SMILES IDX 73 90 74 91 75 92 76 93 77 94 53 95 54 96 63 97 55 98 56 99
REMARK SMILES IDX 62 100 64 101 57 102 58 103 59 104 60 105 61 106
REMARK H PARENT 18 5 9 13 2 29 14 31 23 37 85 56 51 67
REMARK Flexibility Score: inf
ROOT
ATOM      1  C   UNL A   1      38.565  22.664  26.293  1.00  0.00     0.116 C 
ENDROOT
BRANCH   1   2
ATOM      2  N   UNL A   1      38.034  22.401  24.976  1.00  0.00    -0.352 N 
ATOM      3  C   UNL A   1      36.803  22.612  24.418  1.00  0.00     0.255 C 
ATOM      4  O   UNL A   1      36.661  22.193  23.263  1.00  0.00    -0.269 OA
ATOM      5  H   UNL A   1      38.684  21.991  24.361  1.00  0.00     0.163 HD
BRANCH   3   6
ATOM      6  C   UNL A   1      35.662  23.358  25.037  1.00  0.00     0.083 A 
ATOM      7  C   UNL A   1      34.246  25.348  24.712  1.00  0.00     0.041 A 
ATOM      8  C   UNL A   1      33.518  25.001  25.847  1.00  0.00     0.030 A 
ATOM      9  C   UNL A   1      35.311  24.530  24.327  1.00  0.00     0.043 A 
ATOM     10  C   UNL A   1      33.829  23.852  26.564  1.00  0.00     0.049 A 
ATOM     11  C   UNL A   1      34.885  23.030  26.157  1.00  0.00     0.128 A 
BRANCH   7  12
ATOM     12  N   UNL A   1      33.983  26.541  24.021  1.00  0.00    -0.340 N 
ATOM     13  H   UNL A   1      34.605  26.791  23.300  1.00  0.00     0.168 HD
BRANCH  12  14
ATOM     14  C   UNL A   1      32.903  27.412  24.271  1.00  0.00     0.142 A 
ATOM     15  C   UNL A   1      30.767  28.084  23.741  1.00  0.00     0.137 A 
ATOM     16  N   UNL A   1      31.800  27.263  23.520  1.00  0.00    -0.215 NA
ATOM     17  N   UNL A   1      30.752  29.044  24.678  1.00  0.00    -0.233 NA
ATOM     18  C   UNL A   1      31.854  29.190  25.424  1.00  0.00     0.076 A 
ATOM     19  C   UNL A   1      32.998  28.397  25.261  1.00  0.00     0.043 A 
ATOM     20  C   UNL A   1      31.874  30.179  26.400  1.00  0.00     0.029 A 
ATOM     21  C   UNL A   1      34.147  28.642  26.054  1.00  0.00     0.014 A 
ATOM     22  C   UNL A   1      33.001  30.416  27.194  1.00  0.00     0.002 A 
ATOM     23  C   UNL A   1      34.144  29.651  27.015  1.00  0.00     0.001 A 
BRANCH  15  24
ATOM     24  C   UNL A   1      29.557  27.909  22.870  1.00  0.00     0.138 C 
BRANCH  24  25
ATOM     25  C   UNL A   1      28.426  28.919  23.141  1.00  0.00     0.269 C 
BRANCH  25  26
ATOM     26  N   UNL A   1      28.552  30.330  22.727  1.00  0.00    -0.339 N 
ATOM     27  C   UNL A   1      28.275  30.523  21.309  1.00  0.00     0.332 C 
ATOM     28  C   UNL A   1      27.779  31.252  23.555  1.00  0.00     0.332 C 
ATOM     29  H   UNL A   1      29.533  30.564  22.880  1.00  0.00     0.347 HD
ENDBRANCH  25  26
ENDBRANCH  24  25
ENDBRANCH  15  24
ENDBRANCH  12  14
ENDBRANCH   7  12
BRANCH  11  30
ATOM     30  O   UNL A   1      35.066  21.892  26.880  1.00  0.00    -0.507 OA
ATOM     31  H   UNL A   1      35.399  21.941  27.755  1.00  0.00     0.293 HD
ENDBRANCH  11  30
ENDBRANCH   3   6
ENDBRANCH   1   2
BRANCH   1  32
ATOM     32  C   UNL A   1      39.856  21.870  26.512  1.00  0.00     0.023 C 
BRANCH  32  33
ATOM     33  C   UNL A   1      40.711  22.339  27.688  1.00  0.00     0.023 C 
BRANCH  33  34
ATOM     34  C   UNL A   1      42.024  23.000  27.296  1.00  0.00     0.116 C 
BRANCH  34  35
ATOM     35  N   UNL A   1      41.923  23.823  26.099  1.00  0.00    -0.352 N 
ATOM     36  C   UNL A   1      41.706  25.180  26.014  1.00  0.00     0.251 C 
ATOM     37  H   UNL A   1      42.023  23.348  25.243  1.00  0.00     0.163 HD
ATOM     38  O   UNL A   1      41.555  25.718  24.930  1.00  0.00    -0.269 OA
BRANCH  36  39
ATOM     39  C   UNL A   1      41.612  25.958  27.266  1.00  0.00     0.039 A 
ATOM     40  C   UNL A   1      42.666  26.807  27.608  1.00  0.00     0.014 A 
ATOM     41  C   UNL A   1      40.460  25.900  28.055  1.00  0.00     0.014 A 
ATOM     42  C   UNL A   1      42.534  27.655  28.708  1.00  0.00     0.010 A 
ATOM     43  C   UNL A   1      40.302  26.794  29.107  1.00  0.00     0.010 A 
ATOM     44  C   UNL A   1      41.335  27.682  29.442  1.00  0.00    -0.014 A 
BRANCH  44  45
ATOM     45  C   UNL A   1      41.137  28.640  30.556  1.00  0.00     0.031 A 
ATOM     46  C   UNL A   1      41.978  28.531  31.798  1.00  0.00     0.074 A 
ATOM     47  C   UNL A   1      40.148  29.552  30.479  1.00  0.00     0.049 A 
ATOM     48  N   UNL A   1      41.904  29.221  32.906  1.00  0.00    -0.248 NA
ATOM     49  C   UNL A   1      43.016  27.488  31.806  1.00  0.00     0.031 C 
ATOM     50  C   UNL A   1      39.224  29.709  29.352  1.00  0.00     0.029 A 
ATOM     51  N   UNL A   1      39.741  30.509  31.375  1.00  0.00    -0.354 N 
ATOM     52  C   UNL A   1      42.867  28.682  33.751  1.00  0.00     0.074 A 
ATOM     53  C   UNL A   1      43.483  27.581  33.043  1.00  0.00     0.031 C 
ATOM     54  C   UNL A   1      38.369  30.711  29.619  1.00  0.00     0.029 A 
ATOM     55  C   UNL A   1      38.663  31.246  30.945  1.00  0.00     0.049 A 
ATOM     56  H   UNL A   1      40.179  30.654  32.245  1.00  0.00     0.167 HD
ATOM     57  C   UNL A   1      43.219  29.084  34.995  1.00  0.00     0.037 A 
ATOM     58  C   UNL A   1      37.983  32.237  31.554  1.00  0.00     0.037 A 
ATOM     59  C   UNL A   1      42.630  30.207  35.674  1.00  0.00     0.049 A 
ATOM     60  C   UNL A   1      38.418  32.688  32.923  1.00  0.00     0.074 A 
ATOM     61  C   UNL A   1      42.977  30.751  36.898  1.00  0.00     0.029 A 
ATOM     62  N   UNL A   1      41.572  30.960  35.186  1.00  0.00    -0.354 N 
ATOM     63  N   UNL A   1      39.389  32.223  33.672  1.00  0.00    -0.248 NA
ATOM     64  C   UNL A   1      37.673  33.802  33.524  1.00  0.00     0.031 C 
ATOM     65  C   UNL A   1      42.105  31.810  37.168  1.00  0.00     0.029 A 
ATOM     66  C   UNL A   1      41.241  31.952  36.094  1.00  0.00     0.049 A 
ATOM     67  H   UNL A   1      41.124  30.812  34.323  1.00  0.00     0.167 HD
ATOM     68  C   UNL A   1      39.386  33.002  34.823  1.00  0.00     0.074 A 
ATOM     69  C   UNL A   1      38.325  33.976  34.666  1.00  0.00     0.031 C 
ATOM     70  C   UNL A   1      40.188  32.919  35.914  1.00  0.00     0.037 A 
BRANCH  57  71
ATOM     71  C   UNL A   1      44.298  28.309  35.698  1.00  0.00     0.058 A 
ATOM     72  C   UNL A   1      45.655  28.645  35.559  1.00  0.00     0.135 A 
ATOM     73  C   UNL A   1      43.971  27.244  36.552  1.00  0.00     0.135 A 
ATOM     74  F   UNL A   1      46.024  29.646  34.743  1.00  0.00    -0.206 F 
ATOM     75  C   UNL A   1      46.650  27.935  36.222  1.00  0.00     0.059 A 
ATOM     76  C   UNL A   1      44.949  26.535  37.244  1.00  0.00     0.059 A 
ATOM     77  F   UNL A   1      42.689  26.880  36.718  1.00  0.00    -0.206 F 
ATOM     78  C   UNL A   1      46.287  26.881  37.062  1.00  0.00     0.060 A 
BRANCH  78  79
ATOM     79  S   UNL A   1      47.590  25.976  37.924  1.00  0.00     0.124 S 
ATOM     80  O   UNL A   1      47.321  26.333  39.313  1.00  0.00    -0.237 OA
ATOM     81  O   UNL A   1      47.305  24.592  37.559  1.00  0.00    -0.237 OA
ATOM     82  O   UNL A   1      48.817  26.529  37.359  1.00  0.00    -0.744 OA
ENDBRANCH  78  79
ENDBRANCH  57  71
BRANCH  58  83
ATOM     83  C   UNL A   1      36.834  32.884  30.869  1.00  0.00     0.058 A 
ATOM     84  C   UNL A   1      37.034  33.933  29.961  1.00  0.00     0.135 A 
ATOM     85  C   UNL A   1      35.515  32.465  31.104  1.00  0.00     0.135 A 
ATOM     86  F   UNL A   1      38.277  34.372  29.706  1.00  0.00    -0.206 F 
ATOM     87  C   UNL A   1      35.969  34.562  29.325  1.00  0.00     0.059 A 
ATOM     88  C   UNL A   1      34.433  33.063  30.463  1.00  0.00     0.059 A 
ATOM     89  F   UNL A   1      35.271  31.453  31.950  1.00  0.00    -0.206 F 
ATOM     90  C   UNL A   1      34.671  34.119  29.585  1.00  0.00     0.060 A 
BRANCH  90  91
ATOM     91  S   UNL A   1      33.294  34.916  28.727  1.00  0.00     0.124 S 
ATOM     92  O   UNL A   1      33.971  36.010  28.040  1.00  0.00    -0.237 OA
ATOM     93  O   UNL A   1      32.795  33.839  27.877  1.00  0.00    -0.237 OA
ATOM     94  O   UNL A   1      32.404  35.307  29.816  1.00  0.00    -0.744 OA
ENDBRANCH  90  91
ENDBRANCH  58  83
BRANCH  70  95
ATOM     95  C   UNL A   1      39.972  33.925  37.008  1.00  0.00     0.058 A 
ATOM     96  C   UNL A   1      40.498  35.223  36.926  1.00  0.00     0.135 A 
ATOM     97  C   UNL A   1      39.183  33.603  38.124  1.00  0.00     0.135 A 
ATOM     98  F   UNL A   1      41.265  35.578  35.883  1.00  0.00    -0.206 F 
ATOM     99  C   UNL A   1      40.265  36.164  37.924  1.00  0.00     0.059 A 
ATOM    100  C   UNL A   1      38.916  34.535  39.121  1.00  0.00     0.059 A 
ATOM    101  F   UNL A   1      38.649  32.377  38.242  1.00  0.00    -0.206 F 
ATOM    102  C   UNL A   1      39.471  35.810  39.018  1.00  0.00     0.060 A 
BRANCH 102 103
ATOM    103  S   UNL A   1      39.142  37.050  40.288  1.00  0.00     0.124 S 
ATOM    104  O   UNL A   1      38.293  36.305  41.212  1.00  0.00    -0.237 OA
ATOM    105  O   UNL A   1      40.482  37.366  40.773  1.00  0.00    -0.237 OA
ATOM    106  O   UNL A   1      38.480  38.123  39.551  1.00  0.00    -0.744 OA
ENDBRANCH 102 103
ENDBRANCH  70  95
ENDBRANCH  44  45
ENDBRANCH  36  39
ENDBRANCH  34  35
ENDBRANCH  33  34
ENDBRANCH  32  33
ENDBRANCH   1  32
TORSDOF 20
ENDMDL
MODEL 3
REMARK VINA RESULT:     -11.4      2.405      2.834
REMARK SMILES C[NH+](C)CCc1nc(Nc2ccc(O)c(C(=O)NCCCCNC(=O)c3ccc(-c4c5nc(c(-c6c(F)cc(S(=O)(=O)[O-])cc6F)c6ccc([nH]6)c(-c6c(F)cc(S(=O)(=O)[O-])cc6F)c6nc(c(-c7c(F)cc(S(=O)(=O)[O-])cc7F)c7ccc4[nH]7)C=C6)C=C5)cc3)c2)c2ccccc2n1
REMARK SMILES IDX 19 1 18 2 16 3 17 4 15 6 10 7 11 8 92 9 12 10 13 11 9 12
REMARK SMILES IDX 8 14 6 15 7 16 99 17 98 18 93 19 97 20 94 21 96 22 95 23
REMARK SMILES IDX 5 24 4 25 2 26 1 27 3 28 14 30 20 32 21 33 22 34 23 35 24 36
REMARK SMILES IDX 25 38 26 39 27 40 91 41 28 42 90 43 29 44 30 45 31 46 84 47
REMARK SMILES IDX 32 48 89 49 83 50 85 51 33 52 88 53 82 54 81 55 34 57 68 58
REMARK SMILES IDX 47 59 67 60 48 61 51 62 66 63 86 64 49 65 50 66 65 68 87 69
REMARK SMILES IDX 52 70 35 71 36 72 45 73 37 74 38 75 44 76 46 77 39 78 40 79
REMARK SMILES IDX 41 80 42 81 43 82 69 83 70 84 79 85 71 86 72 87 78 88 80 89
REMARK SMILES IDX 73 90 74 91 75 92 76 93 77 94 53 95 54 96 63 97 55 98 56 99
REMARK SMILES IDX 62 100 64 101 57 102 58 103 59 104 60 105 61 106
REMARK H PARENT 18 5 9 13 2 29 14 31 23 37 85 56 51 67
REMARK Flexibility Score: inf
ROOT
ATOM      1  C   UNL A   1      34.112  20.562  25.271  1.00  0.00     0.116 C 
ENDROOT
BRANCH   1   2
ATOM      2  N   UNL A   1      33.336  20.785  24.074  1.00  0.00    -0.352 N 
ATOM      3  C   UNL A   1      32.348  21.679  23.768  1.00  0.00     0.255 C 
ATOM      4  O   UNL A   1      31.834  21.547  22.651  1.00  0.00    -0.269 OA
ATOM      5  H   UNL A   1      33.563  20.176  23.335  1.00  0.00     0.163 HD
BRANCH   3   6
ATOM      6  C   UNL A   1      31.895  22.830  24.614  1.00  0.00     0.083 A 
ATOM      7  C   UNL A   1      32.075  25.278  24.808  1.00  0.00     0.041 A 
ATOM      8  C   UNL A   1      31.220  25.243  25.907  1.00  0.00     0.030 A 
ATOM      9  C   UNL A   1      32.407  24.075  24.183  1.00  0.00     0.043 A 
ATOM     10  C   UNL A   1      30.691  24.037  26.354  1.00  0.00     0.049 A 
ATOM     11  C   UNL A   1      31.016  22.841  25.706  1.00  0.00     0.128 A 
BRANCH   7  12
ATOM     12  N   UNL A   1      32.666  26.481  24.391  1.00  0.00    -0.340 N 
ATOM     13  H   UNL A   1      33.511  26.418  23.890  1.00  0.00     0.168 HD
BRANCH  12  14
ATOM     14  C   UNL A   1      32.155  27.773  24.632  1.00  0.00     0.142 A 
ATOM     15  C   UNL A   1      30.598  29.387  24.119  1.00  0.00     0.137 A 
ATOM     16  N   UNL A   1      31.093  28.163  23.907  1.00  0.00    -0.215 NA
ATOM     17  N   UNL A   1      31.082  30.253  25.022  1.00  0.00    -0.233 NA
ATOM     18  C   UNL A   1      32.140  29.860  25.742  1.00  0.00     0.076 A 
ATOM     19  C   UNL A   1      32.750  28.608  25.584  1.00  0.00     0.043 A 
ATOM     20  C   UNL A   1      32.671  30.736  26.681  1.00  0.00     0.029 A 
ATOM     21  C   UNL A   1      33.899  28.280  26.347  1.00  0.00     0.014 A 
ATOM     22  C   UNL A   1      33.797  30.412  27.446  1.00  0.00     0.002 A 
ATOM     23  C   UNL A   1      34.419  29.183  27.271  1.00  0.00     0.001 A 
BRANCH  15  24
ATOM     24  C   UNL A   1      29.427  29.805  23.279  1.00  0.00     0.138 C 
BRANCH  24  25
ATOM     25  C   UNL A   1      28.914  31.229  23.562  1.00  0.00     0.269 C 
BRANCH  25  26
ATOM     26  N   UNL A   1      29.178  32.333  22.619  1.00  0.00    -0.339 N 
ATOM     27  C   UNL A   1      28.299  32.298  21.456  1.00  0.00     0.332 C 
ATOM     28  C   UNL A   1      29.182  33.650  23.250  1.00  0.00     0.332 C 
ATOM     29  H   UNL A   1      30.128  32.174  22.286  1.00  0.00     0.347 HD
ENDBRANCH  25  26
ENDBRANCH  24  25
ENDBRANCH  15  24
ENDBRANCH  12  14
ENDBRANCH   7  12
BRANCH  11  30
ATOM     30  O   UNL A   1      30.393  21.725  26.172  1.00  0.00    -0.507 OA
ATOM     31  H   UNL A   1      29.536  21.503  25.863  1.00  0.00     0.293 HD
ENDBRANCH  11  30
ENDBRANCH   3   6
ENDBRANCH   1   2
BRANCH   1  32
ATOM     32  C   UNL A   1      35.437  21.327  25.194  1.00  0.00     0.023 C 
BRANCH  32  33
ATOM     33  C   UNL A   1      35.394  22.751  25.746  1.00  0.00     0.023 C 
BRANCH  33  34
ATOM     34  C   UNL A   1      36.756  23.386  25.977  1.00  0.00     0.116 C 
BRANCH  34  35
ATOM     35  N   UNL A   1      37.840  22.417  26.058  1.00  0.00    -0.352 N 
ATOM     36  C   UNL A   1      39.151  22.634  26.418  1.00  0.00     0.251 C 
ATOM     37  H   UNL A   1      37.605  21.491  25.825  1.00  0.00     0.163 HD
ATOM     38  O   UNL A   1      39.971  21.734  26.351  1.00  0.00    -0.269 OA
BRANCH  36  39
ATOM     39  C   UNL A   1      39.551  23.993  26.839  1.00  0.00     0.039 A 
ATOM     40  C   UNL A   1      39.535  24.304  28.200  1.00  0.00     0.014 A 
ATOM     41  C   UNL A   1      40.002  24.925  25.901  1.00  0.00     0.014 A 
ATOM     42  C   UNL A   1      40.044  25.530  28.629  1.00  0.00     0.010 A 
ATOM     43  C   UNL A   1      40.572  26.116  26.336  1.00  0.00     0.010 A 
ATOM     44  C   UNL A   1      40.602  26.428  27.703  1.00  0.00    -0.014 A 
BRANCH  44  45
ATOM     45  C   UNL A   1      41.232  27.695  28.145  1.00  0.00     0.031 A 
ATOM     46  C   UNL A   1      42.728  27.847  28.096  1.00  0.00     0.074 A 
ATOM     47  C   UNL A   1      40.464  28.673  28.666  1.00  0.00     0.049 A 
ATOM     48  N   UNL A   1      43.469  28.841  28.508  1.00  0.00    -0.248 NA
ATOM     49  C   UNL A   1      43.491  26.719  27.538  1.00  0.00     0.031 C 
ATOM     50  C   UNL A   1      39.009  28.613  28.827  1.00  0.00     0.029 A 
ATOM     51  N   UNL A   1      40.802  29.903  29.173  1.00  0.00    -0.354 N 
ATOM     52  C   UNL A   1      44.783  28.451  28.282  1.00  0.00     0.074 A 
ATOM     53  C   UNL A   1      44.740  27.112  27.737  1.00  0.00     0.031 C 
ATOM     54  C   UNL A   1      38.579  29.759  29.380  1.00  0.00     0.029 A 
ATOM     55  C   UNL A   1      39.727  30.621  29.641  1.00  0.00     0.049 A 
ATOM     56  H   UNL A   1      41.727  30.239  29.199  1.00  0.00     0.167 HD
ATOM     57  C   UNL A   1      45.921  29.155  28.492  1.00  0.00     0.037 A 
ATOM     58  C   UNL A   1      39.675  31.836  30.222  1.00  0.00     0.037 A 
ATOM     59  C   UNL A   1      45.952  30.502  28.995  1.00  0.00     0.049 A 
ATOM     60  C   UNL A   1      40.951  32.611  30.410  1.00  0.00     0.074 A 
ATOM     61  C   UNL A   1      47.045  31.334  29.159  1.00  0.00     0.029 A 
ATOM     62  N   UNL A   1      44.839  31.216  29.414  1.00  0.00    -0.354 N 
ATOM     63  N   UNL A   1      42.179  32.261  30.111  1.00  0.00    -0.248 NA
ATOM     64  C   UNL A   1      40.834  33.949  31.006  1.00  0.00     0.031 C 
ATOM     65  C   UNL A   1      46.598  32.538  29.712  1.00  0.00     0.029 A 
ATOM     66  C   UNL A   1      45.221  32.472  29.855  1.00  0.00     0.049 A 
ATOM     67  H   UNL A   1      43.914  30.880  29.400  1.00  0.00     0.167 HD
ATOM     68  C   UNL A   1      42.978  33.343  30.461  1.00  0.00     0.074 A 
ATOM     69  C   UNL A   1      42.093  34.364  30.983  1.00  0.00     0.031 C 
ATOM     70  C   UNL A   1      44.323  33.479  30.361  1.00  0.00     0.037 A 
BRANCH  57  71
ATOM     71  C   UNL A   1      47.226  28.483  28.168  1.00  0.00     0.058 A 
ATOM     72  C   UNL A   1      47.800  28.569  26.889  1.00  0.00     0.135 A 
ATOM     73  C   UNL A   1      47.930  27.778  29.157  1.00  0.00     0.135 A 
ATOM     74  F   UNL A   1      47.161  29.217  25.903  1.00  0.00    -0.206 F 
ATOM     75  C   UNL A   1      49.014  27.957  26.596  1.00  0.00     0.059 A 
ATOM     76  C   UNL A   1      49.159  27.179  28.892  1.00  0.00     0.059 A 
ATOM     77  F   UNL A   1      47.425  27.664  30.395  1.00  0.00    -0.206 F 
ATOM     78  C   UNL A   1      49.686  27.264  27.605  1.00  0.00     0.060 A 
BRANCH  78  79
ATOM     79  S   UNL A   1      51.266  26.485  27.211  1.00  0.00     0.124 S 
ATOM     80  O   UNL A   1      51.478  26.935  25.839  1.00  0.00    -0.237 OA
ATOM     81  O   UNL A   1      52.159  27.063  28.211  1.00  0.00    -0.237 OA
ATOM     82  O   UNL A   1      50.992  25.060  27.369  1.00  0.00    -0.744 OA
ENDBRANCH  78  79
ENDBRANCH  57  71
BRANCH  58  83
ATOM     83  C   UNL A   1      38.368  32.403  30.648  1.00  0.00     0.058 A 
ATOM     84  C   UNL A   1      37.581  33.147  29.758  1.00  0.00     0.135 A 
ATOM     85  C   UNL A   1      37.880  32.210  31.950  1.00  0.00     0.135 A 
ATOM     86  F   UNL A   1      38.007  33.362  28.504  1.00  0.00    -0.206 F 
ATOM     87  C   UNL A   1      36.365  33.700  30.147  1.00  0.00     0.059 A 
ATOM     88  C   UNL A   1      36.657  32.734  32.357  1.00  0.00     0.059 A 
ATOM     89  F   UNL A   1      38.588  31.490  32.834  1.00  0.00    -0.206 F 
ATOM     90  C   UNL A   1      35.913  33.489  31.450  1.00  0.00     0.060 A 
BRANCH  90  91
ATOM     91  S   UNL A   1      34.315  34.179  31.937  1.00  0.00     0.124 S 
ATOM     92  O   UNL A   1      34.723  35.369  32.675  1.00  0.00    -0.237 OA
ATOM     93  O   UNL A   1      33.675  34.415  30.646  1.00  0.00    -0.237 OA
ATOM     94  O   UNL A   1      33.719  33.111  32.735  1.00  0.00    -0.744 OA
ENDBRANCH  90  91
ENDBRANCH  58  83
BRANCH  70  95
ATOM     95  C   UNL A   1      44.919  34.788  30.794  1.00  0.00     0.058 A 
ATOM     96  C   UNL A   1      45.320  35.009  32.121  1.00  0.00     0.135 A 
ATOM     97  C   UNL A   1      45.142  35.811  29.859  1.00  0.00     0.135 A 
ATOM     98  F   UNL A   1      45.121  34.064  33.053  1.00  0.00    -0.206 F 
ATOM     99  C   UNL A   1      45.906  36.209  32.510  1.00  0.00     0.059 A 
ATOM    100  C   UNL A   1      45.749  37.010  30.221  1.00  0.00     0.059 A 
ATOM    101  F   UNL A   1      44.785  35.643  28.576  1.00  0.00    -0.206 F 
ATOM    102  C   UNL A   1      46.117  37.203  31.552  1.00  0.00     0.060 A 
BRANCH 102 103
ATOM    103  S   UNL A   1      46.914  38.742  32.059  1.00  0.00     0.124 S 
ATOM    104  O   UNL A   1      47.758  38.286  33.158  1.00  0.00    -0.237 OA
ATOM    105  O   UNL A   1      47.617  39.146  30.845  1.00  0.00    -0.237 OA
ATOM    106  O   UNL A   1      45.792  39.595  32.440  1.00  0.00    -0.744 OA
ENDBRANCH 102 103
ENDBRANCH  70  95
ENDBRANCH  44  45
ENDBRANCH  36  39
ENDBRANCH  34  35
ENDBRANCH  33  34
ENDBRANCH  32  33
ENDBRANCH   1  32
TORSDOF 20
ENDMDL
