MODEL 1
REMARK VINA RESULT:     -10.5      0.000      0.000
REMARK SMILES CO[C@H](C)[C@@H](NC(=O)OCc1ccccc1)C(=O)NCCCCNC(=O)c1ccc(-c2c3nc(c(-c4c(F)cc(S(=O)(=O)[O-])cc4F)c4ccc([nH]4)c(-c4c(F)cc(S(=O)(=O)[O-])cc4F)c4nc(c(-c5c(F)cc(S(=O)(=O)[O-])cc5F)c5ccc2[nH]5)C=C4)C=C3)cc1
REMARK SMILES IDX 21 1 20 2 19 3 17 4 18 5 5 7 3 8 4 9 2 10 1 11 6 12 7 13
REMARK SMILES IDX 8 15 9 16 10 17 11 18 12 19 16 20 13 21 15 22 14 23 22 24
REMARK SMILES IDX 23 25 24 26 25 27 26 29 27 30 28 31 92 32 29 33 91 34 30 35
REMARK SMILES IDX 31 36 32 37 85 38 33 39 90 40 84 41 86 42 34 43 89 44 83 45
REMARK SMILES IDX 82 46 35 48 69 49 48 50 68 51 49 52 52 53 67 54 87 55 50 56
REMARK SMILES IDX 51 57 66 59 88 60 53 61 36 62 37 63 46 64 38 65 39 66 45 67
REMARK SMILES IDX 47 68 40 69 41 70 42 71 43 72 44 73 70 74 71 75 80 76 72 77
REMARK SMILES IDX 73 78 79 79 81 80 74 81 75 82 76 83 77 84 78 85 54 86 55 87
REMARK SMILES IDX 64 88 56 89 57 90 63 91 65 92 58 93 59 94 60 95 61 96 62 97
REMARK H PARENT 19 6 6 14 24 28 86 47 52 58
REMARK Flexibility Score: inf
ROOT
ATOM      1  C   UNL A   1      31.487  27.414  26.867  1.00  0.00     0.023 C 
ENDROOT
BRANCH   1   2
ATOM      2  C   UNL A   1      31.683  26.143  26.058  1.00  0.00     0.116 C 
BRANCH   2   3
ATOM      3  N   UNL A   1      31.081  25.000  26.717  1.00  0.00    -0.354 N 
ATOM      4  C   UNL A   1      31.506  23.700  26.760  1.00  0.00     0.245 C 
ATOM      5  O   UNL A   1      30.831  22.893  27.405  1.00  0.00    -0.273 OA
ATOM      6  H   UNL A   1      30.246  25.187  27.204  1.00  0.00     0.163 HD
BRANCH   4   7
ATOM      7  C   UNL A   1      32.733  23.246  25.942  1.00  0.00     0.203 C 
BRANCH   7   8
ATOM      8  C   UNL A   1      33.518  22.201  26.806  1.00  0.00     0.146 C 
ATOM      9  C   UNL A   1      33.472  20.783  26.225  1.00  0.00     0.041 C 
BRANCH   8  10
ATOM     10  O   UNL A   1      34.912  22.526  26.927  1.00  0.00    -0.379 OA
ATOM     11  C   UNL A   1      35.310  23.667  26.171  1.00  0.00     0.195 C 
ENDBRANCH   8  10
ENDBRANCH   7   8
BRANCH   7  12
ATOM     12  N   UNL A   1      32.369  22.690  24.616  1.00  0.00    -0.307 N 
ATOM     13  C   UNL A   1      32.688  23.166  23.377  1.00  0.00     0.408 C 
ATOM     14  H   UNL A   1      31.826  21.869  24.632  1.00  0.00     0.168 HD
ATOM     15  O   UNL A   1      32.307  22.579  22.371  1.00  0.00    -0.225 OA
BRANCH  13  16
ATOM     16  O   UNL A   1      33.327  24.351  23.402  1.00  0.00    -0.445 OA
BRANCH  16  17
ATOM     17  C   UNL A   1      33.300  25.131  22.197  1.00  0.00     0.270 C 
BRANCH  17  18
ATOM     18  C   UNL A   1      32.584  26.439  22.373  1.00  0.00    -0.011 A 
ATOM     19  C   UNL A   1      33.325  27.619  22.523  1.00  0.00     0.007 A 
ATOM     20  C   UNL A   1      31.184  26.506  22.387  1.00  0.00     0.007 A 
ATOM     21  C   UNL A   1      32.676  28.831  22.754  1.00  0.00     0.000 A 
ATOM     22  C   UNL A   1      30.538  27.713  22.632  1.00  0.00     0.000 A 
ATOM     23  C   UNL A   1      31.284  28.874  22.827  1.00  0.00     0.000 A 
ENDBRANCH  17  18
ENDBRANCH  16  17
ENDBRANCH  13  16
ENDBRANCH   7  12
ENDBRANCH   4   7
ENDBRANCH   2   3
ENDBRANCH   1   2
BRANCH   1  24
ATOM     24  C   UNL A   1      32.367  28.567  26.399  1.00  0.00     0.023 C 
BRANCH  24  25
ATOM     25  C   UNL A   1      33.574  28.828  27.293  1.00  0.00     0.116 C 
BRANCH  25  26
ATOM     26  N   UNL A   1      33.609  30.198  27.788  1.00  0.00    -0.352 N 
ATOM     27  C   UNL A   1      34.620  30.831  28.471  1.00  0.00     0.251 C 
ATOM     28  H   UNL A   1      32.807  30.740  27.610  1.00  0.00     0.163 HD
ATOM     29  O   UNL A   1      34.433  31.917  29.008  1.00  0.00    -0.269 OA
BRANCH  27  30
ATOM     30  C   UNL A   1      35.925  30.153  28.565  1.00  0.00     0.039 A 
ATOM     31  C   UNL A   1      36.782  30.165  27.464  1.00  0.00     0.014 A 
ATOM     32  C   UNL A   1      36.331  29.608  29.786  1.00  0.00     0.014 A 
ATOM     33  C   UNL A   1      38.091  29.706  27.617  1.00  0.00     0.010 A 
ATOM     34  C   UNL A   1      37.657  29.233  29.957  1.00  0.00     0.010 A 
ATOM     35  C   UNL A   1      38.553  29.291  28.878  1.00  0.00    -0.014 A 
BRANCH  35  36
ATOM     36  C   UNL A   1      39.977  28.945  29.108  1.00  0.00     0.031 A 
ATOM     37  C   UNL A   1      40.926  29.985  29.631  1.00  0.00     0.074 A 
ATOM     38  C   UNL A   1      40.428  27.722  28.762  1.00  0.00     0.049 A 
ATOM     39  N   UNL A   1      42.220  29.912  29.799  1.00  0.00    -0.248 NA
ATOM     40  C   UNL A   1      40.345  31.291  29.986  1.00  0.00     0.031 C 
ATOM     41  C   UNL A   1      39.608  26.640  28.212  1.00  0.00     0.029 A 
ATOM     42  N   UNL A   1      41.691  27.187  28.809  1.00  0.00    -0.354 N 
ATOM     43  C   UNL A   1      42.610  31.158  30.274  1.00  0.00     0.074 A 
ATOM     44  C   UNL A   1      41.426  31.987  30.306  1.00  0.00     0.031 C 
ATOM     45  C   UNL A   1      40.383  25.565  27.998  1.00  0.00     0.029 A 
ATOM     46  C   UNL A   1      41.763  25.896  28.342  1.00  0.00     0.049 A 
ATOM     47  H   UNL A   1      42.474  27.682  29.145  1.00  0.00     0.167 HD
ATOM     48  C   UNL A   1      43.840  31.564  30.672  1.00  0.00     0.037 A 
ATOM     49  C   UNL A   1      42.821  25.076  28.193  1.00  0.00     0.037 A 
ATOM     50  C   UNL A   1      45.011  30.728  30.635  1.00  0.00     0.049 A 
ATOM     51  C   UNL A   1      44.188  25.570  28.582  1.00  0.00     0.074 A 
ATOM     52  C   UNL A   1      46.295  31.029  31.051  1.00  0.00     0.029 A 
ATOM     53  N   UNL A   1      45.045  29.430  30.142  1.00  0.00    -0.354 N 
ATOM     54  N   UNL A   1      44.531  26.730  29.089  1.00  0.00    -0.248 NA
ATOM     55  C   UNL A   1      45.313  24.648  28.374  1.00  0.00     0.031 C 
ATOM     56  C   UNL A   1      47.118  29.937  30.755  1.00  0.00     0.029 A 
ATOM     57  C   UNL A   1      46.335  28.931  30.211  1.00  0.00     0.049 A 
ATOM     58  H   UNL A   1      44.267  28.937  29.794  1.00  0.00     0.167 HD
ATOM     59  C   UNL A   1      45.907  26.667  29.286  1.00  0.00     0.074 A 
ATOM     60  C   UNL A   1      46.330  25.352  28.854  1.00  0.00     0.031 C 
ATOM     61  C   UNL A   1      46.742  27.615  29.780  1.00  0.00     0.037 A 
BRANCH  48  62
ATOM     62  C   UNL A   1      43.975  32.977  31.173  1.00  0.00     0.058 A 
ATOM     63  C   UNL A   1      43.915  33.283  32.541  1.00  0.00     0.135 A 
ATOM     64  C   UNL A   1      44.179  34.038  30.275  1.00  0.00     0.135 A 
ATOM     65  F   UNL A   1      43.707  32.311  33.445  1.00  0.00    -0.206 F 
ATOM     66  C   UNL A   1      44.011  34.593  33.000  1.00  0.00     0.059 A 
ATOM     67  C   UNL A   1      44.311  35.353  30.715  1.00  0.00     0.059 A 
ATOM     68  F   UNL A   1      44.246  33.805  28.955  1.00  0.00    -0.206 F 
ATOM     69  C   UNL A   1      44.206  35.621  32.079  1.00  0.00     0.060 A 
BRANCH  69  70
ATOM     70  S   UNL A   1      44.309  37.315  32.690  1.00  0.00     0.124 S 
ATOM     71  O   UNL A   1      44.366  38.071  31.442  1.00  0.00    -0.237 OA
ATOM     72  O   UNL A   1      43.072  37.446  33.453  1.00  0.00    -0.237 OA
ATOM     73  O   UNL A   1      45.536  37.320  33.481  1.00  0.00    -0.744 OA
ENDBRANCH  69  70
ENDBRANCH  48  62
BRANCH  49  74
ATOM     74  C   UNL A   1      42.626  23.697  27.666  1.00  0.00     0.058 A 
ATOM     75  C   UNL A   1      42.630  23.450  26.286  1.00  0.00     0.135 A 
ATOM     76  C   UNL A   1      42.455  22.600  28.525  1.00  0.00     0.135 A 
ATOM     77  F   UNL A   1      42.782  24.467  25.423  1.00  0.00    -0.206 F 
ATOM     78  C   UNL A   1      42.462  22.168  25.773  1.00  0.00     0.059 A 
ATOM     79  C   UNL A   1      42.312  21.304  28.037  1.00  0.00     0.059 A 
ATOM     80  F   UNL A   1      42.457  22.778  29.855  1.00  0.00    -0.206 F 
ATOM     81  C   UNL A   1      42.310  21.099  26.658  1.00  0.00     0.060 A 
BRANCH  81  82
ATOM     82  S   UNL A   1      42.154  19.433  25.981  1.00  0.00     0.124 S 
ATOM     83  O   UNL A   1      43.004  19.514  24.800  1.00  0.00    -0.237 OA
ATOM     84  O   UNL A   1      42.657  18.611  27.077  1.00  0.00    -0.237 OA
ATOM     85  O   UNL A   1      40.722  19.309  25.722  1.00  0.00    -0.744 OA
ENDBRANCH  81  82
ENDBRANCH  49  74
BRANCH  61  86
ATOM     86  C   UNL A   1      48.199  27.262  29.907  1.00  0.00     0.058 A 
ATOM     87  C   UNL A   1      49.132  27.620  28.922  1.00  0.00     0.135 A 
ATOM     88  C   UNL A   1      48.680  26.632  31.067  1.00  0.00     0.135 A 
ATOM     89  F   UNL A   1      48.725  28.214  27.789  1.00  0.00    -0.206 F 
ATOM     90  C   UNL A   1      50.490  27.359  29.079  1.00  0.00     0.059 A 
ATOM     91  C   UNL A   1      50.036  26.389  31.258  1.00  0.00     0.059 A 
ATOM     92  F   UNL A   1      47.830  26.274  32.043  1.00  0.00    -0.206 F 
ATOM     93  C   UNL A   1      50.934  26.752  30.255  1.00  0.00     0.060 A 
BRANCH  93  94
ATOM     94  S   UNL A   1      52.706  26.483  30.472  1.00  0.00     0.124 S 
ATOM     95  O   UNL A   1      52.721  25.375  31.422  1.00  0.00    -0.237 OA
ATOM     96  O   UNL A   1      53.137  26.161  29.116  1.00  0.00    -0.237 OA
ATOM     97  O   UNL A   1      53.184  27.760  30.991  1.00  0.00    -0.744 OA
ENDBRANCH  93  94
ENDBRANCH  61  86
ENDBRANCH  35  36
ENDBRANCH  27  30
ENDBRANCH  25  26
ENDBRANCH  24  25
ENDBRANCH   1  24
TORSDOF 20
ENDMDL
MODEL 2
REMARK VINA RESULT:     -10.4      1.040      2.318
REMARK SMILES CO[C@H](C)[C@@H](NC(=O)OCc1ccccc1)C(=O)NCCCCNC(=O)c1ccc(-c2c3nc(c(-c4c(F)cc(S(=O)(=O)[O-])cc4F)c4ccc([nH]4)c(-c4c(F)cc(S(=O)(=O)[O-])cc4F)c4nc(c(-c5c(F)cc(S(=O)(=O)[O-])cc5F)c5ccc2[nH]5)C=C4)C=C3)cc1
REMARK SMILES IDX 21 1 20 2 19 3 17 4 18 5 5 7 3 8 4 9 2 10 1 11 6 12 7 13
REMARK SMILES IDX 8 15 9 16 10 17 11 18 12 19 16 20 13 21 15 22 14 23 22 24
REMARK SMILES IDX 23 25 24 26 25 27 26 29 27 30 28 31 92 32 29 33 91 34 30 35
REMARK SMILES IDX 31 36 32 37 85 38 33 39 90 40 84 41 86 42 34 43 89 44 83 45
REMARK SMILES IDX 82 46 35 48 69 49 48 50 68 51 49 52 52 53 67 54 87 55 50 56
REMARK SMILES IDX 51 57 66 59 88 60 53 61 36 62 37 63 46 64 38 65 39 66 45 67
REMARK SMILES IDX 47 68 40 69 41 70 42 71 43 72 44 73 70 74 71 75 80 76 72 77
REMARK SMILES IDX 73 78 79 79 81 80 74 81 75 82 76 83 77 84 78 85 54 86 55 87
REMARK SMILES IDX 64 88 56 89 57 90 63 91 65 92 58 93 59 94 60 95 61 96 62 97
REMARK H PARENT 19 6 6 14 24 28 86 47 52 58
REMARK Flexibility Score: inf
ROOT
ATOM      1  C   UNL A   1      31.651  27.719  26.988  1.00  0.00     0.023 C 
ENDROOT
BRANCH   1   2
ATOM      2  C   UNL A   1      31.596  26.508  26.073  1.00  0.00     0.116 C 
BRANCH   2   3
ATOM      3  N   UNL A   1      30.826  25.432  26.668  1.00  0.00    -0.354 N 
ATOM      4  C   UNL A   1      31.026  24.080  26.598  1.00  0.00     0.245 C 
ATOM      5  O   UNL A   1      30.241  23.349  27.207  1.00  0.00    -0.273 OA
ATOM      6  H   UNL A   1      30.046  25.717  27.199  1.00  0.00     0.163 HD
BRANCH   4   7
ATOM      7  C   UNL A   1      32.138  23.494  25.703  1.00  0.00     0.203 C 
BRANCH   7   8
ATOM      8  C   UNL A   1      32.091  21.936  25.850  1.00  0.00     0.146 C 
ATOM      9  C   UNL A   1      31.989  21.206  24.505  1.00  0.00     0.041 C 
BRANCH   8  10
ATOM     10  O   UNL A   1      33.266  21.408  26.488  1.00  0.00    -0.379 OA
ATOM     11  C   UNL A   1      33.919  20.383  25.743  1.00  0.00     0.195 C 
ENDBRANCH   8  10
ENDBRANCH   7   8
BRANCH   7  12
ATOM     12  N   UNL A   1      32.017  23.910  24.285  1.00  0.00    -0.307 N 
ATOM     13  C   UNL A   1      33.011  24.196  23.395  1.00  0.00     0.408 C 
ATOM     14  H   UNL A   1      31.098  23.990  23.941  1.00  0.00     0.168 HD
ATOM     15  O   UNL A   1      32.737  24.526  22.246  1.00  0.00    -0.225 OA
BRANCH  13  16
ATOM     16  O   UNL A   1      34.243  24.191  23.940  1.00  0.00    -0.445 OA
BRANCH  16  17
ATOM     17  C   UNL A   1      35.133  23.144  23.526  1.00  0.00     0.270 C 
BRANCH  17  18
ATOM     18  C   UNL A   1      36.295  22.973  24.463  1.00  0.00    -0.011 A 
ATOM     19  C   UNL A   1      36.631  24.008  25.345  1.00  0.00     0.007 A 
ATOM     20  C   UNL A   1      37.052  21.794  24.474  1.00  0.00     0.007 A 
ATOM     21  C   UNL A   1      37.746  23.891  26.172  1.00  0.00     0.000 A 
ATOM     22  C   UNL A   1      38.173  21.683  25.290  1.00  0.00     0.000 A 
ATOM     23  C   UNL A   1      38.527  22.737  26.131  1.00  0.00     0.000 A 
ENDBRANCH  17  18
ENDBRANCH  16  17
ENDBRANCH  13  16
ENDBRANCH   7  12
ENDBRANCH   4   7
ENDBRANCH   2   3
ENDBRANCH   1   2
BRANCH   1  24
ATOM     24  C   UNL A   1      32.391  28.903  26.376  1.00  0.00     0.023 C 
BRANCH  24  25
ATOM     25  C   UNL A   1      33.734  29.202  27.032  1.00  0.00     0.116 C 
BRANCH  25  26
ATOM     26  N   UNL A   1      33.713  30.449  27.787  1.00  0.00    -0.352 N 
ATOM     27  C   UNL A   1      34.667  30.939  28.647  1.00  0.00     0.251 C 
ATOM     28  H   UNL A   1      32.915  31.012  27.666  1.00  0.00     0.163 HD
ATOM     29  O   UNL A   1      34.427  31.898  29.372  1.00  0.00    -0.269 OA
BRANCH  27  30
ATOM     30  C   UNL A   1      35.975  30.261  28.693  1.00  0.00     0.039 A 
ATOM     31  C   UNL A   1      36.791  30.272  27.561  1.00  0.00     0.014 A 
ATOM     32  C   UNL A   1      36.425  29.716  29.898  1.00  0.00     0.014 A 
ATOM     33  C   UNL A   1      38.104  29.814  27.666  1.00  0.00     0.010 A 
ATOM     34  C   UNL A   1      37.756  29.340  30.020  1.00  0.00     0.010 A 
ATOM     35  C   UNL A   1      38.612  29.398  28.909  1.00  0.00    -0.014 A 
BRANCH  35  36
ATOM     36  C   UNL A   1      40.043  29.052  29.087  1.00  0.00     0.031 A 
ATOM     37  C   UNL A   1      41.016  30.099  29.551  1.00  0.00     0.074 A 
ATOM     38  C   UNL A   1      40.477  27.822  28.746  1.00  0.00     0.049 A 
ATOM     39  N   UNL A   1      42.316  30.025  29.667  1.00  0.00    -0.248 NA
ATOM     40  C   UNL A   1      40.454  31.413  29.905  1.00  0.00     0.031 C 
ATOM     41  C   UNL A   1      39.633  26.733  28.250  1.00  0.00     0.029 A 
ATOM     42  N   UNL A   1      41.740  27.284  28.750  1.00  0.00    -0.354 N 
ATOM     43  C   UNL A   1      42.728  31.278  30.102  1.00  0.00     0.074 A 
ATOM     44  C   UNL A   1      41.548  32.112  30.168  1.00  0.00     0.031 C 
ATOM     45  C   UNL A   1      40.395  25.651  28.025  1.00  0.00     0.029 A 
ATOM     46  C   UNL A   1      41.789  25.984  28.306  1.00  0.00     0.049 A 
ATOM     47  H   UNL A   1      42.536  27.782  29.044  1.00  0.00     0.167 HD
ATOM     48  C   UNL A   1      43.974  31.688  30.441  1.00  0.00     0.037 A 
ATOM     49  C   UNL A   1      42.838  25.158  28.129  1.00  0.00     0.037 A 
ATOM     50  C   UNL A   1      45.140  30.847  30.371  1.00  0.00     0.049 A 
ATOM     51  C   UNL A   1      44.221  25.654  28.451  1.00  0.00     0.074 A 
ATOM     52  C   UNL A   1      46.442  31.152  30.728  1.00  0.00     0.029 A 
ATOM     53  N   UNL A   1      45.151  29.540  29.902  1.00  0.00    -0.354 N 
ATOM     54  N   UNL A   1      44.588  26.823  28.922  1.00  0.00    -0.248 NA
ATOM     55  C   UNL A   1      45.334  24.725  28.214  1.00  0.00     0.031 C 
ATOM     56  C   UNL A   1      47.249  30.052  30.420  1.00  0.00     0.029 A 
ATOM     57  C   UNL A   1      46.442  29.038  29.928  1.00  0.00     0.049 A 
ATOM     58  H   UNL A   1      44.358  29.043  29.596  1.00  0.00     0.167 HD
ATOM     59  C   UNL A   1      45.970  26.759  29.063  1.00  0.00     0.074 A 
ATOM     60  C   UNL A   1      46.372  25.434  28.639  1.00  0.00     0.031 C 
ATOM     61  C   UNL A   1      46.828  27.713  29.505  1.00  0.00     0.037 A 
BRANCH  48  62
ATOM     62  C   UNL A   1      44.133  33.109  30.909  1.00  0.00     0.058 A 
ATOM     63  C   UNL A   1      44.111  33.443  32.273  1.00  0.00     0.135 A 
ATOM     64  C   UNL A   1      44.323  34.150  29.985  1.00  0.00     0.135 A 
ATOM     65  F   UNL A   1      43.918  32.491  33.201  1.00  0.00    -0.206 F 
ATOM     66  C   UNL A   1      44.228  34.761  32.702  1.00  0.00     0.059 A 
ATOM     67  C   UNL A   1      44.476  35.472  30.394  1.00  0.00     0.059 A 
ATOM     68  F   UNL A   1      44.353  33.890  28.669  1.00  0.00    -0.206 F 
ATOM     69  C   UNL A   1      44.408  35.769  31.755  1.00  0.00     0.060 A 
BRANCH  69  70
ATOM     70  S   UNL A   1      44.540  37.474  32.329  1.00  0.00     0.124 S 
ATOM     71  O   UNL A   1      45.875  37.479  32.919  1.00  0.00    -0.237 OA
ATOM     72  O   UNL A   1      44.393  38.231  31.090  1.00  0.00    -0.237 OA
ATOM     73  O   UNL A   1      43.437  37.603  33.276  1.00  0.00    -0.744 OA
ENDBRANCH  69  70
ENDBRANCH  48  62
BRANCH  49  74
ATOM     74  C   UNL A   1      42.618  23.770  27.636  1.00  0.00     0.058 A 
ATOM     75  C   UNL A   1      42.542  23.501  26.262  1.00  0.00     0.135 A 
ATOM     76  C   UNL A   1      42.502  22.686  28.521  1.00  0.00     0.135 A 
ATOM     77  F   UNL A   1      42.639  24.504  25.375  1.00  0.00    -0.206 F 
ATOM     78  C   UNL A   1      42.350  22.210  25.780  1.00  0.00     0.059 A 
ATOM     79  C   UNL A   1      42.336  21.382  28.063  1.00  0.00     0.059 A 
ATOM     80  F   UNL A   1      42.581  22.886  29.846  1.00  0.00    -0.206 F 
ATOM     81  C   UNL A   1      42.255  21.155  26.690  1.00  0.00     0.060 A 
BRANCH  81  82
ATOM     82  S   UNL A   1      42.065  19.478  26.049  1.00  0.00     0.124 S 
ATOM     83  O   UNL A   1      42.540  18.678  27.172  1.00  0.00    -0.237 OA
ATOM     84  O   UNL A   1      40.631  19.416  25.781  1.00  0.00    -0.237 OA
ATOM     85  O   UNL A   1      42.918  19.472  24.864  1.00  0.00    -0.744 OA
ENDBRANCH  81  82
ENDBRANCH  49  74
BRANCH  61  86
ATOM     86  C   UNL A   1      48.288  27.358  29.578  1.00  0.00     0.058 A 
ATOM     87  C   UNL A   1      49.195  27.763  28.587  1.00  0.00     0.135 A 
ATOM     88  C   UNL A   1      48.798  26.677  30.695  1.00  0.00     0.135 A 
ATOM     89  F   UNL A   1      48.758  28.408  27.493  1.00  0.00    -0.206 F 
ATOM     90  C   UNL A   1      50.556  27.499  28.697  1.00  0.00     0.059 A 
ATOM     91  C   UNL A   1      50.159  26.428  30.840  1.00  0.00     0.059 A 
ATOM     92  F   UNL A   1      47.974  26.272  31.675  1.00  0.00    -0.206 F 
ATOM     93  C   UNL A   1      51.031  26.839  29.832  1.00  0.00     0.060 A 
BRANCH  93  94
ATOM     94  S   UNL A   1      52.808  26.564  29.992  1.00  0.00     0.124 S 
ATOM     95  O   UNL A   1      53.300  27.923  30.184  1.00  0.00    -0.237 OA
ATOM     96  O   UNL A   1      52.881  25.691  31.160  1.00  0.00    -0.237 OA
ATOM     97  O   UNL A   1      53.171  25.938  28.725  1.00  0.00    -0.744 OA
ENDBRANCH  93  94
ENDBRANCH  61  86
ENDBRANCH  35  36
ENDBRANCH  27  30
ENDBRANCH  25  26
ENDBRANCH  24  25
ENDBRANCH   1  24
TORSDOF 20
ENDMDL
MODEL 3
REMARK VINA RESULT:     -10.2      2.601      4.029
REMARK SMILES CO[C@H](C)[C@@H](NC(=O)OCc1ccccc1)C(=O)NCCCCNC(=O)c1ccc(-c2c3nc(c(-c4c(F)cc(S(=O)(=O)[O-])cc4F)c4ccc([nH]4)c(-c4c(F)cc(S(=O)(=O)[O-])cc4F)c4nc(c(-c5c(F)cc(S(=O)(=O)[O-])cc5F)c5ccc2[nH]5)C=C4)C=C3)cc1
REMARK SMILES IDX 21 1 20 2 19 3 17 4 18 5 5 7 3 8 4 9 2 10 1 11 6 12 7 13
REMARK SMILES IDX 8 15 9 16 10 17 11 18 12 19 16 20 13 21 15 22 14 23 22 24
REMARK SMILES IDX 23 25 24 26 25 27 26 29 27 30 28 31 92 32 29 33 91 34 30 35
REMARK SMILES IDX 31 36 32 37 85 38 33 39 90 40 84 41 86 42 34 43 89 44 83 45
REMARK SMILES IDX 82 46 35 48 69 49 48 50 68 51 49 52 52 53 67 54 87 55 50 56
REMARK SMILES IDX 51 57 66 59 88 60 53 61 36 62 37 63 46 64 38 65 39 66 45 67
REMARK SMILES IDX 47 68 40 69 41 70 42 71 43 72 44 73 70 74 71 75 80 76 72 77
REMARK SMILES IDX 73 78 79 79 81 80 74 81 75 82 76 83 77 84 78 85 54 86 55 87
REMARK SMILES IDX 64 88 56 89 57 90 63 91 65 92 58 93 59 94 60 95 61 96 62 97
REMARK H PARENT 19 6 6 14 24 28 86 47 52 58
REMARK Flexibility Score: inf
ROOT
ATOM      1  C   UNL A   1      32.755  28.301  27.079  1.00  0.00     0.023 C 
ENDROOT
BRANCH   1   2
ATOM      2  C   UNL A   1      32.373  27.627  25.773  1.00  0.00     0.116 C 
BRANCH   2   3
ATOM      3  N   UNL A   1      32.840  28.388  24.630  1.00  0.00    -0.354 N 
ATOM      4  C   UNL A   1      32.504  28.263  23.309  1.00  0.00     0.245 C 
ATOM      5  O   UNL A   1      33.024  29.043  22.506  1.00  0.00    -0.273 OA
ATOM      6  H   UNL A   1      33.493  29.096  24.835  1.00  0.00     0.163 HD
BRANCH   4   7
ATOM      7  C   UNL A   1      31.585  27.119  22.834  1.00  0.00     0.203 C 
BRANCH   7   8
ATOM      8  C   UNL A   1      30.104  27.600  23.003  1.00  0.00     0.146 C 
ATOM      9  C   UNL A   1      29.269  26.677  23.899  1.00  0.00     0.041 C 
BRANCH   8  10
ATOM     10  O   UNL A   1      30.015  28.904  23.601  1.00  0.00    -0.379 OA
ATOM     11  C   UNL A   1      29.160  29.805  22.901  1.00  0.00     0.195 C 
ENDBRANCH   8  10
ENDBRANCH   7   8
BRANCH   7  12
ATOM     12  N   UNL A   1      31.862  26.695  21.441  1.00  0.00    -0.307 N 
ATOM     13  C   UNL A   1      32.808  25.821  20.989  1.00  0.00     0.408 C 
ATOM     14  H   UNL A   1      31.288  27.098  20.750  1.00  0.00     0.168 HD
ATOM     15  O   UNL A   1      32.904  25.576  19.792  1.00  0.00    -0.225 OA
BRANCH  13  16
ATOM     16  O   UNL A   1      33.647  25.389  21.950  1.00  0.00    -0.445 OA
BRANCH  16  17
ATOM     17  C   UNL A   1      33.471  24.040  22.410  1.00  0.00     0.270 C 
BRANCH  17  18
ATOM     18  C   UNL A   1      34.217  23.764  23.684  1.00  0.00    -0.011 A 
ATOM     19  C   UNL A   1      33.775  24.339  24.883  1.00  0.00     0.007 A 
ATOM     20  C   UNL A   1      35.347  22.936  23.700  1.00  0.00     0.007 A 
ATOM     21  C   UNL A   1      34.495  24.145  26.061  1.00  0.00     0.000 A 
ATOM     22  C   UNL A   1      36.073  22.756  24.873  1.00  0.00     0.000 A 
ATOM     23  C   UNL A   1      35.653  23.370  26.051  1.00  0.00     0.000 A 
ENDBRANCH  17  18
ENDBRANCH  16  17
ENDBRANCH  13  16
ENDBRANCH   7  12
ENDBRANCH   4   7
ENDBRANCH   2   3
ENDBRANCH   1   2
BRANCH   1  24
ATOM     24  C   UNL A   1      33.712  29.473  26.894  1.00  0.00     0.023 C 
BRANCH  24  25
ATOM     25  C   UNL A   1      35.036  29.315  27.631  1.00  0.00     0.116 C 
BRANCH  25  26
ATOM     26  N   UNL A   1      35.189  30.289  28.705  1.00  0.00    -0.352 N 
ATOM     27  C   UNL A   1      36.273  30.486  29.527  1.00  0.00     0.251 C 
ATOM     28  H   UNL A   1      34.419  30.882  28.861  1.00  0.00     0.163 HD
ATOM     29  O   UNL A   1      36.188  31.198  30.521  1.00  0.00    -0.269 OA
BRANCH  27  30
ATOM     30  C   UNL A   1      37.531  29.793  29.197  1.00  0.00     0.039 A 
ATOM     31  C   UNL A   1      37.992  29.805  27.880  1.00  0.00     0.014 A 
ATOM     32  C   UNL A   1      38.298  29.232  30.222  1.00  0.00     0.014 A 
ATOM     33  C   UNL A   1      39.275  29.330  27.605  1.00  0.00     0.010 A 
ATOM     34  C   UNL A   1      39.604  28.841  29.959  1.00  0.00     0.010 A 
ATOM     35  C   UNL A   1      40.109  28.899  28.651  1.00  0.00    -0.014 A 
BRANCH  35  36
ATOM     36  C   UNL A   1      41.528  28.535  28.413  1.00  0.00     0.031 A 
ATOM     37  C   UNL A   1      42.589  29.598  28.438  1.00  0.00     0.074 A 
ATOM     38  C   UNL A   1      41.843  27.265  28.089  1.00  0.00     0.049 A 
ATOM     39  N   UNL A   1      43.861  29.502  28.153  1.00  0.00    -0.248 NA
ATOM     40  C   UNL A   1      42.155  30.956  28.805  1.00  0.00     0.031 C 
ATOM     41  C   UNL A   1      40.894  26.153  27.999  1.00  0.00     0.029 A 
ATOM     42  N   UNL A   1      43.048  26.696  27.760  1.00  0.00    -0.354 N 
ATOM     43  C   UNL A   1      44.379  30.782  28.302  1.00  0.00     0.074 A 
ATOM     44  C   UNL A   1      43.272  31.649  28.639  1.00  0.00     0.031 C 
ATOM     45  C   UNL A   1      41.557  25.034  27.666  1.00  0.00     0.029 A 
ATOM     46  C   UNL A   1      42.966  25.356  27.464  1.00  0.00     0.049 A 
ATOM     47  H   UNL A   1      43.893  27.202  27.738  1.00  0.00     0.167 HD
ATOM     48  C   UNL A   1      45.665  31.192  28.193  1.00  0.00     0.037 A 
ATOM     49  C   UNL A   1      43.914  24.489  27.062  1.00  0.00     0.037 A 
ATOM     50  C   UNL A   1      46.759  30.317  27.856  1.00  0.00     0.049 A 
ATOM     51  C   UNL A   1      45.325  24.979  26.885  1.00  0.00     0.074 A 
ATOM     52  C   UNL A   1      48.104  30.623  27.758  1.00  0.00     0.029 A 
ATOM     53  N   UNL A   1      46.633  28.969  27.550  1.00  0.00    -0.354 N 
ATOM     54  N   UNL A   1      45.812  26.180  27.091  1.00  0.00    -0.248 NA
ATOM     55  C   UNL A   1      46.316  24.001  26.416  1.00  0.00     0.031 C 
ATOM     56  C   UNL A   1      48.783  29.476  27.335  1.00  0.00     0.029 A 
ATOM     57  C   UNL A   1      47.871  28.438  27.229  1.00  0.00     0.049 A 
ATOM     58  H   UNL A   1      45.787  28.464  27.560  1.00  0.00     0.167 HD
ATOM     59  C   UNL A   1      47.170  26.095  26.803  1.00  0.00     0.074 A 
ATOM     60  C   UNL A   1      47.430  24.722  26.420  1.00  0.00     0.031 C 
ATOM     61  C   UNL A   1      48.116  27.066  26.852  1.00  0.00     0.037 A 
BRANCH  48  62
ATOM     62  C   UNL A   1      45.952  32.649  28.433  1.00  0.00     0.058 A 
ATOM     63  C   UNL A   1      45.874  33.596  27.400  1.00  0.00     0.135 A 
ATOM     64  C   UNL A   1      46.296  33.109  29.715  1.00  0.00     0.135 A 
ATOM     65  F   UNL A   1      45.564  33.212  26.150  1.00  0.00    -0.206 F 
ATOM     66  C   UNL A   1      46.168  34.938  27.618  1.00  0.00     0.059 A 
ATOM     67  C   UNL A   1      46.561  34.453  29.963  1.00  0.00     0.059 A 
ATOM     68  F   UNL A   1      46.384  32.250  30.742  1.00  0.00    -0.206 F 
ATOM     69  C   UNL A   1      46.514  35.357  28.902  1.00  0.00     0.060 A 
BRANCH  69  70
ATOM     70  S   UNL A   1      46.909  37.098  29.162  1.00  0.00     0.124 S 
ATOM     71  O   UNL A   1      47.790  37.367  28.029  1.00  0.00    -0.237 OA
ATOM     72  O   UNL A   1      45.594  37.727  29.104  1.00  0.00    -0.237 OA
ATOM     73  O   UNL A   1      47.553  37.111  30.472  1.00  0.00    -0.744 OA
ENDBRANCH  69  70
ENDBRANCH  48  62
BRANCH  49  74
ATOM     74  C   UNL A   1      43.562  23.063  26.814  1.00  0.00     0.058 A 
ATOM     75  C   UNL A   1      43.227  22.212  27.877  1.00  0.00     0.135 A 
ATOM     76  C   UNL A   1      43.529  22.529  25.515  1.00  0.00     0.135 A 
ATOM     77  F   UNL A   1      43.251  22.673  29.138  1.00  0.00    -0.206 F 
ATOM     78  C   UNL A   1      42.883  20.881  27.666  1.00  0.00     0.059 A 
ATOM     79  C   UNL A   1      43.161  21.208  25.276  1.00  0.00     0.059 A 
ATOM     80  F   UNL A   1      43.826  23.305  24.461  1.00  0.00    -0.206 F 
ATOM     81  C   UNL A   1      42.847  20.390  26.360  1.00  0.00     0.060 A 
BRANCH  81  82
ATOM     82  S   UNL A   1      42.340  18.677  26.096  1.00  0.00     0.124 S 
ATOM     83  O   UNL A   1      42.623  18.082  27.397  1.00  0.00    -0.237 OA
ATOM     84  O   UNL A   1      40.929  18.828  25.754  1.00  0.00    -0.237 OA
ATOM     85  O   UNL A   1      43.199  18.238  25.000  1.00  0.00    -0.744 OA
ENDBRANCH  81  82
ENDBRANCH  49  74
BRANCH  61  86
ATOM     86  C   UNL A   1      49.529  26.682  26.508  1.00  0.00     0.058 A 
ATOM     87  C   UNL A   1      50.044  26.853  25.214  1.00  0.00     0.135 A 
ATOM     88  C   UNL A   1      50.402  26.216  27.505  1.00  0.00     0.135 A 
ATOM     89  F   UNL A   1      49.250  27.285  24.221  1.00  0.00    -0.206 F 
ATOM     90  C   UNL A   1      51.373  26.568  24.918  1.00  0.00     0.059 A 
ATOM     91  C   UNL A   1      51.741  25.953  27.238  1.00  0.00     0.059 A 
ATOM     92  F   UNL A   1      49.961  26.040  28.761  1.00  0.00    -0.206 F 
ATOM     93  C   UNL A   1      52.217  26.128  25.940  1.00  0.00     0.060 A 
BRANCH  93  94
ATOM     94  S   UNL A   1      53.955  25.828  25.554  1.00  0.00     0.124 S 
ATOM     95  O   UNL A   1      54.501  25.526  26.873  1.00  0.00    -0.237 OA
ATOM     96  O   UNL A   1      53.876  24.702  24.629  1.00  0.00    -0.237 OA
ATOM     97  O   UNL A   1      54.397  27.088  24.965  1.00  0.00    -0.744 OA
ENDBRANCH  93  94
ENDBRANCH  61  86
ENDBRANCH  35  36
ENDBRANCH  27  30
ENDBRANCH  25  26
ENDBRANCH  24  25
ENDBRANCH   1  24
TORSDOF 20
ENDMDL
