MODEL 1
REMARK VINA RESULT:     -12.1      0.000      0.000
REMARK SMILES O=C(C[C@H]1CN(S(=O)(=O)c2ccc(F)c(F)c2)CCO1)NCCCCNC(=O)c1ccc(-c2c3nc(c(-c4c(F)cc(S(=O)(=O)[O-])cc4F)c4ccc([nH]4)c(-c4c(F)cc(S(=O)(=O)[O-])cc4F)c4nc(c(-c5c(F)cc(S(=O)(=O)[O-])cc5F)c5ccc2[nH]5)C=C4)C=C3)cc1
REMARK SMILES IDX 23 1 22 2 21 3 1 4 2 5 3 7 4 8 5 9 20 10 6 11 19 12 18 13
REMARK SMILES IDX 7 14 8 15 9 16 10 17 11 18 17 19 12 20 15 21 13 22 16 23
REMARK SMILES IDX 14 24 24 25 25 26 26 27 27 28 28 30 29 31 30 32 94 33 31 34
REMARK SMILES IDX 93 35 32 36 33 37 34 38 87 39 35 40 92 41 86 42 88 43 36 44
REMARK SMILES IDX 91 45 85 46 84 47 37 49 71 50 50 51 70 52 51 53 54 54 69 55
REMARK SMILES IDX 89 56 52 57 53 58 68 60 90 61 55 62 38 63 39 64 48 65 40 66
REMARK SMILES IDX 41 67 47 68 49 69 42 70 43 71 44 72 45 73 46 74 72 75 73 76
REMARK SMILES IDX 82 77 74 78 75 79 81 80 83 81 76 82 77 83 78 84 79 85 80 86
REMARK SMILES IDX 56 87 57 88 66 89 58 90 59 91 65 92 67 93 60 94 61 95 62 96
REMARK SMILES IDX 63 97 64 98
REMARK H PARENT 21 6 26 29 88 48 54 59
REMARK Flexibility Score: inf
ROOT
ATOM      1  C   UNL A   1      35.908  23.313  25.923  1.00  0.00     0.023 C 
ENDROOT
BRANCH   1   2
ATOM      2  C   UNL A   1      34.956  22.661  24.920  1.00  0.00     0.116 C 
BRANCH   2   3
ATOM      3  N   UNL A   1      33.611  23.189  25.043  1.00  0.00    -0.356 N 
ATOM      4  O   UNL A   1      32.750  22.032  23.251  1.00  0.00    -0.275 OA
ATOM      5  C   UNL A   1      32.620  22.871  24.135  1.00  0.00     0.222 C 
ATOM      6  H   UNL A   1      33.399  23.791  25.792  1.00  0.00     0.163 HD
BRANCH   5   7
ATOM      7  C   UNL A   1      31.377  23.718  24.277  1.00  0.00     0.133 C 
BRANCH   7   8
ATOM      8  C   UNL A   1      31.235  24.783  23.188  1.00  0.00     0.142 C 
ATOM      9  C   UNL A   1      30.697  26.146  23.689  1.00  0.00     0.135 C 
ATOM     10  O   UNL A   1      32.457  24.957  22.444  1.00  0.00    -0.375 OA
ATOM     11  N   UNL A   1      31.702  26.989  24.406  1.00  0.00    -0.193 NA
ATOM     12  C   UNL A   1      33.450  25.721  23.143  1.00  0.00     0.177 C 
ATOM     13  C   UNL A   1      32.923  27.107  23.531  1.00  0.00     0.131 C 
BRANCH  11  14
ATOM     14  S   UNL A   1      32.070  26.787  26.057  1.00  0.00     0.243 S 
ATOM     15  O   UNL A   1      30.846  26.534  26.785  1.00  0.00    -0.207 OA
ATOM     16  O   UNL A   1      33.146  25.819  26.115  1.00  0.00    -0.207 OA
BRANCH  14  17
ATOM     17  C   UNL A   1      32.727  28.325  26.680  1.00  0.00     0.085 A 
ATOM     18  C   UNL A   1      34.081  28.464  27.011  1.00  0.00     0.025 A 
ATOM     19  C   UNL A   1      31.900  29.457  26.658  1.00  0.00     0.064 A 
ATOM     20  C   UNL A   1      34.592  29.710  27.388  1.00  0.00     0.044 A 
ATOM     21  C   UNL A   1      32.432  30.700  26.988  1.00  0.00     0.160 A 
ATOM     22  C   UNL A   1      33.764  30.825  27.364  1.00  0.00     0.158 A 
ATOM     23  F   UNL A   1      31.653  31.787  26.903  1.00  0.00    -0.204 F 
ATOM     24  F   UNL A   1      34.273  32.025  27.668  1.00  0.00    -0.204 F 
ENDBRANCH  14  17
ENDBRANCH  11  14
ENDBRANCH   7   8
ENDBRANCH   5   7
ENDBRANCH   2   3
ENDBRANCH   1   2
BRANCH   1  25
ATOM     25  C   UNL A   1      37.389  23.300  25.528  1.00  0.00     0.023 C 
BRANCH  25  26
ATOM     26  C   UNL A   1      38.322  24.105  26.432  1.00  0.00     0.116 C 
BRANCH  26  27
ATOM     27  N   UNL A   1      39.724  23.930  26.103  1.00  0.00    -0.352 N 
ATOM     28  C   UNL A   1      40.814  24.653  26.523  1.00  0.00     0.251 C 
ATOM     29  H   UNL A   1      39.923  23.185  25.491  1.00  0.00     0.163 HD
ATOM     30  O   UNL A   1      41.919  24.416  26.043  1.00  0.00    -0.269 OA
BRANCH  28  31
ATOM     31  C   UNL A   1      40.658  25.738  27.519  1.00  0.00     0.039 A 
ATOM     32  C   UNL A   1      39.673  25.603  28.502  1.00  0.00     0.014 A 
ATOM     33  C   UNL A   1      41.462  26.880  27.485  1.00  0.00     0.014 A 
ATOM     34  C   UNL A   1      39.539  26.581  29.491  1.00  0.00     0.010 A 
ATOM     35  C   UNL A   1      41.362  27.830  28.501  1.00  0.00     0.010 A 
ATOM     36  C   UNL A   1      40.405  27.686  29.518  1.00  0.00    -0.014 A 
BRANCH  36  37
ATOM     37  C   UNL A   1      40.336  28.689  30.611  1.00  0.00     0.031 A 
ATOM     38  C   UNL A   1      41.229  28.564  31.815  1.00  0.00     0.074 A 
ATOM     39  C   UNL A   1      39.419  29.673  30.552  1.00  0.00     0.049 A 
ATOM     40  N   UNL A   1      41.249  29.286  32.905  1.00  0.00    -0.248 NA
ATOM     41  C   UNL A   1      42.210  27.467  31.801  1.00  0.00     0.031 C 
ATOM     42  C   UNL A   1      38.466  29.879  29.459  1.00  0.00     0.029 A 
ATOM     43  N   UNL A   1      39.127  30.679  31.439  1.00  0.00    -0.354 N 
ATOM     44  C   UNL A   1      42.224  28.721  33.716  1.00  0.00     0.074 A 
ATOM     45  C   UNL A   1      42.754  27.577  33.005  1.00  0.00     0.031 C 
ATOM     46  C   UNL A   1      37.707  30.954  29.733  1.00  0.00     0.029 A 
ATOM     47  C   UNL A   1      38.099  31.495  31.032  1.00  0.00     0.049 A 
ATOM     48  H   UNL A   1      39.610  30.806  32.287  1.00  0.00     0.167 HD
ATOM     49  C   UNL A   1      42.649  29.127  34.938  1.00  0.00     0.037 A 
ATOM     50  C   UNL A   1      37.531  32.555  31.636  1.00  0.00     0.037 A 
ATOM     51  C   UNL A   1      42.153  30.289  35.627  1.00  0.00     0.049 A 
ATOM     52  C   UNL A   1      38.042  33.005  32.975  1.00  0.00     0.074 A 
ATOM     53  C   UNL A   1      42.570  30.815  36.838  1.00  0.00     0.029 A 
ATOM     54  N   UNL A   1      41.136  31.108  35.164  1.00  0.00    -0.354 N 
ATOM     55  N   UNL A   1      38.996  32.484  33.708  1.00  0.00    -0.248 NA
ATOM     56  C   UNL A   1      37.401  34.187  33.569  1.00  0.00     0.031 C 
ATOM     57  C   UNL A   1      41.788  31.942  37.118  1.00  0.00     0.029 A 
ATOM     58  C   UNL A   1      40.903  32.131  36.069  1.00  0.00     0.049 A 
ATOM     59  H   UNL A   1      40.650  30.983  34.316  1.00  0.00     0.167 HD
ATOM     60  C   UNL A   1      39.085  33.286  34.839  1.00  0.00     0.074 A 
ATOM     61  C   UNL A   1      38.093  34.331  34.693  1.00  0.00     0.031 C 
ATOM     62  C   UNL A   1      39.916  33.168  35.904  1.00  0.00     0.037 A 
BRANCH  49  63
ATOM     63  C   UNL A   1      43.710  28.301  35.606  1.00  0.00     0.058 A 
ATOM     64  C   UNL A   1      43.382  27.261  36.491  1.00  0.00     0.135 A 
ATOM     65  C   UNL A   1      45.069  28.538  35.344  1.00  0.00     0.135 A 
ATOM     66  F   UNL A   1      42.098  27.006  36.786  1.00  0.00    -0.206 F 
ATOM     67  C   UNL A   1      44.367  26.504  37.117  1.00  0.00     0.059 A 
ATOM     68  C   UNL A   1      46.070  27.780  35.944  1.00  0.00     0.059 A 
ATOM     69  F   UNL A   1      45.434  29.521  34.507  1.00  0.00    -0.206 F 
ATOM     70  C   UNL A   1      45.708  26.777  36.843  1.00  0.00     0.060 A 
BRANCH  70  71
ATOM     71  S   UNL A   1      46.980  25.798  37.670  1.00  0.00     0.124 S 
ATOM     72  O   UNL A   1      47.480  26.751  38.657  1.00  0.00    -0.237 OA
ATOM     73  O   UNL A   1      46.218  24.674  38.205  1.00  0.00    -0.237 OA
ATOM     74  O   UNL A   1      47.905  25.466  36.591  1.00  0.00    -0.744 OA
ENDBRANCH  70  71
ENDBRANCH  49  63
BRANCH  50  75
ATOM     75  C   UNL A   1      36.427  33.285  30.962  1.00  0.00     0.058 A 
ATOM     76  C   UNL A   1      35.116  33.207  31.451  1.00  0.00     0.135 A 
ATOM     77  C   UNL A   1      36.664  34.087  29.836  1.00  0.00     0.135 A 
ATOM     78  F   UNL A   1      34.845  32.448  32.524  1.00  0.00    -0.206 F 
ATOM     79  C   UNL A   1      34.071  33.893  30.842  1.00  0.00     0.059 A 
ATOM     80  C   UNL A   1      35.638  34.795  29.219  1.00  0.00     0.059 A 
ATOM     81  F   UNL A   1      37.907  34.204  29.344  1.00  0.00    -0.206 F 
ATOM     82  C   UNL A   1      34.343  34.685  29.726  1.00  0.00     0.060 A 
BRANCH  82  83
ATOM     83  S   UNL A   1      32.993  35.621  28.974  1.00  0.00     0.124 S 
ATOM     84  O   UNL A   1      32.227  36.022  30.148  1.00  0.00    -0.237 OA
ATOM     85  O   UNL A   1      33.704  36.689  28.280  1.00  0.00    -0.237 OA
ATOM     86  O   UNL A   1      32.354  34.638  28.105  1.00  0.00    -0.744 OA
ENDBRANCH  82  83
ENDBRANCH  50  75
BRANCH  62  87
ATOM     87  C   UNL A   1      39.805  34.207  36.980  1.00  0.00     0.058 A 
ATOM     88  C   UNL A   1      40.383  35.477  36.833  1.00  0.00     0.135 A 
ATOM     89  C   UNL A   1      39.074  33.946  38.149  1.00  0.00     0.135 A 
ATOM     90  F   UNL A   1      41.098  35.771  35.735  1.00  0.00    -0.206 F 
ATOM     91  C   UNL A   1      40.254  36.450  37.818  1.00  0.00     0.059 A 
ATOM     92  C   UNL A   1      38.917  34.911  39.139  1.00  0.00     0.059 A 
ATOM     93  F   UNL A   1      38.496  32.748  38.331  1.00  0.00    -0.206 F 
ATOM     94  C   UNL A   1      39.519  36.157  38.968  1.00  0.00     0.060 A 
BRANCH  94  95
ATOM     95  S   UNL A   1      39.323  37.437  40.227  1.00  0.00     0.124 S 
ATOM     96  O   UNL A   1      38.520  38.427  39.517  1.00  0.00    -0.237 OA
ATOM     97  O   UNL A   1      38.643  36.723  41.303  1.00  0.00    -0.237 OA
ATOM     98  O   UNL A   1      40.698  37.833  40.520  1.00  0.00    -0.744 OA
ENDBRANCH  94  95
ENDBRANCH  62  87
ENDBRANCH  36  37
ENDBRANCH  28  31
ENDBRANCH  26  27
ENDBRANCH  25  26
ENDBRANCH   1  25
TORSDOF 17
ENDMDL
MODEL 2
REMARK VINA RESULT:     -11.9      2.740      3.499
REMARK SMILES O=C(C[C@H]1CN(S(=O)(=O)c2ccc(F)c(F)c2)CCO1)NCCCCNC(=O)c1ccc(-c2c3nc(c(-c4c(F)cc(S(=O)(=O)[O-])cc4F)c4ccc([nH]4)c(-c4c(F)cc(S(=O)(=O)[O-])cc4F)c4nc(c(-c5c(F)cc(S(=O)(=O)[O-])cc5F)c5ccc2[nH]5)C=C4)C=C3)cc1
REMARK SMILES IDX 23 1 22 2 21 3 1 4 2 5 3 7 4 8 5 9 20 10 6 11 19 12 18 13
REMARK SMILES IDX 7 14 8 15 9 16 10 17 11 18 17 19 12 20 15 21 13 22 16 23
REMARK SMILES IDX 14 24 24 25 25 26 26 27 27 28 28 30 29 31 30 32 94 33 31 34
REMARK SMILES IDX 93 35 32 36 33 37 34 38 87 39 35 40 92 41 86 42 88 43 36 44
REMARK SMILES IDX 91 45 85 46 84 47 37 49 71 50 50 51 70 52 51 53 54 54 69 55
REMARK SMILES IDX 89 56 52 57 53 58 68 60 90 61 55 62 38 63 39 64 48 65 40 66
REMARK SMILES IDX 41 67 47 68 49 69 42 70 43 71 44 72 45 73 46 74 72 75 73 76
REMARK SMILES IDX 82 77 74 78 75 79 81 80 83 81 76 82 77 83 78 84 79 85 80 86
REMARK SMILES IDX 56 87 57 88 66 89 58 90 59 91 65 92 67 93 60 94 61 95 62 96
REMARK SMILES IDX 63 97 64 98
REMARK H PARENT 21 6 26 29 88 48 54 59
REMARK Flexibility Score: inf
ROOT
ATOM      1  C   UNL A   1      35.505  21.541  25.099  1.00  0.00     0.023 C 
ENDROOT
BRANCH   1   2
ATOM      2  C   UNL A   1      34.135  20.913  24.838  1.00  0.00     0.116 C 
BRANCH   2   3
ATOM      3  N   UNL A   1      33.064  21.865  25.056  1.00  0.00    -0.356 N 
ATOM      4  O   UNL A   1      32.038  21.518  23.026  1.00  0.00    -0.275 OA
ATOM      5  C   UNL A   1      32.125  22.138  24.080  1.00  0.00     0.222 C 
ATOM      6  H   UNL A   1      33.004  22.330  25.921  1.00  0.00     0.163 HD
BRANCH   5   7
ATOM      7  C   UNL A   1      31.260  23.336  24.393  1.00  0.00     0.133 C 
BRANCH   7   8
ATOM      8  C   UNL A   1      31.170  24.341  23.243  1.00  0.00     0.142 C 
ATOM      9  C   UNL A   1      30.635  25.737  23.650  1.00  0.00     0.135 C 
ATOM     10  O   UNL A   1      32.417  24.458  22.532  1.00  0.00    -0.375 OA
ATOM     11  N   UNL A   1      31.628  26.606  24.353  1.00  0.00    -0.193 NA
ATOM     12  C   UNL A   1      33.397  25.248  23.221  1.00  0.00     0.177 C 
ATOM     13  C   UNL A   1      32.878  26.659  23.515  1.00  0.00     0.131 C 
BRANCH  11  14
ATOM     14  S   UNL A   1      31.939  26.490  26.024  1.00  0.00     0.243 S 
ATOM     15  O   UNL A   1      30.683  26.354  26.729  1.00  0.00    -0.207 OA
ATOM     16  O   UNL A   1      32.955  25.469  26.176  1.00  0.00    -0.207 OA
BRANCH  14  17
ATOM     17  C   UNL A   1      32.666  28.025  26.569  1.00  0.00     0.085 A 
ATOM     18  C   UNL A   1      34.049  28.157  26.754  1.00  0.00     0.025 A 
ATOM     19  C   UNL A   1      31.849  29.163  26.630  1.00  0.00     0.064 A 
ATOM     20  C   UNL A   1      34.604  29.401  27.070  1.00  0.00     0.044 A 
ATOM     21  C   UNL A   1      32.420  30.404  26.898  1.00  0.00     0.160 A 
ATOM     22  C   UNL A   1      33.785  30.522  27.130  1.00  0.00     0.158 A 
ATOM     23  F   UNL A   1      31.643  31.495  26.891  1.00  0.00    -0.204 F 
ATOM     24  F   UNL A   1      34.331  31.719  27.375  1.00  0.00    -0.204 F 
ENDBRANCH  14  17
ENDBRANCH  11  14
ENDBRANCH   7   8
ENDBRANCH   5   7
ENDBRANCH   2   3
ENDBRANCH   1   2
BRANCH   1  25
ATOM     25  C   UNL A   1      35.490  23.035  25.439  1.00  0.00     0.023 C 
BRANCH  25  26
ATOM     26  C   UNL A   1      36.849  23.734  25.409  1.00  0.00     0.116 C 
BRANCH  26  27
ATOM     27  N   UNL A   1      37.965  22.814  25.526  1.00  0.00    -0.352 N 
ATOM     28  C   UNL A   1      39.199  23.008  26.098  1.00  0.00     0.251 C 
ATOM     29  H   UNL A   1      37.816  21.920  25.140  1.00  0.00     0.163 HD
ATOM     30  O   UNL A   1      40.056  22.135  26.000  1.00  0.00    -0.269 OA
BRANCH  28  31
ATOM     31  C   UNL A   1      39.512  24.277  26.796  1.00  0.00     0.039 A 
ATOM     32  C   UNL A   1      39.013  24.466  28.089  1.00  0.00     0.014 A 
ATOM     33  C   UNL A   1      40.276  25.275  26.187  1.00  0.00     0.014 A 
ATOM     34  C   UNL A   1      39.339  25.626  28.796  1.00  0.00     0.010 A 
ATOM     35  C   UNL A   1      40.643  26.408  26.912  1.00  0.00     0.010 A 
ATOM     36  C   UNL A   1      40.184  26.592  28.226  1.00  0.00    -0.014 A 
BRANCH  36  37
ATOM     37  C   UNL A   1      40.612  27.788  28.995  1.00  0.00     0.031 A 
ATOM     38  C   UNL A   1      41.949  27.809  29.684  1.00  0.00     0.074 A 
ATOM     39  C   UNL A   1      39.767  28.827  29.132  1.00  0.00     0.049 A 
ATOM     40  N   UNL A   1      42.455  28.722  30.472  1.00  0.00    -0.248 NA
ATOM     41  C   UNL A   1      42.819  26.640  29.480  1.00  0.00     0.031 C 
ATOM     42  C   UNL A   1      38.426  28.911  28.549  1.00  0.00     0.029 A 
ATOM     43  N   UNL A   1      39.904  30.008  29.817  1.00  0.00    -0.354 N 
ATOM     44  C   UNL A   1      43.689  28.231  30.878  1.00  0.00     0.074 A 
ATOM     45  C   UNL A   1      43.843  26.925  30.271  1.00  0.00     0.031 C 
ATOM     46  C   UNL A   1      37.871  30.087  28.887  1.00  0.00     0.029 A 
ATOM     47  C   UNL A   1      38.803  30.827  29.735  1.00  0.00     0.049 A 
ATOM     48  H   UNL A   1      40.715  30.247  30.321  1.00  0.00     0.167 HD
ATOM     49  C   UNL A   1      44.616  28.820  31.672  1.00  0.00     0.037 A 
ATOM     50  C   UNL A   1      38.567  32.033  30.282  1.00  0.00     0.037 A 
ATOM     51  C   UNL A   1      44.482  30.135  32.240  1.00  0.00     0.049 A 
ATOM     52  C   UNL A   1      39.623  32.679  31.133  1.00  0.00     0.074 A 
ATOM     53  C   UNL A   1      45.397  30.841  33.003  1.00  0.00     0.029 A 
ATOM     54  N   UNL A   1      43.366  30.946  32.103  1.00  0.00    -0.354 N 
ATOM     55  N   UNL A   1      40.803  32.218  31.470  1.00  0.00    -0.248 NA
ATOM     56  C   UNL A   1      39.317  34.010  31.677  1.00  0.00     0.031 C 
ATOM     57  C   UNL A   1      44.824  32.072  33.346  1.00  0.00     0.029 A 
ATOM     58  C   UNL A   1      43.564  32.141  32.775  1.00  0.00     0.049 A 
ATOM     59  H   UNL A   1      42.553  30.708  31.602  1.00  0.00     0.167 HD
ATOM     60  C   UNL A   1      41.390  33.210  32.245  1.00  0.00     0.074 A 
ATOM     61  C   UNL A   1      40.439  34.299  32.326  1.00  0.00     0.031 C 
ATOM     62  C   UNL A   1      42.609  33.218  32.838  1.00  0.00     0.037 A 
BRANCH  49  63
ATOM     63  C   UNL A   1      45.863  28.038  31.971  1.00  0.00     0.058 A 
ATOM     64  C   UNL A   1      46.967  28.058  31.103  1.00  0.00     0.135 A 
ATOM     65  C   UNL A   1      45.963  27.278  33.146  1.00  0.00     0.135 A 
ATOM     66  F   UNL A   1      46.914  28.757  29.958  1.00  0.00    -0.206 F 
ATOM     67  C   UNL A   1      48.117  27.324  31.376  1.00  0.00     0.059 A 
ATOM     68  C   UNL A   1      47.112  26.553  33.449  1.00  0.00     0.059 A 
ATOM     69  F   UNL A   1      44.935  27.225  34.007  1.00  0.00    -0.206 F 
ATOM     70  C   UNL A   1      48.176  26.569  32.548  1.00  0.00     0.060 A 
BRANCH  70  71
ATOM     71  S   UNL A   1      49.667  25.610  32.888  1.00  0.00     0.124 S 
ATOM     72  O   UNL A   1      50.341  25.655  31.593  1.00  0.00    -0.237 OA
ATOM     73  O   UNL A   1      50.301  26.375  33.958  1.00  0.00    -0.237 OA
ATOM     74  O   UNL A   1      49.147  24.304  33.281  1.00  0.00    -0.744 OA
ENDBRANCH  70  71
ENDBRANCH  49  63
BRANCH  50  75
ATOM     75  C   UNL A   1      37.279  32.724  30.018  1.00  0.00     0.058 A 
ATOM     76  C   UNL A   1      36.133  32.407  30.760  1.00  0.00     0.135 A 
ATOM     77  C   UNL A   1      37.176  33.723  29.039  1.00  0.00     0.135 A 
ATOM     78  F   UNL A   1      36.187  31.455  31.703  1.00  0.00    -0.206 F 
ATOM     79  C   UNL A   1      34.921  33.051  30.536  1.00  0.00     0.059 A 
ATOM     80  C   UNL A   1      35.979  34.393  28.809  1.00  0.00     0.059 A 
ATOM     81  F   UNL A   1      38.252  34.071  28.317  1.00  0.00    -0.206 F 
ATOM     82  C   UNL A   1      34.855  34.044  29.557  1.00  0.00     0.060 A 
BRANCH  82  83
ATOM     83  S   UNL A   1      33.294  34.920  29.311  1.00  0.00     0.124 S 
ATOM     84  O   UNL A   1      32.767  34.964  30.671  1.00  0.00    -0.237 OA
ATOM     85  O   UNL A   1      33.737  36.194  28.756  1.00  0.00    -0.237 OA
ATOM     86  O   UNL A   1      32.575  34.057  28.380  1.00  0.00    -0.744 OA
ENDBRANCH  82  83
ENDBRANCH  50  75
BRANCH  62  87
ATOM     87  C   UNL A   1      42.992  34.451  33.603  1.00  0.00     0.058 A 
ATOM     88  C   UNL A   1      42.809  34.537  34.991  1.00  0.00     0.135 A 
ATOM     89  C   UNL A   1      43.592  35.537  32.947  1.00  0.00     0.135 A 
ATOM     90  F   UNL A   1      42.233  33.526  35.661  1.00  0.00    -0.206 F 
ATOM     91  C   UNL A   1      43.193  35.668  35.704  1.00  0.00     0.059 A 
ATOM     92  C   UNL A   1      43.999  36.671  33.643  1.00  0.00     0.059 A 
ATOM     93  F   UNL A   1      43.795  35.498  31.621  1.00  0.00    -0.206 F 
ATOM     94  C   UNL A   1      43.787  36.731  35.020  1.00  0.00     0.060 A 
BRANCH  94  95
ATOM     95  S   UNL A   1      44.317  38.182  35.955  1.00  0.00     0.124 S 
ATOM     96  O   UNL A   1      45.760  37.977  36.021  1.00  0.00    -0.237 OA
ATOM     97  O   UNL A   1      43.871  39.285  35.110  1.00  0.00    -0.237 OA
ATOM     98  O   UNL A   1      43.602  38.044  37.221  1.00  0.00    -0.744 OA
ENDBRANCH  94  95
ENDBRANCH  62  87
ENDBRANCH  36  37
ENDBRANCH  28  31
ENDBRANCH  26  27
ENDBRANCH  25  26
ENDBRANCH   1  25
TORSDOF 17
ENDMDL
MODEL 3
REMARK VINA RESULT:     -11.8      1.462      2.271
REMARK SMILES O=C(C[C@H]1CN(S(=O)(=O)c2ccc(F)c(F)c2)CCO1)NCCCCNC(=O)c1ccc(-c2c3nc(c(-c4c(F)cc(S(=O)(=O)[O-])cc4F)c4ccc([nH]4)c(-c4c(F)cc(S(=O)(=O)[O-])cc4F)c4nc(c(-c5c(F)cc(S(=O)(=O)[O-])cc5F)c5ccc2[nH]5)C=C4)C=C3)cc1
REMARK SMILES IDX 23 1 22 2 21 3 1 4 2 5 3 7 4 8 5 9 20 10 6 11 19 12 18 13
REMARK SMILES IDX 7 14 8 15 9 16 10 17 11 18 17 19 12 20 15 21 13 22 16 23
REMARK SMILES IDX 14 24 24 25 25 26 26 27 27 28 28 30 29 31 30 32 94 33 31 34
REMARK SMILES IDX 93 35 32 36 33 37 34 38 87 39 35 40 92 41 86 42 88 43 36 44
REMARK SMILES IDX 91 45 85 46 84 47 37 49 71 50 50 51 70 52 51 53 54 54 69 55
REMARK SMILES IDX 89 56 52 57 53 58 68 60 90 61 55 62 38 63 39 64 48 65 40 66
REMARK SMILES IDX 41 67 47 68 49 69 42 70 43 71 44 72 45 73 46 74 72 75 73 76
REMARK SMILES IDX 82 77 74 78 75 79 81 80 83 81 76 82 77 83 78 84 79 85 80 86
REMARK SMILES IDX 56 87 57 88 66 89 58 90 59 91 65 92 67 93 60 94 61 95 62 96
REMARK SMILES IDX 63 97 64 98
REMARK H PARENT 21 6 26 29 88 48 54 59
REMARK Flexibility Score: inf
ROOT
ATOM      1  C   UNL A   1      36.128  23.354  25.988  1.00  0.00     0.023 C 
ENDROOT
BRANCH   1   2
ATOM      2  C   UNL A   1      35.203  22.580  25.049  1.00  0.00     0.116 C 
BRANCH   2   3
ATOM      3  N   UNL A   1      34.071  23.386  24.634  1.00  0.00    -0.356 N 
ATOM      4  O   UNL A   1      33.158  21.794  23.247  1.00  0.00    -0.275 OA
ATOM      5  C   UNL A   1      33.164  22.934  23.697  1.00  0.00     0.222 C 
ATOM      6  H   UNL A   1      33.947  24.278  25.031  1.00  0.00     0.163 HD
BRANCH   5   7
ATOM      7  C   UNL A   1      32.219  24.006  23.205  1.00  0.00     0.133 C 
BRANCH   7   8
ATOM      8  C   UNL A   1      32.789  24.844  22.059  1.00  0.00     0.142 C 
ATOM      9  C   UNL A   1      31.795  25.867  21.455  1.00  0.00     0.135 C 
ATOM     10  O   UNL A   1      34.025  25.487  22.426  1.00  0.00    -0.375 OA
ATOM     11  N   UNL A   1      31.590  27.099  22.276  1.00  0.00    -0.193 NA
ATOM     12  C   UNL A   1      33.845  26.643  23.258  1.00  0.00     0.177 C 
ATOM     13  C   UNL A   1      32.943  27.684  22.587  1.00  0.00     0.131 C 
BRANCH  11  14
ATOM     14  S   UNL A   1      30.507  27.166  23.590  1.00  0.00     0.243 S 
ATOM     15  O   UNL A   1      29.628  26.019  23.534  1.00  0.00    -0.207 OA
ATOM     16  O   UNL A   1      31.316  27.388  24.770  1.00  0.00    -0.207 OA
BRANCH  14  17
ATOM     17  C   UNL A   1      29.475  28.609  23.395  1.00  0.00     0.085 A 
ATOM     18  C   UNL A   1      28.119  28.501  23.061  1.00  0.00     0.025 A 
ATOM     19  C   UNL A   1      29.998  29.855  23.768  1.00  0.00     0.064 A 
ATOM     20  C   UNL A   1      27.306  29.639  23.028  1.00  0.00     0.044 A 
ATOM     21  C   UNL A   1      29.168  30.972  23.778  1.00  0.00     0.160 A 
ATOM     22  C   UNL A   1      27.835  30.869  23.397  1.00  0.00     0.158 A 
ATOM     23  F   UNL A   1      29.658  32.147  24.197  1.00  0.00    -0.204 F 
ATOM     24  F   UNL A   1      27.038  31.943  23.421  1.00  0.00    -0.204 F 
ENDBRANCH  14  17
ENDBRANCH  11  14
ENDBRANCH   7   8
ENDBRANCH   5   7
ENDBRANCH   2   3
ENDBRANCH   1   2
BRANCH   1  25
ATOM     25  C   UNL A   1      37.628  23.147  25.753  1.00  0.00     0.023 C 
BRANCH  25  26
ATOM     26  C   UNL A   1      38.553  24.115  26.490  1.00  0.00     0.116 C 
BRANCH  26  27
ATOM     27  N   UNL A   1      39.960  23.849  26.253  1.00  0.00    -0.352 N 
ATOM     28  C   UNL A   1      41.065  24.512  26.729  1.00  0.00     0.251 C 
ATOM     29  H   UNL A   1      40.151  23.081  25.667  1.00  0.00     0.163 HD
ATOM     30  O   UNL A   1      42.181  24.199  26.324  1.00  0.00    -0.269 OA
BRANCH  28  31
ATOM     31  C   UNL A   1      40.914  25.624  27.696  1.00  0.00     0.039 A 
ATOM     32  C   UNL A   1      39.771  25.659  28.500  1.00  0.00     0.014 A 
ATOM     33  C   UNL A   1      41.879  26.629  27.807  1.00  0.00     0.014 A 
ATOM     34  C   UNL A   1      39.627  26.662  29.462  1.00  0.00     0.010 A 
ATOM     35  C   UNL A   1      41.759  27.599  28.802  1.00  0.00     0.010 A 
ATOM     36  C   UNL A   1      40.636  27.621  29.643  1.00  0.00    -0.014 A 
BRANCH  36  37
ATOM     37  C   UNL A   1      40.542  28.640  30.719  1.00  0.00     0.031 A 
ATOM     38  C   UNL A   1      41.419  28.543  31.937  1.00  0.00     0.074 A 
ATOM     39  C   UNL A   1      39.616  29.614  30.632  1.00  0.00     0.049 A 
ATOM     40  N   UNL A   1      41.416  29.283  33.015  1.00  0.00    -0.248 NA
ATOM     41  C   UNL A   1      42.411  27.457  31.954  1.00  0.00     0.031 C 
ATOM     42  C   UNL A   1      38.676  29.793  29.523  1.00  0.00     0.029 A 
ATOM     43  N   UNL A   1      39.302  30.631  31.498  1.00  0.00    -0.354 N 
ATOM     44  C   UNL A   1      42.385  28.740  33.849  1.00  0.00     0.074 A 
ATOM     45  C   UNL A   1      42.937  27.591  33.163  1.00  0.00     0.031 C 
ATOM     46  C   UNL A   1      37.903  30.864  29.769  1.00  0.00     0.029 A 
ATOM     47  C   UNL A   1      38.271  31.429  31.064  1.00  0.00     0.049 A 
ATOM     48  H   UNL A   1      39.771  30.775  32.351  1.00  0.00     0.167 HD
ATOM     49  C   UNL A   1      42.790  29.170  35.070  1.00  0.00     0.037 A 
ATOM     50  C   UNL A   1      37.684  32.493  31.643  1.00  0.00     0.037 A 
ATOM     51  C   UNL A   1      42.272  30.338  35.733  1.00  0.00     0.049 A 
ATOM     52  C   UNL A   1      38.172  32.969  32.982  1.00  0.00     0.074 A 
ATOM     53  C   UNL A   1      42.666  30.887  36.941  1.00  0.00     0.029 A 
ATOM     54  N   UNL A   1      41.253  31.139  35.243  1.00  0.00    -0.354 N 
ATOM     55  N   UNL A   1      39.120  32.469  33.737  1.00  0.00    -0.248 NA
ATOM     56  C   UNL A   1      37.511  34.154  33.548  1.00  0.00     0.031 C 
ATOM     57  C   UNL A   1      41.869  32.011  37.192  1.00  0.00     0.029 A 
ATOM     58  C   UNL A   1      40.997  32.174  36.128  1.00  0.00     0.049 A 
ATOM     59  H   UNL A   1      40.781  30.995  34.391  1.00  0.00     0.167 HD
ATOM     60  C   UNL A   1      39.186  33.291  34.856  1.00  0.00     0.074 A 
ATOM     61  C   UNL A   1      38.185  34.322  34.679  1.00  0.00     0.031 C 
ATOM     62  C   UNL A   1      40.003  33.197  35.933  1.00  0.00     0.037 A 
BRANCH  49  63
ATOM     63  C   UNL A   1      43.849  28.366  35.766  1.00  0.00     0.058 A 
ATOM     64  C   UNL A   1      43.520  27.308  36.628  1.00  0.00     0.135 A 
ATOM     65  C   UNL A   1      45.209  28.642  35.553  1.00  0.00     0.135 A 
ATOM     66  F   UNL A   1      42.234  27.015  36.877  1.00  0.00    -0.206 F 
ATOM     67  C   UNL A   1      44.503  26.571  37.281  1.00  0.00     0.059 A 
ATOM     68  C   UNL A   1      46.209  27.904  36.179  1.00  0.00     0.059 A 
ATOM     69  F   UNL A   1      45.576  29.644  34.739  1.00  0.00    -0.206 F 
ATOM     70  C   UNL A   1      45.845  26.882  37.055  1.00  0.00     0.060 A 
BRANCH  70  71
ATOM     71  S   UNL A   1      47.114  25.929  37.916  1.00  0.00     0.124 S 
ATOM     72  O   UNL A   1      46.408  25.545  39.135  1.00  0.00    -0.237 OA
ATOM     73  O   UNL A   1      47.391  24.847  36.976  1.00  0.00    -0.237 OA
ATOM     74  O   UNL A   1      48.197  26.892  38.093  1.00  0.00    -0.744 OA
ENDBRANCH  70  71
ENDBRANCH  49  63
BRANCH  50  75
ATOM     75  C   UNL A   1      36.583  33.201  30.942  1.00  0.00     0.058 A 
ATOM     76  C   UNL A   1      36.862  34.151  29.950  1.00  0.00     0.135 A 
ATOM     77  C   UNL A   1      35.238  32.928  31.234  1.00  0.00     0.135 A 
ATOM     78  F   UNL A   1      38.134  34.445  29.643  1.00  0.00    -0.206 F 
ATOM     79  C   UNL A   1      35.845  34.816  29.274  1.00  0.00     0.059 A 
ATOM     80  C   UNL A   1      34.204  33.568  30.559  1.00  0.00     0.059 A 
ATOM     81  F   UNL A   1      34.925  32.014  32.165  1.00  0.00    -0.206 F 
ATOM     82  C   UNL A   1      34.518  34.516  29.586  1.00  0.00     0.060 A 
BRANCH  82  83
ATOM     83  S   UNL A   1      33.201  35.338  28.663  1.00  0.00     0.124 S 
ATOM     84  O   UNL A   1      33.966  36.173  27.744  1.00  0.00    -0.237 OA
ATOM     85  O   UNL A   1      32.491  34.213  28.064  1.00  0.00    -0.237 OA
ATOM     86  O   UNL A   1      32.464  36.050  29.702  1.00  0.00    -0.744 OA
ENDBRANCH  82  83
ENDBRANCH  50  75
BRANCH  62  87
ATOM     87  C   UNL A   1      39.867  34.253  36.991  1.00  0.00     0.058 A 
ATOM     88  C   UNL A   1      40.493  35.502  36.863  1.00  0.00     0.135 A 
ATOM     89  C   UNL A   1      39.064  34.028  38.120  1.00  0.00     0.135 A 
ATOM     90  F   UNL A   1      41.275  35.760  35.804  1.00  0.00    -0.206 F 
ATOM     91  C   UNL A   1      40.340  36.490  37.829  1.00  0.00     0.059 A 
ATOM     92  C   UNL A   1      38.884  35.010  39.091  1.00  0.00     0.059 A 
ATOM     93  F   UNL A   1      38.439  32.852  38.283  1.00  0.00    -0.206 F 
ATOM     94  C   UNL A   1      39.535  36.234  38.941  1.00  0.00     0.060 A 
BRANCH  94  95
ATOM     95  S   UNL A   1      39.311  37.535  40.174  1.00  0.00     0.124 S 
ATOM     96  O   UNL A   1      38.920  36.761  41.348  1.00  0.00    -0.237 OA
ATOM     97  O   UNL A   1      40.634  38.149  40.231  1.00  0.00    -0.237 OA
ATOM     98  O   UNL A   1      38.265  38.372  39.593  1.00  0.00    -0.744 OA
ENDBRANCH  94  95
ENDBRANCH  62  87
ENDBRANCH  36  37
ENDBRANCH  28  31
ENDBRANCH  26  27
ENDBRANCH  25  26
ENDBRANCH   1  25
TORSDOF 17
ENDMDL
