MODEL 1
REMARK VINA RESULT:     -11.1      0.000      0.000
REMARK SMILES O=C(COC1CC[NH+](Cc2nccs2)CC1)NCCCCNC(=O)c1ccc(-c2c3nc(c(-c4c(F)cc(S(=O)(=O)[O-])cc4F)c4ccc([nH]4)c(-c4c(F)cc(S(=O)(=O)[O-])cc4F)c4nc(c(-c5c(F)cc(S(=O)(=O)[O-])cc5F)c5ccc2[nH]5)C=C4)C=C3)cc1
REMARK SMILES IDX 19 1 18 2 17 3 1 4 2 5 3 7 4 8 5 9 6 10 16 11 7 12 15 13
REMARK SMILES IDX 8 14 9 16 10 17 11 18 14 19 12 20 13 21 20 22 21 23 22 24
REMARK SMILES IDX 23 25 24 27 25 28 26 29 90 30 27 31 89 32 28 33 29 34 30 35
REMARK SMILES IDX 83 36 31 37 88 38 82 39 84 40 32 41 87 42 81 43 80 44 33 46
REMARK SMILES IDX 67 47 46 48 66 49 47 50 50 51 65 52 85 53 48 54 49 55 64 57
REMARK SMILES IDX 86 58 51 59 34 60 35 61 44 62 36 63 37 64 43 65 45 66 38 67
REMARK SMILES IDX 39 68 40 69 41 70 42 71 68 72 69 73 78 74 70 75 71 76 77 77
REMARK SMILES IDX 79 78 72 79 73 80 74 81 75 82 76 83 52 84 53 85 62 86 54 87
REMARK SMILES IDX 55 88 61 89 63 90 56 91 57 92 58 93 59 94 60 95
REMARK H PARENT 17 6 8 15 22 26 84 45 50 56
REMARK Flexibility Score: inf
ROOT
ATOM      1  C   UNL A   1      37.629  22.939  25.212  1.00  0.00     0.023 C 
ENDROOT
BRANCH   1   2
ATOM      2  C   UNL A   1      36.484  23.285  24.265  1.00  0.00     0.116 C 
BRANCH   2   3
ATOM      3  N   UNL A   1      35.441  24.135  24.797  1.00  0.00    -0.354 N 
ATOM      4  O   UNL A   1      34.180  24.390  22.889  1.00  0.00    -0.272 OA
ATOM      5  C   UNL A   1      34.287  24.436  24.109  1.00  0.00     0.246 C 
ATOM      6  H   UNL A   1      35.563  24.517  25.696  1.00  0.00     0.163 HD
BRANCH   5   7
ATOM      7  C   UNL A   1      33.117  24.831  25.023  1.00  0.00     0.260 C 
BRANCH   7   8
ATOM      8  O   UNL A   1      33.216  24.445  26.385  1.00  0.00    -0.368 OA
BRANCH   8   9
ATOM      9  C   UNL A   1      32.533  23.286  26.881  1.00  0.00     0.130 C 
ATOM     10  C   UNL A   1      33.437  22.096  27.192  1.00  0.00     0.093 C 
ATOM     11  C   UNL A   1      31.263  22.854  26.143  1.00  0.00     0.093 C 
ATOM     12  C   UNL A   1      33.648  21.183  25.991  1.00  0.00     0.265 C 
ATOM     13  C   UNL A   1      31.491  21.813  25.044  1.00  0.00     0.265 C 
ATOM     14  N   UNL A   1      32.374  20.709  25.436  1.00  0.00    -0.329 N 
ATOM     15  H   UNL A   1      31.889  20.204  26.177  1.00  0.00     0.348 HD
BRANCH  14  16
ATOM     16  C   UNL A   1      32.614  19.765  24.306  1.00  0.00     0.331 C 
BRANCH  16  17
ATOM     17  C   UNL A   1      32.935  18.335  24.693  1.00  0.00     0.147 A 
ATOM     18  N   UNL A   1      32.153  17.568  25.426  1.00  0.00    -0.244 NA
ATOM     19  S   UNL A   1      34.428  17.611  24.218  1.00  0.00    -0.122 S 
ATOM     20  C   UNL A   1      32.817  16.402  25.755  1.00  0.00     0.123 A 
ATOM     21  C   UNL A   1      34.068  16.252  25.197  1.00  0.00     0.087 A 
ENDBRANCH  16  17
ENDBRANCH  14  16
ENDBRANCH   8   9
ENDBRANCH   7   8
ENDBRANCH   5   7
ENDBRANCH   2   3
ENDBRANCH   1   2
BRANCH   1  22
ATOM     22  C   UNL A   1      37.943  23.995  26.267  1.00  0.00     0.023 C 
BRANCH  22  23
ATOM     23  C   UNL A   1      39.279  23.827  26.979  1.00  0.00     0.116 C 
BRANCH  23  24
ATOM     24  N   UNL A   1      40.425  24.138  26.137  1.00  0.00    -0.352 N 
ATOM     25  C   UNL A   1      41.363  25.129  26.305  1.00  0.00     0.251 C 
ATOM     26  H   UNL A   1      40.543  23.565  25.345  1.00  0.00     0.163 HD
ATOM     27  O   UNL A   1      42.221  25.325  25.448  1.00  0.00    -0.269 OA
BRANCH  25  28
ATOM     28  C   UNL A   1      41.305  25.982  27.511  1.00  0.00     0.039 A 
ATOM     29  C   UNL A   1      42.228  27.021  27.648  1.00  0.00     0.014 A 
ATOM     30  C   UNL A   1      40.312  25.785  28.476  1.00  0.00     0.014 A 
ATOM     31  C   UNL A   1      42.111  27.911  28.719  1.00  0.00     0.010 A 
ATOM     32  C   UNL A   1      40.160  26.708  29.507  1.00  0.00     0.010 A 
ATOM     33  C   UNL A   1      41.055  27.782  29.636  1.00  0.00    -0.014 A 
BRANCH  33  34
ATOM     34  C   UNL A   1      40.864  28.764  30.733  1.00  0.00     0.031 A 
ATOM     35  C   UNL A   1      41.689  28.663  31.986  1.00  0.00     0.074 A 
ATOM     36  C   UNL A   1      39.897  29.697  30.632  1.00  0.00     0.049 A 
ATOM     37  N   UNL A   1      41.618  29.374  33.081  1.00  0.00    -0.248 NA
ATOM     38  C   UNL A   1      42.711  27.604  32.021  1.00  0.00     0.031 C 
ATOM     39  C   UNL A   1      38.995  29.862  29.490  1.00  0.00     0.029 A 
ATOM     40  N   UNL A   1      39.503  30.677  31.508  1.00  0.00    -0.354 N 
ATOM     41  C   UNL A   1      42.567  28.837  33.942  1.00  0.00     0.074 A 
ATOM     42  C   UNL A   1      43.172  27.716  33.259  1.00  0.00     0.031 C 
ATOM     43  C   UNL A   1      38.167  30.893  29.728  1.00  0.00     0.029 A 
ATOM     44  C   UNL A   1      38.458  31.442  31.048  1.00  0.00     0.049 A 
ATOM     45  H   UNL A   1      39.929  30.819  32.384  1.00  0.00     0.167 HD
ATOM     46  C   UNL A   1      42.916  29.255  35.183  1.00  0.00     0.037 A 
ATOM     47  C   UNL A   1      37.806  32.470  31.626  1.00  0.00     0.037 A 
ATOM     48  C   UNL A   1      42.337  30.394  35.844  1.00  0.00     0.049 A 
ATOM     49  C   UNL A   1      38.231  32.933  32.994  1.00  0.00     0.074 A 
ATOM     50  C   UNL A   1      42.671  30.939  37.071  1.00  0.00     0.029 A 
ATOM     51  N   UNL A   1      41.305  31.166  35.330  1.00  0.00    -0.354 N 
ATOM     52  N   UNL A   1      39.172  32.453  33.769  1.00  0.00    -0.248 NA
ATOM     53  C   UNL A   1      37.509  34.080  33.561  1.00  0.00     0.031 C 
ATOM     54  C   UNL A   1      41.820  32.024  37.314  1.00  0.00     0.029 A 
ATOM     55  C   UNL A   1      40.980  32.175  36.222  1.00  0.00     0.049 A 
ATOM     56  H   UNL A   1      40.868  31.019  34.461  1.00  0.00     0.167 HD
ATOM     57  C   UNL A   1      39.173  33.253  34.906  1.00  0.00     0.074 A 
ATOM     58  C   UNL A   1      38.143  34.253  34.713  1.00  0.00     0.031 C 
ATOM     59  C   UNL A   1      39.956  33.168  36.009  1.00  0.00     0.037 A 
BRANCH  46  60
ATOM     60  C   UNL A   1      43.980  28.473  35.902  1.00  0.00     0.058 A 
ATOM     61  C   UNL A   1      43.657  27.397  36.743  1.00  0.00     0.135 A 
ATOM     62  C   UNL A   1      45.337  28.793  35.737  1.00  0.00     0.135 A 
ATOM     63  F   UNL A   1      42.374  27.059  36.948  1.00  0.00    -0.206 F 
ATOM     64  C   UNL A   1      44.641  26.685  37.422  1.00  0.00     0.059 A 
ATOM     65  C   UNL A   1      46.339  28.079  36.386  1.00  0.00     0.059 A 
ATOM     66  F   UNL A   1      45.699  29.815  34.944  1.00  0.00    -0.206 F 
ATOM     67  C   UNL A   1      45.979  27.038  37.241  1.00  0.00     0.060 A 
BRANCH  67  68
ATOM     68  S   UNL A   1      47.246  26.114  38.136  1.00  0.00     0.124 S 
ATOM     69  O   UNL A   1      48.259  25.935  37.100  1.00  0.00    -0.237 OA
ATOM     70  O   UNL A   1      47.600  27.028  39.216  1.00  0.00    -0.237 OA
ATOM     71  O   UNL A   1      46.550  24.900  38.550  1.00  0.00    -0.744 OA
ENDBRANCH  67  68
ENDBRANCH  46  60
BRANCH  47  72
ATOM     72  C   UNL A   1      36.706  33.153  30.899  1.00  0.00     0.058 A 
ATOM     73  C   UNL A   1      35.368  32.957  31.273  1.00  0.00     0.135 A 
ATOM     74  C   UNL A   1      36.966  34.030  29.836  1.00  0.00     0.135 A 
ATOM     75  F   UNL A   1      35.071  32.123  32.282  1.00  0.00    -0.206 F 
ATOM     76  C   UNL A   1      34.325  33.594  30.611  1.00  0.00     0.059 A 
ATOM     77  C   UNL A   1      35.941  34.695  29.170  1.00  0.00     0.059 A 
ATOM     78  F   UNL A   1      38.231  34.263  29.451  1.00  0.00    -0.206 F 
ATOM     79  C   UNL A   1      34.622  34.464  29.560  1.00  0.00     0.060 A 
BRANCH  79  80
ATOM     80  S   UNL A   1      33.264  35.330  28.741  1.00  0.00     0.124 S 
ATOM     81  O   UNL A   1      33.985  36.278  27.901  1.00  0.00    -0.237 OA
ATOM     82  O   UNL A   1      32.583  34.245  28.042  1.00  0.00    -0.237 OA
ATOM     83  O   UNL A   1      32.520  35.910  29.856  1.00  0.00    -0.744 OA
ENDBRANCH  79  80
ENDBRANCH  47  72
BRANCH  59  84
ATOM     84  C   UNL A   1      39.752  34.199  37.081  1.00  0.00     0.058 A 
ATOM     85  C   UNL A   1      38.829  34.006  38.119  1.00  0.00     0.135 A 
ATOM     86  C   UNL A   1      40.527  35.370  37.098  1.00  0.00     0.135 A 
ATOM     87  F   UNL A   1      38.060  32.906  38.144  1.00  0.00    -0.206 F 
ATOM     88  C   UNL A   1      38.667  34.947  39.130  1.00  0.00     0.059 A 
ATOM     89  C   UNL A   1      40.398  36.315  38.111  1.00  0.00     0.059 A 
ATOM     90  F   UNL A   1      41.431  35.596  36.131  1.00  0.00    -0.206 F 
ATOM     91  C   UNL A   1      39.457  36.100  39.117  1.00  0.00     0.060 A 
BRANCH  91  92
ATOM     92  S   UNL A   1      39.268  37.297  40.455  1.00  0.00     0.124 S 
ATOM     93  O   UNL A   1      38.184  38.133  39.950  1.00  0.00    -0.237 OA
ATOM     94  O   UNL A   1      38.935  36.447  41.595  1.00  0.00    -0.237 OA
ATOM     95  O   UNL A   1      40.579  37.938  40.522  1.00  0.00    -0.744 OA
ENDBRANCH  91  92
ENDBRANCH  59  84
ENDBRANCH  33  34
ENDBRANCH  25  28
ENDBRANCH  23  24
ENDBRANCH  22  23
ENDBRANCH   1  22
TORSDOF 18
ENDMDL
MODEL 2
REMARK VINA RESULT:     -11.1      1.253      2.286
REMARK SMILES O=C(COC1CC[NH+](Cc2nccs2)CC1)NCCCCNC(=O)c1ccc(-c2c3nc(c(-c4c(F)cc(S(=O)(=O)[O-])cc4F)c4ccc([nH]4)c(-c4c(F)cc(S(=O)(=O)[O-])cc4F)c4nc(c(-c5c(F)cc(S(=O)(=O)[O-])cc5F)c5ccc2[nH]5)C=C4)C=C3)cc1
REMARK SMILES IDX 19 1 18 2 17 3 1 4 2 5 3 7 4 8 5 9 6 10 16 11 7 12 15 13
REMARK SMILES IDX 8 14 9 16 10 17 11 18 14 19 12 20 13 21 20 22 21 23 22 24
REMARK SMILES IDX 23 25 24 27 25 28 26 29 90 30 27 31 89 32 28 33 29 34 30 35
REMARK SMILES IDX 83 36 31 37 88 38 82 39 84 40 32 41 87 42 81 43 80 44 33 46
REMARK SMILES IDX 67 47 46 48 66 49 47 50 50 51 65 52 85 53 48 54 49 55 64 57
REMARK SMILES IDX 86 58 51 59 34 60 35 61 44 62 36 63 37 64 43 65 45 66 38 67
REMARK SMILES IDX 39 68 40 69 41 70 42 71 68 72 69 73 78 74 70 75 71 76 77 77
REMARK SMILES IDX 79 78 72 79 73 80 74 81 75 82 76 83 52 84 53 85 62 86 54 87
REMARK SMILES IDX 55 88 61 89 63 90 56 91 57 92 58 93 59 94 60 95
REMARK H PARENT 17 6 8 15 22 26 84 45 50 56
REMARK Flexibility Score: inf
ROOT
ATOM      1  C   UNL A   1      41.854  21.871  26.636  1.00  0.00     0.023 C 
ENDROOT
BRANCH   1   2
ATOM      2  C   UNL A   1      40.373  21.581  26.849  1.00  0.00     0.116 C 
BRANCH   2   3
ATOM      3  N   UNL A   1      39.440  22.495  26.225  1.00  0.00    -0.354 N 
ATOM      4  O   UNL A   1      38.070  20.959  25.194  1.00  0.00    -0.272 OA
ATOM      5  C   UNL A   1      38.267  22.088  25.630  1.00  0.00     0.246 C 
ATOM      6  H   UNL A   1      39.655  23.456  26.227  1.00  0.00     0.163 HD
BRANCH   5   7
ATOM      7  C   UNL A   1      37.199  23.192  25.567  1.00  0.00     0.260 C 
BRANCH   7   8
ATOM      8  O   UNL A   1      36.102  22.967  24.697  1.00  0.00    -0.368 OA
BRANCH   8   9
ATOM      9  C   UNL A   1      34.769  22.823  25.204  1.00  0.00     0.130 C 
ATOM     10  C   UNL A   1      34.515  21.533  25.979  1.00  0.00     0.093 C 
ATOM     11  C   UNL A   1      33.618  23.142  24.245  1.00  0.00     0.093 C 
ATOM     12  C   UNL A   1      34.061  20.385  25.086  1.00  0.00     0.265 C 
ATOM     13  C   UNL A   1      33.078  21.931  23.478  1.00  0.00     0.265 C 
ATOM     14  N   UNL A   1      32.869  20.740  24.307  1.00  0.00    -0.329 N 
ATOM     15  H   UNL A   1      32.132  20.978  24.969  1.00  0.00     0.348 HD
BRANCH  14  16
ATOM     16  C   UNL A   1      32.408  19.576  23.495  1.00  0.00     0.331 C 
BRANCH  16  17
ATOM     17  C   UNL A   1      32.675  18.206  24.087  1.00  0.00     0.147 A 
ATOM     18  N   UNL A   1      32.090  17.735  25.170  1.00  0.00    -0.244 NA
ATOM     19  S   UNL A   1      33.848  17.156  23.377  1.00  0.00    -0.122 S 
ATOM     20  C   UNL A   1      32.691  16.550  25.549  1.00  0.00     0.123 A 
ATOM     21  C   UNL A   1      33.672  16.084  24.701  1.00  0.00     0.087 A 
ENDBRANCH  16  17
ENDBRANCH  14  16
ENDBRANCH   8   9
ENDBRANCH   7   8
ENDBRANCH   5   7
ENDBRANCH   2   3
ENDBRANCH   1   2
BRANCH   1  22
ATOM     22  C   UNL A   1      42.589  22.435  27.849  1.00  0.00     0.023 C 
BRANCH  22  23
ATOM     23  C   UNL A   1      43.343  23.736  27.607  1.00  0.00     0.116 C 
BRANCH  23  24
ATOM     24  N   UNL A   1      43.121  24.293  26.280  1.00  0.00    -0.352 N 
ATOM     25  C   UNL A   1      42.547  25.497  25.947  1.00  0.00     0.251 C 
ATOM     26  H   UNL A   1      43.421  23.737  25.525  1.00  0.00     0.163 HD
ATOM     27  O   UNL A   1      42.341  25.783  24.770  1.00  0.00    -0.269 OA
BRANCH  25  28
ATOM     28  C   UNL A   1      42.142  26.428  27.022  1.00  0.00     0.039 A 
ATOM     29  C   UNL A   1      41.168  26.020  27.936  1.00  0.00     0.014 A 
ATOM     30  C   UNL A   1      42.756  27.677  27.152  1.00  0.00     0.014 A 
ATOM     31  C   UNL A   1      40.861  26.836  29.027  1.00  0.00     0.010 A 
ATOM     32  C   UNL A   1      42.493  28.461  28.272  1.00  0.00     0.010 A 
ATOM     33  C   UNL A   1      41.547  28.046  29.222  1.00  0.00    -0.014 A 
BRANCH  33  34
ATOM     34  C   UNL A   1      41.297  28.889  30.418  1.00  0.00     0.031 A 
ATOM     35  C   UNL A   1      42.134  28.710  31.654  1.00  0.00     0.074 A 
ATOM     36  C   UNL A   1      40.268  29.760  30.418  1.00  0.00     0.049 A 
ATOM     37  N   UNL A   1      42.022  29.293  32.820  1.00  0.00    -0.248 NA
ATOM     38  C   UNL A   1      43.226  27.726  31.576  1.00  0.00     0.031 C 
ATOM     39  C   UNL A   1      39.350  29.986  29.299  1.00  0.00     0.029 A 
ATOM     40  N   UNL A   1      39.815  30.611  31.394  1.00  0.00    -0.354 N 
ATOM     41  C   UNL A   1      43.010  28.732  33.620  1.00  0.00     0.074 A 
ATOM     42  C   UNL A   1      43.685  27.734  32.819  1.00  0.00     0.031 C 
ATOM     43  C   UNL A   1      38.456  30.927  29.645  1.00  0.00     0.029 A 
ATOM     44  C   UNL A   1      38.718  31.349  31.018  1.00  0.00     0.049 A 
ATOM     45  H   UNL A   1      40.235  30.686  32.281  1.00  0.00     0.167 HD
ATOM     46  C   UNL A   1      43.337  29.036  34.899  1.00  0.00     0.037 A 
ATOM     47  C   UNL A   1      38.001  32.261  31.703  1.00  0.00     0.037 A 
ATOM     48  C   UNL A   1      42.687  30.055  35.678  1.00  0.00     0.049 A 
ATOM     49  C   UNL A   1      38.401  32.602  33.113  1.00  0.00     0.074 A 
ATOM     50  C   UNL A   1      42.990  30.486  36.958  1.00  0.00     0.029 A 
ATOM     51  N   UNL A   1      41.602  30.806  35.249  1.00  0.00    -0.354 N 
ATOM     52  N   UNL A   1      39.378  32.106  33.833  1.00  0.00    -0.248 NA
ATOM     53  C   UNL A   1      37.607  33.629  33.800  1.00  0.00     0.031 C 
ATOM     54  C   UNL A   1      42.070  31.478  37.315  1.00  0.00     0.029 A 
ATOM     55  C   UNL A   1      41.215  31.689  36.244  1.00  0.00     0.049 A 
ATOM     56  H   UNL A   1      41.171  30.724  34.369  1.00  0.00     0.167 HD
ATOM     57  C   UNL A   1      39.331  32.777  35.050  1.00  0.00     0.074 A 
ATOM     58  C   UNL A   1      38.234  33.720  34.965  1.00  0.00     0.031 C 
ATOM     59  C   UNL A   1      40.125  32.627  36.139  1.00  0.00     0.037 A 
BRANCH  46  60
ATOM     60  C   UNL A   1      44.456  28.255  35.530  1.00  0.00     0.058 A 
ATOM     61  C   UNL A   1      44.209  27.091  36.275  1.00  0.00     0.135 A 
ATOM     62  C   UNL A   1      45.790  28.665  35.377  1.00  0.00     0.135 A 
ATOM     63  F   UNL A   1      42.951  26.664  36.466  1.00  0.00    -0.206 F 
ATOM     64  C   UNL A   1      45.243  26.380  36.874  1.00  0.00     0.059 A 
ATOM     65  C   UNL A   1      46.842  27.954  35.946  1.00  0.00     0.059 A 
ATOM     66  F   UNL A   1      46.080  29.772  34.674  1.00  0.00    -0.206 F 
ATOM     67  C   UNL A   1      46.556  26.822  36.709  1.00  0.00     0.060 A 
BRANCH  67  68
ATOM     68  S   UNL A   1      47.888  25.896  37.500  1.00  0.00     0.124 S 
ATOM     69  O   UNL A   1      48.660  26.970  38.118  1.00  0.00    -0.237 OA
ATOM     70  O   UNL A   1      47.164  25.026  38.421  1.00  0.00    -0.237 OA
ATOM     71  O   UNL A   1      48.538  25.218  36.383  1.00  0.00    -0.744 OA
ENDBRANCH  67  68
ENDBRANCH  46  60
BRANCH  47  72
ATOM     72  C   UNL A   1      36.852  32.943  31.052  1.00  0.00     0.058 A 
ATOM     73  C   UNL A   1      37.063  33.956  30.105  1.00  0.00     0.135 A 
ATOM     74  C   UNL A   1      35.528  32.585  31.344  1.00  0.00     0.135 A 
ATOM     75  F   UNL A   1      38.313  34.336  29.798  1.00  0.00    -0.206 F 
ATOM     76  C   UNL A   1      36.002  34.600  29.479  1.00  0.00     0.059 A 
ATOM     77  C   UNL A   1      34.449  33.200  30.716  1.00  0.00     0.059 A 
ATOM     78  F   UNL A   1      35.276  31.611  32.233  1.00  0.00    -0.206 F 
ATOM     79  C   UNL A   1      34.697  34.213  29.790  1.00  0.00     0.060 A 
BRANCH  79  80
ATOM     80  S   UNL A   1      33.326  35.017  28.931  1.00  0.00     0.124 S 
ATOM     81  O   UNL A   1      32.898  33.968  28.015  1.00  0.00    -0.237 OA
ATOM     82  O   UNL A   1      32.411  35.322  30.026  1.00  0.00    -0.237 OA
ATOM     83  O   UNL A   1      33.958  36.180  28.312  1.00  0.00    -0.744 OA
ENDBRANCH  79  80
ENDBRANCH  47  72
BRANCH  59  84
ATOM     84  C   UNL A   1      39.858  33.520  37.315  1.00  0.00     0.058 A 
ATOM     85  C   UNL A   1      40.527  34.743  37.474  1.00  0.00     0.135 A 
ATOM     86  C   UNL A   1      38.884  33.174  38.265  1.00  0.00     0.135 A 
ATOM     87  F   UNL A   1      41.472  35.116  36.597  1.00  0.00    -0.206 F 
ATOM     88  C   UNL A   1      40.252  35.586  38.546  1.00  0.00     0.059 A 
ATOM     89  C   UNL A   1      38.577  34.011  39.333  1.00  0.00     0.059 A 
ATOM     90  F   UNL A   1      38.210  32.018  38.151  1.00  0.00    -0.206 F 
ATOM     91  C   UNL A   1      39.275  35.210  39.471  1.00  0.00     0.060 A 
BRANCH  91  92
ATOM     92  S   UNL A   1      38.897  36.328  40.838  1.00  0.00     0.124 S 
ATOM     93  O   UNL A   1      37.841  35.598  41.530  1.00  0.00    -0.237 OA
ATOM     94  O   UNL A   1      40.175  36.412  41.540  1.00  0.00    -0.237 OA
ATOM     95  O   UNL A   1      38.479  37.555  40.165  1.00  0.00    -0.744 OA
ENDBRANCH  91  92
ENDBRANCH  59  84
ENDBRANCH  33  34
ENDBRANCH  25  28
ENDBRANCH  23  24
ENDBRANCH  22  23
ENDBRANCH   1  22
TORSDOF 18
ENDMDL
MODEL 3
REMARK VINA RESULT:     -11.1      4.180     10.759
REMARK SMILES O=C(COC1CC[NH+](Cc2nccs2)CC1)NCCCCNC(=O)c1ccc(-c2c3nc(c(-c4c(F)cc(S(=O)(=O)[O-])cc4F)c4ccc([nH]4)c(-c4c(F)cc(S(=O)(=O)[O-])cc4F)c4nc(c(-c5c(F)cc(S(=O)(=O)[O-])cc5F)c5ccc2[nH]5)C=C4)C=C3)cc1
REMARK SMILES IDX 19 1 18 2 17 3 1 4 2 5 3 7 4 8 5 9 6 10 16 11 7 12 15 13
REMARK SMILES IDX 8 14 9 16 10 17 11 18 14 19 12 20 13 21 20 22 21 23 22 24
REMARK SMILES IDX 23 25 24 27 25 28 26 29 90 30 27 31 89 32 28 33 29 34 30 35
REMARK SMILES IDX 83 36 31 37 88 38 82 39 84 40 32 41 87 42 81 43 80 44 33 46
REMARK SMILES IDX 67 47 46 48 66 49 47 50 50 51 65 52 85 53 48 54 49 55 64 57
REMARK SMILES IDX 86 58 51 59 34 60 35 61 44 62 36 63 37 64 43 65 45 66 38 67
REMARK SMILES IDX 39 68 40 69 41 70 42 71 68 72 69 73 78 74 70 75 71 76 77 77
REMARK SMILES IDX 79 78 72 79 73 80 74 81 75 82 76 83 52 84 53 85 62 86 54 87
REMARK SMILES IDX 55 88 61 89 63 90 56 91 57 92 58 93 59 94 60 95
REMARK H PARENT 17 6 8 15 22 26 84 45 50 56
REMARK Flexibility Score: inf
ROOT
ATOM      1  C   UNL A   1      41.769  19.920  27.056  1.00  0.00     0.023 C 
ENDROOT
BRANCH   1   2
ATOM      2  C   UNL A   1      42.634  19.097  26.108  1.00  0.00     0.116 C 
BRANCH   2   3
ATOM      3  N   UNL A   1      44.053  19.382  26.117  1.00  0.00    -0.354 N 
ATOM      4  O   UNL A   1      44.642  18.332  24.154  1.00  0.00    -0.272 OA
ATOM      5  C   UNL A   1      44.879  19.147  25.039  1.00  0.00     0.246 C 
ATOM      6  H   UNL A   1      44.448  19.763  26.934  1.00  0.00     0.163 HD
BRANCH   5   7
ATOM      7  C   UNL A   1      46.143  20.020  25.038  1.00  0.00     0.260 C 
BRANCH   7   8
ATOM      8  O   UNL A   1      45.977  21.380  25.405  1.00  0.00    -0.368 OA
BRANCH   8   9
ATOM      9  C   UNL A   1      45.728  22.391  24.420  1.00  0.00     0.130 C 
ATOM     10  C   UNL A   1      46.635  23.614  24.516  1.00  0.00     0.093 C 
ATOM     11  C   UNL A   1      44.268  22.786  24.178  1.00  0.00     0.093 C 
ATOM     12  C   UNL A   1      46.081  24.692  25.438  1.00  0.00     0.265 C 
ATOM     13  C   UNL A   1      43.789  23.979  25.010  1.00  0.00     0.265 C 
ATOM     14  N   UNL A   1      44.729  25.105  25.043  1.00  0.00    -0.329 N 
ATOM     15  H   UNL A   1      44.785  25.459  24.089  1.00  0.00     0.348 HD
BRANCH  14  16
ATOM     16  C   UNL A   1      44.240  26.207  25.922  1.00  0.00     0.331 C 
BRANCH  16  17
ATOM     17  C   UNL A   1      45.071  27.474  25.923  1.00  0.00     0.147 A 
ATOM     18  N   UNL A   1      45.709  27.948  24.871  1.00  0.00    -0.244 NA
ATOM     19  S   UNL A   1      45.284  28.384  27.374  1.00  0.00    -0.122 S 
ATOM     20  C   UNL A   1      46.523  28.998  25.251  1.00  0.00     0.123 A 
ATOM     21  C   UNL A   1      46.432  29.372  26.573  1.00  0.00     0.087 A 
ENDBRANCH  16  17
ENDBRANCH  14  16
ENDBRANCH   8   9
ENDBRANCH   7   8
ENDBRANCH   5   7
ENDBRANCH   2   3
ENDBRANCH   1   2
BRANCH   1  22
ATOM     22  C   UNL A   1      40.502  20.505  26.439  1.00  0.00     0.023 C 
BRANCH  22  23
ATOM     23  C   UNL A   1      40.381  22.021  26.516  1.00  0.00     0.116 C 
BRANCH  23  24
ATOM     24  N   UNL A   1      39.197  22.540  25.845  1.00  0.00    -0.352 N 
ATOM     25  C   UNL A   1      38.585  23.759  26.018  1.00  0.00     0.251 C 
ATOM     26  H   UNL A   1      38.781  21.941  25.184  1.00  0.00     0.163 HD
ATOM     27  O   UNL A   1      37.528  24.011  25.444  1.00  0.00    -0.269 OA
BRANCH  25  28
ATOM     28  C   UNL A   1      39.190  24.749  26.935  1.00  0.00     0.039 A 
ATOM     29  C   UNL A   1      40.065  25.704  26.414  1.00  0.00     0.014 A 
ATOM     30  C   UNL A   1      38.857  24.760  28.293  1.00  0.00     0.014 A 
ATOM     31  C   UNL A   1      40.551  26.719  27.241  1.00  0.00     0.010 A 
ATOM     32  C   UNL A   1      39.293  25.807  29.101  1.00  0.00     0.010 A 
ATOM     33  C   UNL A   1      40.140  26.798  28.582  1.00  0.00    -0.014 A 
BRANCH  33  34
ATOM     34  C   UNL A   1      40.578  27.914  29.457  1.00  0.00     0.031 A 
ATOM     35  C   UNL A   1      39.693  29.116  29.643  1.00  0.00     0.074 A 
ATOM     36  C   UNL A   1      41.801  27.881  30.021  1.00  0.00     0.049 A 
ATOM     37  N   UNL A   1      39.928  30.221  30.302  1.00  0.00    -0.248 NA
ATOM     38  C   UNL A   1      38.380  29.080  28.979  1.00  0.00     0.031 C 
ATOM     39  C   UNL A   1      42.774  26.795  29.871  1.00  0.00     0.029 A 
ATOM     40  N   UNL A   1      42.442  28.789  30.826  1.00  0.00    -0.354 N 
ATOM     41  C   UNL A   1      38.807  31.020  30.114  1.00  0.00     0.074 A 
ATOM     42  C   UNL A   1      37.909  30.289  29.246  1.00  0.00     0.031 C 
ATOM     43  C   UNL A   1      43.878  27.092  30.576  1.00  0.00     0.029 A 
ATOM     44  C   UNL A   1      43.705  28.399  31.202  1.00  0.00     0.049 A 
ATOM     45  H   UNL A   1      42.035  29.640  31.107  1.00  0.00     0.167 HD
ATOM     46  C   UNL A   1      38.542  32.242  30.633  1.00  0.00     0.037 A 
ATOM     47  C   UNL A   1      44.623  29.026  31.964  1.00  0.00     0.037 A 
ATOM     48  C   UNL A   1      39.422  32.949  31.526  1.00  0.00     0.049 A 
ATOM     49  C   UNL A   1      44.294  30.371  32.553  1.00  0.00     0.074 A 
ATOM     50  C   UNL A   1      39.214  34.160  32.161  1.00  0.00     0.029 A 
ATOM     51  N   UNL A   1      40.679  32.505  31.912  1.00  0.00    -0.354 N 
ATOM     52  N   UNL A   1      43.203  31.085  32.415  1.00  0.00    -0.248 NA
ATOM     53  C   UNL A   1      45.317  30.992  33.405  1.00  0.00     0.031 C 
ATOM     54  C   UNL A   1      40.357  34.464  32.910  1.00  0.00     0.029 A 
ATOM     55  C   UNL A   1      41.263  33.424  32.767  1.00  0.00     0.049 A 
ATOM     56  H   UNL A   1      41.094  31.661  31.622  1.00  0.00     0.167 HD
ATOM     57  C   UNL A   1      43.398  32.228  33.181  1.00  0.00     0.074 A 
ATOM     58  C   UNL A   1      44.708  32.107  33.786  1.00  0.00     0.031 C 
ATOM     59  C   UNL A   1      42.566  33.283  33.367  1.00  0.00     0.037 A 
BRANCH  46  60
ATOM     60  C   UNL A   1      37.240  32.889  30.250  1.00  0.00     0.058 A 
ATOM     61  C   UNL A   1      37.124  33.674  29.092  1.00  0.00     0.135 A 
ATOM     62  C   UNL A   1      36.093  32.710  31.039  1.00  0.00     0.135 A 
ATOM     63  F   UNL A   1      38.194  33.890  28.311  1.00  0.00    -0.206 F 
ATOM     64  C   UNL A   1      35.924  34.287  28.748  1.00  0.00     0.059 A 
ATOM     65  C   UNL A   1      34.876  33.293  30.700  1.00  0.00     0.059 A 
ATOM     66  F   UNL A   1      36.151  31.969  32.158  1.00  0.00    -0.206 F 
ATOM     67  C   UNL A   1      34.806  34.095  29.561  1.00  0.00     0.060 A 
BRANCH  67  68
ATOM     68  S   UNL A   1      33.257  34.904  29.109  1.00  0.00     0.124 S 
ATOM     69  O   UNL A   1      33.737  36.185  28.600  1.00  0.00    -0.237 OA
ATOM     70  O   UNL A   1      32.705  33.993  28.111  1.00  0.00    -0.237 OA
ATOM     71  O   UNL A   1      32.525  34.963  30.370  1.00  0.00    -0.744 OA
ENDBRANCH  67  68
ENDBRANCH  46  60
BRANCH  47  72
ATOM     72  C   UNL A   1      45.928  28.372  32.243  1.00  0.00     0.058 A 
ATOM     73  C   UNL A   1      47.045  28.627  31.434  1.00  0.00     0.135 A 
ATOM     74  C   UNL A   1      46.091  27.500  33.329  1.00  0.00     0.135 A 
ATOM     75  F   UNL A   1      46.934  29.450  30.380  1.00  0.00    -0.206 F 
ATOM     76  C   UNL A   1      48.276  28.032  31.683  1.00  0.00     0.059 A 
ATOM     77  C   UNL A   1      47.318  26.908  33.612  1.00  0.00     0.059 A 
ATOM     78  F   UNL A   1      45.055  27.237  34.141  1.00  0.00    -0.206 F 
ATOM     79  C   UNL A   1      48.404  27.174  32.777  1.00  0.00     0.060 A 
BRANCH  79  80
ATOM     80  S   UNL A   1      50.021  26.448  33.126  1.00  0.00     0.124 S 
ATOM     81  O   UNL A   1      50.920  27.460  32.585  1.00  0.00    -0.237 OA
ATOM     82  O   UNL A   1      49.997  26.326  34.581  1.00  0.00    -0.237 OA
ATOM     83  O   UNL A   1      49.981  25.182  32.399  1.00  0.00    -0.744 OA
ENDBRANCH  79  80
ENDBRANCH  47  72
BRANCH  59  84
ATOM     84  C   UNL A   1      43.034  34.376  34.284  1.00  0.00     0.058 A 
ATOM     85  C   UNL A   1      43.779  35.465  33.808  1.00  0.00     0.135 A 
ATOM     86  C   UNL A   1      42.686  34.360  35.645  1.00  0.00     0.135 A 
ATOM     87  F   UNL A   1      44.142  35.522  32.518  1.00  0.00    -0.206 F 
ATOM     88  C   UNL A   1      44.181  36.494  34.653  1.00  0.00     0.059 A 
ATOM     89  C   UNL A   1      43.058  35.389  36.504  1.00  0.00     0.059 A 
ATOM     90  F   UNL A   1      41.965  33.344  36.146  1.00  0.00    -0.206 F 
ATOM     91  C   UNL A   1      43.815  36.446  36.001  1.00  0.00     0.060 A 
BRANCH  91  92
ATOM     92  S   UNL A   1      44.307  37.806  37.082  1.00  0.00     0.124 S 
ATOM     93  O   UNL A   1      43.260  37.766  38.098  1.00  0.00    -0.237 OA
ATOM     94  O   UNL A   1      45.635  37.392  37.525  1.00  0.00    -0.237 OA
ATOM     95  O   UNL A   1      44.283  38.967  36.198  1.00  0.00    -0.744 OA
ENDBRANCH  91  92
ENDBRANCH  59  84
ENDBRANCH  33  34
ENDBRANCH  25  28
ENDBRANCH  23  24
ENDBRANCH  22  23
ENDBRANCH   1  22
TORSDOF 18
ENDMDL
