MODEL 1
REMARK VINA RESULT:     -13.0      0.000      0.000
REMARK SMILES O=C(NCCCCNC(=O)[C@@H]1CN(C(=O)C[NH+]2CCOCC2)C[C@H]1c1ccc2c(c1)OCO2)c1ccc(-c2c3nc(c(-c4c(F)cc(S(=O)(=O)[O-])cc4F)c4ccc([nH]4)c(-c4c(F)cc(S(=O)(=O)[O-])cc4F)c4nc(c(-c5c(F)cc(S(=O)(=O)[O-])cc5F)c5ccc2[nH]5)C=C4)C=C3)cc1
REMARK SMILES IDX 5 1 4 2 3 3 1 4 2 5 34 7 35 8 99 9 36 10 98 11 37 12 38 13
REMARK SMILES IDX 39 14 92 15 40 16 97 17 91 18 93 19 41 20 96 21 90 22 89 23
REMARK SMILES IDX 42 25 76 26 55 27 75 28 56 29 59 30 74 31 94 32 57 33 58 34
REMARK SMILES IDX 73 36 95 37 60 38 43 39 44 40 53 41 45 42 46 43 52 44 54 45
REMARK SMILES IDX 47 46 48 47 49 48 50 49 51 50 77 51 78 52 87 53 79 54 80 55
REMARK SMILES IDX 86 56 88 57 81 58 82 59 83 60 84 61 85 62 61 63 62 64 71 65
REMARK SMILES IDX 63 66 64 67 70 68 72 69 65 70 66 71 67 72 68 73 69 74 6 75
REMARK SMILES IDX 7 76 8 77 9 78 10 80 11 81 12 82 24 83 13 84 23 85 25 86
REMARK SMILES IDX 26 87 30 88 27 89 29 90 28 91 31 92 33 93 32 94 14 95 15 96
REMARK SMILES IDX 16 97 17 98 18 99 22 100 19 102 21 103 20 104
REMARK H PARENT 3 6 93 24 59 35 8 79 17 101
REMARK Flexibility Score: inf
ROOT
ATOM      1  C   UNL A   1      37.512  23.667  25.418  1.00  0.00     0.023 C 
ENDROOT
BRANCH   1   2
ATOM      2  C   UNL A   1      38.468  24.065  26.535  1.00  0.00     0.116 C 
BRANCH   2   3
ATOM      3  N   UNL A   1      39.867  24.067  26.126  1.00  0.00    -0.352 N 
ATOM      4  O   UNL A   1      41.984  24.845  26.006  1.00  0.00    -0.269 OA
ATOM      5  C   UNL A   1      40.874  24.916  26.522  1.00  0.00     0.251 C 
ATOM      6  H   UNL A   1      40.124  23.368  25.482  1.00  0.00     0.163 HD
BRANCH   5   7
ATOM      7  C   UNL A   1      40.581  25.941  27.544  1.00  0.00     0.039 A 
ATOM      8  C   UNL A   1      41.329  27.119  27.589  1.00  0.00     0.014 A 
ATOM      9  C   UNL A   1      39.601  25.685  28.506  1.00  0.00     0.014 A 
ATOM     10  C   UNL A   1      41.217  27.956  28.692  1.00  0.00     0.010 A 
ATOM     11  C   UNL A   1      39.427  26.578  29.567  1.00  0.00     0.010 A 
ATOM     12  C   UNL A   1      40.267  27.696  29.694  1.00  0.00    -0.014 A 
BRANCH  12  13
ATOM     13  C   UNL A   1      40.163  28.625  30.848  1.00  0.00     0.031 A 
ATOM     14  C   UNL A   1      41.101  28.519  32.021  1.00  0.00     0.074 A 
ATOM     15  C   UNL A   1      39.242  29.608  30.802  1.00  0.00     0.049 A 
ATOM     16  N   UNL A   1      41.179  29.284  33.082  1.00  0.00    -0.248 NA
ATOM     17  C   UNL A   1      42.067  27.411  32.013  1.00  0.00     0.031 C 
ATOM     18  C   UNL A   1      38.271  29.800  29.721  1.00  0.00     0.029 A 
ATOM     19  N   UNL A   1      38.989  30.644  31.661  1.00  0.00    -0.354 N 
ATOM     20  C   UNL A   1      42.178  28.735  33.879  1.00  0.00     0.074 A 
ATOM     21  C   UNL A   1      42.668  27.562  33.186  1.00  0.00     0.031 C 
ATOM     22  C   UNL A   1      37.574  30.921  29.951  1.00  0.00     0.029 A 
ATOM     23  C   UNL A   1      38.004  31.494  31.221  1.00  0.00     0.049 A 
ATOM     24  H   UNL A   1      39.468  30.768  32.513  1.00  0.00     0.167 HD
ATOM     25  C   UNL A   1      42.645  29.174  35.073  1.00  0.00     0.037 A 
ATOM     26  C   UNL A   1      37.497  32.609  31.777  1.00  0.00     0.037 A 
ATOM     27  C   UNL A   1      42.174  30.362  35.739  1.00  0.00     0.049 A 
ATOM     28  C   UNL A   1      38.044  33.081  33.092  1.00  0.00     0.074 A 
ATOM     29  C   UNL A   1      42.615  30.915  36.929  1.00  0.00     0.029 A 
ATOM     30  N   UNL A   1      41.159  31.183  35.271  1.00  0.00    -0.354 N 
ATOM     31  N   UNL A   1      39.006  32.562  33.816  1.00  0.00    -0.248 NA
ATOM     32  C   UNL A   1      37.435  34.286  33.667  1.00  0.00     0.031 C 
ATOM     33  C   UNL A   1      41.841  32.049  37.200  1.00  0.00     0.029 A 
ATOM     34  C   UNL A   1      40.947  32.227  36.157  1.00  0.00     0.049 A 
ATOM     35  H   UNL A   1      40.661  31.044  34.433  1.00  0.00     0.167 HD
ATOM     36  C   UNL A   1      39.128  33.387  34.927  1.00  0.00     0.074 A 
ATOM     37  C   UNL A   1      38.154  34.448  34.769  1.00  0.00     0.031 C 
ATOM     38  C   UNL A   1      39.971  33.275  35.983  1.00  0.00     0.037 A 
BRANCH  25  39
ATOM     39  C   UNL A   1      43.708  28.354  35.753  1.00  0.00     0.058 A 
ATOM     40  C   UNL A   1      45.075  28.586  35.540  1.00  0.00     0.135 A 
ATOM     41  C   UNL A   1      43.350  27.343  36.661  1.00  0.00     0.135 A 
ATOM     42  F   UNL A   1      45.473  29.529  34.672  1.00  0.00    -0.206 F 
ATOM     43  C   UNL A   1      46.051  27.828  36.182  1.00  0.00     0.059 A 
ATOM     44  C   UNL A   1      44.308  26.588  37.332  1.00  0.00     0.059 A 
ATOM     45  F   UNL A   1      42.057  27.079  36.904  1.00  0.00    -0.206 F 
ATOM     46  C   UNL A   1      45.657  26.828  37.073  1.00  0.00     0.060 A 
BRANCH  46  47
ATOM     47  S   UNL A   1      46.933  25.848  37.895  1.00  0.00     0.124 S 
ATOM     48  O   UNL A   1      46.416  25.786  39.258  1.00  0.00    -0.237 OA
ATOM     49  O   UNL A   1      46.897  24.595  37.147  1.00  0.00    -0.237 OA
ATOM     50  O   UNL A   1      48.142  26.646  37.717  1.00  0.00    -0.744 OA
ENDBRANCH  46  47
ENDBRANCH  25  39
BRANCH  26  51
ATOM     51  C   UNL A   1      36.421  33.355  31.076  1.00  0.00     0.058 A 
ATOM     52  C   UNL A   1      36.696  34.096  29.917  1.00  0.00     0.135 A 
ATOM     53  C   UNL A   1      35.093  33.312  31.528  1.00  0.00     0.135 A 
ATOM     54  F   UNL A   1      37.951  34.168  29.449  1.00  0.00    -0.206 F 
ATOM     55  C   UNL A   1      35.693  34.774  29.234  1.00  0.00     0.059 A 
ATOM     56  C   UNL A   1      34.069  33.960  30.847  1.00  0.00     0.059 A 
ATOM     57  F   UNL A   1      34.778  32.599  32.621  1.00  0.00    -0.206 F 
ATOM     58  C   UNL A   1      34.381  34.697  29.705  1.00  0.00     0.060 A 
BRANCH  58  59
ATOM     59  S   UNL A   1      33.073  35.528  28.778  1.00  0.00     0.124 S 
ATOM     60  O   UNL A   1      33.835  36.509  28.015  1.00  0.00    -0.237 OA
ATOM     61  O   UNL A   1      32.494  34.430  28.010  1.00  0.00    -0.237 OA
ATOM     62  O   UNL A   1      32.215  36.069  29.827  1.00  0.00    -0.744 OA
ENDBRANCH  58  59
ENDBRANCH  26  51
BRANCH  38  63
ATOM     63  C   UNL A   1      39.891  34.345  37.033  1.00  0.00     0.058 A 
ATOM     64  C   UNL A   1      39.078  34.203  38.168  1.00  0.00     0.135 A 
ATOM     65  C   UNL A   1      40.649  35.520  36.910  1.00  0.00     0.135 A 
ATOM     66  F   UNL A   1      38.326  33.102  38.327  1.00  0.00    -0.206 F 
ATOM     67  C   UNL A   1      38.994  35.204  39.131  1.00  0.00     0.059 A 
ATOM     68  C   UNL A   1      40.600  36.524  37.871  1.00  0.00     0.059 A 
ATOM     69  F   UNL A   1      41.449  35.700  35.846  1.00  0.00    -0.206 F 
ATOM     70  C   UNL A   1      39.756  36.363  38.970  1.00  0.00     0.060 A 
BRANCH  70  71
ATOM     71  S   UNL A   1      39.651  37.653  40.229  1.00  0.00     0.124 S 
ATOM     72  O   UNL A   1      38.635  38.533  39.662  1.00  0.00    -0.237 OA
ATOM     73  O   UNL A   1      39.251  36.904  41.417  1.00  0.00    -0.237 OA
ATOM     74  O   UNL A   1      41.005  38.198  40.268  1.00  0.00    -0.744 OA
ENDBRANCH  70  71
ENDBRANCH  38  63
ENDBRANCH  12  13
ENDBRANCH   5   7
ENDBRANCH   2   3
ENDBRANCH   1   2
BRANCH   1  75
ATOM     75  C   UNL A   1      37.391  22.165  25.170  1.00  0.00     0.023 C 
BRANCH  75  76
ATOM     76  C   UNL A   1      35.992  21.599  25.375  1.00  0.00     0.116 C 
BRANCH  76  77
ATOM     77  N   UNL A   1      35.470  21.909  26.694  1.00  0.00    -0.356 N 
ATOM     78  C   UNL A   1      34.265  22.428  27.054  1.00  0.00     0.225 C 
ATOM     79  H   UNL A   1      36.080  21.714  27.441  1.00  0.00     0.163 HD
ATOM     80  O   UNL A   1      34.002  22.539  28.251  1.00  0.00    -0.275 OA
BRANCH  78  81
ATOM     81  C   UNL A   1      33.304  22.885  25.985  1.00  0.00     0.107 C 
ATOM     82  C   UNL A   1      32.722  24.211  26.437  1.00  0.00     0.133 C 
ATOM     83  C   UNL A   1      32.064  21.984  25.799  1.00  0.00     0.053 C 
ATOM     84  N   UNL A   1      31.480  24.318  25.700  1.00  0.00    -0.336 N 
ATOM     85  C   UNL A   1      31.049  23.006  25.229  1.00  0.00     0.129 C 
BRANCH  83  86
ATOM     86  C   UNL A   1      32.390  20.758  24.950  1.00  0.00    -0.038 A 
ATOM     87  C   UNL A   1      32.157  20.811  23.548  1.00  0.00     0.008 A 
ATOM     88  C   UNL A   1      32.882  19.559  25.490  1.00  0.00     0.054 A 
ATOM     89  C   UNL A   1      32.314  19.691  22.725  1.00  0.00     0.051 A 
ATOM     90  C   UNL A   1      33.037  18.469  24.653  1.00  0.00     0.166 A 
ATOM     91  C   UNL A   1      32.744  18.528  23.313  1.00  0.00     0.165 A 
ATOM     92  O   UNL A   1      33.464  17.235  25.034  1.00  0.00    -0.454 OA
ATOM     93  O   UNL A   1      32.939  17.341  22.682  1.00  0.00    -0.454 OA
ATOM     94  C   UNL A   1      33.380  16.521  23.782  1.00  0.00     0.468 C 
ENDBRANCH  83  86
BRANCH  84  95
ATOM     95  C   UNL A   1      30.803  25.472  25.355  1.00  0.00     0.277 C 
ATOM     96  O   UNL A   1      29.591  25.579  25.559  1.00  0.00    -0.268 OA
BRANCH  95  97
ATOM     97  C   UNL A   1      31.597  26.616  24.710  1.00  0.00     0.363 C 
BRANCH  97  98
ATOM     98  N   UNL A   1      31.457  26.766  23.252  1.00  0.00    -0.323 N 
ATOM     99  C   UNL A   1      31.587  25.543  22.447  1.00  0.00     0.291 C 
ATOM    100  C   UNL A   1      32.254  27.851  22.663  1.00  0.00     0.291 C 
ATOM    101  H   UNL A   1      30.473  27.031  23.196  1.00  0.00     0.348 HD
ATOM    102  C   UNL A   1      33.027  25.199  22.029  1.00  0.00     0.221 C 
ATOM    103  C   UNL A   1      33.670  27.455  22.221  1.00  0.00     0.221 C 
ATOM    104  O   UNL A   1      33.649  26.305  21.364  1.00  0.00    -0.370 OA
ENDBRANCH  97  98
ENDBRANCH  95  97
ENDBRANCH  84  95
ENDBRANCH  78  81
ENDBRANCH  76  77
ENDBRANCH  75  76
ENDBRANCH   1  75
TORSDOF 18
ENDMDL
MODEL 2
REMARK VINA RESULT:     -13.0      6.691     12.312
REMARK SMILES O=C(NCCCCNC(=O)[C@@H]1CN(C(=O)C[NH+]2CCOCC2)C[C@H]1c1ccc2c(c1)OCO2)c1ccc(-c2c3nc(c(-c4c(F)cc(S(=O)(=O)[O-])cc4F)c4ccc([nH]4)c(-c4c(F)cc(S(=O)(=O)[O-])cc4F)c4nc(c(-c5c(F)cc(S(=O)(=O)[O-])cc5F)c5ccc2[nH]5)C=C4)C=C3)cc1
REMARK SMILES IDX 5 1 4 2 3 3 1 4 2 5 34 7 35 8 99 9 36 10 98 11 37 12 38 13
REMARK SMILES IDX 39 14 92 15 40 16 97 17 91 18 93 19 41 20 96 21 90 22 89 23
REMARK SMILES IDX 42 25 76 26 55 27 75 28 56 29 59 30 74 31 94 32 57 33 58 34
REMARK SMILES IDX 73 36 95 37 60 38 43 39 44 40 53 41 45 42 46 43 52 44 54 45
REMARK SMILES IDX 47 46 48 47 49 48 50 49 51 50 77 51 78 52 87 53 79 54 80 55
REMARK SMILES IDX 86 56 88 57 81 58 82 59 83 60 84 61 85 62 61 63 62 64 71 65
REMARK SMILES IDX 63 66 64 67 70 68 72 69 65 70 66 71 67 72 68 73 69 74 6 75
REMARK SMILES IDX 7 76 8 77 9 78 10 80 11 81 12 82 24 83 13 84 23 85 25 86
REMARK SMILES IDX 26 87 30 88 27 89 29 90 28 91 31 92 33 93 32 94 14 95 15 96
REMARK SMILES IDX 16 97 17 98 18 99 22 100 19 102 21 103 20 104
REMARK H PARENT 3 6 93 24 59 35 8 79 17 101
REMARK Flexibility Score: inf
ROOT
ATOM      1  C   UNL A   1      33.911  29.048  27.413  1.00  0.00     0.023 C 
ENDROOT
BRANCH   1   2
ATOM      2  C   UNL A   1      35.212  29.782  27.713  1.00  0.00     0.116 C 
BRANCH   2   3
ATOM      3  N   UNL A   1      35.292  30.281  29.080  1.00  0.00    -0.352 N 
ATOM      4  O   UNL A   1      36.235  30.619  31.105  1.00  0.00    -0.269 OA
ATOM      5  C   UNL A   1      36.361  30.240  29.945  1.00  0.00     0.251 C 
ATOM      6  H   UNL A   1      34.474  30.703  29.429  1.00  0.00     0.163 HD
BRANCH   5   7
ATOM      7  C   UNL A   1      37.645  29.691  29.466  1.00  0.00     0.039 A 
ATOM      8  C   UNL A   1      38.576  29.187  30.377  1.00  0.00     0.014 A 
ATOM      9  C   UNL A   1      37.947  29.751  28.103  1.00  0.00     0.014 A 
ATOM     10  C   UNL A   1      39.866  28.906  29.949  1.00  0.00     0.010 A 
ATOM     11  C   UNL A   1      39.220  29.380  27.663  1.00  0.00     0.010 A 
ATOM     12  C   UNL A   1      40.205  29.000  28.588  1.00  0.00    -0.014 A 
BRANCH  12  13
ATOM     13  C   UNL A   1      41.591  28.672  28.166  1.00  0.00     0.031 A 
ATOM     14  C   UNL A   1      42.682  29.709  28.198  1.00  0.00     0.074 A 
ATOM     15  C   UNL A   1      41.870  27.405  27.803  1.00  0.00     0.049 A 
ATOM     16  N   UNL A   1      43.953  29.573  27.915  1.00  0.00    -0.248 NA
ATOM     17  C   UNL A   1      42.301  31.076  28.586  1.00  0.00     0.031 C 
ATOM     18  C   UNL A   1      40.890  26.318  27.723  1.00  0.00     0.029 A 
ATOM     19  N   UNL A   1      43.055  26.807  27.465  1.00  0.00    -0.354 N 
ATOM     20  C   UNL A   1      44.517  30.836  28.060  1.00  0.00     0.074 A 
ATOM     21  C   UNL A   1      43.445  31.731  28.442  1.00  0.00     0.031 C 
ATOM     22  C   UNL A   1      41.523  25.177  27.421  1.00  0.00     0.029 A 
ATOM     23  C   UNL A   1      42.940  25.458  27.229  1.00  0.00     0.049 A 
ATOM     24  H   UNL A   1      43.907  27.296  27.398  1.00  0.00     0.167 HD
ATOM     25  C   UNL A   1      45.809  31.210  27.894  1.00  0.00     0.037 A 
ATOM     26  C   UNL A   1      43.871  24.547  26.890  1.00  0.00     0.037 A 
ATOM     27  C   UNL A   1      46.875  30.306  27.546  1.00  0.00     0.049 A 
ATOM     28  C   UNL A   1      45.296  24.986  26.730  1.00  0.00     0.074 A 
ATOM     29  C   UNL A   1      48.225  30.580  27.400  1.00  0.00     0.029 A 
ATOM     30  N   UNL A   1      46.715  28.952  27.292  1.00  0.00    -0.354 N 
ATOM     31  N   UNL A   1      45.813  26.180  26.897  1.00  0.00    -0.248 NA
ATOM     32  C   UNL A   1      46.264  23.957  26.332  1.00  0.00     0.031 C 
ATOM     33  C   UNL A   1      48.874  29.399  27.022  1.00  0.00     0.029 A 
ATOM     34  C   UNL A   1      47.937  28.380  26.974  1.00  0.00     0.049 A 
ATOM     35  H   UNL A   1      45.859  28.467  27.333  1.00  0.00     0.167 HD
ATOM     36  C   UNL A   1      47.170  26.043  26.638  1.00  0.00     0.074 A 
ATOM     37  C   UNL A   1      47.397  24.647  26.322  1.00  0.00     0.031 C 
ATOM     38  C   UNL A   1      48.142  26.988  26.661  1.00  0.00     0.037 A 
BRANCH  25  39
ATOM     39  C   UNL A   1      46.143  32.668  28.066  1.00  0.00     0.058 A 
ATOM     40  C   UNL A   1      46.627  33.181  29.279  1.00  0.00     0.135 A 
ATOM     41  C   UNL A   1      46.011  33.557  26.987  1.00  0.00     0.135 A 
ATOM     42  F   UNL A   1      46.759  32.379  30.348  1.00  0.00    -0.206 F 
ATOM     43  C   UNL A   1      46.943  34.529  29.425  1.00  0.00     0.059 A 
ATOM     44  C   UNL A   1      46.342  34.905  27.102  1.00  0.00     0.059 A 
ATOM     45  F   UNL A   1      45.554  33.120  25.803  1.00  0.00    -0.206 F 
ATOM     46  C   UNL A   1      46.793  35.384  28.331  1.00  0.00     0.060 A 
BRANCH  46  47
ATOM     47  S   UNL A   1      47.200  37.132  28.535  1.00  0.00     0.124 S 
ATOM     48  O   UNL A   1      47.932  37.403  27.303  1.00  0.00    -0.237 OA
ATOM     49  O   UNL A   1      45.883  37.752  28.638  1.00  0.00    -0.237 OA
ATOM     50  O   UNL A   1      47.997  37.155  29.758  1.00  0.00    -0.744 OA
ENDBRANCH  46  47
ENDBRANCH  25  39
BRANCH  26  51
ATOM     51  C   UNL A   1      43.474  23.130  26.696  1.00  0.00     0.058 A 
ATOM     52  C   UNL A   1      43.441  22.559  25.416  1.00  0.00     0.135 A 
ATOM     53  C   UNL A   1      43.158  22.307  27.789  1.00  0.00     0.135 A 
ATOM     54  F   UNL A   1      43.734  23.307  24.341  1.00  0.00    -0.206 F 
ATOM     55  C   UNL A   1      43.101  21.224  25.223  1.00  0.00     0.059 A 
ATOM     56  C   UNL A   1      42.841  20.964  27.624  1.00  0.00     0.059 A 
ATOM     57  F   UNL A   1      43.196  22.803  29.036  1.00  0.00    -0.206 F 
ATOM     58  C   UNL A   1      42.806  20.434  26.335  1.00  0.00     0.060 A 
BRANCH  58  59
ATOM     59  S   UNL A   1      42.427  18.687  26.084  1.00  0.00     0.124 S 
ATOM     60  O   UNL A   1      42.719  18.133  27.401  1.00  0.00    -0.237 OA
ATOM     61  O   UNL A   1      41.018  18.727  25.705  1.00  0.00    -0.237 OA
ATOM     62  O   UNL A   1      43.343  18.297  25.017  1.00  0.00    -0.744 OA
ENDBRANCH  58  59
ENDBRANCH  26  51
BRANCH  38  63
ATOM     63  C   UNL A   1      49.541  26.532  26.360  1.00  0.00     0.058 A 
ATOM     64  C   UNL A   1      50.117  26.711  25.093  1.00  0.00     0.135 A 
ATOM     65  C   UNL A   1      50.320  25.922  27.356  1.00  0.00     0.135 A 
ATOM     66  F   UNL A   1      49.410  27.281  24.104  1.00  0.00    -0.206 F 
ATOM     67  C   UNL A   1      51.408  26.273  24.813  1.00  0.00     0.059 A 
ATOM     68  C   UNL A   1      51.620  25.498  27.107  1.00  0.00     0.059 A 
ATOM     69  F   UNL A   1      49.817  25.736  28.588  1.00  0.00    -0.206 F 
ATOM     70  C   UNL A   1      52.149  25.663  25.827  1.00  0.00     0.060 A 
BRANCH  70  71
ATOM     71  S   UNL A   1      53.827  25.107  25.461  1.00  0.00     0.124 S 
ATOM     72  O   UNL A   1      54.032  25.654  24.124  1.00  0.00    -0.237 OA
ATOM     73  O   UNL A   1      54.607  25.730  26.527  1.00  0.00    -0.237 OA
ATOM     74  O   UNL A   1      53.725  23.653  25.537  1.00  0.00    -0.744 OA
ENDBRANCH  70  71
ENDBRANCH  38  63
ENDBRANCH  12  13
ENDBRANCH   5   7
ENDBRANCH   2   3
ENDBRANCH   1   2
BRANCH   1  75
ATOM     75  C   UNL A   1      32.750  29.938  26.973  1.00  0.00     0.023 C 
BRANCH  75  76
ATOM     76  C   UNL A   1      32.282  29.708  25.542  1.00  0.00     0.116 C 
BRANCH  76  77
ATOM     77  N   UNL A   1      33.397  29.601  24.617  1.00  0.00    -0.356 N 
ATOM     78  C   UNL A   1      33.684  28.632  23.707  1.00  0.00     0.225 C 
ATOM     79  H   UNL A   1      34.044  30.341  24.656  1.00  0.00     0.163 HD
ATOM     80  O   UNL A   1      34.655  28.784  22.966  1.00  0.00    -0.275 OA
BRANCH  78  81
ATOM     81  C   UNL A   1      32.832  27.388  23.652  1.00  0.00     0.107 C 
ATOM     82  C   UNL A   1      33.768  26.206  23.478  1.00  0.00     0.133 C 
ATOM     83  C   UNL A   1      31.893  27.297  22.431  1.00  0.00     0.053 C 
ATOM     84  N   UNL A   1      32.927  25.175  22.908  1.00  0.00    -0.336 N 
ATOM     85  C   UNL A   1      31.735  25.761  22.303  1.00  0.00     0.129 C 
BRANCH  83  86
ATOM     86  C   UNL A   1      30.628  28.126  22.637  1.00  0.00    -0.038 A 
ATOM     87  C   UNL A   1      29.490  27.510  23.226  1.00  0.00     0.008 A 
ATOM     88  C   UNL A   1      30.519  29.470  22.244  1.00  0.00     0.054 A 
ATOM     89  C   UNL A   1      28.260  28.168  23.334  1.00  0.00     0.051 A 
ATOM     90  C   UNL A   1      29.294  30.100  22.370  1.00  0.00     0.166 A 
ATOM     91  C   UNL A   1      28.192  29.462  22.883  1.00  0.00     0.165 A 
ATOM     92  O   UNL A   1      29.022  31.381  21.999  1.00  0.00    -0.454 OA
ATOM     93  O   UNL A   1      27.087  30.251  22.891  1.00  0.00    -0.454 OA
ATOM     94  C   UNL A   1      27.616  31.461  22.314  1.00  0.00     0.468 C 
ENDBRANCH  83  86
BRANCH  84  95
ATOM     95  C   UNL A   1      33.103  23.807  22.985  1.00  0.00     0.277 C 
ATOM     96  O   UNL A   1      34.161  23.284  22.629  1.00  0.00    -0.268 OA
BRANCH  95  97
ATOM     97  C   UNL A   1      31.946  22.954  23.525  1.00  0.00     0.363 C 
BRANCH  97  98
ATOM     98  N   UNL A   1      32.083  22.470  24.909  1.00  0.00    -0.323 N 
ATOM     99  C   UNL A   1      30.848  22.371  25.699  1.00  0.00     0.291 C 
ATOM    100  C   UNL A   1      33.137  23.130  25.692  1.00  0.00     0.291 C 
ATOM    101  H   UNL A   1      32.377  21.509  24.732  1.00  0.00     0.348 HD
ATOM    102  C   UNL A   1      30.456  23.658  26.445  1.00  0.00     0.221 C 
ATOM    103  C   UNL A   1      32.695  24.386  26.456  1.00  0.00     0.221 C 
ATOM    104  O   UNL A   1      31.536  24.129  27.261  1.00  0.00    -0.370 OA
ENDBRANCH  97  98
ENDBRANCH  95  97
ENDBRANCH  84  95
ENDBRANCH  78  81
ENDBRANCH  76  77
ENDBRANCH  75  76
ENDBRANCH   1  75
TORSDOF 18
ENDMDL
MODEL 3
REMARK VINA RESULT:     -12.7      2.596      9.132
REMARK SMILES O=C(NCCCCNC(=O)[C@@H]1CN(C(=O)C[NH+]2CCOCC2)C[C@H]1c1ccc2c(c1)OCO2)c1ccc(-c2c3nc(c(-c4c(F)cc(S(=O)(=O)[O-])cc4F)c4ccc([nH]4)c(-c4c(F)cc(S(=O)(=O)[O-])cc4F)c4nc(c(-c5c(F)cc(S(=O)(=O)[O-])cc5F)c5ccc2[nH]5)C=C4)C=C3)cc1
REMARK SMILES IDX 5 1 4 2 3 3 1 4 2 5 34 7 35 8 99 9 36 10 98 11 37 12 38 13
REMARK SMILES IDX 39 14 92 15 40 16 97 17 91 18 93 19 41 20 96 21 90 22 89 23
REMARK SMILES IDX 42 25 76 26 55 27 75 28 56 29 59 30 74 31 94 32 57 33 58 34
REMARK SMILES IDX 73 36 95 37 60 38 43 39 44 40 53 41 45 42 46 43 52 44 54 45
REMARK SMILES IDX 47 46 48 47 49 48 50 49 51 50 77 51 78 52 87 53 79 54 80 55
REMARK SMILES IDX 86 56 88 57 81 58 82 59 83 60 84 61 85 62 61 63 62 64 71 65
REMARK SMILES IDX 63 66 64 67 70 68 72 69 65 70 66 71 67 72 68 73 69 74 6 75
REMARK SMILES IDX 7 76 8 77 9 78 10 80 11 81 12 82 24 83 13 84 23 85 25 86
REMARK SMILES IDX 26 87 30 88 27 89 29 90 28 91 31 92 33 93 32 94 14 95 15 96
REMARK SMILES IDX 16 97 17 98 18 99 22 100 19 102 21 103 20 104
REMARK H PARENT 3 6 93 24 59 35 8 79 17 101
REMARK Flexibility Score: inf
ROOT
ATOM      1  C   UNL A   1      31.502  32.383  26.743  1.00  0.00     0.023 C 
ENDROOT
BRANCH   1   2
ATOM      2  C   UNL A   1      32.794  32.906  27.355  1.00  0.00     0.116 C 
BRANCH   2   3
ATOM      3  N   UNL A   1      32.663  34.236  27.936  1.00  0.00    -0.352 N 
ATOM      4  O   UNL A   1      33.122  35.920  29.370  1.00  0.00    -0.269 OA
ATOM      5  C   UNL A   1      33.427  34.820  28.920  1.00  0.00     0.251 C 
ATOM      6  H   UNL A   1      31.932  34.789  27.576  1.00  0.00     0.163 HD
BRANCH   5   7
ATOM      7  C   UNL A   1      34.588  34.081  29.453  1.00  0.00     0.039 A 
ATOM      8  C   UNL A   1      34.403  33.077  30.406  1.00  0.00     0.014 A 
ATOM      9  C   UNL A   1      35.875  34.449  29.051  1.00  0.00     0.014 A 
ATOM     10  C   UNL A   1      35.504  32.564  31.080  1.00  0.00     0.010 A 
ATOM     11  C   UNL A   1      36.983  33.864  29.668  1.00  0.00     0.010 A 
ATOM     12  C   UNL A   1      36.806  32.952  30.721  1.00  0.00    -0.014 A 
BRANCH  12  13
ATOM     13  C   UNL A   1      37.959  32.366  31.452  1.00  0.00     0.031 A 
ATOM     14  C   UNL A   1      38.342  32.854  32.824  1.00  0.00     0.074 A 
ATOM     15  C   UNL A   1      38.629  31.345  30.883  1.00  0.00     0.049 A 
ATOM     16  N   UNL A   1      39.285  32.414  33.618  1.00  0.00    -0.248 NA
ATOM     17  C   UNL A   1      37.578  33.984  33.374  1.00  0.00     0.031 C 
ATOM     18  C   UNL A   1      38.355  30.797  29.552  1.00  0.00     0.029 A 
ATOM     19  N   UNL A   1      39.652  30.566  31.357  1.00  0.00    -0.354 N 
ATOM     20  C   UNL A   1      39.251  33.228  34.745  1.00  0.00     0.074 A 
ATOM     21  C   UNL A   1      38.201  34.201  34.525  1.00  0.00     0.031 C 
ATOM     22  C   UNL A   1      39.144  29.734  29.343  1.00  0.00     0.029 A 
ATOM     23  C   UNL A   1      40.019  29.560  30.496  1.00  0.00     0.049 A 
ATOM     24  H   UNL A   1      40.082  30.713  32.231  1.00  0.00     0.167 HD
ATOM     25  C   UNL A   1      40.020  33.166  35.859  1.00  0.00     0.037 A 
ATOM     26  C   UNL A   1      40.959  28.605  30.617  1.00  0.00     0.037 A 
ATOM     27  C   UNL A   1      41.039  32.173  36.083  1.00  0.00     0.049 A 
ATOM     28  C   UNL A   1      41.784  28.548  31.868  1.00  0.00     0.074 A 
ATOM     29  C   UNL A   1      41.841  31.998  37.199  1.00  0.00     0.029 A 
ATOM     30  N   UNL A   1      41.397  31.185  35.178  1.00  0.00    -0.354 N 
ATOM     31  N   UNL A   1      41.718  29.312  32.932  1.00  0.00    -0.248 NA
ATOM     32  C   UNL A   1      42.814  27.505  31.934  1.00  0.00     0.031 C 
ATOM     33  C   UNL A   1      42.709  30.927  36.952  1.00  0.00     0.029 A 
ATOM     34  C   UNL A   1      42.419  30.409  35.701  1.00  0.00     0.049 A 
ATOM     35  H   UNL A   1      40.987  31.055  34.293  1.00  0.00     0.167 HD
ATOM     36  C   UNL A   1      42.688  28.832  33.802  1.00  0.00     0.074 A 
ATOM     37  C   UNL A   1      43.314  27.701  33.147  1.00  0.00     0.031 C 
ATOM     38  C   UNL A   1      43.030  29.286  35.033  1.00  0.00     0.037 A 
BRANCH  25  39
ATOM     39  C   UNL A   1      39.805  34.214  36.918  1.00  0.00     0.058 A 
ATOM     40  C   UNL A   1      40.365  35.496  36.817  1.00  0.00     0.135 A 
ATOM     41  C   UNL A   1      38.994  33.940  38.032  1.00  0.00     0.135 A 
ATOM     42  F   UNL A   1      41.160  35.808  35.781  1.00  0.00    -0.206 F 
ATOM     43  C   UNL A   1      40.152  36.463  37.797  1.00  0.00     0.059 A 
ATOM     44  C   UNL A   1      38.748  34.898  39.012  1.00  0.00     0.059 A 
ATOM     45  F   UNL A   1      38.432  32.730  38.177  1.00  0.00    -0.206 F 
ATOM     46  C   UNL A   1      39.345  36.152  38.893  1.00  0.00     0.060 A 
BRANCH  46  47
ATOM     47  S   UNL A   1      39.082  37.412  40.160  1.00  0.00     0.124 S 
ATOM     48  O   UNL A   1      38.526  36.615  41.248  1.00  0.00    -0.237 OA
ATOM     49  O   UNL A   1      40.429  37.926  40.377  1.00  0.00    -0.237 OA
ATOM     50  O   UNL A   1      38.154  38.343  39.525  1.00  0.00    -0.744 OA
ENDBRANCH  46  47
ENDBRANCH  25  39
BRANCH  26  51
ATOM     51  C   UNL A   1      41.151  27.621  29.521  1.00  0.00     0.058 A 
ATOM     52  C   UNL A   1      42.267  27.693  28.676  1.00  0.00     0.135 A 
ATOM     53  C   UNL A   1      40.244  26.568  29.323  1.00  0.00     0.135 A 
ATOM     54  F   UNL A   1      43.161  28.682  28.827  1.00  0.00    -0.206 F 
ATOM     55  C   UNL A   1      42.475  26.759  27.666  1.00  0.00     0.059 A 
ATOM     56  C   UNL A   1      40.444  25.609  28.337  1.00  0.00     0.059 A 
ATOM     57  F   UNL A   1      39.171  26.447  30.119  1.00  0.00    -0.206 F 
ATOM     58  C   UNL A   1      41.559  25.719  27.507  1.00  0.00     0.060 A 
BRANCH  58  59
ATOM     59  S   UNL A   1      41.867  24.475  26.235  1.00  0.00     0.124 S 
ATOM     60  O   UNL A   1      40.681  23.636  26.354  1.00  0.00    -0.237 OA
ATOM     61  O   UNL A   1      41.958  25.287  25.025  1.00  0.00    -0.237 OA
ATOM     62  O   UNL A   1      43.121  23.864  26.665  1.00  0.00    -0.744 OA
ENDBRANCH  58  59
ENDBRANCH  26  51
BRANCH  38  63
ATOM     63  C   UNL A   1      44.113  28.539  35.757  1.00  0.00     0.058 A 
ATOM     64  C   UNL A   1      43.819  27.477  36.626  1.00  0.00     0.135 A 
ATOM     65  C   UNL A   1      45.461  28.880  35.567  1.00  0.00     0.135 A 
ATOM     66  F   UNL A   1      42.544  27.119  36.848  1.00  0.00    -0.206 F 
ATOM     67  C   UNL A   1      44.824  26.798  37.308  1.00  0.00     0.059 A 
ATOM     68  C   UNL A   1      46.484  28.200  36.219  1.00  0.00     0.059 A 
ATOM     69  F   UNL A   1      45.795  29.884  34.739  1.00  0.00    -0.206 F 
ATOM     70  C   UNL A   1      46.153  27.171  37.100  1.00  0.00     0.060 A 
BRANCH  70  71
ATOM     71  S   UNL A   1      47.453  26.278  37.980  1.00  0.00     0.124 S 
ATOM     72  O   UNL A   1      47.090  24.891  37.709  1.00  0.00    -0.237 OA
ATOM     73  O   UNL A   1      48.665  26.756  37.322  1.00  0.00    -0.237 OA
ATOM     74  O   UNL A   1      47.286  26.714  39.363  1.00  0.00    -0.744 OA
ENDBRANCH  70  71
ENDBRANCH  38  63
ENDBRANCH  12  13
ENDBRANCH   5   7
ENDBRANCH   2   3
ENDBRANCH   1   2
BRANCH   1  75
ATOM     75  C   UNL A   1      31.568  30.954  26.207  1.00  0.00     0.023 C 
BRANCH  75  76
ATOM     76  C   UNL A   1      32.811  30.178  26.626  1.00  0.00     0.116 C 
BRANCH  76  77
ATOM     77  N   UNL A   1      33.571  29.712  25.479  1.00  0.00    -0.356 N 
ATOM     78  C   UNL A   1      33.434  28.574  24.748  1.00  0.00     0.225 C 
ATOM     79  H   UNL A   1      34.296  30.310  25.188  1.00  0.00     0.163 HD
ATOM     80  O   UNL A   1      34.148  28.415  23.759  1.00  0.00    -0.275 OA
BRANCH  78  81
ATOM     81  C   UNL A   1      32.441  27.525  25.185  1.00  0.00     0.107 C 
ATOM     82  C   UNL A   1      33.232  26.365  25.759  1.00  0.00     0.133 C 
ATOM     83  C   UNL A   1      31.626  26.885  24.041  1.00  0.00     0.053 C 
ATOM     84  N   UNL A   1      32.329  25.238  25.651  1.00  0.00    -0.336 N 
ATOM     85  C   UNL A   1      31.288  25.508  24.664  1.00  0.00     0.129 C 
BRANCH  83  86
ATOM     86  C   UNL A   1      30.463  27.778  23.618  1.00  0.00    -0.038 A 
ATOM     87  C   UNL A   1      29.134  27.346  23.883  1.00  0.00     0.008 A 
ATOM     88  C   UNL A   1      30.636  28.999  22.948  1.00  0.00     0.054 A 
ATOM     89  C   UNL A   1      28.017  28.049  23.417  1.00  0.00     0.051 A 
ATOM     90  C   UNL A   1      29.515  29.679  22.507  1.00  0.00     0.166 A 
ATOM     91  C   UNL A   1      28.244  29.209  22.719  1.00  0.00     0.165 A 
ATOM     92  O   UNL A   1      29.523  30.849  21.812  1.00  0.00    -0.454 OA
ATOM     93  O   UNL A   1      27.291  30.013  22.179  1.00  0.00    -0.454 OA
ATOM     94  C   UNL A   1      28.110  31.043  21.592  1.00  0.00     0.468 C 
ENDBRANCH  83  86
BRANCH  84  95
ATOM     95  C   UNL A   1      32.321  24.088  26.417  1.00  0.00     0.277 C 
ATOM     96  O   UNL A   1      31.435  23.890  27.252  1.00  0.00    -0.268 OA
BRANCH  95  97
ATOM     97  C   UNL A   1      33.445  23.065  26.203  1.00  0.00     0.363 C 
BRANCH  97  98
ATOM     98  N   UNL A   1      33.466  22.384  24.898  1.00  0.00    -0.323 N 
ATOM     99  C   UNL A   1      32.359  21.458  24.618  1.00  0.00     0.291 C 
ATOM    100  C   UNL A   1      34.750  21.761  24.547  1.00  0.00     0.291 C 
ATOM    101  H   UNL A   1      33.323  23.182  24.279  1.00  0.00     0.348 HD
ATOM    102  C   UNL A   1      32.588  20.016  25.103  1.00  0.00     0.221 C 
ATOM    103  C   UNL A   1      34.921  20.309  25.011  1.00  0.00     0.221 C 
ATOM    104  O   UNL A   1      33.820  19.491  24.593  1.00  0.00    -0.370 OA
ENDBRANCH  97  98
ENDBRANCH  95  97
ENDBRANCH  84  95
ENDBRANCH  78  81
ENDBRANCH  76  77
ENDBRANCH  75  76
ENDBRANCH   1  75
TORSDOF 18
ENDMDL
