MODEL 1
REMARK VINA RESULT:     -11.9      0.000      0.000
REMARK SMILES C#Cc1cc(Cl)cc2c1O[C@H](C(F)(F)F)C(C(=O)NCCCCNC(=O)c1ccc(-c3c4nc(c(-c5c(F)cc(S(=O)(=O)[O-])cc5F)c5ccc([nH]5)c(-c5c(F)cc(S(=O)(=O)[O-])cc5F)c5nc(c(-c6c(F)cc(S(=O)(=O)[O-])cc6F)c6ccc3[nH]6)C=C5)C=C4)cc1)=C2
REMARK SMILES IDX 22 1 21 2 20 3 19 4 17 5 18 6 16 8 3 9 4 10 9 11 5 12 8 13
REMARK SMILES IDX 10 14 6 15 7 16 93 17 11 18 2 19 1 20 12 21 13 22 14 23
REMARK SMILES IDX 15 24 23 25 24 26 25 27 26 29 27 30 28 31 92 32 29 33 91 34
REMARK SMILES IDX 30 35 31 36 32 37 85 38 33 39 90 40 84 41 86 42 34 43 89 44
REMARK SMILES IDX 83 45 82 46 35 48 69 49 48 50 68 51 49 52 52 53 67 54 87 55
REMARK SMILES IDX 50 56 51 57 66 59 88 60 53 61 36 62 37 63 46 64 38 65 39 66
REMARK SMILES IDX 45 67 47 68 40 69 41 70 42 71 43 72 44 73 70 74 71 75 80 76
REMARK SMILES IDX 72 77 73 78 79 79 81 80 74 81 75 82 76 83 77 84 78 85 54 86
REMARK SMILES IDX 55 87 64 88 56 89 57 90 63 91 65 92 58 93 59 94 60 95 61 96
REMARK SMILES IDX 62 97
REMARK H PARENT 19 7 24 28 86 47 52 58
REMARK Flexibility Score: inf
ROOT
ATOM      1  C   UNL A   1      33.586  28.723  25.444  1.00  0.00     0.023 C 
ENDROOT
BRANCH   1   2
ATOM      2  C   UNL A   1      33.655  27.361  24.766  1.00  0.00     0.023 C 
BRANCH   2   3
ATOM      3  C   UNL A   1      32.298  26.864  24.287  1.00  0.00     0.116 C 
BRANCH   3   4
ATOM      4  N   UNL A   1      31.534  26.237  25.354  1.00  0.00    -0.352 N 
ATOM      5  C   UNL A   1      31.532  25.045  26.000  1.00  0.00     0.251 C 
ATOM      6  O   UNL A   1      30.714  24.929  26.917  1.00  0.00    -0.270 OA
ATOM      7  H   UNL A   1      30.833  26.835  25.696  1.00  0.00     0.163 HD
BRANCH   5   8
ATOM      8  C   UNL A   1      32.434  23.902  25.670  1.00  0.00     0.067 C 
ATOM      9  C   UNL A   1      34.978  20.614  25.050  1.00  0.00     0.068 A 
ATOM     10  C   UNL A   1      36.350  20.748  25.248  1.00  0.00     0.041 A 
ATOM     11  C   UNL A   1      34.135  21.709  25.284  1.00  0.00     0.143 A 
ATOM     12  C   UNL A   1      36.864  21.971  25.682  1.00  0.00     0.043 A 
ATOM     13  C   UNL A   1      34.647  22.934  25.724  1.00  0.00     0.020 A 
ATOM     14  O   UNL A   1      32.798  21.501  25.114  1.00  0.00    -0.474 OA
ATOM     15  Cl  UNL A   1      38.559  22.132  25.935  1.00  0.00    -0.084 Cl
ATOM     16  C   UNL A   1      36.023  23.061  25.921  1.00  0.00     0.032 A 
ATOM     17  C   UNL A   1      33.729  24.032  26.015  1.00  0.00     0.025 C 
ATOM     18  C   UNL A   1      31.958  22.666  24.970  1.00  0.00     0.314 C 
BRANCH   9  19
ATOM     19  C   UNL A   1      34.429  19.365  24.609  1.00  0.00    -0.067 C 
ATOM     20  C   UNL A   1      34.040  18.284  24.257  1.00  0.00     0.010 C 
ENDBRANCH   9  19
BRANCH  18  21
ATOM     21  C   UNL A   1      31.673  22.906  23.475  1.00  0.00     0.429 C 
ATOM     22  F   UNL A   1      30.428  23.417  23.306  1.00  0.00    -0.167 F 
ATOM     23  F   UNL A   1      32.528  23.792  22.911  1.00  0.00    -0.167 F 
ATOM     24  F   UNL A   1      31.751  21.770  22.745  1.00  0.00    -0.167 F 
ENDBRANCH  18  21
ENDBRANCH   5   8
ENDBRANCH   3   4
ENDBRANCH   2   3
ENDBRANCH   1   2
BRANCH   1  25
ATOM     25  C   UNL A   1      33.699  28.678  26.964  1.00  0.00     0.116 C 
BRANCH  25  26
ATOM     26  N   UNL A   1      33.570  29.987  27.592  1.00  0.00    -0.352 N 
ATOM     27  C   UNL A   1      34.508  30.657  28.342  1.00  0.00     0.251 C 
ATOM     28  H   UNL A   1      32.709  30.447  27.464  1.00  0.00     0.163 HD
ATOM     29  O   UNL A   1      34.226  31.697  28.925  1.00  0.00    -0.269 OA
BRANCH  27  30
ATOM     30  C   UNL A   1      35.851  30.062  28.454  1.00  0.00     0.039 A 
ATOM     31  C   UNL A   1      36.704  30.100  27.352  1.00  0.00     0.014 A 
ATOM     32  C   UNL A   1      36.294  29.587  29.693  1.00  0.00     0.014 A 
ATOM     33  C   UNL A   1      38.036  29.720  27.513  1.00  0.00     0.010 A 
ATOM     34  C   UNL A   1      37.641  29.307  29.872  1.00  0.00     0.010 A 
ATOM     35  C   UNL A   1      38.522  29.359  28.782  1.00  0.00    -0.014 A 
BRANCH  35  36
ATOM     36  C   UNL A   1      39.948  29.002  28.981  1.00  0.00     0.031 A 
ATOM     37  C   UNL A   1      40.892  30.015  29.563  1.00  0.00     0.074 A 
ATOM     38  C   UNL A   1      40.394  27.784  28.612  1.00  0.00     0.049 A 
ATOM     39  N   UNL A   1      42.172  29.907  29.801  1.00  0.00    -0.248 NA
ATOM     40  C   UNL A   1      40.328  31.334  29.900  1.00  0.00     0.031 C 
ATOM     41  C   UNL A   1      39.576  26.733  28.003  1.00  0.00     0.029 A 
ATOM     42  N   UNL A   1      41.642  27.223  28.701  1.00  0.00    -0.354 N 
ATOM     43  C   UNL A   1      42.563  31.137  30.317  1.00  0.00     0.074 A 
ATOM     44  C   UNL A   1      41.405  32.000  30.283  1.00  0.00     0.031 C 
ATOM     45  C   UNL A   1      40.334  25.641  27.814  1.00  0.00     0.029 A 
ATOM     46  C   UNL A   1      41.701  25.927  28.244  1.00  0.00     0.049 A 
ATOM     47  H   UNL A   1      42.424  27.703  29.056  1.00  0.00     0.167 HD
ATOM     48  C   UNL A   1      43.769  31.500  30.810  1.00  0.00     0.037 A 
ATOM     49  C   UNL A   1      42.737  25.068  28.181  1.00  0.00     0.037 A 
ATOM     50  C   UNL A   1      44.912  30.628  30.850  1.00  0.00     0.049 A 
ATOM     51  C   UNL A   1      44.082  25.510  28.690  1.00  0.00     0.074 A 
ATOM     52  C   UNL A   1      46.171  30.888  31.359  1.00  0.00     0.029 A 
ATOM     53  N   UNL A   1      44.939  29.333  30.353  1.00  0.00    -0.354 N 
ATOM     54  N   UNL A   1      44.422  26.656  29.231  1.00  0.00    -0.248 NA
ATOM     55  C   UNL A   1      45.184  24.545  28.586  1.00  0.00     0.031 C 
ATOM     56  C   UNL A   1      46.977  29.773  31.113  1.00  0.00     0.029 A 
ATOM     57  C   UNL A   1      46.204  28.791  30.513  1.00  0.00     0.049 A 
ATOM     58  H   UNL A   1      44.172  28.867  29.947  1.00  0.00     0.167 HD
ATOM     59  C   UNL A   1      45.771  26.543  29.550  1.00  0.00     0.074 A 
ATOM     60  C   UNL A   1      46.180  25.210  29.158  1.00  0.00     0.031 C 
ATOM     61  C   UNL A   1      46.596  27.461  30.115  1.00  0.00     0.037 A 
BRANCH  48  62
ATOM     62  C   UNL A   1      43.908  32.898  31.352  1.00  0.00     0.058 A 
ATOM     63  C   UNL A   1      44.299  33.970  30.532  1.00  0.00     0.135 A 
ATOM     64  C   UNL A   1      43.616  33.176  32.696  1.00  0.00     0.135 A 
ATOM     65  F   UNL A   1      44.607  33.760  29.242  1.00  0.00    -0.206 F 
ATOM     66  C   UNL A   1      44.425  35.261  31.034  1.00  0.00     0.059 A 
ATOM     67  C   UNL A   1      43.703  34.466  33.211  1.00  0.00     0.059 A 
ATOM     68  F   UNL A   1      43.243  32.190  33.526  1.00  0.00    -0.206 F 
ATOM     69  C   UNL A   1      44.121  35.499  32.374  1.00  0.00     0.060 A 
BRANCH  69  70
ATOM     70  S   UNL A   1      44.291  37.182  33.003  1.00  0.00     0.124 S 
ATOM     71  O   UNL A   1      44.262  37.960  31.769  1.00  0.00    -0.237 OA
ATOM     72  O   UNL A   1      43.117  37.310  33.861  1.00  0.00    -0.237 OA
ATOM     73  O   UNL A   1      45.574  37.160  33.698  1.00  0.00    -0.744 OA
ENDBRANCH  69  70
ENDBRANCH  48  62
BRANCH  49  74
ATOM     74  C   UNL A   1      42.524  23.695  27.648  1.00  0.00     0.058 A 
ATOM     75  C   UNL A   1      42.563  23.442  26.268  1.00  0.00     0.135 A 
ATOM     76  C   UNL A   1      42.327  22.599  28.505  1.00  0.00     0.135 A 
ATOM     77  F   UNL A   1      42.738  24.456  25.407  1.00  0.00    -0.206 F 
ATOM     78  C   UNL A   1      42.417  22.157  25.757  1.00  0.00     0.059 A 
ATOM     79  C   UNL A   1      42.206  21.300  28.018  1.00  0.00     0.059 A 
ATOM     80  F   UNL A   1      42.293  22.782  29.835  1.00  0.00    -0.206 F 
ATOM     81  C   UNL A   1      42.252  21.090  26.641  1.00  0.00     0.060 A 
BRANCH  81  82
ATOM     82  S   UNL A   1      42.144  19.418  25.965  1.00  0.00     0.124 S 
ATOM     83  O   UNL A   1      43.013  19.515  24.798  1.00  0.00    -0.237 OA
ATOM     84  O   UNL A   1      42.647  18.613  27.073  1.00  0.00    -0.237 OA
ATOM     85  O   UNL A   1      40.721  19.261  25.681  1.00  0.00    -0.744 OA
ENDBRANCH  81  82
ENDBRANCH  49  74
BRANCH  61  86
ATOM     86  C   UNL A   1      48.027  27.062  30.359  1.00  0.00     0.058 A 
ATOM     87  C   UNL A   1      49.045  27.380  29.449  1.00  0.00     0.135 A 
ATOM     88  C   UNL A   1      48.395  26.431  31.561  1.00  0.00     0.135 A 
ATOM     89  F   UNL A   1      48.749  27.979  28.285  1.00  0.00    -0.206 F 
ATOM     90  C   UNL A   1      50.377  27.075  29.713  1.00  0.00     0.059 A 
ATOM     91  C   UNL A   1      49.723  26.147  31.860  1.00  0.00     0.059 A 
ATOM     92  F   UNL A   1      47.462  26.115  32.473  1.00  0.00    -0.206 F 
ATOM     93  C   UNL A   1      50.707  26.465  30.925  1.00  0.00     0.060 A 
BRANCH  93  94
ATOM     94  S   UNL A   1      52.444  26.116  31.267  1.00  0.00     0.124 S 
ATOM     95  O   UNL A   1      52.362  24.803  31.900  1.00  0.00    -0.237 OA
ATOM     96  O   UNL A   1      53.032  26.140  29.931  1.00  0.00    -0.237 OA
ATOM     97  O   UNL A   1      52.847  27.211  32.144  1.00  0.00    -0.744 OA
ENDBRANCH  93  94
ENDBRANCH  61  86
ENDBRANCH  35  36
ENDBRANCH  27  30
ENDBRANCH  25  26
ENDBRANCH   1  25
TORSDOF 16
ENDMDL
MODEL 2
REMARK VINA RESULT:     -11.6      4.825     10.279
REMARK SMILES C#Cc1cc(Cl)cc2c1O[C@H](C(F)(F)F)C(C(=O)NCCCCNC(=O)c1ccc(-c3c4nc(c(-c5c(F)cc(S(=O)(=O)[O-])cc5F)c5ccc([nH]5)c(-c5c(F)cc(S(=O)(=O)[O-])cc5F)c5nc(c(-c6c(F)cc(S(=O)(=O)[O-])cc6F)c6ccc3[nH]6)C=C5)C=C4)cc1)=C2
REMARK SMILES IDX 22 1 21 2 20 3 19 4 17 5 18 6 16 8 3 9 4 10 9 11 5 12 8 13
REMARK SMILES IDX 10 14 6 15 7 16 93 17 11 18 2 19 1 20 12 21 13 22 14 23
REMARK SMILES IDX 15 24 23 25 24 26 25 27 26 29 27 30 28 31 92 32 29 33 91 34
REMARK SMILES IDX 30 35 31 36 32 37 85 38 33 39 90 40 84 41 86 42 34 43 89 44
REMARK SMILES IDX 83 45 82 46 35 48 69 49 48 50 68 51 49 52 52 53 67 54 87 55
REMARK SMILES IDX 50 56 51 57 66 59 88 60 53 61 36 62 37 63 46 64 38 65 39 66
REMARK SMILES IDX 45 67 47 68 40 69 41 70 42 71 43 72 44 73 70 74 71 75 80 76
REMARK SMILES IDX 72 77 73 78 79 79 81 80 74 81 75 82 76 83 77 84 78 85 54 86
REMARK SMILES IDX 55 87 64 88 56 89 57 90 63 91 65 92 58 93 59 94 60 95 61 96
REMARK SMILES IDX 62 97
REMARK H PARENT 19 7 24 28 86 47 52 58
REMARK Flexibility Score: inf
ROOT
ATOM      1  C   UNL A   1      40.062  22.587  27.539  1.00  0.00     0.023 C 
ENDROOT
BRANCH   1   2
ATOM      2  C   UNL A   1      39.267  22.218  26.293  1.00  0.00     0.023 C 
BRANCH   2   3
ATOM      3  C   UNL A   1      38.165  23.217  25.969  1.00  0.00     0.116 C 
BRANCH   3   4
ATOM      4  N   UNL A   1      37.649  23.048  24.620  1.00  0.00    -0.352 N 
ATOM      5  C   UNL A   1      36.454  23.187  23.994  1.00  0.00     0.251 C 
ATOM      6  O   UNL A   1      36.455  22.980  22.776  1.00  0.00    -0.270 OA
ATOM      7  H   UNL A   1      38.352  22.755  23.998  1.00  0.00     0.163 HD
BRANCH   5   8
ATOM      8  C   UNL A   1      35.179  23.559  24.675  1.00  0.00     0.067 C 
ATOM      9  C   UNL A   1      31.474  24.686  26.310  1.00  0.00     0.068 A 
ATOM     10  C   UNL A   1      31.212  26.026  26.581  1.00  0.00     0.041 A 
ATOM     11  C   UNL A   1      32.703  24.323  25.742  1.00  0.00     0.143 A 
ATOM     12  C   UNL A   1      32.175  26.989  26.277  1.00  0.00     0.043 A 
ATOM     13  C   UNL A   1      33.667  25.286  25.430  1.00  0.00     0.020 A 
ATOM     14  O   UNL A   1      32.882  23.000  25.462  1.00  0.00    -0.474 OA
ATOM     15  Cl  UNL A   1      31.844  28.646  26.603  1.00  0.00    -0.084 Cl
ATOM     16  C   UNL A   1      33.397  26.628  25.703  1.00  0.00     0.032 A 
ATOM     17  C   UNL A   1      34.910  24.874  24.782  1.00  0.00     0.025 C 
ATOM     18  C   UNL A   1      34.234  22.545  25.244  1.00  0.00     0.314 C 
BRANCH   9  19
ATOM     19  C   UNL A   1      30.497  23.681  26.612  1.00  0.00    -0.067 C 
ATOM     20  C   UNL A   1      29.672  22.870  26.940  1.00  0.00     0.010 C 
ENDBRANCH   9  19
BRANCH  18  21
ATOM     21  C   UNL A   1      34.768  21.900  26.537  1.00  0.00     0.429 C 
ATOM     22  F   UNL A   1      33.807  21.140  27.119  1.00  0.00    -0.167 F 
ATOM     23  F   UNL A   1      35.823  21.080  26.321  1.00  0.00    -0.167 F 
ATOM     24  F   UNL A   1      35.167  22.819  27.447  1.00  0.00    -0.167 F 
ENDBRANCH  18  21
ENDBRANCH   5   8
ENDBRANCH   3   4
ENDBRANCH   2   3
ENDBRANCH   1   2
BRANCH   1  25
ATOM     25  C   UNL A   1      41.515  22.961  27.272  1.00  0.00     0.116 C 
BRANCH  25  26
ATOM     26  N   UNL A   1      41.687  23.812  26.100  1.00  0.00    -0.352 N 
ATOM     27  C   UNL A   1      41.656  25.186  26.047  1.00  0.00     0.251 C 
ATOM     28  H   UNL A   1      41.844  23.349  25.247  1.00  0.00     0.163 HD
ATOM     29  O   UNL A   1      41.684  25.778  24.974  1.00  0.00    -0.269 OA
BRANCH  27  30
ATOM     30  C   UNL A   1      41.547  25.922  27.318  1.00  0.00     0.039 A 
ATOM     31  C   UNL A   1      42.619  26.706  27.742  1.00  0.00     0.014 A 
ATOM     32  C   UNL A   1      40.332  25.927  28.011  1.00  0.00     0.014 A 
ATOM     33  C   UNL A   1      42.447  27.555  28.835  1.00  0.00     0.010 A 
ATOM     34  C   UNL A   1      40.134  26.846  29.032  1.00  0.00     0.010 A 
ATOM     35  C   UNL A   1      41.193  27.659  29.462  1.00  0.00    -0.014 A 
BRANCH  35  36
ATOM     36  C   UNL A   1      40.979  28.595  30.591  1.00  0.00     0.031 A 
ATOM     37  C   UNL A   1      41.867  28.513  31.800  1.00  0.00     0.074 A 
ATOM     38  C   UNL A   1      39.974  29.492  30.541  1.00  0.00     0.049 A 
ATOM     39  N   UNL A   1      41.836  29.226  32.896  1.00  0.00    -0.248 NA
ATOM     40  C   UNL A   1      42.914  27.477  31.789  1.00  0.00     0.031 C 
ATOM     41  C   UNL A   1      39.026  29.638  29.434  1.00  0.00     0.029 A 
ATOM     42  N   UNL A   1      39.586  30.454  31.438  1.00  0.00    -0.354 N 
ATOM     43  C   UNL A   1      42.857  28.728  33.696  1.00  0.00     0.074 A 
ATOM     44  C   UNL A   1      43.436  27.603  32.998  1.00  0.00     0.031 C 
ATOM     45  C   UNL A   1      38.195  30.660  29.699  1.00  0.00     0.029 A 
ATOM     46  C   UNL A   1      38.520  31.211  31.012  1.00  0.00     0.049 A 
ATOM     47  H   UNL A   1      40.028  30.590  32.307  1.00  0.00     0.167 HD
ATOM     48  C   UNL A   1      43.296  29.191  34.889  1.00  0.00     0.037 A 
ATOM     49  C   UNL A   1      37.877  32.233  31.612  1.00  0.00     0.037 A 
ATOM     50  C   UNL A   1      42.719  30.319  35.569  1.00  0.00     0.049 A 
ATOM     51  C   UNL A   1      38.352  32.701  32.961  1.00  0.00     0.074 A 
ATOM     52  C   UNL A   1      43.111  30.890  36.767  1.00  0.00     0.029 A 
ATOM     53  N   UNL A   1      41.623  31.042  35.119  1.00  0.00    -0.354 N 
ATOM     54  N   UNL A   1      39.357  32.258  33.680  1.00  0.00    -0.248 NA
ATOM     55  C   UNL A   1      37.611  33.806  33.582  1.00  0.00     0.031 C 
ATOM     56  C   UNL A   1      42.213  31.917  37.072  1.00  0.00     0.029 A 
ATOM     57  C   UNL A   1      41.304  32.033  36.033  1.00  0.00     0.049 A 
ATOM     58  H   UNL A   1      41.144  30.875  34.275  1.00  0.00     0.167 HD
ATOM     59  C   UNL A   1      39.382  33.044  34.827  1.00  0.00     0.074 A 
ATOM     60  C   UNL A   1      38.303  34.001  34.697  1.00  0.00     0.031 C 
ATOM     61  C   UNL A   1      40.222  32.978  35.891  1.00  0.00     0.037 A 
BRANCH  48  62
ATOM     62  C   UNL A   1      44.460  28.481  35.526  1.00  0.00     0.058 A 
ATOM     63  C   UNL A   1      45.788  28.852  35.256  1.00  0.00     0.135 A 
ATOM     64  C   UNL A   1      44.247  27.440  36.443  1.00  0.00     0.135 A 
ATOM     65  F   UNL A   1      46.052  29.830  34.373  1.00  0.00    -0.206 F 
ATOM     66  C   UNL A   1      46.862  28.196  35.847  1.00  0.00     0.059 A 
ATOM     67  C   UNL A   1      45.306  26.793  37.072  1.00  0.00     0.059 A 
ATOM     68  F   UNL A   1      43.000  27.041  36.737  1.00  0.00    -0.206 F 
ATOM     69  C   UNL A   1      46.610  27.169  36.757  1.00  0.00     0.060 A 
BRANCH  69  70
ATOM     70  S   UNL A   1      48.019  26.332  37.513  1.00  0.00     0.124 S 
ATOM     71  O   UNL A   1      47.580  26.215  38.901  1.00  0.00    -0.237 OA
ATOM     72  O   UNL A   1      48.077  25.084  36.760  1.00  0.00    -0.237 OA
ATOM     73  O   UNL A   1      49.127  27.253  37.284  1.00  0.00    -0.744 OA
ENDBRANCH  69  70
ENDBRANCH  48  62
BRANCH  49  74
ATOM     74  C   UNL A   1      36.743  32.900  30.916  1.00  0.00     0.058 A 
ATOM     75  C   UNL A   1      35.415  32.635  31.284  1.00  0.00     0.135 A 
ATOM     76  C   UNL A   1      36.962  33.851  29.906  1.00  0.00     0.135 A 
ATOM     77  F   UNL A   1      35.152  31.727  32.236  1.00  0.00    -0.206 F 
ATOM     78  C   UNL A   1      34.346  33.288  30.679  1.00  0.00     0.059 A 
ATOM     79  C   UNL A   1      35.910  34.538  29.305  1.00  0.00     0.059 A 
ATOM     80  F   UNL A   1      38.213  34.152  29.524  1.00  0.00    -0.206 F 
ATOM     81  C   UNL A   1      34.604  34.247  29.699  1.00  0.00     0.060 A 
BRANCH  81  82
ATOM     82  S   UNL A   1      33.210  35.143  28.980  1.00  0.00     0.124 S 
ATOM     83  O   UNL A   1      32.420  35.460  30.164  1.00  0.00    -0.237 OA
ATOM     84  O   UNL A   1      33.877  36.269  28.335  1.00  0.00    -0.237 OA
ATOM     85  O   UNL A   1      32.617  34.168  28.069  1.00  0.00    -0.744 OA
ENDBRANCH  81  82
ENDBRANCH  49  74
BRANCH  61  86
ATOM     86  C   UNL A   1      40.025  33.972  37.003  1.00  0.00     0.058 A 
ATOM     87  C   UNL A   1      40.642  35.232  36.982  1.00  0.00     0.135 A 
ATOM     88  C   UNL A   1      39.138  33.694  38.058  1.00  0.00     0.135 A 
ATOM     89  F   UNL A   1      41.501  35.548  36.001  1.00  0.00    -0.206 F 
ATOM     90  C   UNL A   1      40.400  36.176  37.975  1.00  0.00     0.059 A 
ATOM     91  C   UNL A   1      38.855  34.635  39.043  1.00  0.00     0.059 A 
ATOM     92  F   UNL A   1      38.511  32.509  38.121  1.00  0.00    -0.206 F 
ATOM     93  C   UNL A   1      39.498  35.871  38.998  1.00  0.00     0.060 A 
BRANCH  93  94
ATOM     94  S   UNL A   1      39.165  37.125  40.252  1.00  0.00     0.124 S 
ATOM     95  O   UNL A   1      40.513  37.472  40.688  1.00  0.00    -0.237 OA
ATOM     96  O   UNL A   1      38.463  38.149  39.485  1.00  0.00    -0.237 OA
ATOM     97  O   UNL A   1      38.351  36.417  41.235  1.00  0.00    -0.744 OA
ENDBRANCH  93  94
ENDBRANCH  61  86
ENDBRANCH  35  36
ENDBRANCH  27  30
ENDBRANCH  25  26
ENDBRANCH   1  25
TORSDOF 16
ENDMDL
MODEL 3
REMARK VINA RESULT:     -11.3      1.503      2.022
REMARK SMILES C#Cc1cc(Cl)cc2c1O[C@H](C(F)(F)F)C(C(=O)NCCCCNC(=O)c1ccc(-c3c4nc(c(-c5c(F)cc(S(=O)(=O)[O-])cc5F)c5ccc([nH]5)c(-c5c(F)cc(S(=O)(=O)[O-])cc5F)c5nc(c(-c6c(F)cc(S(=O)(=O)[O-])cc6F)c6ccc3[nH]6)C=C5)C=C4)cc1)=C2
REMARK SMILES IDX 22 1 21 2 20 3 19 4 17 5 18 6 16 8 3 9 4 10 9 11 5 12 8 13
REMARK SMILES IDX 10 14 6 15 7 16 93 17 11 18 2 19 1 20 12 21 13 22 14 23
REMARK SMILES IDX 15 24 23 25 24 26 25 27 26 29 27 30 28 31 92 32 29 33 91 34
REMARK SMILES IDX 30 35 31 36 32 37 85 38 33 39 90 40 84 41 86 42 34 43 89 44
REMARK SMILES IDX 83 45 82 46 35 48 69 49 48 50 68 51 49 52 52 53 67 54 87 55
REMARK SMILES IDX 50 56 51 57 66 59 88 60 53 61 36 62 37 63 46 64 38 65 39 66
REMARK SMILES IDX 45 67 47 68 40 69 41 70 42 71 43 72 44 73 70 74 71 75 80 76
REMARK SMILES IDX 72 77 73 78 79 79 81 80 74 81 75 82 76 83 77 84 78 85 54 86
REMARK SMILES IDX 55 87 64 88 56 89 57 90 63 91 65 92 58 93 59 94 60 95 61 96
REMARK SMILES IDX 62 97
REMARK H PARENT 19 7 24 28 86 47 52 58
REMARK Flexibility Score: inf
ROOT
ATOM      1  C   UNL A   1      32.530  28.021  26.015  1.00  0.00     0.023 C 
ENDROOT
BRANCH   1   2
ATOM      2  C   UNL A   1      31.426  27.155  26.609  1.00  0.00     0.023 C 
BRANCH   2   3
ATOM      3  C   UNL A   1      31.279  25.811  25.908  1.00  0.00     0.116 C 
BRANCH   3   4
ATOM      4  N   UNL A   1      31.659  25.879  24.506  1.00  0.00    -0.352 N 
ATOM      5  C   UNL A   1      32.376  25.122  23.639  1.00  0.00     0.251 C 
ATOM      6  O   UNL A   1      32.419  25.531  22.474  1.00  0.00    -0.270 OA
ATOM      7  H   UNL A   1      31.303  26.687  24.073  1.00  0.00     0.163 HD
BRANCH   5   8
ATOM      8  C   UNL A   1      33.096  23.866  24.005  1.00  0.00     0.067 C 
ATOM      9  C   UNL A   1      35.108  20.248  24.731  1.00  0.00     0.068 A 
ATOM     10  C   UNL A   1      34.383  19.072  24.902  1.00  0.00     0.041 A 
ATOM     11  C   UNL A   1      34.429  21.445  24.464  1.00  0.00     0.143 A 
ATOM     12  C   UNL A   1      32.991  19.102  24.799  1.00  0.00     0.043 A 
ATOM     13  C   UNL A   1      33.035  21.477  24.355  1.00  0.00     0.020 A 
ATOM     14  O   UNL A   1      35.197  22.554  24.265  1.00  0.00    -0.474 OA
ATOM     15  Cl  UNL A   1      32.099  17.644  25.001  1.00  0.00    -0.084 Cl
ATOM     16  C   UNL A   1      32.315  20.293  24.526  1.00  0.00     0.032 A 
ATOM     17  C   UNL A   1      32.371  22.733  24.015  1.00  0.00     0.025 C 
ATOM     18  C   UNL A   1      34.549  23.839  24.370  1.00  0.00     0.314 C 
BRANCH   9  19
ATOM     19  C   UNL A   1      36.538  20.239  24.829  1.00  0.00    -0.067 C 
ATOM     20  C   UNL A   1      37.738  20.293  24.859  1.00  0.00     0.010 C 
ENDBRANCH   9  19
BRANCH  18  21
ATOM     21  C   UNL A   1      34.818  24.432  25.766  1.00  0.00     0.429 C 
ATOM     22  F   UNL A   1      34.791  25.788  25.719  1.00  0.00    -0.167 F 
ATOM     23  F   UNL A   1      33.892  24.064  26.683  1.00  0.00    -0.167 F 
ATOM     24  F   UNL A   1      36.024  24.066  26.260  1.00  0.00    -0.167 F 
ENDBRANCH  18  21
ENDBRANCH   5   8
ENDBRANCH   3   4
ENDBRANCH   2   3
ENDBRANCH   1   2
BRANCH   1  25
ATOM     25  C   UNL A   1      33.604  28.444  27.011  1.00  0.00     0.116 C 
BRANCH  25  26
ATOM     26  N   UNL A   1      33.486  29.834  27.432  1.00  0.00    -0.352 N 
ATOM     27  C   UNL A   1      34.436  30.607  28.059  1.00  0.00     0.251 C 
ATOM     28  H   UNL A   1      32.626  30.273  27.246  1.00  0.00     0.163 HD
ATOM     29  O   UNL A   1      34.164  31.726  28.479  1.00  0.00    -0.269 OA
BRANCH  27  30
ATOM     30  C   UNL A   1      35.779  30.030  28.244  1.00  0.00     0.039 A 
ATOM     31  C   UNL A   1      36.719  30.158  27.223  1.00  0.00     0.014 A 
ATOM     32  C   UNL A   1      36.129  29.482  29.482  1.00  0.00     0.014 A 
ATOM     33  C   UNL A   1      38.041  29.792  27.470  1.00  0.00     0.010 A 
ATOM     34  C   UNL A   1      37.463  29.215  29.755  1.00  0.00     0.010 A 
ATOM     35  C   UNL A   1      38.430  29.356  28.749  1.00  0.00    -0.014 A 
BRANCH  35  36
ATOM     36  C   UNL A   1      39.842  29.013  29.043  1.00  0.00     0.031 A 
ATOM     37  C   UNL A   1      40.720  30.016  29.735  1.00  0.00     0.074 A 
ATOM     38  C   UNL A   1      40.337  27.818  28.663  1.00  0.00     0.049 A 
ATOM     39  N   UNL A   1      41.981  29.918  30.067  1.00  0.00    -0.248 NA
ATOM     40  C   UNL A   1      40.109  31.312  30.078  1.00  0.00     0.031 C 
ATOM     41  C   UNL A   1      39.587  26.779  27.952  1.00  0.00     0.029 A 
ATOM     42  N   UNL A   1      41.585  27.272  28.826  1.00  0.00    -0.354 N 
ATOM     43  C   UNL A   1      42.309  31.131  30.659  1.00  0.00     0.074 A 
ATOM     44  C   UNL A   1      41.142  31.978  30.569  1.00  0.00     0.031 C 
ATOM     45  C   UNL A   1      40.377  25.707  27.781  1.00  0.00     0.029 A 
ATOM     46  C   UNL A   1      41.701  25.996  28.326  1.00  0.00     0.049 A 
ATOM     47  H   UNL A   1      42.329  27.749  29.259  1.00  0.00     0.167 HD
ATOM     48  C   UNL A   1      43.467  31.493  31.257  1.00  0.00     0.037 A 
ATOM     49  C   UNL A   1      42.754  25.156  28.309  1.00  0.00     0.037 A 
ATOM     50  C   UNL A   1      44.619  30.637  31.351  1.00  0.00     0.049 A 
ATOM     51  C   UNL A   1      44.048  25.597  28.937  1.00  0.00     0.074 A 
ATOM     52  C   UNL A   1      45.831  30.895  31.965  1.00  0.00     0.029 A 
ATOM     53  N   UNL A   1      44.707  29.363  30.808  1.00  0.00    -0.354 N 
ATOM     54  N   UNL A   1      44.326  26.726  29.547  1.00  0.00    -0.248 NA
ATOM     55  C   UNL A   1      45.173  24.654  28.881  1.00  0.00     0.031 C 
ATOM     56  C   UNL A   1      46.673  29.803  31.739  1.00  0.00     0.029 A 
ATOM     57  C   UNL A   1      45.965  28.834  31.044  1.00  0.00     0.049 A 
ATOM     58  H   UNL A   1      43.982  28.902  30.326  1.00  0.00     0.167 HD
ATOM     59  C   UNL A   1      45.648  26.620  29.964  1.00  0.00     0.074 A 
ATOM     60  C   UNL A   1      46.109  25.310  29.553  1.00  0.00     0.031 C 
ATOM     61  C   UNL A   1      46.411  27.527  30.626  1.00  0.00     0.037 A 
BRANCH  48  62
ATOM     62  C   UNL A   1      43.539  32.869  31.861  1.00  0.00     0.058 A 
ATOM     63  C   UNL A   1      43.874  33.996  31.091  1.00  0.00     0.135 A 
ATOM     64  C   UNL A   1      43.238  33.072  33.217  1.00  0.00     0.135 A 
ATOM     65  F   UNL A   1      44.189  33.859  29.793  1.00  0.00    -0.206 F 
ATOM     66  C   UNL A   1      43.939  35.267  31.650  1.00  0.00     0.059 A 
ATOM     67  C   UNL A   1      43.263  34.340  33.790  1.00  0.00     0.059 A 
ATOM     68  F   UNL A   1      42.915  32.032  34.002  1.00  0.00    -0.206 F 
ATOM     69  C   UNL A   1      43.627  35.429  33.001  1.00  0.00     0.060 A 
BRANCH  69  70
ATOM     70  S   UNL A   1      43.716  37.088  33.705  1.00  0.00     0.124 S 
ATOM     71  O   UNL A   1      44.699  36.902  34.769  1.00  0.00    -0.237 OA
ATOM     72  O   UNL A   1      44.159  37.884  32.565  1.00  0.00    -0.237 OA
ATOM     73  O   UNL A   1      42.351  37.343  34.154  1.00  0.00    -0.744 OA
ENDBRANCH  69  70
ENDBRANCH  48  62
BRANCH  49  74
ATOM     74  C   UNL A   1      42.608  23.802  27.708  1.00  0.00     0.058 A 
ATOM     75  C   UNL A   1      42.725  23.611  26.324  1.00  0.00     0.135 A 
ATOM     76  C   UNL A   1      42.397  22.666  28.507  1.00  0.00     0.135 A 
ATOM     77  F   UNL A   1      42.917  24.665  25.516  1.00  0.00    -0.206 F 
ATOM     78  C   UNL A   1      42.642  22.345  25.751  1.00  0.00     0.059 A 
ATOM     79  C   UNL A   1      42.337  21.387  27.961  1.00  0.00     0.059 A 
ATOM     80  F   UNL A   1      42.289  22.790  29.840  1.00  0.00    -0.206 F 
ATOM     81  C   UNL A   1      42.460  21.237  26.580  1.00  0.00     0.060 A 
BRANCH  81  82
ATOM     82  S   UNL A   1      42.434  19.594  25.830  1.00  0.00     0.124 S 
ATOM     83  O   UNL A   1      41.044  19.487  25.401  1.00  0.00    -0.237 OA
ATOM     84  O   UNL A   1      43.424  19.734  24.767  1.00  0.00    -0.237 OA
ATOM     85  O   UNL A   1      42.824  18.716  26.929  1.00  0.00    -0.744 OA
ENDBRANCH  81  82
ENDBRANCH  49  74
BRANCH  61  86
ATOM     86  C   UNL A   1      47.826  27.140  30.964  1.00  0.00     0.058 A 
ATOM     87  C   UNL A   1      48.912  27.567  30.186  1.00  0.00     0.135 A 
ATOM     88  C   UNL A   1      48.104  26.408  32.132  1.00  0.00     0.135 A 
ATOM     89  F   UNL A   1      48.703  28.265  29.058  1.00  0.00    -0.206 F 
ATOM     90  C   UNL A   1      50.223  27.268  30.542  1.00  0.00     0.059 A 
ATOM     91  C   UNL A   1      49.408  26.127  32.525  1.00  0.00     0.059 A 
ATOM     92  F   UNL A   1      47.103  25.985  32.921  1.00  0.00    -0.206 F 
ATOM     93  C   UNL A   1      50.461  26.555  31.719  1.00  0.00     0.060 A 
BRANCH  93  94
ATOM     94  S   UNL A   1      52.171  26.215  32.187  1.00  0.00     0.124 S 
ATOM     95  O   UNL A   1      52.004  25.130  33.148  1.00  0.00    -0.237 OA
ATOM     96  O   UNL A   1      52.772  25.844  30.910  1.00  0.00    -0.237 OA
ATOM     97  O   UNL A   1      52.630  27.482  32.747  1.00  0.00    -0.744 OA
ENDBRANCH  93  94
ENDBRANCH  61  86
ENDBRANCH  35  36
ENDBRANCH  27  30
ENDBRANCH  25  26
ENDBRANCH   1  25
TORSDOF 16
ENDMDL
