MODEL 1
REMARK VINA RESULT:     -11.5      0.000      0.000
REMARK SMILES COc1ccc([C@@H](CC(=O)NCCCCNC(=O)c2ccc(-c3c4nc(c(-c5c(F)cc(S(=O)(=O)[O-])cc5F)c5ccc([nH]5)c(-c5c(F)cc(S(=O)(=O)[O-])cc5F)c5nc(c(-c6c(F)cc(S(=O)(=O)[O-])cc6F)c6ccc3[nH]6)C=C5)C=C4)cc2)C2CCCCC2)cc1Cl
REMARK SMILES IDX 13 1 12 2 11 3 9 4 10 5 8 7 7 8 6 9 3 10 4 11 92 12 5 13
REMARK SMILES IDX 91 14 93 15 2 16 1 17 85 18 86 19 90 20 87 21 89 22 88 23
REMARK SMILES IDX 14 24 15 25 16 26 17 27 18 29 19 30 20 31 84 32 21 33 83 34
REMARK SMILES IDX 22 35 23 36 24 37 77 38 25 39 82 40 76 41 78 42 26 43 81 44
REMARK SMILES IDX 75 45 74 46 27 48 61 49 40 50 60 51 41 52 44 53 59 54 79 55
REMARK SMILES IDX 42 56 43 57 58 59 80 60 45 61 28 62 29 63 38 64 30 65 31 66
REMARK SMILES IDX 37 67 39 68 32 69 33 70 34 71 35 72 36 73 62 74 63 75 72 76
REMARK SMILES IDX 64 77 65 78 71 79 73 80 66 81 67 82 68 83 69 84 70 85 46 86
REMARK SMILES IDX 47 87 56 88 48 89 49 90 55 91 57 92 50 93 51 94 52 95 53 96
REMARK SMILES IDX 54 97
REMARK H PARENT 11 6 16 28 78 47 44 58
REMARK Flexibility Score: inf
ROOT
ATOM      1  C   UNL A   1      31.588  27.660  25.710  1.00  0.00     0.023 C 
ENDROOT
BRANCH   1   2
ATOM      2  C   UNL A   1      31.565  26.205  25.274  1.00  0.00     0.116 C 
BRANCH   2   3
ATOM      3  N   UNL A   1      31.383  25.325  26.412  1.00  0.00    -0.356 N 
ATOM      4  C   UNL A   1      31.543  23.977  26.507  1.00  0.00     0.220 C 
ATOM      5  O   UNL A   1      31.385  23.456  27.614  1.00  0.00    -0.275 OA
ATOM      6  H   UNL A   1      31.101  25.772  27.242  1.00  0.00     0.163 HD
BRANCH   4   7
ATOM      7  C   UNL A   1      31.976  23.131  25.321  1.00  0.00     0.108 C 
BRANCH   7   8
ATOM      8  C   UNL A   1      32.892  21.876  25.502  1.00  0.00     0.032 C 
BRANCH   8   9
ATOM      9  C   UNL A   1      34.387  22.210  25.357  1.00  0.00    -0.042 A 
ATOM     10  C   UNL A   1      37.211  22.637  25.295  1.00  0.00     0.137 A 
ATOM     11  C   UNL A   1      36.333  23.699  25.497  1.00  0.00     0.048 A 
ATOM     12  C   UNL A   1      36.667  21.371  25.043  1.00  0.00     0.083 A 
ATOM     13  C   UNL A   1      34.942  23.489  25.507  1.00  0.00     0.008 A 
ATOM     14  C   UNL A   1      35.282  21.167  25.058  1.00  0.00     0.028 A 
ATOM     15  Cl  UNL A   1      37.677  19.999  24.741  1.00  0.00    -0.080 Cl
BRANCH  10  16
ATOM     16  O   UNL A   1      38.565  22.705  25.433  1.00  0.00    -0.495 OA
ATOM     17  C   UNL A   1      39.176  22.353  26.666  1.00  0.00     0.278 C 
ENDBRANCH  10  16
ENDBRANCH   8   9
BRANCH   8  18
ATOM     18  C   UNL A   1      32.331  20.526  24.908  1.00  0.00    -0.003 C 
ATOM     19  C   UNL A   1      32.486  20.342  23.384  1.00  0.00     0.004 C 
ATOM     20  C   UNL A   1      32.839  19.313  25.734  1.00  0.00     0.004 C 
ATOM     21  C   UNL A   1      32.163  18.939  22.882  1.00  0.00     0.000 C 
ATOM     22  C   UNL A   1      32.539  17.948  25.125  1.00  0.00     0.000 C 
ATOM     23  C   UNL A   1      32.936  17.889  23.659  1.00  0.00     0.000 C 
ENDBRANCH   8  18
ENDBRANCH   7   8
ENDBRANCH   4   7
ENDBRANCH   2   3
ENDBRANCH   1   2
BRANCH   1  24
ATOM     24  C   UNL A   1      32.038  27.953  27.129  1.00  0.00     0.023 C 
BRANCH  24  25
ATOM     25  C   UNL A   1      33.437  28.537  27.230  1.00  0.00     0.116 C 
BRANCH  25  26
ATOM     26  N   UNL A   1      33.486  29.915  27.710  1.00  0.00    -0.352 N 
ATOM     27  C   UNL A   1      34.544  30.625  28.244  1.00  0.00     0.251 C 
ATOM     28  H   UNL A   1      32.639  30.414  27.643  1.00  0.00     0.163 HD
ATOM     29  O   UNL A   1      34.381  31.762  28.655  1.00  0.00    -0.269 OA
BRANCH  27  30
ATOM     30  C   UNL A   1      35.863  29.965  28.376  1.00  0.00     0.039 A 
ATOM     31  C   UNL A   1      36.769  30.050  27.316  1.00  0.00     0.014 A 
ATOM     32  C   UNL A   1      36.237  29.352  29.571  1.00  0.00     0.014 A 
ATOM     33  C   UNL A   1      38.088  29.629  27.503  1.00  0.00     0.010 A 
ATOM     34  C   UNL A   1      37.573  29.055  29.795  1.00  0.00     0.010 A 
ATOM     35  C   UNL A   1      38.517  29.194  28.767  1.00  0.00    -0.014 A 
BRANCH  35  36
ATOM     36  C   UNL A   1      39.941  28.878  29.052  1.00  0.00     0.031 A 
ATOM     37  C   UNL A   1      40.843  29.951  29.608  1.00  0.00     0.074 A 
ATOM     38  C   UNL A   1      40.448  27.677  28.703  1.00  0.00     0.049 A 
ATOM     39  N   UNL A   1      42.140  29.941  29.762  1.00  0.00    -0.248 NA
ATOM     40  C   UNL A   1      40.207  31.224  29.991  1.00  0.00     0.031 C 
ATOM     41  C   UNL A   1      39.699  26.582  28.077  1.00  0.00     0.029 A 
ATOM     42  N   UNL A   1      41.723  27.177  28.810  1.00  0.00    -0.354 N 
ATOM     43  C   UNL A   1      42.478  31.215  30.201  1.00  0.00     0.074 A 
ATOM     44  C   UNL A   1      41.258  31.988  30.248  1.00  0.00     0.031 C 
ATOM     45  C   UNL A   1      40.519  25.535  27.885  1.00  0.00     0.029 A 
ATOM     46  C   UNL A   1      41.859  25.894  28.332  1.00  0.00     0.049 A 
ATOM     47  H   UNL A   1      42.470  27.691  29.192  1.00  0.00     0.167 HD
ATOM     48  C   UNL A   1      43.692  31.691  30.562  1.00  0.00     0.037 A 
ATOM     49  C   UNL A   1      42.946  25.100  28.259  1.00  0.00     0.037 A 
ATOM     50  C   UNL A   1      44.883  30.886  30.613  1.00  0.00     0.049 A 
ATOM     51  C   UNL A   1      44.265  25.625  28.759  1.00  0.00     0.074 A 
ATOM     52  C   UNL A   1      46.137  31.236  31.079  1.00  0.00     0.029 A 
ATOM     53  N   UNL A   1      44.958  29.562  30.207  1.00  0.00    -0.354 N 
ATOM     54  N   UNL A   1      44.549  26.811  29.243  1.00  0.00    -0.248 NA
ATOM     55  C   UNL A   1      45.410  24.705  28.712  1.00  0.00     0.031 C 
ATOM     56  C   UNL A   1      46.979  30.130  30.935  1.00  0.00     0.029 A 
ATOM     57  C   UNL A   1      46.240  29.082  30.408  1.00  0.00     0.049 A 
ATOM     58  H   UNL A   1      44.212  29.042  29.833  1.00  0.00     0.167 HD
ATOM     59  C   UNL A   1      45.896  26.768  29.583  1.00  0.00     0.074 A 
ATOM     60  C   UNL A   1      46.367  25.438  29.263  1.00  0.00     0.031 C 
ATOM     61  C   UNL A   1      46.676  27.743  30.110  1.00  0.00     0.037 A 
BRANCH  48  62
ATOM     62  C   UNL A   1      43.796  33.134  30.965  1.00  0.00     0.058 A 
ATOM     63  C   UNL A   1      43.775  33.525  32.312  1.00  0.00     0.135 A 
ATOM     64  C   UNL A   1      43.983  34.132  29.995  1.00  0.00     0.135 A 
ATOM     65  F   UNL A   1      43.579  32.614  33.278  1.00  0.00    -0.206 F 
ATOM     66  C   UNL A   1      43.920  34.857  32.684  1.00  0.00     0.059 A 
ATOM     67  C   UNL A   1      44.156  35.468  30.346  1.00  0.00     0.059 A 
ATOM     68  F   UNL A   1      44.005  33.812  28.691  1.00  0.00    -0.206 F 
ATOM     69  C   UNL A   1      44.116  35.820  31.693  1.00  0.00     0.060 A 
BRANCH  69  70
ATOM     70  S   UNL A   1      44.348  37.538  32.196  1.00  0.00     0.124 S 
ATOM     71  O   UNL A   1      43.333  37.676  33.236  1.00  0.00    -0.237 OA
ATOM     72  O   UNL A   1      45.732  37.546  32.658  1.00  0.00    -0.237 OA
ATOM     73  O   UNL A   1      44.096  38.288  30.969  1.00  0.00    -0.744 OA
ENDBRANCH  69  70
ENDBRANCH  48  62
BRANCH  49  74
ATOM     74  C   UNL A   1      42.842  23.718  27.716  1.00  0.00     0.058 A 
ATOM     75  C   UNL A   1      42.971  23.476  26.339  1.00  0.00     0.135 A 
ATOM     76  C   UNL A   1      42.579  22.620  28.550  1.00  0.00     0.135 A 
ATOM     77  F   UNL A   1      43.222  24.495  25.502  1.00  0.00    -0.206 F 
ATOM     78  C   UNL A   1      42.805  22.205  25.802  1.00  0.00     0.059 A 
ATOM     79  C   UNL A   1      42.434  21.334  28.038  1.00  0.00     0.059 A 
ATOM     80  F   UNL A   1      42.469  22.793  29.876  1.00  0.00    -0.206 F 
ATOM     81  C   UNL A   1      42.527  21.140  26.661  1.00  0.00     0.060 A 
BRANCH  81  82
ATOM     82  S   UNL A   1      42.316  19.489  25.958  1.00  0.00     0.124 S 
ATOM     83  O   UNL A   1      43.203  19.549  24.802  1.00  0.00    -0.237 OA
ATOM     84  O   UNL A   1      42.750  18.627  27.053  1.00  0.00    -0.237 OA
ATOM     85  O   UNL A   1      40.888  19.436  25.658  1.00  0.00    -0.744 OA
ENDBRANCH  81  82
ENDBRANCH  49  74
BRANCH  61  86
ATOM     86  C   UNL A   1      48.102  27.396  30.419  1.00  0.00     0.058 A 
ATOM     87  C   UNL A   1      49.107  27.486  29.445  1.00  0.00     0.135 A 
ATOM     88  C   UNL A   1      48.475  27.031  31.722  1.00  0.00     0.135 A 
ATOM     89  F   UNL A   1      48.797  27.826  28.184  1.00  0.00    -0.206 F 
ATOM     90  C   UNL A   1      50.434  27.207  29.748  1.00  0.00     0.059 A 
ATOM     91  C   UNL A   1      49.800  26.770  32.053  1.00  0.00     0.059 A 
ATOM     92  F   UNL A   1      47.549  26.941  32.691  1.00  0.00    -0.206 F 
ATOM     93  C   UNL A   1      50.771  26.852  31.056  1.00  0.00     0.060 A 
BRANCH  93  94
ATOM     94  S   UNL A   1      52.503  26.534  31.451  1.00  0.00     0.124 S 
ATOM     95  O   UNL A   1      52.719  27.444  32.571  1.00  0.00    -0.237 OA
ATOM     96  O   UNL A   1      52.496  25.112  31.780  1.00  0.00    -0.237 OA
ATOM     97  O   UNL A   1      53.201  26.881  30.217  1.00  0.00    -0.744 OA
ENDBRANCH  93  94
ENDBRANCH  61  86
ENDBRANCH  35  36
ENDBRANCH  27  30
ENDBRANCH  25  26
ENDBRANCH  24  25
ENDBRANCH   1  24
TORSDOF 18
ENDMDL
MODEL 2
REMARK VINA RESULT:     -11.2      1.431      2.664
REMARK SMILES COc1ccc([C@@H](CC(=O)NCCCCNC(=O)c2ccc(-c3c4nc(c(-c5c(F)cc(S(=O)(=O)[O-])cc5F)c5ccc([nH]5)c(-c5c(F)cc(S(=O)(=O)[O-])cc5F)c5nc(c(-c6c(F)cc(S(=O)(=O)[O-])cc6F)c6ccc3[nH]6)C=C5)C=C4)cc2)C2CCCCC2)cc1Cl
REMARK SMILES IDX 13 1 12 2 11 3 9 4 10 5 8 7 7 8 6 9 3 10 4 11 92 12 5 13
REMARK SMILES IDX 91 14 93 15 2 16 1 17 85 18 86 19 90 20 87 21 89 22 88 23
REMARK SMILES IDX 14 24 15 25 16 26 17 27 18 29 19 30 20 31 84 32 21 33 83 34
REMARK SMILES IDX 22 35 23 36 24 37 77 38 25 39 82 40 76 41 78 42 26 43 81 44
REMARK SMILES IDX 75 45 74 46 27 48 61 49 40 50 60 51 41 52 44 53 59 54 79 55
REMARK SMILES IDX 42 56 43 57 58 59 80 60 45 61 28 62 29 63 38 64 30 65 31 66
REMARK SMILES IDX 37 67 39 68 32 69 33 70 34 71 35 72 36 73 62 74 63 75 72 76
REMARK SMILES IDX 64 77 65 78 71 79 73 80 66 81 67 82 68 83 69 84 70 85 46 86
REMARK SMILES IDX 47 87 56 88 48 89 49 90 55 91 57 92 50 93 51 94 52 95 53 96
REMARK SMILES IDX 54 97
REMARK H PARENT 11 6 16 28 78 47 44 58
REMARK Flexibility Score: inf
ROOT
ATOM      1  C   UNL A   1      32.824  27.463  25.990  1.00  0.00     0.023 C 
ENDROOT
BRANCH   1   2
ATOM      2  C   UNL A   1      33.001  25.976  26.240  1.00  0.00     0.116 C 
BRANCH   2   3
ATOM      3  N   UNL A   1      31.775  25.384  26.739  1.00  0.00    -0.356 N 
ATOM      4  C   UNL A   1      31.352  24.091  26.705  1.00  0.00     0.220 C 
ATOM      5  O   UNL A   1      30.282  23.821  27.256  1.00  0.00    -0.275 OA
ATOM      6  H   UNL A   1      31.153  26.015  27.169  1.00  0.00     0.163 HD
BRANCH   4   7
ATOM      7  C   UNL A   1      32.188  22.986  26.079  1.00  0.00     0.108 C 
BRANCH   7   8
ATOM      8  C   UNL A   1      31.857  22.412  24.662  1.00  0.00     0.032 C 
BRANCH   8   9
ATOM      9  C   UNL A   1      32.295  20.946  24.503  1.00  0.00    -0.042 A 
ATOM     10  C   UNL A   1      32.844  18.171  24.106  1.00  0.00     0.137 A 
ATOM     11  C   UNL A   1      33.028  18.763  25.353  1.00  0.00     0.048 A 
ATOM     12  C   UNL A   1      32.461  18.991  23.037  1.00  0.00     0.083 A 
ATOM     13  C   UNL A   1      32.776  20.134  25.540  1.00  0.00     0.008 A 
ATOM     14  C   UNL A   1      32.208  20.354  23.230  1.00  0.00     0.028 A 
ATOM     15  Cl  UNL A   1      32.247  18.352  21.443  1.00  0.00    -0.080 Cl
BRANCH  10  16
ATOM     16  O   UNL A   1      32.898  16.831  23.861  1.00  0.00    -0.495 OA
ATOM     17  C   UNL A   1      34.151  16.164  23.814  1.00  0.00     0.278 C 
ENDBRANCH  10  16
ENDBRANCH   8   9
BRANCH   8  18
ATOM     18  C   UNL A   1      32.031  23.415  23.458  1.00  0.00    -0.003 C 
ATOM     19  C   UNL A   1      30.958  24.516  23.335  1.00  0.00     0.004 C 
ATOM     20  C   UNL A   1      33.485  23.958  23.404  1.00  0.00     0.004 C 
ATOM     21  C   UNL A   1      31.286  25.607  22.321  1.00  0.00     0.000 C 
ATOM     22  C   UNL A   1      33.712  25.097  22.417  1.00  0.00     0.000 C 
ATOM     23  C   UNL A   1      32.665  26.188  22.571  1.00  0.00     0.000 C 
ENDBRANCH   8  18
ENDBRANCH   7   8
ENDBRANCH   4   7
ENDBRANCH   2   3
ENDBRANCH   1   2
BRANCH   1  24
ATOM     24  C   UNL A   1      33.062  28.398  27.160  1.00  0.00     0.023 C 
BRANCH  24  25
ATOM     25  C   UNL A   1      33.787  29.683  26.793  1.00  0.00     0.116 C 
BRANCH  25  26
ATOM     26  N   UNL A   1      33.724  30.727  27.813  1.00  0.00    -0.352 N 
ATOM     27  C   UNL A   1      34.670  31.104  28.746  1.00  0.00     0.251 C 
ATOM     28  H   UNL A   1      32.883  31.238  27.839  1.00  0.00     0.163 HD
ATOM     29  O   UNL A   1      34.415  31.966  29.571  1.00  0.00    -0.269 OA
BRANCH  27  30
ATOM     30  C   UNL A   1      35.972  30.400  28.780  1.00  0.00     0.039 A 
ATOM     31  C   UNL A   1      36.794  30.448  27.651  1.00  0.00     0.014 A 
ATOM     32  C   UNL A   1      36.419  29.782  29.947  1.00  0.00     0.014 A 
ATOM     33  C   UNL A   1      38.108  29.984  27.736  1.00  0.00     0.010 A 
ATOM     34  C   UNL A   1      37.759  29.442  30.067  1.00  0.00     0.010 A 
ATOM     35  C   UNL A   1      38.622  29.543  28.967  1.00  0.00    -0.014 A 
BRANCH  35  36
ATOM     36  C   UNL A   1      40.053  29.181  29.140  1.00  0.00     0.031 A 
ATOM     37  C   UNL A   1      41.035  30.231  29.594  1.00  0.00     0.074 A 
ATOM     38  C   UNL A   1      40.487  27.954  28.780  1.00  0.00     0.049 A 
ATOM     39  N   UNL A   1      42.339  30.176  29.640  1.00  0.00    -0.248 NA
ATOM     40  C   UNL A   1      40.478  31.535  29.997  1.00  0.00     0.031 C 
ATOM     41  C   UNL A   1      39.651  26.875  28.245  1.00  0.00     0.029 A 
ATOM     42  N   UNL A   1      41.748  27.410  28.793  1.00  0.00    -0.354 N 
ATOM     43  C   UNL A   1      42.757  31.447  30.019  1.00  0.00     0.074 A 
ATOM     44  C   UNL A   1      41.573  32.264  30.148  1.00  0.00     0.031 C 
ATOM     45  C   UNL A   1      40.414  25.795  28.011  1.00  0.00     0.029 A 
ATOM     46  C   UNL A   1      41.799  26.113  28.338  1.00  0.00     0.049 A 
ATOM     47  H   UNL A   1      42.542  27.904  29.101  1.00  0.00     0.167 HD
ATOM     48  C   UNL A   1      44.013  31.885  30.267  1.00  0.00     0.037 A 
ATOM     49  C   UNL A   1      42.847  25.278  28.194  1.00  0.00     0.037 A 
ATOM     50  C   UNL A   1      45.174  31.037  30.239  1.00  0.00     0.049 A 
ATOM     51  C   UNL A   1      44.221  25.765  28.571  1.00  0.00     0.074 A 
ATOM     52  C   UNL A   1      46.475  31.351  30.592  1.00  0.00     0.029 A 
ATOM     53  N   UNL A   1      45.170  29.704  29.861  1.00  0.00    -0.354 N 
ATOM     54  N   UNL A   1      44.586  26.949  29.001  1.00  0.00    -0.248 NA
ATOM     55  C   UNL A   1      45.325  24.802  28.452  1.00  0.00     0.031 C 
ATOM     56  C   UNL A   1      47.263  30.211  30.406  1.00  0.00     0.029 A 
ATOM     57  C   UNL A   1      46.446  29.181  29.968  1.00  0.00     0.049 A 
ATOM     58  H   UNL A   1      44.377  29.203  29.562  1.00  0.00     0.167 HD
ATOM     59  C   UNL A   1      45.954  26.864  29.230  1.00  0.00     0.074 A 
ATOM     60  C   UNL A   1      46.350  25.511  28.904  1.00  0.00     0.031 C 
ATOM     61  C   UNL A   1      46.809  27.821  29.667  1.00  0.00     0.037 A 
BRANCH  48  62
ATOM     62  C   UNL A   1      44.201  33.331  30.625  1.00  0.00     0.058 A 
ATOM     63  C   UNL A   1      44.456  34.304  29.647  1.00  0.00     0.135 A 
ATOM     64  C   UNL A   1      44.062  33.759  31.955  1.00  0.00     0.135 A 
ATOM     65  F   UNL A   1      44.617  33.947  28.363  1.00  0.00    -0.206 F 
ATOM     66  C   UNL A   1      44.581  35.649  29.975  1.00  0.00     0.059 A 
ATOM     67  C   UNL A   1      44.159  35.103  32.303  1.00  0.00     0.059 A 
ATOM     68  F   UNL A   1      43.824  32.868  32.931  1.00  0.00    -0.206 F 
ATOM     69  C   UNL A   1      44.425  36.039  31.307  1.00  0.00     0.060 A 
BRANCH  69  70
ATOM     70  S   UNL A   1      44.547  37.794  31.709  1.00  0.00     0.124 S 
ATOM     71  O   UNL A   1      43.957  37.828  33.044  1.00  0.00    -0.237 OA
ATOM     72  O   UNL A   1      45.985  38.031  31.646  1.00  0.00    -0.237 OA
ATOM     73  O   UNL A   1      43.763  38.439  30.660  1.00  0.00    -0.744 OA
ENDBRANCH  69  70
ENDBRANCH  48  62
BRANCH  49  74
ATOM     74  C   UNL A   1      42.650  23.890  27.695  1.00  0.00     0.058 A 
ATOM     75  C   UNL A   1      42.578  23.625  26.319  1.00  0.00     0.135 A 
ATOM     76  C   UNL A   1      42.496  22.809  28.577  1.00  0.00     0.135 A 
ATOM     77  F   UNL A   1      42.718  24.627  25.437  1.00  0.00    -0.206 F 
ATOM     78  C   UNL A   1      42.322  22.348  25.832  1.00  0.00     0.059 A 
ATOM     79  C   UNL A   1      42.264  21.517  28.113  1.00  0.00     0.059 A 
ATOM     80  F   UNL A   1      42.579  23.003  29.902  1.00  0.00    -0.206 F 
ATOM     81  C   UNL A   1      42.157  21.301  26.740  1.00  0.00     0.060 A 
BRANCH  81  82
ATOM     82  S   UNL A   1      41.828  19.642  26.103  1.00  0.00     0.124 S 
ATOM     83  O   UNL A   1      42.712  19.595  24.945  1.00  0.00    -0.237 OA
ATOM     84  O   UNL A   1      42.206  18.796  27.231  1.00  0.00    -0.237 OA
ATOM     85  O   UNL A   1      40.398  19.677  25.808  1.00  0.00    -0.744 OA
ENDBRANCH  81  82
ENDBRANCH  49  74
BRANCH  61  86
ATOM     86  C   UNL A   1      48.242  27.428  29.866  1.00  0.00     0.058 A 
ATOM     87  C   UNL A   1      49.204  27.628  28.864  1.00  0.00     0.135 A 
ATOM     88  C   UNL A   1      48.669  26.904  31.097  1.00  0.00     0.135 A 
ATOM     89  F   UNL A   1      48.842  28.120  27.669  1.00  0.00    -0.206 F 
ATOM     90  C   UNL A   1      50.540  27.304  29.071  1.00  0.00     0.059 A 
ATOM     91  C   UNL A   1      50.003  26.596  31.333  1.00  0.00     0.059 A 
ATOM     92  F   UNL A   1      47.786  26.705  32.089  1.00  0.00    -0.206 F 
ATOM     93  C   UNL A   1      50.930  26.790  30.309  1.00  0.00     0.060 A 
BRANCH  93  94
ATOM     94  S   UNL A   1      52.674  26.414  30.582  1.00  0.00     0.124 S 
ATOM     95  O   UNL A   1      53.178  27.698  31.058  1.00  0.00    -0.237 OA
ATOM     96  O   UNL A   1      52.615  25.348  31.578  1.00  0.00    -0.237 OA
ATOM     97  O   UNL A   1      53.143  26.005  29.263  1.00  0.00    -0.744 OA
ENDBRANCH  93  94
ENDBRANCH  61  86
ENDBRANCH  35  36
ENDBRANCH  27  30
ENDBRANCH  25  26
ENDBRANCH  24  25
ENDBRANCH   1  24
TORSDOF 18
ENDMDL
MODEL 3
REMARK VINA RESULT:     -10.9      4.054      7.906
REMARK SMILES COc1ccc([C@@H](CC(=O)NCCCCNC(=O)c2ccc(-c3c4nc(c(-c5c(F)cc(S(=O)(=O)[O-])cc5F)c5ccc([nH]5)c(-c5c(F)cc(S(=O)(=O)[O-])cc5F)c5nc(c(-c6c(F)cc(S(=O)(=O)[O-])cc6F)c6ccc3[nH]6)C=C5)C=C4)cc2)C2CCCCC2)cc1Cl
REMARK SMILES IDX 13 1 12 2 11 3 9 4 10 5 8 7 7 8 6 9 3 10 4 11 92 12 5 13
REMARK SMILES IDX 91 14 93 15 2 16 1 17 85 18 86 19 90 20 87 21 89 22 88 23
REMARK SMILES IDX 14 24 15 25 16 26 17 27 18 29 19 30 20 31 84 32 21 33 83 34
REMARK SMILES IDX 22 35 23 36 24 37 77 38 25 39 82 40 76 41 78 42 26 43 81 44
REMARK SMILES IDX 75 45 74 46 27 48 61 49 40 50 60 51 41 52 44 53 59 54 79 55
REMARK SMILES IDX 42 56 43 57 58 59 80 60 45 61 28 62 29 63 38 64 30 65 31 66
REMARK SMILES IDX 37 67 39 68 32 69 33 70 34 71 35 72 36 73 62 74 63 75 72 76
REMARK SMILES IDX 64 77 65 78 71 79 73 80 66 81 67 82 68 83 69 84 70 85 46 86
REMARK SMILES IDX 47 87 56 88 48 89 49 90 55 91 57 92 50 93 51 94 52 95 53 96
REMARK SMILES IDX 54 97
REMARK H PARENT 11 6 16 28 78 47 44 58
REMARK Flexibility Score: inf
ROOT
ATOM      1  C   UNL A   1      35.686  33.084  32.428  1.00  0.00     0.023 C 
ENDROOT
BRANCH   1   2
ATOM      2  C   UNL A   1      36.102  34.528  32.205  1.00  0.00     0.116 C 
BRANCH   2   3
ATOM      3  N   UNL A   1      37.436  34.604  31.644  1.00  0.00    -0.356 N 
ATOM      4  C   UNL A   1      38.644  34.662  32.267  1.00  0.00     0.220 C 
ATOM      5  O   UNL A   1      39.656  34.661  31.561  1.00  0.00    -0.275 OA
ATOM      6  H   UNL A   1      37.473  34.616  30.660  1.00  0.00     0.163 HD
BRANCH   4   7
ATOM      7  C   UNL A   1      38.771  34.652  33.782  1.00  0.00     0.108 C 
BRANCH   7   8
ATOM      8  C   UNL A   1      39.858  33.793  34.507  1.00  0.00     0.032 C 
BRANCH   8   9
ATOM      9  C   UNL A   1      39.716  32.290  34.212  1.00  0.00    -0.042 A 
ATOM     10  C   UNL A   1      39.627  29.542  33.438  1.00  0.00     0.137 A 
ATOM     11  C   UNL A   1      38.455  30.279  33.587  1.00  0.00     0.048 A 
ATOM     12  C   UNL A   1      40.841  30.163  33.755  1.00  0.00     0.083 A 
ATOM     13  C   UNL A   1      38.501  31.627  33.989  1.00  0.00     0.008 A 
ATOM     14  C   UNL A   1      40.882  31.506  34.149  1.00  0.00     0.028 A 
ATOM     15  Cl  UNL A   1      42.346  29.315  33.638  1.00  0.00    -0.080 Cl
BRANCH  10  16
ATOM     16  O   UNL A   1      39.701  28.292  32.898  1.00  0.00    -0.495 OA
ATOM     17  C   UNL A   1      38.521  27.526  32.709  1.00  0.00     0.278 C 
ENDBRANCH  10  16
ENDBRANCH   8   9
BRANCH   8  18
ATOM     18  C   UNL A   1      40.256  34.271  35.956  1.00  0.00    -0.003 C 
ATOM     19  C   UNL A   1      40.977  35.632  36.045  1.00  0.00     0.004 C 
ATOM     20  C   UNL A   1      39.048  34.146  36.924  1.00  0.00     0.004 C 
ATOM     21  C   UNL A   1      41.125  36.176  37.462  1.00  0.00     0.000 C 
ATOM     22  C   UNL A   1      39.251  34.781  38.295  1.00  0.00     0.000 C 
ATOM     23  C   UNL A   1      39.789  36.198  38.182  1.00  0.00     0.000 C 
ENDBRANCH   8  18
ENDBRANCH   7   8
ENDBRANCH   4   7
ENDBRANCH   2   3
ENDBRANCH   1   2
BRANCH   1  24
ATOM     24  C   UNL A   1      34.726  32.475  31.424  1.00  0.00     0.023 C 
BRANCH  24  25
ATOM     25  C   UNL A   1      35.147  32.649  29.974  1.00  0.00     0.116 C 
BRANCH  25  26
ATOM     26  N   UNL A   1      34.297  31.959  29.009  1.00  0.00    -0.352 N 
ATOM     27  C   UNL A   1      34.544  30.813  28.278  1.00  0.00     0.251 C 
ATOM     28  H   UNL A   1      33.415  32.371  28.855  1.00  0.00     0.163 HD
ATOM     29  O   UNL A   1      33.731  30.413  27.461  1.00  0.00    -0.269 OA
BRANCH  27  30
ATOM     30  C   UNL A   1      35.839  30.115  28.447  1.00  0.00     0.039 A 
ATOM     31  C   UNL A   1      36.777  30.175  27.413  1.00  0.00     0.014 A 
ATOM     32  C   UNL A   1      36.161  29.492  29.651  1.00  0.00     0.014 A 
ATOM     33  C   UNL A   1      38.077  29.717  27.637  1.00  0.00     0.010 A 
ATOM     34  C   UNL A   1      37.482  29.157  29.913  1.00  0.00     0.010 A 
ATOM     35  C   UNL A   1      38.458  29.270  28.912  1.00  0.00    -0.014 A 
BRANCH  35  36
ATOM     36  C   UNL A   1      39.864  28.914  29.236  1.00  0.00     0.031 A 
ATOM     37  C   UNL A   1      40.769  29.950  29.852  1.00  0.00     0.074 A 
ATOM     38  C   UNL A   1      40.356  27.711  28.872  1.00  0.00     0.049 A 
ATOM     39  N   UNL A   1      42.060  29.906  30.050  1.00  0.00    -0.248 NA
ATOM     40  C   UNL A   1      40.149  31.227  30.248  1.00  0.00     0.031 C 
ATOM     41  C   UNL A   1      39.606  26.650  28.192  1.00  0.00     0.029 A 
ATOM     42  N   UNL A   1      41.615  27.179  29.009  1.00  0.00    -0.354 N 
ATOM     43  C   UNL A   1      42.411  31.160  30.535  1.00  0.00     0.074 A 
ATOM     44  C   UNL A   1      41.207  31.959  30.561  1.00  0.00     0.031 C 
ATOM     45  C   UNL A   1      40.408  25.591  27.999  1.00  0.00     0.029 A 
ATOM     46  C   UNL A   1      41.740  25.906  28.502  1.00  0.00     0.049 A 
ATOM     47  H   UNL A   1      42.360  27.665  29.431  1.00  0.00     0.167 HD
ATOM     48  C   UNL A   1      43.622  31.598  30.950  1.00  0.00     0.037 A 
ATOM     49  C   UNL A   1      42.810  25.089  28.444  1.00  0.00     0.037 A 
ATOM     50  C   UNL A   1      44.792  30.764  31.020  1.00  0.00     0.049 A 
ATOM     51  C   UNL A   1      44.123  25.570  29.003  1.00  0.00     0.074 A 
ATOM     52  C   UNL A   1      46.037  31.073  31.538  1.00  0.00     0.029 A 
ATOM     53  N   UNL A   1      44.852  29.451  30.581  1.00  0.00    -0.354 N 
ATOM     54  N   UNL A   1      44.416  26.736  29.528  1.00  0.00    -0.248 NA
ATOM     55  C   UNL A   1      45.248  24.625  28.970  1.00  0.00     0.031 C 
ATOM     56  C   UNL A   1      46.859  29.952  31.393  1.00  0.00     0.029 A 
ATOM     57  C   UNL A   1      46.115  28.936  30.813  1.00  0.00     0.049 A 
ATOM     58  H   UNL A   1      44.108  28.958  30.167  1.00  0.00     0.167 HD
ATOM     59  C   UNL A   1      45.749  26.653  29.914  1.00  0.00     0.074 A 
ATOM     60  C   UNL A   1      46.201  25.321  29.573  1.00  0.00     0.031 C 
ATOM     61  C   UNL A   1      46.531  27.596  30.493  1.00  0.00     0.037 A 
BRANCH  48  62
ATOM     62  C   UNL A   1      43.744  33.027  31.396  1.00  0.00     0.058 A 
ATOM     63  C   UNL A   1      43.732  34.088  30.477  1.00  0.00     0.135 A 
ATOM     64  C   UNL A   1      43.811  33.343  32.762  1.00  0.00     0.135 A 
ATOM     65  F   UNL A   1      43.690  33.840  29.158  1.00  0.00    -0.206 F 
ATOM     66  C   UNL A   1      43.797  35.412  30.896  1.00  0.00     0.059 A 
ATOM     67  C   UNL A   1      43.850  34.662  33.205  1.00  0.00     0.059 A 
ATOM     68  F   UNL A   1      43.831  32.366  33.682  1.00  0.00    -0.206 F 
ATOM     69  C   UNL A   1      43.850  35.689  32.263  1.00  0.00     0.060 A 
BRANCH  69  70
ATOM     70  S   UNL A   1      43.888  37.414  32.791  1.00  0.00     0.124 S 
ATOM     71  O   UNL A   1      43.971  38.108  31.510  1.00  0.00    -0.237 OA
ATOM     72  O   UNL A   1      42.623  37.552  33.505  1.00  0.00    -0.237 OA
ATOM     73  O   UNL A   1      45.085  37.488  33.624  1.00  0.00    -0.744 OA
ENDBRANCH  69  70
ENDBRANCH  48  62
BRANCH  49  74
ATOM     74  C   UNL A   1      42.695  23.726  27.860  1.00  0.00     0.058 A 
ATOM     75  C   UNL A   1      42.794  23.527  26.474  1.00  0.00     0.135 A 
ATOM     76  C   UNL A   1      42.451  22.602  28.665  1.00  0.00     0.135 A 
ATOM     77  F   UNL A   1      43.025  24.572  25.664  1.00  0.00    -0.206 F 
ATOM     78  C   UNL A   1      42.616  22.273  25.901  1.00  0.00     0.059 A 
ATOM     79  C   UNL A   1      42.294  21.332  28.116  1.00  0.00     0.059 A 
ATOM     80  F   UNL A   1      42.370  22.733  29.997  1.00  0.00    -0.206 F 
ATOM     81  C   UNL A   1      42.357  21.181  26.732  1.00  0.00     0.060 A 
BRANCH  81  82
ATOM     82  S   UNL A   1      42.132  19.553  25.982  1.00  0.00     0.124 S 
ATOM     83  O   UNL A   1      42.627  18.676  27.037  1.00  0.00    -0.237 OA
ATOM     84  O   UNL A   1      40.692  19.517  25.744  1.00  0.00    -0.237 OA
ATOM     85  O   UNL A   1      42.956  19.624  24.779  1.00  0.00    -0.744 OA
ENDBRANCH  81  82
ENDBRANCH  49  74
BRANCH  61  86
ATOM     86  C   UNL A   1      47.937  27.207  30.842  1.00  0.00     0.058 A 
ATOM     87  C   UNL A   1      48.252  26.623  32.078  1.00  0.00     0.135 A 
ATOM     88  C   UNL A   1      48.969  27.362  29.902  1.00  0.00     0.135 A 
ATOM     89  F   UNL A   1      47.300  26.461  33.010  1.00  0.00    -0.206 F 
ATOM     90  C   UNL A   1      49.548  26.222  32.378  1.00  0.00     0.059 A 
ATOM     91  C   UNL A   1      50.267  26.946  30.173  1.00  0.00     0.059 A 
ATOM     92  F   UNL A   1      48.713  27.906  28.701  1.00  0.00    -0.206 F 
ATOM     93  C   UNL A   1      50.549  26.387  31.418  1.00  0.00     0.060 A 
BRANCH  93  94
ATOM     94  S   UNL A   1      52.220  25.823  31.801  1.00  0.00     0.124 S 
ATOM     95  O   UNL A   1      52.571  26.688  32.922  1.00  0.00    -0.237 OA
ATOM     96  O   UNL A   1      52.011  24.415  32.128  1.00  0.00    -0.237 OA
ATOM     97  O   UNL A   1      52.953  26.069  30.564  1.00  0.00    -0.744 OA
ENDBRANCH  93  94
ENDBRANCH  61  86
ENDBRANCH  35  36
ENDBRANCH  27  30
ENDBRANCH  25  26
ENDBRANCH  24  25
ENDBRANCH   1  24
TORSDOF 18
ENDMDL
