MODEL 1
REMARK VINA RESULT:     -12.7      0.000      0.000
REMARK SMILES COc1ccccc1C(=O)N1[C@@H](C(=O)NCCCCNC(=O)c2ccc(-c3c4nc(c(-c5c(F)cc(S(=O)(=O)[O-])cc5F)c5ccc([nH]5)c(-c5c(F)cc(S(=O)(=O)[O-])cc5F)c5nc(c(-c6c(F)cc(S(=O)(=O)[O-])cc6F)c6ccc3[nH]6)C=C5)C=C4)cc2)COC12CC[NH+](Cc1ccccc1)CC2
REMARK SMILES IDX 17 1 16 2 15 3 13 4 14 5 12 7 11 8 91 9 89 10 90 11 92 12
REMARK SMILES IDX 103 13 93 14 102 15 94 16 9 18 10 19 8 20 3 21 4 22 5 23
REMARK SMILES IDX 7 24 6 25 2 26 1 27 95 28 96 29 97 30 101 31 98 32 100 33
REMARK SMILES IDX 99 34 18 35 19 36 20 37 21 38 22 40 23 41 24 42 88 43 25 44
REMARK SMILES IDX 87 45 26 46 27 47 28 48 81 49 29 50 86 51 80 52 82 53 30 54
REMARK SMILES IDX 85 55 79 56 78 57 31 59 65 60 44 61 64 62 45 63 48 64 63 65
REMARK SMILES IDX 83 66 46 67 47 68 62 70 84 71 49 72 32 73 33 74 42 75 34 76
REMARK SMILES IDX 35 77 41 78 43 79 36 80 37 81 38 82 39 83 40 84 66 85 67 86
REMARK SMILES IDX 76 87 68 88 69 89 75 90 77 91 70 92 71 93 72 94 73 95 74 96
REMARK SMILES IDX 50 97 51 98 60 99 52 100 53 101 59 102 61 103 54 104 55 105
REMARK SMILES IDX 56 106 57 107 58 108
REMARK H PARENT 15 6 94 17 20 39 82 58 48 69
REMARK Flexibility Score: inf
ROOT
ATOM      1  C   UNL A   1      32.099  29.391  24.948  1.00  0.00     0.023 C 
ENDROOT
BRANCH   1   2
ATOM      2  C   UNL A   1      31.002  28.938  23.999  1.00  0.00     0.116 C 
BRANCH   2   3
ATOM      3  N   UNL A   1      31.475  28.244  22.822  1.00  0.00    -0.354 N 
ATOM      4  C   UNL A   1      31.746  26.910  22.665  1.00  0.00     0.245 C 
ATOM      5  O   UNL A   1      32.177  26.550  21.564  1.00  0.00    -0.273 OA
ATOM      6  H   UNL A   1      31.621  28.805  22.026  1.00  0.00     0.163 HD
BRANCH   4   7
ATOM      7  C   UNL A   1      31.646  25.894  23.826  1.00  0.00     0.203 C 
ATOM      8  N   UNL A   1      32.676  24.869  23.846  1.00  0.00    -0.295 N 
ATOM      9  C   UNL A   1      32.056  23.540  23.882  1.00  0.00     0.155 C 
ATOM     10  C   UNL A   1      30.350  25.112  23.746  1.00  0.00     0.198 C 
ATOM     11  O   UNL A   1      30.736  23.775  23.333  1.00  0.00    -0.352 OA
ATOM     12  C   UNL A   1      32.822  22.480  23.070  1.00  0.00     0.120 C 
ATOM     13  C   UNL A   1      31.788  23.021  25.303  1.00  0.00     0.120 C 
ATOM     14  C   UNL A   1      32.265  21.066  23.187  1.00  0.00     0.267 C 
ATOM     15  C   UNL A   1      31.151  21.623  25.243  1.00  0.00     0.267 C 
ATOM     16  N   UNL A   1      31.986  20.648  24.557  1.00  0.00    -0.331 N 
ATOM     17  H   UNL A   1      31.407  19.811  24.486  1.00  0.00     0.348 HD
BRANCH   8  18
ATOM     18  C   UNL A   1      33.941  25.173  24.338  1.00  0.00     0.260 C 
ATOM     19  O   UNL A   1      34.328  26.314  24.569  1.00  0.00    -0.269 OA
BRANCH  18  20
ATOM     20  C   UNL A   1      34.903  24.048  24.455  1.00  0.00     0.082 A 
ATOM     21  C   UNL A   1      35.189  23.462  25.687  1.00  0.00     0.131 A 
ATOM     22  C   UNL A   1      36.310  22.645  25.833  1.00  0.00     0.047 A 
ATOM     23  C   UNL A   1      37.067  22.298  24.717  1.00  0.00     0.004 A 
ATOM     24  C   UNL A   1      35.565  23.582  23.323  1.00  0.00     0.018 A 
ATOM     25  C   UNL A   1      36.658  22.717  23.453  1.00  0.00     0.001 A 
BRANCH  21  26
ATOM     26  O   UNL A   1      34.381  23.592  26.785  1.00  0.00    -0.496 OA
ATOM     27  C   UNL A   1      34.540  22.462  27.655  1.00  0.00     0.278 C 
ENDBRANCH  21  26
ENDBRANCH  18  20
ENDBRANCH   8  18
BRANCH  16  28
ATOM     28  C   UNL A   1      33.064  19.983  25.311  1.00  0.00     0.299 C 
BRANCH  28  29
ATOM     29  C   UNL A   1      33.323  18.502  25.091  1.00  0.00     0.006 A 
ATOM     30  C   UNL A   1      34.341  18.066  24.237  1.00  0.00     0.009 A 
ATOM     31  C   UNL A   1      32.542  17.521  25.731  1.00  0.00     0.009 A 
ATOM     32  C   UNL A   1      34.633  16.701  24.114  1.00  0.00     0.001 A 
ATOM     33  C   UNL A   1      32.889  16.170  25.678  1.00  0.00     0.001 A 
ATOM     34  C   UNL A   1      33.950  15.760  24.881  1.00  0.00     0.000 A 
ENDBRANCH  28  29
ENDBRANCH  16  28
ENDBRANCH   4   7
ENDBRANCH   2   3
ENDBRANCH   1   2
BRANCH   1  35
ATOM     35  C   UNL A   1      32.275  28.551  26.205  1.00  0.00     0.023 C 
BRANCH  35  36
ATOM     36  C   UNL A   1      33.502  28.865  27.057  1.00  0.00     0.116 C 
BRANCH  36  37
ATOM     37  N   UNL A   1      33.485  30.186  27.675  1.00  0.00    -0.352 N 
ATOM     38  C   UNL A   1      34.501  30.845  28.333  1.00  0.00     0.251 C 
ATOM     39  H   UNL A   1      32.631  30.671  27.615  1.00  0.00     0.163 HD
ATOM     40  O   UNL A   1      34.324  31.944  28.827  1.00  0.00    -0.269 OA
BRANCH  38  41
ATOM     41  C   UNL A   1      35.807  30.165  28.457  1.00  0.00     0.039 A 
ATOM     42  C   UNL A   1      36.708  30.230  27.391  1.00  0.00     0.014 A 
ATOM     43  C   UNL A   1      36.168  29.562  29.663  1.00  0.00     0.014 A 
ATOM     44  C   UNL A   1      38.015  29.775  27.574  1.00  0.00     0.010 A 
ATOM     45  C   UNL A   1      37.486  29.168  29.862  1.00  0.00     0.010 A 
ATOM     46  C   UNL A   1      38.427  29.290  28.827  1.00  0.00    -0.014 A 
BRANCH  46  47
ATOM     47  C   UNL A   1      39.844  28.942  29.100  1.00  0.00     0.031 A 
ATOM     48  C   UNL A   1      40.787  29.988  29.621  1.00  0.00     0.074 A 
ATOM     49  C   UNL A   1      40.302  27.715  28.778  1.00  0.00     0.049 A 
ATOM     50  N   UNL A   1      42.079  29.918  29.802  1.00  0.00    -0.248 NA
ATOM     51  C   UNL A   1      40.202  31.297  29.955  1.00  0.00     0.031 C 
ATOM     52  C   UNL A   1      39.495  26.629  28.216  1.00  0.00     0.029 A 
ATOM     53  N   UNL A   1      41.564  27.181  28.856  1.00  0.00    -0.354 N 
ATOM     54  C   UNL A   1      42.468  31.174  30.251  1.00  0.00     0.074 A 
ATOM     55  C   UNL A   1      41.280  32.000  30.273  1.00  0.00     0.031 C 
ATOM     56  C   UNL A   1      40.278  25.558  28.009  1.00  0.00     0.029 A 
ATOM     57  C   UNL A   1      41.649  25.890  28.387  1.00  0.00     0.049 A 
ATOM     58  H   UNL A   1      42.336  27.675  29.214  1.00  0.00     0.167 HD
ATOM     59  C   UNL A   1      43.697  31.594  30.629  1.00  0.00     0.037 A 
ATOM     60  C   UNL A   1      42.712  25.072  28.262  1.00  0.00     0.037 A 
ATOM     61  C   UNL A   1      44.870  30.758  30.629  1.00  0.00     0.049 A 
ATOM     62  C   UNL A   1      44.069  25.558  28.695  1.00  0.00     0.074 A 
ATOM     63  C   UNL A   1      46.150  31.074  31.049  1.00  0.00     0.029 A 
ATOM     64  N   UNL A   1      44.905  29.444  30.188  1.00  0.00    -0.354 N 
ATOM     65  N   UNL A   1      44.406  26.730  29.177  1.00  0.00    -0.248 NA
ATOM     66  C   UNL A   1      45.187  24.612  28.575  1.00  0.00     0.031 C 
ATOM     67  C   UNL A   1      46.969  29.962  30.829  1.00  0.00     0.029 A 
ATOM     68  C   UNL A   1      46.190  28.939  30.313  1.00  0.00     0.049 A 
ATOM     69  H   UNL A   1      44.133  28.944  29.838  1.00  0.00     0.167 HD
ATOM     70  C   UNL A   1      45.768  26.652  29.448  1.00  0.00     0.074 A 
ATOM     71  C   UNL A   1      46.191  25.318  29.078  1.00  0.00     0.031 C 
ATOM     72  C   UNL A   1      46.591  27.600  29.959  1.00  0.00     0.037 A 
BRANCH  59  73
ATOM     73  C   UNL A   1      43.837  33.022  31.079  1.00  0.00     0.058 A 
ATOM     74  C   UNL A   1      44.167  34.047  30.178  1.00  0.00     0.135 A 
ATOM     75  C   UNL A   1      43.608  33.375  32.419  1.00  0.00     0.135 A 
ATOM     76  F   UNL A   1      44.412  33.762  28.890  1.00  0.00    -0.206 F 
ATOM     77  C   UNL A   1      44.299  35.367  30.596  1.00  0.00     0.059 A 
ATOM     78  C   UNL A   1      43.706  34.693  32.853  1.00  0.00     0.059 A 
ATOM     79  F   UNL A   1      43.289  32.434  33.321  1.00  0.00    -0.206 F 
ATOM     80  C   UNL A   1      44.069  35.680  31.937  1.00  0.00     0.060 A 
BRANCH  80  81
ATOM     81  S   UNL A   1      44.246  37.397  32.463  1.00  0.00     0.124 S 
ATOM     82  O   UNL A   1      43.275  37.468  33.552  1.00  0.00    -0.237 OA
ATOM     83  O   UNL A   1      45.649  37.459  32.862  1.00  0.00    -0.237 OA
ATOM     84  O   UNL A   1      43.902  38.157  31.266  1.00  0.00    -0.744 OA
ENDBRANCH  80  81
ENDBRANCH  59  73
BRANCH  60  85
ATOM     85  C   UNL A   1      42.533  23.698  27.721  1.00  0.00     0.058 A 
ATOM     86  C   UNL A   1      42.485  23.470  26.337  1.00  0.00     0.135 A 
ATOM     87  C   UNL A   1      42.422  22.586  28.571  1.00  0.00     0.135 A 
ATOM     88  F   UNL A   1      42.580  24.501  25.485  1.00  0.00    -0.206 F 
ATOM     89  C   UNL A   1      42.317  22.192  25.814  1.00  0.00     0.059 A 
ATOM     90  C   UNL A   1      42.278  21.295  28.071  1.00  0.00     0.059 A 
ATOM     91  F   UNL A   1      42.481  22.749  29.902  1.00  0.00    -0.206 F 
ATOM     92  C   UNL A   1      42.216  21.110  26.690  1.00  0.00     0.060 A 
BRANCH  92  93
ATOM     93  S   UNL A   1      42.049  19.449  26.000  1.00  0.00     0.124 S 
ATOM     94  O   UNL A   1      42.530  18.624  27.101  1.00  0.00    -0.237 OA
ATOM     95  O   UNL A   1      40.617  19.375  25.722  1.00  0.00    -0.237 OA
ATOM     96  O   UNL A   1      42.906  19.490  24.819  1.00  0.00    -0.744 OA
ENDBRANCH  92  93
ENDBRANCH  60  85
BRANCH  72  97
ATOM     97  C   UNL A   1      48.026  27.223  30.200  1.00  0.00     0.058 A 
ATOM     98  C   UNL A   1      48.995  27.324  29.191  1.00  0.00     0.135 A 
ATOM     99  C   UNL A   1      48.448  26.833  31.481  1.00  0.00     0.135 A 
ATOM    100  F   UNL A   1      48.642  27.686  27.948  1.00  0.00    -0.206 F 
ATOM    101  C   UNL A   1      50.334  27.043  29.442  1.00  0.00     0.059 A 
ATOM    102  C   UNL A   1      49.785  26.570  31.760  1.00  0.00     0.059 A 
ATOM    103  F   UNL A   1      47.560  26.728  32.482  1.00  0.00    -0.206 F 
ATOM    104  C   UNL A   1      50.720  26.672  30.732  1.00  0.00     0.060 A 
BRANCH 104 105
ATOM    105  S   UNL A   1      52.470  26.369  31.059  1.00  0.00     0.124 S 
ATOM    106  O   UNL A   1      53.031  26.406  29.713  1.00  0.00    -0.237 OA
ATOM    107  O   UNL A   1      52.825  27.489  31.926  1.00  0.00    -0.237 OA
ATOM    108  O   UNL A   1      52.472  25.059  31.705  1.00  0.00    -0.744 OA
ENDBRANCH 104 105
ENDBRANCH  72  97
ENDBRANCH  46  47
ENDBRANCH  38  41
ENDBRANCH  36  37
ENDBRANCH  35  36
ENDBRANCH   1  35
TORSDOF 19
ENDMDL
MODEL 2
REMARK VINA RESULT:     -12.4      4.482     10.519
REMARK SMILES COc1ccccc1C(=O)N1[C@@H](C(=O)NCCCCNC(=O)c2ccc(-c3c4nc(c(-c5c(F)cc(S(=O)(=O)[O-])cc5F)c5ccc([nH]5)c(-c5c(F)cc(S(=O)(=O)[O-])cc5F)c5nc(c(-c6c(F)cc(S(=O)(=O)[O-])cc6F)c6ccc3[nH]6)C=C5)C=C4)cc2)COC12CC[NH+](Cc1ccccc1)CC2
REMARK SMILES IDX 17 1 16 2 15 3 13 4 14 5 12 7 11 8 91 9 89 10 90 11 92 12
REMARK SMILES IDX 103 13 93 14 102 15 94 16 9 18 10 19 8 20 3 21 4 22 5 23
REMARK SMILES IDX 7 24 6 25 2 26 1 27 95 28 96 29 97 30 101 31 98 32 100 33
REMARK SMILES IDX 99 34 18 35 19 36 20 37 21 38 22 40 23 41 24 42 88 43 25 44
REMARK SMILES IDX 87 45 26 46 27 47 28 48 81 49 29 50 86 51 80 52 82 53 30 54
REMARK SMILES IDX 85 55 79 56 78 57 31 59 65 60 44 61 64 62 45 63 48 64 63 65
REMARK SMILES IDX 83 66 46 67 47 68 62 70 84 71 49 72 32 73 33 74 42 75 34 76
REMARK SMILES IDX 35 77 41 78 43 79 36 80 37 81 38 82 39 83 40 84 66 85 67 86
REMARK SMILES IDX 76 87 68 88 69 89 75 90 77 91 70 92 71 93 72 94 73 95 74 96
REMARK SMILES IDX 50 97 51 98 60 99 52 100 53 101 59 102 61 103 54 104 55 105
REMARK SMILES IDX 56 106 57 107 58 108
REMARK H PARENT 15 6 94 17 20 39 82 58 48 69
REMARK Flexibility Score: inf
ROOT
ATOM      1  C   UNL A   1      37.134  23.385  26.125  1.00  0.00     0.023 C 
ENDROOT
BRANCH   1   2
ATOM      2  C   UNL A   1      35.922  22.627  25.607  1.00  0.00     0.116 C 
BRANCH   2   3
ATOM      3  N   UNL A   1      35.652  22.816  24.199  1.00  0.00    -0.354 N 
ATOM      4  C   UNL A   1      34.742  23.651  23.607  1.00  0.00     0.245 C 
ATOM      5  O   UNL A   1      34.667  23.616  22.373  1.00  0.00    -0.273 OA
ATOM      6  H   UNL A   1      36.196  22.274  23.584  1.00  0.00     0.163 HD
BRANCH   4   7
ATOM      7  C   UNL A   1      33.752  24.520  24.416  1.00  0.00     0.203 C 
ATOM      8  N   UNL A   1      32.607  25.017  23.672  1.00  0.00    -0.295 N 
ATOM      9  C   UNL A   1      32.523  26.476  23.801  1.00  0.00     0.155 C 
ATOM     10  C   UNL A   1      34.431  25.775  24.927  1.00  0.00     0.198 C 
ATOM     11  O   UNL A   1      33.881  26.858  24.132  1.00  0.00    -0.352 OA
ATOM     12  C   UNL A   1      32.038  27.181  22.522  1.00  0.00     0.120 C 
ATOM     13  C   UNL A   1      31.694  26.944  25.007  1.00  0.00     0.120 C 
ATOM     14  C   UNL A   1      31.829  28.684  22.665  1.00  0.00     0.267 C 
ATOM     15  C   UNL A   1      31.652  28.480  25.054  1.00  0.00     0.267 C 
ATOM     16  N   UNL A   1      31.076  29.069  23.855  1.00  0.00    -0.331 N 
ATOM     17  H   UNL A   1      31.214  30.074  23.965  1.00  0.00     0.348 HD
BRANCH   8  18
ATOM     18  C   UNL A   1      31.528  24.174  23.424  1.00  0.00     0.260 C 
ATOM     19  O   UNL A   1      30.425  24.566  23.062  1.00  0.00    -0.269 OA
BRANCH  18  20
ATOM     20  C   UNL A   1      31.712  22.737  23.749  1.00  0.00     0.082 A 
ATOM     21  C   UNL A   1      31.716  22.286  25.069  1.00  0.00     0.131 A 
ATOM     22  C   UNL A   1      32.205  21.015  25.375  1.00  0.00     0.047 A 
ATOM     23  C   UNL A   1      32.559  20.142  24.350  1.00  0.00     0.004 A 
ATOM     24  C   UNL A   1      31.920  21.817  22.727  1.00  0.00     0.018 A 
ATOM     25  C   UNL A   1      32.358  20.521  23.024  1.00  0.00     0.001 A 
BRANCH  21  26
ATOM     26  O   UNL A   1      31.198  23.008  26.110  1.00  0.00    -0.496 OA
ATOM     27  C   UNL A   1      32.082  22.955  27.239  1.00  0.00     0.278 C 
ENDBRANCH  21  26
ENDBRANCH  18  20
ENDBRANCH   8  18
BRANCH  16  28
ATOM     28  C   UNL A   1      29.609  29.161  23.745  1.00  0.00     0.299 C 
BRANCH  28  29
ATOM     29  C   UNL A   1      28.991  30.312  22.969  1.00  0.00     0.006 A 
ATOM     30  C   UNL A   1      28.918  31.596  23.518  1.00  0.00     0.009 A 
ATOM     31  C   UNL A   1      28.463  30.122  21.678  1.00  0.00     0.009 A 
ATOM     32  C   UNL A   1      28.433  32.670  22.759  1.00  0.00     0.001 A 
ATOM     33  C   UNL A   1      28.063  31.205  20.892  1.00  0.00     0.001 A 
ATOM     34  C   UNL A   1      28.065  32.486  21.429  1.00  0.00     0.000 A 
ENDBRANCH  28  29
ENDBRANCH  16  28
ENDBRANCH   4   7
ENDBRANCH   2   3
ENDBRANCH   1   2
BRANCH   1  35
ATOM     35  C   UNL A   1      38.453  22.626  26.090  1.00  0.00     0.023 C 
BRANCH  35  36
ATOM     36  C   UNL A   1      39.577  23.195  26.952  1.00  0.00     0.116 C 
BRANCH  36  37
ATOM     37  N   UNL A   1      40.828  23.423  26.238  1.00  0.00    -0.352 N 
ATOM     38  C   UNL A   1      41.668  24.515  26.294  1.00  0.00     0.251 C 
ATOM     39  H   UNL A   1      41.110  22.699  25.634  1.00  0.00     0.163 HD
ATOM     40  O   UNL A   1      42.673  24.573  25.609  1.00  0.00    -0.269 OA
BRANCH  38  41
ATOM     41  C   UNL A   1      41.296  25.634  27.183  1.00  0.00     0.039 A 
ATOM     42  C   UNL A   1      40.303  25.435  28.145  1.00  0.00     0.014 A 
ATOM     43  C   UNL A   1      42.007  26.835  27.128  1.00  0.00     0.014 A 
ATOM     44  C   UNL A   1      40.092  26.411  29.121  1.00  0.00     0.010 A 
ATOM     45  C   UNL A   1      41.839  27.776  28.137  1.00  0.00     0.010 A 
ATOM     46  C   UNL A   1      40.895  27.563  29.154  1.00  0.00    -0.014 A 
BRANCH  46  47
ATOM     47  C   UNL A   1      40.801  28.545  30.264  1.00  0.00     0.031 A 
ATOM     48  C   UNL A   1      41.670  28.389  31.480  1.00  0.00     0.074 A 
ATOM     49  C   UNL A   1      39.863  29.513  30.219  1.00  0.00     0.049 A 
ATOM     50  N   UNL A   1      41.649  29.061  32.600  1.00  0.00    -0.248 NA
ATOM     51  C   UNL A   1      42.673  27.313  31.440  1.00  0.00     0.031 C 
ATOM     52  C   UNL A   1      38.926  29.735  29.115  1.00  0.00     0.029 A 
ATOM     53  N   UNL A   1      39.527  30.478  31.136  1.00  0.00    -0.354 N 
ATOM     54  C   UNL A   1      42.620  28.482  33.407  1.00  0.00     0.074 A 
ATOM     55  C   UNL A   1      43.180  27.373  32.664  1.00  0.00     0.031 C 
ATOM     56  C   UNL A   1      38.129  30.773  29.415  1.00  0.00     0.029 A 
ATOM     57  C   UNL A   1      38.470  31.267  30.745  1.00  0.00     0.049 A 
ATOM     58  H   UNL A   1      39.996  30.593  31.993  1.00  0.00     0.167 HD
ATOM     59  C   UNL A   1      43.020  28.851  34.646  1.00  0.00     0.037 A 
ATOM     60  C   UNL A   1      37.838  32.267  31.391  1.00  0.00     0.037 A 
ATOM     61  C   UNL A   1      42.476  29.971  35.369  1.00  0.00     0.049 A 
ATOM     62  C   UNL A   1      38.306  32.665  32.765  1.00  0.00     0.074 A 
ATOM     63  C   UNL A   1      42.855  30.461  36.606  1.00  0.00     0.029 A 
ATOM     64  N   UNL A   1      41.438  30.773  34.921  1.00  0.00    -0.354 N 
ATOM     65  N   UNL A   1      39.268  32.145  33.488  1.00  0.00    -0.248 NA
ATOM     66  C   UNL A   1      37.609  33.788  33.409  1.00  0.00     0.031 C 
ATOM     67  C   UNL A   1      42.021  31.539  36.922  1.00  0.00     0.029 A 
ATOM     68  C   UNL A   1      41.152  31.748  35.863  1.00  0.00     0.049 A 
ATOM     69  H   UNL A   1      40.971  30.666  34.060  1.00  0.00     0.167 HD
ATOM     70  C   UNL A   1      39.314  32.897  34.658  1.00  0.00     0.074 A 
ATOM     71  C   UNL A   1      38.285  33.909  34.544  1.00  0.00     0.031 C 
ATOM     72  C   UNL A   1      40.137  32.761  35.726  1.00  0.00     0.037 A 
BRANCH  59  73
ATOM     73  C   UNL A   1      44.104  28.038  35.297  1.00  0.00     0.058 A 
ATOM     74  C   UNL A   1      43.805  26.935  36.113  1.00  0.00     0.135 A 
ATOM     75  C   UNL A   1      45.457  28.346  35.081  1.00  0.00     0.135 A 
ATOM     76  F   UNL A   1      42.529  26.607  36.366  1.00  0.00    -0.206 F 
ATOM     77  C   UNL A   1      44.809  26.185  36.718  1.00  0.00     0.059 A 
ATOM     78  C   UNL A   1      46.477  27.593  35.653  1.00  0.00     0.059 A 
ATOM     79  F   UNL A   1      45.798  29.390  34.310  1.00  0.00    -0.206 F 
ATOM     80  C   UNL A   1      46.142  26.523  36.483  1.00  0.00     0.060 A 
BRANCH  80  81
ATOM     81  S   UNL A   1      47.432  25.543  37.278  1.00  0.00     0.124 S 
ATOM     82  O   UNL A   1      47.641  26.288  38.516  1.00  0.00    -0.237 OA
ATOM     83  O   UNL A   1      46.790  24.240  37.424  1.00  0.00    -0.237 OA
ATOM     84  O   UNL A   1      48.534  25.593  36.322  1.00  0.00    -0.744 OA
ENDBRANCH  80  81
ENDBRANCH  59  73
BRANCH  60  85
ATOM     85  C   UNL A   1      36.708  32.978  30.736  1.00  0.00     0.058 A 
ATOM     86  C   UNL A   1      35.383  32.743  31.135  1.00  0.00     0.135 A 
ATOM     87  C   UNL A   1      36.926  33.914  29.714  1.00  0.00     0.135 A 
ATOM     88  F   UNL A   1      35.124  31.852  32.104  1.00  0.00    -0.206 F 
ATOM     89  C   UNL A   1      34.313  33.398  30.534  1.00  0.00     0.059 A 
ATOM     90  C   UNL A   1      35.875  34.600  29.113  1.00  0.00     0.059 A 
ATOM     91  F   UNL A   1      38.176  34.188  29.309  1.00  0.00    -0.206 F 
ATOM     92  C   UNL A   1      34.570  34.326  29.524  1.00  0.00     0.060 A 
BRANCH  92  93
ATOM     93  S   UNL A   1      33.177  35.208  28.784  1.00  0.00     0.124 S 
ATOM     94  O   UNL A   1      32.460  35.669  29.967  1.00  0.00    -0.237 OA
ATOM     95  O   UNL A   1      33.850  36.241  28.000  1.00  0.00    -0.237 OA
ATOM     96  O   UNL A   1      32.507  34.176  27.999  1.00  0.00    -0.744 OA
ENDBRANCH  92  93
ENDBRANCH  60  85
BRANCH  72  97
ATOM     97  C   UNL A   1      40.000  33.757  36.844  1.00  0.00     0.058 A 
ATOM     98  C   UNL A   1      40.619  35.015  36.791  1.00  0.00     0.135 A 
ATOM     99  C   UNL A   1      39.172  33.477  37.943  1.00  0.00     0.135 A 
ATOM    100  F   UNL A   1      41.426  35.330  35.767  1.00  0.00    -0.206 F 
ATOM    101  C   UNL A   1      40.428  35.959  37.796  1.00  0.00     0.059 A 
ATOM    102  C   UNL A   1      38.948  34.414  38.946  1.00  0.00     0.059 A 
ATOM    103  F   UNL A   1      38.552  32.290  38.035  1.00  0.00    -0.206 F 
ATOM    104  C   UNL A   1      39.586  35.650  38.867  1.00  0.00     0.060 A 
BRANCH 104 105
ATOM    105  S   UNL A   1      39.298  36.906  40.132  1.00  0.00     0.124 S 
ATOM    106  O   UNL A   1      38.716  37.988  39.346  1.00  0.00    -0.237 OA
ATOM    107  O   UNL A   1      38.388  36.226  41.048  1.00  0.00    -0.237 OA
ATOM    108  O   UNL A   1      40.635  37.164  40.663  1.00  0.00    -0.744 OA
ENDBRANCH 104 105
ENDBRANCH  72  97
ENDBRANCH  46  47
ENDBRANCH  38  41
ENDBRANCH  36  37
ENDBRANCH  35  36
ENDBRANCH   1  35
TORSDOF 19
ENDMDL
MODEL 3
REMARK VINA RESULT:     -12.1      0.428      7.816
REMARK SMILES COc1ccccc1C(=O)N1[C@@H](C(=O)NCCCCNC(=O)c2ccc(-c3c4nc(c(-c5c(F)cc(S(=O)(=O)[O-])cc5F)c5ccc([nH]5)c(-c5c(F)cc(S(=O)(=O)[O-])cc5F)c5nc(c(-c6c(F)cc(S(=O)(=O)[O-])cc6F)c6ccc3[nH]6)C=C5)C=C4)cc2)COC12CC[NH+](Cc1ccccc1)CC2
REMARK SMILES IDX 17 1 16 2 15 3 13 4 14 5 12 7 11 8 91 9 89 10 90 11 92 12
REMARK SMILES IDX 103 13 93 14 102 15 94 16 9 18 10 19 8 20 3 21 4 22 5 23
REMARK SMILES IDX 7 24 6 25 2 26 1 27 95 28 96 29 97 30 101 31 98 32 100 33
REMARK SMILES IDX 99 34 18 35 19 36 20 37 21 38 22 40 23 41 24 42 88 43 25 44
REMARK SMILES IDX 87 45 26 46 27 47 28 48 81 49 29 50 86 51 80 52 82 53 30 54
REMARK SMILES IDX 85 55 79 56 78 57 31 59 65 60 44 61 64 62 45 63 48 64 63 65
REMARK SMILES IDX 83 66 46 67 47 68 62 70 84 71 49 72 32 73 33 74 42 75 34 76
REMARK SMILES IDX 35 77 41 78 43 79 36 80 37 81 38 82 39 83 40 84 66 85 67 86
REMARK SMILES IDX 76 87 68 88 69 89 75 90 77 91 70 92 71 93 72 94 73 95 74 96
REMARK SMILES IDX 50 97 51 98 60 99 52 100 53 101 59 102 61 103 54 104 55 105
REMARK SMILES IDX 56 106 57 107 58 108
REMARK H PARENT 15 6 94 17 20 39 82 58 48 69
REMARK Flexibility Score: inf
ROOT
ATOM      1  C   UNL A   1      32.196  29.246  25.198  1.00  0.00     0.023 C 
ENDROOT
BRANCH   1   2
ATOM      2  C   UNL A   1      31.043  28.857  24.287  1.00  0.00     0.116 C 
BRANCH   2   3
ATOM      3  N   UNL A   1      31.442  28.207  23.058  1.00  0.00    -0.354 N 
ATOM      4  C   UNL A   1      31.692  26.880  22.833  1.00  0.00     0.245 C 
ATOM      5  O   UNL A   1      32.056  26.561  21.695  1.00  0.00    -0.273 OA
ATOM      6  H   UNL A   1      31.546  28.799  22.278  1.00  0.00     0.163 HD
BRANCH   4   7
ATOM      7  C   UNL A   1      31.652  25.818  23.956  1.00  0.00     0.203 C 
ATOM      8  N   UNL A   1      32.695  24.808  23.896  1.00  0.00    -0.295 N 
ATOM      9  C   UNL A   1      32.095  23.470  23.904  1.00  0.00     0.155 C 
ATOM     10  C   UNL A   1      30.364  25.020  23.896  1.00  0.00     0.198 C 
ATOM     11  O   UNL A   1      30.751  23.706  23.416  1.00  0.00    -0.352 OA
ATOM     12  C   UNL A   1      32.842  22.454  23.022  1.00  0.00     0.120 C 
ATOM     13  C   UNL A   1      31.889  22.892  25.313  1.00  0.00     0.120 C 
ATOM     14  C   UNL A   1      32.309  21.027  23.105  1.00  0.00     0.267 C 
ATOM     15  C   UNL A   1      31.269  21.488  25.223  1.00  0.00     0.267 C 
ATOM     16  N   UNL A   1      32.089  20.554  24.468  1.00  0.00    -0.331 N 
ATOM     17  H   UNL A   1      31.519  19.711  24.386  1.00  0.00     0.348 HD
BRANCH   8  18
ATOM     18  C   UNL A   1      33.975  25.112  24.350  1.00  0.00     0.260 C 
ATOM     19  O   UNL A   1      34.356  26.249  24.607  1.00  0.00    -0.269 OA
BRANCH  18  20
ATOM     20  C   UNL A   1      34.953  23.997  24.391  1.00  0.00     0.082 A 
ATOM     21  C   UNL A   1      35.330  23.404  25.596  1.00  0.00     0.131 A 
ATOM     22  C   UNL A   1      36.467  22.598  25.657  1.00  0.00     0.047 A 
ATOM     23  C   UNL A   1      37.148  22.267  24.487  1.00  0.00     0.004 A 
ATOM     24  C   UNL A   1      35.539  23.546  23.212  1.00  0.00     0.018 A 
ATOM     25  C   UNL A   1      36.648  22.692  23.259  1.00  0.00     0.001 A 
BRANCH  21  26
ATOM     26  O   UNL A   1      34.599  23.517  26.748  1.00  0.00    -0.496 OA
ATOM     27  C   UNL A   1      34.587  22.267  27.452  1.00  0.00     0.278 C 
ENDBRANCH  21  26
ENDBRANCH  18  20
ENDBRANCH   8  18
BRANCH  16  28
ATOM     28  C   UNL A   1      33.205  19.876  25.153  1.00  0.00     0.299 C 
BRANCH  28  29
ATOM     29  C   UNL A   1      33.360  18.370  25.015  1.00  0.00     0.006 A 
ATOM     30  C   UNL A   1      34.346  17.819  24.191  1.00  0.00     0.009 A 
ATOM     31  C   UNL A   1      32.511  17.483  25.702  1.00  0.00     0.009 A 
ATOM     32  C   UNL A   1      34.543  16.432  24.143  1.00  0.00     0.001 A 
ATOM     33  C   UNL A   1      32.764  16.109  25.724  1.00  0.00     0.001 A 
ATOM     34  C   UNL A   1      33.795  15.584  24.956  1.00  0.00     0.000 A 
ENDBRANCH  28  29
ENDBRANCH  16  28
ENDBRANCH   4   7
ENDBRANCH   2   3
ENDBRANCH   1   2
BRANCH   1  35
ATOM     35  C   UNL A   1      32.502  28.274  26.329  1.00  0.00     0.023 C 
BRANCH  35  36
ATOM     36  C   UNL A   1      33.688  28.634  27.221  1.00  0.00     0.116 C 
BRANCH  36  37
ATOM     37  N   UNL A   1      33.613  29.963  27.816  1.00  0.00    -0.352 N 
ATOM     38  C   UNL A   1      34.614  30.700  28.413  1.00  0.00     0.251 C 
ATOM     39  H   UNL A   1      32.728  30.391  27.789  1.00  0.00     0.163 HD
ATOM     40  O   UNL A   1      34.389  31.795  28.895  1.00  0.00    -0.269 OA
BRANCH  38  41
ATOM     41  C   UNL A   1      35.966  30.109  28.484  1.00  0.00     0.039 A 
ATOM     42  C   UNL A   1      36.814  30.221  27.380  1.00  0.00     0.014 A 
ATOM     43  C   UNL A   1      36.418  29.545  29.679  1.00  0.00     0.014 A 
ATOM     44  C   UNL A   1      38.155  29.855  27.509  1.00  0.00     0.010 A 
ATOM     45  C   UNL A   1      37.767  29.241  29.823  1.00  0.00     0.010 A 
ATOM     46  C   UNL A   1      38.651  29.412  28.746  1.00  0.00    -0.014 A 
BRANCH  46  47
ATOM     47  C   UNL A   1      40.099  29.161  28.959  1.00  0.00     0.031 A 
ATOM     48  C   UNL A   1      40.686  27.819  28.623  1.00  0.00     0.074 A 
ATOM     49  C   UNL A   1      40.859  30.105  29.550  1.00  0.00     0.049 A 
ATOM     50  N   UNL A   1      41.889  27.365  28.851  1.00  0.00    -0.248 NA
ATOM     51  C   UNL A   1      39.788  26.851  27.972  1.00  0.00     0.031 C 
ATOM     52  C   UNL A   1      40.392  31.429  29.970  1.00  0.00     0.029 A 
ATOM     53  N   UNL A   1      42.180  30.089  29.923  1.00  0.00    -0.354 N 
ATOM     54  C   UNL A   1      41.892  26.054  28.391  1.00  0.00     0.074 A 
ATOM     55  C   UNL A   1      40.556  25.772  27.911  1.00  0.00     0.031 C 
ATOM     56  C   UNL A   1      41.411  32.098  30.533  1.00  0.00     0.029 A 
ATOM     57  C   UNL A   1      42.593  31.242  30.549  1.00  0.00     0.049 A 
ATOM     58  H   UNL A   1      42.776  29.323  29.758  1.00  0.00     0.167 HD
ATOM     59  C   UNL A   1      42.919  25.173  28.354  1.00  0.00     0.037 A 
ATOM     60  C   UNL A   1      43.784  31.568  31.088  1.00  0.00     0.037 A 
ATOM     61  C   UNL A   1      44.252  25.469  28.809  1.00  0.00     0.049 A 
ATOM     62  C   UNL A   1      44.914  30.574  31.028  1.00  0.00     0.074 A 
ATOM     63  C   UNL A   1      45.376  24.663  28.760  1.00  0.00     0.029 A 
ATOM     64  N   UNL A   1      44.641  26.664  29.396  1.00  0.00    -0.354 N 
ATOM     65  N   UNL A   1      44.915  29.361  30.532  1.00  0.00    -0.248 NA
ATOM     66  C   UNL A   1      46.203  30.995  31.595  1.00  0.00     0.031 C 
ATOM     67  C   UNL A   1      46.437  25.357  29.351  1.00  0.00     0.029 A 
ATOM     68  C   UNL A   1      45.986  26.612  29.728  1.00  0.00     0.049 A 
ATOM     69  H   UNL A   1      44.050  27.435  29.555  1.00  0.00     0.167 HD
ATOM     70  C   UNL A   1      46.212  28.884  30.697  1.00  0.00     0.074 A 
ATOM     71  C   UNL A   1      46.967  29.941  31.336  1.00  0.00     0.031 C 
ATOM     72  C   UNL A   1      46.728  27.681  30.346  1.00  0.00     0.037 A 
BRANCH  59  73
ATOM     73  C   UNL A   1      42.641  23.805  27.797  1.00  0.00     0.058 A 
ATOM     74  C   UNL A   1      42.397  22.706  28.636  1.00  0.00     0.135 A 
ATOM     75  C   UNL A   1      42.589  23.595  26.409  1.00  0.00     0.135 A 
ATOM     76  F   UNL A   1      42.451  22.847  29.969  1.00  0.00    -0.206 F 
ATOM     77  C   UNL A   1      42.144  21.439  28.120  1.00  0.00     0.059 A 
ATOM     78  C   UNL A   1      42.309  22.342  25.871  1.00  0.00     0.059 A 
ATOM     79  F   UNL A   1      42.814  24.611  25.563  1.00  0.00    -0.206 F 
ATOM     80  C   UNL A   1      42.104  21.267  26.735  1.00  0.00     0.060 A 
BRANCH  80  81
ATOM     81  S   UNL A   1      41.776  19.617  26.082  1.00  0.00     0.124 S 
ATOM     82  O   UNL A   1      42.128  18.778  27.224  1.00  0.00    -0.237 OA
ATOM     83  O   UNL A   1      40.354  19.684  25.760  1.00  0.00    -0.237 OA
ATOM     84  O   UNL A   1      42.672  19.522  24.934  1.00  0.00    -0.744 OA
ENDBRANCH  80  81
ENDBRANCH  59  73
BRANCH  60  85
ATOM     85  C   UNL A   1      43.978  32.904  31.712  1.00  0.00     0.058 A 
ATOM     86  C   UNL A   1      44.450  33.989  30.958  1.00  0.00     0.135 A 
ATOM     87  C   UNL A   1      43.681  33.129  33.065  1.00  0.00     0.135 A 
ATOM     88  F   UNL A   1      44.754  33.821  29.662  1.00  0.00    -0.206 F 
ATOM     89  C   UNL A   1      44.639  35.245  31.525  1.00  0.00     0.059 A 
ATOM     90  C   UNL A   1      43.837  34.382  33.650  1.00  0.00     0.059 A 
ATOM     91  F   UNL A   1      43.208  32.129  33.825  1.00  0.00    -0.206 F 
ATOM     92  C   UNL A   1      44.327  35.432  32.872  1.00  0.00     0.060 A 
BRANCH  92  93
ATOM     93  S   UNL A   1      44.527  37.079  33.587  1.00  0.00     0.124 S 
ATOM     94  O   UNL A   1      43.962  36.892  34.918  1.00  0.00    -0.237 OA
ATOM     95  O   UNL A   1      45.974  37.266  33.527  1.00  0.00    -0.237 OA
ATOM     96  O   UNL A   1      43.757  37.930  32.686  1.00  0.00    -0.744 OA
ENDBRANCH  92  93
ENDBRANCH  60  85
BRANCH  72  97
ATOM     97  C   UNL A   1      48.192  27.450  30.597  1.00  0.00     0.058 A 
ATOM     98  C   UNL A   1      48.660  26.945  31.819  1.00  0.00     0.135 A 
ATOM     99  C   UNL A   1      49.127  27.662  29.571  1.00  0.00     0.135 A 
ATOM    100  F   UNL A   1      47.809  26.733  32.835  1.00  0.00    -0.206 F 
ATOM    101  C   UNL A   1      50.009  26.665  32.019  1.00  0.00     0.059 A 
ATOM    102  C   UNL A   1      50.475  27.366  29.741  1.00  0.00     0.059 A 
ATOM    103  F   UNL A   1      48.728  28.137  28.381  1.00  0.00    -0.206 F 
ATOM    104  C   UNL A   1      50.908  26.874  30.971  1.00  0.00     0.060 A 
BRANCH 104 105
ATOM    105  S   UNL A   1      52.645  26.449  31.222  1.00  0.00     0.124 S 
ATOM    106  O   UNL A   1      52.542  25.101  31.770  1.00  0.00    -0.237 OA
ATOM    107  O   UNL A   1      53.190  26.546  29.871  1.00  0.00    -0.237 OA
ATOM    108  O   UNL A   1      53.112  27.472  32.154  1.00  0.00    -0.744 OA
ENDBRANCH 104 105
ENDBRANCH  72  97
ENDBRANCH  46  47
ENDBRANCH  38  41
ENDBRANCH  36  37
ENDBRANCH  35  36
ENDBRANCH   1  35
TORSDOF 19
ENDMDL
