MODEL 1
REMARK VINA RESULT:     -10.0      0.000      0.000
REMARK SMILES O=C(CCCC[C@@H]1CCSS1)NCCCCNC(=O)c1ccc(-c2c3nc(c(-c4c(F)cc(S(=O)(=O)[O-])cc4F)c4ccc([nH]4)c(-c4c(F)cc(S(=O)(=O)[O-])cc4F)c4nc(c(-c5c(F)cc(S(=O)(=O)[O-])cc5F)c5ccc2[nH]5)C=C4)C=C3)cc1
REMARK SMILES IDX 14 1 13 2 12 3 1 4 2 5 3 7 4 8 5 9 6 10 7 11 8 12 11 13 9 14
REMARK SMILES IDX 10 15 15 16 16 17 17 18 18 19 19 21 20 22 21 23 85 24 22 25
REMARK SMILES IDX 84 26 23 27 24 28 25 29 78 30 26 31 83 32 77 33 79 34 27 35
REMARK SMILES IDX 82 36 76 37 75 38 28 40 62 41 41 42 61 43 42 44 45 45 60 46
REMARK SMILES IDX 80 47 43 48 44 49 59 51 81 52 46 53 29 54 30 55 39 56 31 57
REMARK SMILES IDX 32 58 38 59 40 60 33 61 34 62 35 63 36 64 37 65 63 66 64 67
REMARK SMILES IDX 73 68 65 69 66 70 72 71 74 72 67 73 68 74 69 75 70 76 71 77
REMARK SMILES IDX 47 78 48 79 57 80 49 81 50 82 56 83 58 84 51 85 52 86 53 87
REMARK SMILES IDX 54 88 55 89
REMARK H PARENT 12 6 17 20 79 39 45 50
REMARK Flexibility Score: inf
ROOT
ATOM      1  C   UNL A   1      40.110  22.343  27.260  1.00  0.00     0.023 C 
ENDROOT
BRANCH   1   2
ATOM      2  C   UNL A   1      39.564  21.471  26.130  1.00  0.00     0.116 C 
BRANCH   2   3
ATOM      3  N   UNL A   1      38.440  22.096  25.465  1.00  0.00    -0.356 N 
ATOM      4  O   UNL A   1      37.442  20.161  24.735  1.00  0.00    -0.275 OA
ATOM      5  C   UNL A   1      37.452  21.382  24.831  1.00  0.00     0.219 C 
ATOM      6  H   UNL A   1      38.381  23.079  25.466  1.00  0.00     0.163 HD
BRANCH   5   7
ATOM      7  C   UNL A   1      36.356  22.247  24.235  1.00  0.00     0.100 C 
BRANCH   7   8
ATOM      8  C   UNL A   1      36.239  23.623  24.890  1.00  0.00     0.010 C 
BRANCH   8   9
ATOM      9  C   UNL A   1      35.018  24.464  24.503  1.00  0.00     0.002 C 
BRANCH   9  10
ATOM     10  C   UNL A   1      34.064  24.851  25.643  1.00  0.00     0.015 C 
BRANCH  10  11
ATOM     11  C   UNL A   1      33.109  26.003  25.285  1.00  0.00     0.059 C 
ATOM     12  C   UNL A   1      33.087  26.311  23.781  1.00  0.00     0.027 C 
ATOM     13  S   UNL A   1      33.641  27.544  26.110  1.00  0.00    -0.091 SA
ATOM     14  C   UNL A   1      32.385  27.639  23.521  1.00  0.00     0.083 C 
ATOM     15  S   UNL A   1      33.160  28.849  24.609  1.00  0.00    -0.094 SA
ENDBRANCH  10  11
ENDBRANCH   9  10
ENDBRANCH   8   9
ENDBRANCH   7   8
ENDBRANCH   5   7
ENDBRANCH   2   3
ENDBRANCH   1   2
BRANCH   1  16
ATOM     16  C   UNL A   1      41.570  22.079  27.646  1.00  0.00     0.023 C 
BRANCH  16  17
ATOM     17  C   UNL A   1      42.548  23.206  27.329  1.00  0.00     0.116 C 
BRANCH  17  18
ATOM     18  N   UNL A   1      42.137  23.994  26.178  1.00  0.00    -0.352 N 
ATOM     19  C   UNL A   1      41.574  25.246  26.125  1.00  0.00     0.251 C 
ATOM     20  H   UNL A   1      42.285  23.566  25.304  1.00  0.00     0.163 HD
ATOM     21  O   UNL A   1      41.139  25.668  25.054  1.00  0.00    -0.269 OA
BRANCH  19  22
ATOM     22  C   UNL A   1      41.464  26.080  27.344  1.00  0.00     0.039 A 
ATOM     23  C   UNL A   1      42.435  27.058  27.582  1.00  0.00     0.014 A 
ATOM     24  C   UNL A   1      40.425  25.896  28.261  1.00  0.00     0.014 A 
ATOM     25  C   UNL A   1      42.324  27.894  28.698  1.00  0.00     0.010 A 
ATOM     26  C   UNL A   1      40.274  26.779  29.331  1.00  0.00     0.010 A 
ATOM     27  C   UNL A   1      41.220  27.789  29.562  1.00  0.00    -0.014 A 
BRANCH  27  28
ATOM     28  C   UNL A   1      41.035  28.735  30.697  1.00  0.00     0.031 A 
ATOM     29  C   UNL A   1      41.884  28.617  31.936  1.00  0.00     0.074 A 
ATOM     30  C   UNL A   1      40.059  29.663  30.637  1.00  0.00     0.049 A 
ATOM     31  N   UNL A   1      41.824  29.307  33.046  1.00  0.00    -0.248 NA
ATOM     32  C   UNL A   1      42.919  27.572  31.936  1.00  0.00     0.031 C 
ATOM     33  C   UNL A   1      39.141  29.855  29.511  1.00  0.00     0.029 A 
ATOM     34  N   UNL A   1      39.667  30.615  31.546  1.00  0.00    -0.354 N 
ATOM     35  C   UNL A   1      42.799  28.773  33.881  1.00  0.00     0.074 A 
ATOM     36  C   UNL A   1      43.403  27.668  33.167  1.00  0.00     0.031 C 
ATOM     37  C   UNL A   1      38.311  30.874  29.787  1.00  0.00     0.029 A 
ATOM     38  C   UNL A   1      38.603  31.380  31.123  1.00  0.00     0.049 A 
ATOM     39  H   UNL A   1      40.104  30.738  32.419  1.00  0.00     0.167 HD
ATOM     40  C   UNL A   1      43.171  29.177  35.120  1.00  0.00     0.037 A 
ATOM     41  C   UNL A   1      37.933  32.371  31.744  1.00  0.00     0.037 A 
ATOM     42  C   UNL A   1      42.580  30.291  35.817  1.00  0.00     0.049 A 
ATOM     43  C   UNL A   1      38.354  32.789  33.127  1.00  0.00     0.074 A 
ATOM     44  C   UNL A   1      42.931  30.817  37.049  1.00  0.00     0.029 A 
ATOM     45  N   UNL A   1      41.512  31.045  35.352  1.00  0.00    -0.354 N 
ATOM     46  N   UNL A   1      39.326  32.318  33.872  1.00  0.00    -0.248 NA
ATOM     47  C   UNL A   1      37.591  33.878  33.754  1.00  0.00     0.031 C 
ATOM     48  C   UNL A   1      42.040  31.850  37.353  1.00  0.00     0.029 A 
ATOM     49  C   UNL A   1      41.173  32.012  36.285  1.00  0.00     0.049 A 
ATOM     50  H   UNL A   1      41.062  30.912  34.486  1.00  0.00     0.167 HD
ATOM     51  C   UNL A   1      39.312  33.075  35.039  1.00  0.00     0.074 A 
ATOM     52  C   UNL A   1      38.242  34.041  34.897  1.00  0.00     0.031 C 
ATOM     53  C   UNL A   1      40.112  32.978  36.129  1.00  0.00     0.037 A 
BRANCH  40  54
ATOM     54  C   UNL A   1      44.268  28.409  35.809  1.00  0.00     0.058 A 
ATOM     55  C   UNL A   1      43.992  27.321  36.654  1.00  0.00     0.135 A 
ATOM     56  C   UNL A   1      45.616  28.733  35.582  1.00  0.00     0.135 A 
ATOM     57  F   UNL A   1      42.722  26.974  36.918  1.00  0.00    -0.206 F 
ATOM     58  C   UNL A   1      45.011  26.601  37.271  1.00  0.00     0.059 A 
ATOM     59  C   UNL A   1      46.652  28.006  36.164  1.00  0.00     0.059 A 
ATOM     60  F   UNL A   1      45.939  29.761  34.782  1.00  0.00    -0.206 F 
ATOM     61  C   UNL A   1      46.338  26.951  37.018  1.00  0.00     0.060 A 
BRANCH  61  62
ATOM     62  S   UNL A   1      47.646  25.999  37.820  1.00  0.00     0.124 S 
ATOM     63  O   UNL A   1      48.551  25.749  36.702  1.00  0.00    -0.237 OA
ATOM     64  O   UNL A   1      48.132  26.931  38.832  1.00  0.00    -0.237 OA
ATOM     65  O   UNL A   1      46.947  24.826  38.336  1.00  0.00    -0.744 OA
ENDBRANCH  61  62
ENDBRANCH  40  54
BRANCH  41  66
ATOM     66  C   UNL A   1      36.800  33.051  31.055  1.00  0.00     0.058 A 
ATOM     67  C   UNL A   1      35.478  32.861  31.483  1.00  0.00     0.135 A 
ATOM     68  C   UNL A   1      37.015  33.902  29.960  1.00  0.00     0.135 A 
ATOM     69  F   UNL A   1      35.218  32.051  32.520  1.00  0.00    -0.206 F 
ATOM     70  C   UNL A   1      34.407  33.474  30.840  1.00  0.00     0.059 A 
ATOM     71  C   UNL A   1      35.964  34.550  29.318  1.00  0.00     0.059 A 
ATOM     72  F   UNL A   1      38.263  34.132  29.520  1.00  0.00    -0.206 F 
ATOM     73  C   UNL A   1      34.661  34.320  29.758  1.00  0.00     0.060 A 
BRANCH  73  74
ATOM     74  S   UNL A   1      33.267  35.142  28.958  1.00  0.00     0.124 S 
ATOM     75  O   UNL A   1      32.386  35.399  30.091  1.00  0.00    -0.237 OA
ATOM     76  O   UNL A   1      33.903  36.315  28.365  1.00  0.00    -0.237 OA
ATOM     77  O   UNL A   1      32.793  34.146  28.003  1.00  0.00    -0.744 OA
ENDBRANCH  73  74
ENDBRANCH  41  66
BRANCH  53  78
ATOM     78  C   UNL A   1      39.899  33.969  37.242  1.00  0.00     0.058 A 
ATOM     79  C   UNL A   1      40.502  35.236  37.232  1.00  0.00     0.135 A 
ATOM     80  C   UNL A   1      39.035  33.665  38.307  1.00  0.00     0.135 A 
ATOM     81  F   UNL A   1      41.341  35.579  36.242  1.00  0.00    -0.206 F 
ATOM     82  C   UNL A   1      40.277  36.157  38.251  1.00  0.00     0.059 A 
ATOM     83  C   UNL A   1      38.769  34.580  39.320  1.00  0.00     0.059 A 
ATOM     84  F   UNL A   1      38.423  32.471  38.362  1.00  0.00    -0.206 F 
ATOM     85  C   UNL A   1      39.405  35.821  39.289  1.00  0.00     0.060 A 
BRANCH  85  86
ATOM     86  S   UNL A   1      39.093  37.038  40.586  1.00  0.00     0.124 S 
ATOM     87  O   UNL A   1      40.433  37.568  40.821  1.00  0.00    -0.237 OA
ATOM     88  O   UNL A   1      38.154  37.949  39.939  1.00  0.00    -0.237 OA
ATOM     89  O   UNL A   1      38.534  36.241  41.674  1.00  0.00    -0.744 OA
ENDBRANCH  85  86
ENDBRANCH  53  78
ENDBRANCH  27  28
ENDBRANCH  19  22
ENDBRANCH  17  18
ENDBRANCH  16  17
ENDBRANCH   1  16
TORSDOF 18
ENDMDL
MODEL 2
REMARK VINA RESULT:      -9.9      1.074      1.902
REMARK SMILES O=C(CCCC[C@@H]1CCSS1)NCCCCNC(=O)c1ccc(-c2c3nc(c(-c4c(F)cc(S(=O)(=O)[O-])cc4F)c4ccc([nH]4)c(-c4c(F)cc(S(=O)(=O)[O-])cc4F)c4nc(c(-c5c(F)cc(S(=O)(=O)[O-])cc5F)c5ccc2[nH]5)C=C4)C=C3)cc1
REMARK SMILES IDX 14 1 13 2 12 3 1 4 2 5 3 7 4 8 5 9 6 10 7 11 8 12 11 13 9 14
REMARK SMILES IDX 10 15 15 16 16 17 17 18 18 19 19 21 20 22 21 23 85 24 22 25
REMARK SMILES IDX 84 26 23 27 24 28 25 29 78 30 26 31 83 32 77 33 79 34 27 35
REMARK SMILES IDX 82 36 76 37 75 38 28 40 62 41 41 42 61 43 42 44 45 45 60 46
REMARK SMILES IDX 80 47 43 48 44 49 59 51 81 52 46 53 29 54 30 55 39 56 31 57
REMARK SMILES IDX 32 58 38 59 40 60 33 61 34 62 35 63 36 64 37 65 63 66 64 67
REMARK SMILES IDX 73 68 65 69 66 70 72 71 74 72 67 73 68 74 69 75 70 76 71 77
REMARK SMILES IDX 47 78 48 79 57 80 49 81 50 82 56 83 58 84 51 85 52 86 53 87
REMARK SMILES IDX 54 88 55 89
REMARK H PARENT 12 6 17 20 79 39 45 50
REMARK Flexibility Score: inf
ROOT
ATOM      1  C   UNL A   1      40.312  22.399  27.265  1.00  0.00     0.023 C 
ENDROOT
BRANCH   1   2
ATOM      2  C   UNL A   1      39.784  21.468  26.174  1.00  0.00     0.116 C 
BRANCH   2   3
ATOM      3  N   UNL A   1      38.650  22.043  25.480  1.00  0.00    -0.356 N 
ATOM      4  O   UNL A   1      37.695  20.060  24.823  1.00  0.00    -0.275 OA
ATOM      5  C   UNL A   1      37.680  21.285  24.871  1.00  0.00     0.219 C 
ATOM      6  H   UNL A   1      38.571  23.024  25.443  1.00  0.00     0.163 HD
BRANCH   5   7
ATOM      7  C   UNL A   1      36.569  22.102  24.237  1.00  0.00     0.100 C 
BRANCH   7   8
ATOM      8  C   UNL A   1      36.544  23.560  24.697  1.00  0.00     0.010 C 
BRANCH   8   9
ATOM      9  C   UNL A   1      35.292  24.369  24.342  1.00  0.00     0.002 C 
BRANCH   9  10
ATOM     10  C   UNL A   1      34.440  24.866  25.519  1.00  0.00     0.015 C 
BRANCH  10  11
ATOM     11  C   UNL A   1      33.616  23.758  26.198  1.00  0.00     0.059 C 
ATOM     12  C   UNL A   1      34.455  22.892  27.147  1.00  0.00     0.027 C 
ATOM     13  S   UNL A   1      32.934  22.619  24.942  1.00  0.00    -0.091 SA
ATOM     14  C   UNL A   1      33.684  21.637  27.543  1.00  0.00     0.083 C 
ATOM     15  S   UNL A   1      33.115  20.882  26.008  1.00  0.00    -0.094 SA
ENDBRANCH  10  11
ENDBRANCH   9  10
ENDBRANCH   8   9
ENDBRANCH   7   8
ENDBRANCH   5   7
ENDBRANCH   2   3
ENDBRANCH   1   2
BRANCH   1  16
ATOM     16  C   UNL A   1      41.762  22.149  27.694  1.00  0.00     0.023 C 
BRANCH  16  17
ATOM     17  C   UNL A   1      42.749  23.262  27.357  1.00  0.00     0.116 C 
BRANCH  17  18
ATOM     18  N   UNL A   1      42.332  24.047  26.206  1.00  0.00    -0.352 N 
ATOM     19  C   UNL A   1      41.758  25.294  26.155  1.00  0.00     0.251 C 
ATOM     20  H   UNL A   1      42.485  23.621  25.333  1.00  0.00     0.163 HD
ATOM     21  O   UNL A   1      41.320  25.713  25.084  1.00  0.00    -0.269 OA
BRANCH  19  22
ATOM     22  C   UNL A   1      41.640  26.126  27.375  1.00  0.00     0.039 A 
ATOM     23  C   UNL A   1      42.583  27.132  27.599  1.00  0.00     0.014 A 
ATOM     24  C   UNL A   1      40.619  25.911  28.306  1.00  0.00     0.014 A 
ATOM     25  C   UNL A   1      42.462  27.966  28.715  1.00  0.00     0.010 A 
ATOM     26  C   UNL A   1      40.456  26.790  29.377  1.00  0.00     0.010 A 
ATOM     27  C   UNL A   1      41.374  27.829  29.595  1.00  0.00    -0.014 A 
BRANCH  27  28
ATOM     28  C   UNL A   1      41.176  28.770  30.731  1.00  0.00     0.031 A 
ATOM     29  C   UNL A   1      42.035  28.670  31.964  1.00  0.00     0.074 A 
ATOM     30  C   UNL A   1      40.179  29.676  30.678  1.00  0.00     0.049 A 
ATOM     31  N   UNL A   1      41.968  29.358  33.076  1.00  0.00    -0.248 NA
ATOM     32  C   UNL A   1      43.093  27.648  31.957  1.00  0.00     0.031 C 
ATOM     33  C   UNL A   1      39.249  29.849  29.559  1.00  0.00     0.029 A 
ATOM     34  N   UNL A   1      39.772  30.619  31.591  1.00  0.00    -0.354 N 
ATOM     35  C   UNL A   1      42.960  28.845  33.903  1.00  0.00     0.074 A 
ATOM     36  C   UNL A   1      43.583  27.755  33.184  1.00  0.00     0.031 C 
ATOM     37  C   UNL A   1      38.399  30.849  29.840  1.00  0.00     0.029 A 
ATOM     38  C   UNL A   1      38.689  31.361  31.175  1.00  0.00     0.049 A 
ATOM     39  H   UNL A   1      40.212  30.751  32.460  1.00  0.00     0.167 HD
ATOM     40  C   UNL A   1      43.331  29.257  35.140  1.00  0.00     0.037 A 
ATOM     41  C   UNL A   1      38.001  32.336  31.801  1.00  0.00     0.037 A 
ATOM     42  C   UNL A   1      42.720  30.357  35.841  1.00  0.00     0.049 A 
ATOM     43  C   UNL A   1      38.422  32.763  33.182  1.00  0.00     0.074 A 
ATOM     44  C   UNL A   1      43.068  30.890  37.071  1.00  0.00     0.029 A 
ATOM     45  N   UNL A   1      41.633  31.087  35.384  1.00  0.00    -0.354 N 
ATOM     46  N   UNL A   1      39.409  32.313  33.919  1.00  0.00    -0.248 NA
ATOM     47  C   UNL A   1      37.640  33.834  33.814  1.00  0.00     0.031 C 
ATOM     48  C   UNL A   1      42.156  31.903  37.383  1.00  0.00     0.029 A 
ATOM     49  C   UNL A   1      41.278  32.046  36.320  1.00  0.00     0.049 A 
ATOM     50  H   UNL A   1      41.180  30.945  34.522  1.00  0.00     0.167 HD
ATOM     51  C   UNL A   1      39.386  33.068  35.087  1.00  0.00     0.074 A 
ATOM     52  C   UNL A   1      38.295  34.011  34.953  1.00  0.00     0.031 C 
ATOM     53  C   UNL A   1      40.196  32.988  36.172  1.00  0.00     0.037 A 
BRANCH  40  54
ATOM     54  C   UNL A   1      44.449  28.513  35.822  1.00  0.00     0.058 A 
ATOM     55  C   UNL A   1      44.202  27.422  36.672  1.00  0.00     0.135 A 
ATOM     56  C   UNL A   1      45.788  28.863  35.581  1.00  0.00     0.135 A 
ATOM     57  F   UNL A   1      42.942  27.050  36.947  1.00  0.00    -0.206 F 
ATOM     58  C   UNL A   1      45.241  26.724  37.281  1.00  0.00     0.059 A 
ATOM     59  C   UNL A   1      46.843  28.159  36.156  1.00  0.00     0.059 A 
ATOM     60  F   UNL A   1      46.084  29.895  34.776  1.00  0.00    -0.206 F 
ATOM     61  C   UNL A   1      46.558  27.100  37.016  1.00  0.00     0.060 A 
BRANCH  61  62
ATOM     62  S   UNL A   1      47.893  26.177  37.809  1.00  0.00     0.124 S 
ATOM     63  O   UNL A   1      47.204  25.604  38.962  1.00  0.00    -0.237 OA
ATOM     64  O   UNL A   1      48.278  25.231  36.767  1.00  0.00    -0.237 OA
ATOM     65  O   UNL A   1      48.882  27.205  38.116  1.00  0.00    -0.744 OA
ENDBRANCH  61  62
ENDBRANCH  40  54
BRANCH  41  66
ATOM     66  C   UNL A   1      36.849  32.991  31.120  1.00  0.00     0.058 A 
ATOM     67  C   UNL A   1      37.054  33.931  30.099  1.00  0.00     0.135 A 
ATOM     68  C   UNL A   1      35.524  32.692  31.474  1.00  0.00     0.135 A 
ATOM     69  F   UNL A   1      38.302  34.259  29.730  1.00  0.00    -0.206 F 
ATOM     70  C   UNL A   1      35.990  34.566  29.467  1.00  0.00     0.059 A 
ATOM     71  C   UNL A   1      34.442  33.291  30.836  1.00  0.00     0.059 A 
ATOM     72  F   UNL A   1      35.271  31.787  32.434  1.00  0.00    -0.206 F 
ATOM     73  C   UNL A   1      34.686  34.236  29.841  1.00  0.00     0.060 A 
BRANCH  73  74
ATOM     74  S   UNL A   1      33.312  35.035  28.983  1.00  0.00     0.124 S 
ATOM     75  O   UNL A   1      32.880  33.981  28.073  1.00  0.00    -0.237 OA
ATOM     76  O   UNL A   1      32.403  35.343  30.082  1.00  0.00    -0.237 OA
ATOM     77  O   UNL A   1      33.938  36.194  28.354  1.00  0.00    -0.744 OA
ENDBRANCH  73  74
ENDBRANCH  41  66
BRANCH  53  78
ATOM     78  C   UNL A   1      39.968  33.975  37.287  1.00  0.00     0.058 A 
ATOM     79  C   UNL A   1      40.561  35.247  37.284  1.00  0.00     0.135 A 
ATOM     80  C   UNL A   1      39.101  33.659  38.346  1.00  0.00     0.135 A 
ATOM     81  F   UNL A   1      41.403  35.600  36.301  1.00  0.00    -0.206 F 
ATOM     82  C   UNL A   1      40.322  36.162  38.305  1.00  0.00     0.059 A 
ATOM     83  C   UNL A   1      38.822  34.569  39.360  1.00  0.00     0.059 A 
ATOM     84  F   UNL A   1      38.498  32.460  38.393  1.00  0.00    -0.206 F 
ATOM     85  C   UNL A   1      39.447  35.815  39.337  1.00  0.00     0.060 A 
BRANCH  85  86
ATOM     86  S   UNL A   1      39.118  37.025  40.637  1.00  0.00     0.124 S 
ATOM     87  O   UNL A   1      38.492  36.195  41.661  1.00  0.00    -0.237 OA
ATOM     88  O   UNL A   1      40.456  37.518  40.949  1.00  0.00    -0.237 OA
ATOM     89  O   UNL A   1      38.237  37.991  39.987  1.00  0.00    -0.744 OA
ENDBRANCH  85  86
ENDBRANCH  53  78
ENDBRANCH  27  28
ENDBRANCH  19  22
ENDBRANCH  17  18
ENDBRANCH  16  17
ENDBRANCH   1  16
TORSDOF 18
ENDMDL
MODEL 3
REMARK VINA RESULT:      -9.9      2.572      4.250
REMARK SMILES O=C(CCCC[C@@H]1CCSS1)NCCCCNC(=O)c1ccc(-c2c3nc(c(-c4c(F)cc(S(=O)(=O)[O-])cc4F)c4ccc([nH]4)c(-c4c(F)cc(S(=O)(=O)[O-])cc4F)c4nc(c(-c5c(F)cc(S(=O)(=O)[O-])cc5F)c5ccc2[nH]5)C=C4)C=C3)cc1
REMARK SMILES IDX 14 1 13 2 12 3 1 4 2 5 3 7 4 8 5 9 6 10 7 11 8 12 11 13 9 14
REMARK SMILES IDX 10 15 15 16 16 17 17 18 18 19 19 21 20 22 21 23 85 24 22 25
REMARK SMILES IDX 84 26 23 27 24 28 25 29 78 30 26 31 83 32 77 33 79 34 27 35
REMARK SMILES IDX 82 36 76 37 75 38 28 40 62 41 41 42 61 43 42 44 45 45 60 46
REMARK SMILES IDX 80 47 43 48 44 49 59 51 81 52 46 53 29 54 30 55 39 56 31 57
REMARK SMILES IDX 32 58 38 59 40 60 33 61 34 62 35 63 36 64 37 65 63 66 64 67
REMARK SMILES IDX 73 68 65 69 66 70 72 71 74 72 67 73 68 74 69 75 70 76 71 77
REMARK SMILES IDX 47 78 48 79 57 80 49 81 50 82 56 83 58 84 51 85 52 86 53 87
REMARK SMILES IDX 54 88 55 89
REMARK H PARENT 12 6 17 20 79 39 45 50
REMARK Flexibility Score: inf
ROOT
ATOM      1  C   UNL A   1      41.145  20.803  27.316  1.00  0.00     0.023 C 
ENDROOT
BRANCH   1   2
ATOM      2  C   UNL A   1      41.991  20.221  26.185  1.00  0.00     0.116 C 
BRANCH   2   3
ATOM      3  N   UNL A   1      43.329  20.776  26.174  1.00  0.00    -0.356 N 
ATOM      4  O   UNL A   1      44.044  19.734  24.256  1.00  0.00    -0.275 OA
ATOM      5  C   UNL A   1      44.249  20.499  25.191  1.00  0.00     0.219 C 
ATOM      6  H   UNL A   1      43.592  21.380  26.906  1.00  0.00     0.163 HD
BRANCH   5   7
ATOM      7  C   UNL A   1      45.572  21.221  25.368  1.00  0.00     0.100 C 
BRANCH   7   8
ATOM      8  C   UNL A   1      45.783  22.361  24.372  1.00  0.00     0.010 C 
BRANCH   8   9
ATOM      9  C   UNL A   1      44.983  23.644  24.619  1.00  0.00     0.002 C 
BRANCH   9  10
ATOM     10  C   UNL A   1      45.664  24.723  25.475  1.00  0.00     0.015 C 
BRANCH  10  11
ATOM     11  C   UNL A   1      44.955  24.990  26.813  1.00  0.00     0.059 C 
ATOM     12  C   UNL A   1      45.192  26.414  27.336  1.00  0.00     0.027 C 
ATOM     13  S   UNL A   1      45.595  23.864  28.103  1.00  0.00    -0.091 SA
ATOM     14  C   UNL A   1      44.744  26.528  28.789  1.00  0.00     0.083 C 
ATOM     15  S   UNL A   1      45.534  25.172  29.676  1.00  0.00    -0.094 SA
ENDBRANCH  10  11
ENDBRANCH   9  10
ENDBRANCH   8   9
ENDBRANCH   7   8
ENDBRANCH   5   7
ENDBRANCH   2   3
ENDBRANCH   1   2
BRANCH   1  16
ATOM     16  C   UNL A   1      40.070  21.805  26.881  1.00  0.00     0.023 C 
BRANCH  16  17
ATOM     17  C   UNL A   1      40.369  23.268  27.192  1.00  0.00     0.116 C 
BRANCH  17  18
ATOM     18  N   UNL A   1      41.106  23.926  26.124  1.00  0.00    -0.352 N 
ATOM     19  C   UNL A   1      41.420  25.253  25.961  1.00  0.00     0.251 C 
ATOM     20  H   UNL A   1      41.429  23.329  25.411  1.00  0.00     0.163 HD
ATOM     21  O   UNL A   1      41.904  25.632  24.895  1.00  0.00    -0.269 OA
BRANCH  19  22
ATOM     22  C   UNL A   1      41.160  26.232  27.041  1.00  0.00     0.039 A 
ATOM     23  C   UNL A   1      40.295  25.876  28.080  1.00  0.00     0.014 A 
ATOM     24  C   UNL A   1      41.746  27.501  27.030  1.00  0.00     0.014 A 
ATOM     25  C   UNL A   1      40.075  26.762  29.140  1.00  0.00     0.010 A 
ATOM     26  C   UNL A   1      41.585  28.353  28.123  1.00  0.00     0.010 A 
ATOM     27  C   UNL A   1      40.749  27.994  29.192  1.00  0.00    -0.014 A 
BRANCH  27  28
ATOM     28  C   UNL A   1      40.604  28.906  30.360  1.00  0.00     0.031 A 
ATOM     29  C   UNL A   1      41.464  28.722  31.583  1.00  0.00     0.074 A 
ATOM     30  C   UNL A   1      39.652  29.861  30.345  1.00  0.00     0.049 A 
ATOM     31  N   UNL A   1      41.438  29.375  32.717  1.00  0.00    -0.248 NA
ATOM     32  C   UNL A   1      42.471  27.651  31.533  1.00  0.00     0.031 C 
ATOM     33  C   UNL A   1      38.725  30.116  29.240  1.00  0.00     0.029 A 
ATOM     34  N   UNL A   1      39.297  30.790  31.292  1.00  0.00    -0.354 N 
ATOM     35  C   UNL A   1      42.408  28.786  33.520  1.00  0.00     0.074 A 
ATOM     36  C   UNL A   1      42.973  27.691  32.760  1.00  0.00     0.031 C 
ATOM     37  C   UNL A   1      37.927  31.146  29.561  1.00  0.00     0.029 A 
ATOM     38  C   UNL A   1      38.250  31.598  30.910  1.00  0.00     0.049 A 
ATOM     39  H   UNL A   1      39.748  30.872  32.162  1.00  0.00     0.167 HD
ATOM     40  C   UNL A   1      42.807  29.137  34.766  1.00  0.00     0.037 A 
ATOM     41  C   UNL A   1      37.614  32.584  31.573  1.00  0.00     0.037 A 
ATOM     42  C   UNL A   1      42.254  30.241  35.509  1.00  0.00     0.049 A 
ATOM     43  C   UNL A   1      38.064  32.943  32.964  1.00  0.00     0.074 A 
ATOM     44  C   UNL A   1      42.635  30.715  36.753  1.00  0.00     0.029 A 
ATOM     45  N   UNL A   1      41.201  31.039  35.085  1.00  0.00    -0.354 N 
ATOM     46  N   UNL A   1      39.032  32.421  33.679  1.00  0.00    -0.248 NA
ATOM     47  C   UNL A   1      37.339  34.029  33.638  1.00  0.00     0.031 C 
ATOM     48  C   UNL A   1      41.776  31.761  37.105  1.00  0.00     0.029 A 
ATOM     49  C   UNL A   1      40.900  31.982  36.055  1.00  0.00     0.049 A 
ATOM     50  H   UNL A   1      40.737  30.948  34.222  1.00  0.00     0.167 HD
ATOM     51  C   UNL A   1      39.053  33.136  34.872  1.00  0.00     0.074 A 
ATOM     52  C   UNL A   1      38.008  34.135  34.777  1.00  0.00     0.031 C 
ATOM     53  C   UNL A   1      39.865  32.980  35.947  1.00  0.00     0.037 A 
BRANCH  40  54
ATOM     54  C   UNL A   1      43.891  28.317  35.415  1.00  0.00     0.058 A 
ATOM     55  C   UNL A   1      45.251  28.630  35.255  1.00  0.00     0.135 A 
ATOM     56  C   UNL A   1      43.564  27.235  36.249  1.00  0.00     0.135 A 
ATOM     57  F   UNL A   1      45.624  29.645  34.460  1.00  0.00    -0.206 F 
ATOM     58  C   UNL A   1      46.248  27.882  35.875  1.00  0.00     0.059 A 
ATOM     59  C   UNL A   1      44.543  26.493  36.903  1.00  0.00     0.059 A 
ATOM     60  F   UNL A   1      42.280  26.892  36.439  1.00  0.00    -0.206 F 
ATOM     61  C   UNL A   1      45.884  26.816  36.698  1.00  0.00     0.060 A 
BRANCH  61  62
ATOM     62  S   UNL A   1      47.190  25.863  37.501  1.00  0.00     0.124 S 
ATOM     63  O   UNL A   1      46.417  24.836  38.194  1.00  0.00    -0.237 OA
ATOM     64  O   UNL A   1      47.981  25.402  36.366  1.00  0.00    -0.237 OA
ATOM     65  O   UNL A   1      47.846  26.842  38.363  1.00  0.00    -0.744 OA
ENDBRANCH  61  62
ENDBRANCH  40  54
BRANCH  41  66
ATOM     66  C   UNL A   1      36.492  33.317  30.924  1.00  0.00     0.058 A 
ATOM     67  C   UNL A   1      35.170  33.146  31.361  1.00  0.00     0.135 A 
ATOM     68  C   UNL A   1      36.716  34.202  29.858  1.00  0.00     0.135 A 
ATOM     69  F   UNL A   1      34.901  32.305  32.371  1.00  0.00    -0.206 F 
ATOM     70  C   UNL A   1      34.108  33.808  30.753  1.00  0.00     0.059 A 
ATOM     71  C   UNL A   1      35.675  34.899  29.252  1.00  0.00     0.059 A 
ATOM     72  F   UNL A   1      37.964  34.415  29.410  1.00  0.00    -0.206 F 
ATOM     73  C   UNL A   1      34.372  34.686  29.699  1.00  0.00     0.060 A 
BRANCH  73  74
ATOM     74  S   UNL A   1      32.990  35.573  28.947  1.00  0.00     0.124 S 
ATOM     75  O   UNL A   1      32.160  35.866  30.109  1.00  0.00    -0.237 OA
ATOM     76  O   UNL A   1      33.659  36.717  28.334  1.00  0.00    -0.237 OA
ATOM     77  O   UNL A   1      32.440  34.601  28.008  1.00  0.00    -0.744 OA
ENDBRANCH  73  74
ENDBRANCH  41  66
BRANCH  53  78
ATOM     78  C   UNL A   1      39.692  33.938  37.096  1.00  0.00     0.058 A 
ATOM     79  C   UNL A   1      40.291  35.208  37.099  1.00  0.00     0.135 A 
ATOM     80  C   UNL A   1      38.871  33.599  38.184  1.00  0.00     0.135 A 
ATOM     81  F   UNL A   1      41.090  35.582  36.088  1.00  0.00    -0.206 F 
ATOM     82  C   UNL A   1      40.103  36.097  38.153  1.00  0.00     0.059 A 
ATOM     83  C   UNL A   1      38.643  34.484  39.233  1.00  0.00     0.059 A 
ATOM     84  F   UNL A   1      38.265  32.402  38.227  1.00  0.00    -0.206 F 
ATOM     85  C   UNL A   1      39.273  35.728  39.214  1.00  0.00     0.060 A 
BRANCH  85  86
ATOM     86  S   UNL A   1      39.009  36.905  40.557  1.00  0.00     0.124 S 
ATOM     87  O   UNL A   1      38.255  36.098  41.512  1.00  0.00    -0.237 OA
ATOM     88  O   UNL A   1      40.374  37.241  40.949  1.00  0.00    -0.237 OA
ATOM     89  O   UNL A   1      38.262  37.986  39.921  1.00  0.00    -0.744 OA
ENDBRANCH  85  86
ENDBRANCH  53  78
ENDBRANCH  27  28
ENDBRANCH  19  22
ENDBRANCH  17  18
ENDBRANCH  16  17
ENDBRANCH   1  16
TORSDOF 18
ENDMDL
