MODEL 1
REMARK VINA RESULT:     -11.3      0.000      0.000
REMARK SMILES NC(=O)c1cc(NC(=O)/C=C\C(=O)NCCCCNC(=O)c2ccc(-c3c4nc(c(-c5c(F)cc(S(=O)(=O)[O-])cc5F)c5ccc([nH]5)c(-c5c(F)cc(S(=O)(=O)[O-])cc5F)c5nc(c(-c6c(F)cc(S(=O)(=O)[O-])cc6F)c6ccc3[nH]6)C=C5)C=C4)cc2)ccc1N1CCOCC1
REMARK SMILES IDX 16 1 15 2 14 3 12 4 13 5 11 7 10 8 8 9 7 10 9 12 6 13 4 14
REMARK SMILES IDX 5 15 90 16 89 17 88 18 2 19 1 20 3 23 91 24 92 25 96 26
REMARK SMILES IDX 93 27 95 28 94 29 17 30 18 31 19 32 20 33 21 35 22 36 23 37
REMARK SMILES IDX 87 38 24 39 86 40 25 41 26 42 27 43 80 44 28 45 85 46 79 47
REMARK SMILES IDX 81 48 29 49 84 50 78 51 77 52 30 54 64 55 43 56 63 57 44 58
REMARK SMILES IDX 47 59 62 60 82 61 45 62 46 63 61 65 83 66 48 67 31 68 32 69
REMARK SMILES IDX 41 70 33 71 34 72 40 73 42 74 35 75 36 76 37 77 38 78 39 79
REMARK SMILES IDX 65 80 66 81 75 82 67 83 68 84 74 85 76 86 69 87 70 88 71 89
REMARK SMILES IDX 72 90 73 91 49 92 50 93 59 94 51 95 52 96 58 97 60 98 53 99
REMARK SMILES IDX 54 100 55 101 56 102 57 103
REMARK H PARENT 14 6 7 11 1 21 1 22 19 34 81 53 47 64
REMARK Flexibility Score: inf
ROOT
ATOM      1  C   UNL A   1      34.930  31.841  27.946  1.00  0.00     0.023 C 
ENDROOT
BRANCH   1   2
ATOM      2  C   UNL A   1      34.691  30.336  27.977  1.00  0.00     0.116 C 
BRANCH   2   3
ATOM      3  N   UNL A   1      33.379  29.903  27.556  1.00  0.00    -0.353 N 
ATOM      4  C   UNL A   1      33.087  29.113  26.494  1.00  0.00     0.244 C 
ATOM      5  O   UNL A   1      32.183  28.285  26.568  1.00  0.00    -0.270 OA
ATOM      6  H   UNL A   1      32.617  30.214  28.097  1.00  0.00     0.163 HD
BRANCH   4   7
ATOM      7  C   UNL A   1      33.874  29.198  25.251  1.00  0.00     0.077 C 
ATOM      8  C   UNL A   1      34.037  28.262  24.304  1.00  0.00     0.077 C 
BRANCH   8   9
ATOM      9  C   UNL A   1      33.387  26.947  24.085  1.00  0.00     0.248 C 
ATOM     10  N   UNL A   1      32.186  26.780  23.478  1.00  0.00    -0.322 N 
ATOM     11  H   UNL A   1      32.046  25.872  23.122  1.00  0.00     0.170 HD
ATOM     12  O   UNL A   1      34.022  25.947  24.430  1.00  0.00    -0.270 OA
BRANCH  10  13
ATOM     13  C   UNL A   1      31.107  27.640  23.258  1.00  0.00     0.042 A 
ATOM     14  C   UNL A   1      28.748  28.217  23.299  1.00  0.00     0.064 A 
ATOM     15  C   UNL A   1      29.789  27.293  23.519  1.00  0.00     0.042 A 
ATOM     16  C   UNL A   1      28.997  29.491  22.758  1.00  0.00     0.050 A 
ATOM     17  C   UNL A   1      30.347  29.805  22.502  1.00  0.00     0.029 A 
ATOM     18  C   UNL A   1      31.381  28.894  22.720  1.00  0.00     0.028 A 
BRANCH  14  19
ATOM     19  C   UNL A   1      27.401  27.689  23.601  1.00  0.00     0.250 C 
ATOM     20  N   UNL A   1      27.379  26.406  24.080  1.00  0.00    -0.366 N 
ATOM     21  H   UNL A   1      26.521  25.981  24.305  1.00  0.00     0.159 HD
ATOM     22  H   UNL A   1      28.222  25.911  24.197  1.00  0.00     0.159 HD
ATOM     23  O   UNL A   1      26.376  28.338  23.478  1.00  0.00    -0.269 OA
ENDBRANCH  14  19
BRANCH  16  24
ATOM     24  N   UNL A   1      28.060  30.429  22.358  1.00  0.00    -0.366 N 
ATOM     25  C   UNL A   1      27.806  30.825  20.967  1.00  0.00     0.145 C 
ATOM     26  C   UNL A   1      27.697  31.466  23.339  1.00  0.00     0.145 C 
ATOM     27  C   UNL A   1      28.389  32.221  20.663  1.00  0.00     0.181 C 
ATOM     28  C   UNL A   1      28.434  32.759  22.971  1.00  0.00     0.181 C 
ATOM     29  O   UNL A   1      28.045  33.205  21.661  1.00  0.00    -0.378 OA
ENDBRANCH  16  24
ENDBRANCH  10  13
ENDBRANCH   8   9
ENDBRANCH   4   7
ENDBRANCH   2   3
ENDBRANCH   1   2
BRANCH   1  30
ATOM     30  C   UNL A   1      33.683  32.725  28.000  1.00  0.00     0.023 C 
BRANCH  30  31
ATOM     31  C   UNL A   1      33.938  34.220  27.878  1.00  0.00     0.116 C 
BRANCH  31  32
ATOM     32  N   UNL A   1      33.132  34.970  28.821  1.00  0.00    -0.352 N 
ATOM     33  C   UNL A   1      33.157  34.954  30.191  1.00  0.00     0.251 C 
ATOM     34  H   UNL A   1      32.471  35.580  28.420  1.00  0.00     0.163 HD
ATOM     35  O   UNL A   1      32.217  35.439  30.813  1.00  0.00    -0.269 OA
BRANCH  33  36
ATOM     36  C   UNL A   1      34.312  34.377  30.913  1.00  0.00     0.039 A 
ATOM     37  C   UNL A   1      35.576  34.938  30.714  1.00  0.00     0.014 A 
ATOM     38  C   UNL A   1      34.169  33.235  31.708  1.00  0.00     0.014 A 
ATOM     39  C   UNL A   1      36.696  34.350  31.304  1.00  0.00     0.010 A 
ATOM     40  C   UNL A   1      35.273  32.697  32.359  1.00  0.00     0.010 A 
ATOM     41  C   UNL A   1      36.552  33.221  32.126  1.00  0.00    -0.014 A 
BRANCH  41  42
ATOM     42  C   UNL A   1      37.737  32.520  32.677  1.00  0.00     0.031 A 
ATOM     43  C   UNL A   1      38.287  32.935  34.017  1.00  0.00     0.074 A 
ATOM     44  C   UNL A   1      38.334  31.548  31.962  1.00  0.00     0.049 A 
ATOM     45  N   UNL A   1      39.339  32.492  34.655  1.00  0.00    -0.248 NA
ATOM     46  C   UNL A   1      37.577  34.018  34.720  1.00  0.00     0.031 C 
ATOM     47  C   UNL A   1      37.912  31.096  30.636  1.00  0.00     0.029 A 
ATOM     48  N   UNL A   1      39.424  30.770  32.249  1.00  0.00    -0.354 N 
ATOM     49  C   UNL A   1      39.428  33.254  35.816  1.00  0.00     0.074 A 
ATOM     50  C   UNL A   1      38.359  34.227  35.766  1.00  0.00     0.031 C 
ATOM     51  C   UNL A   1      38.722  30.104  30.233  1.00  0.00     0.029 A 
ATOM     52  C   UNL A   1      39.735  29.872  31.258  1.00  0.00     0.049 A 
ATOM     53  H   UNL A   1      39.937  30.847  33.086  1.00  0.00     0.167 HD
ATOM     54  C   UNL A   1      40.303  33.135  36.842  1.00  0.00     0.037 A 
ATOM     55  C   UNL A   1      40.727  28.962  31.187  1.00  0.00     0.037 A 
ATOM     56  C   UNL A   1      41.340  32.136  36.893  1.00  0.00     0.049 A 
ATOM     57  C   UNL A   1      41.668  28.823  32.353  1.00  0.00     0.074 A 
ATOM     58  C   UNL A   1      42.252  31.890  37.904  1.00  0.00     0.029 A 
ATOM     59  N   UNL A   1      41.597  31.215  35.887  1.00  0.00    -0.354 N 
ATOM     60  N   UNL A   1      41.708  29.518  33.468  1.00  0.00    -0.248 NA
ATOM     61  C   UNL A   1      42.683  27.768  32.263  1.00  0.00     0.031 C 
ATOM     62  C   UNL A   1      43.085  30.843  37.492  1.00  0.00     0.029 A 
ATOM     63  C   UNL A   1      42.658  30.403  36.248  1.00  0.00     0.049 A 
ATOM     64  H   UNL A   1      41.098  31.149  35.040  1.00  0.00     0.167 HD
ATOM     65  C   UNL A   1      42.731  28.959  34.226  1.00  0.00     0.074 A 
ATOM     66  C   UNL A   1      43.277  27.866  33.446  1.00  0.00     0.031 C 
ATOM     67  C   UNL A   1      43.176  29.314  35.458  1.00  0.00     0.037 A 
BRANCH  54  68
ATOM     68  C   UNL A   1      40.171  34.104  37.988  1.00  0.00     0.058 A 
ATOM     69  C   UNL A   1      40.851  35.333  38.001  1.00  0.00     0.135 A 
ATOM     70  C   UNL A   1      39.346  33.805  39.085  1.00  0.00     0.135 A 
ATOM     71  F   UNL A   1      41.666  35.666  36.987  1.00  0.00    -0.206 F 
ATOM     72  C   UNL A   1      40.752  36.211  39.075  1.00  0.00     0.059 A 
ATOM     73  C   UNL A   1      39.207  34.683  40.157  1.00  0.00     0.059 A 
ATOM     74  F   UNL A   1      38.671  32.645  39.128  1.00  0.00    -0.206 F 
ATOM     75  C   UNL A   1      39.930  35.875  40.152  1.00  0.00     0.060 A 
BRANCH  75  76
ATOM     76  S   UNL A   1      39.817  37.020  41.543  1.00  0.00     0.124 S 
ATOM     77  O   UNL A   1      41.222  37.161  41.916  1.00  0.00    -0.237 OA
ATOM     78  O   UNL A   1      39.205  38.196  40.932  1.00  0.00    -0.237 OA
ATOM     79  O   UNL A   1      38.980  36.309  42.503  1.00  0.00    -0.744 OA
ENDBRANCH  75  76
ENDBRANCH  54  68
BRANCH  55  80
ATOM     80  C   UNL A   1      40.844  28.087  29.991  1.00  0.00     0.058 A 
ATOM     81  C   UNL A   1      39.927  27.051  29.761  1.00  0.00     0.135 A 
ATOM     82  C   UNL A   1      41.854  28.288  29.037  1.00  0.00     0.135 A 
ATOM     83  F   UNL A   1      38.943  26.818  30.644  1.00  0.00    -0.206 F 
ATOM     84  C   UNL A   1      40.013  26.236  28.638  1.00  0.00     0.059 A 
ATOM     85  C   UNL A   1      41.946  27.502  27.893  1.00  0.00     0.059 A 
ATOM     86  F   UNL A   1      42.744  29.280  29.198  1.00  0.00    -0.206 F 
ATOM     87  C   UNL A   1      41.026  26.471  27.707  1.00  0.00     0.060 A 
BRANCH  87  88
ATOM     88  S   UNL A   1      41.094  25.443  26.223  1.00  0.00     0.124 S 
ATOM     89  O   UNL A   1      42.120  24.473  26.586  1.00  0.00    -0.237 OA
ATOM     90  O   UNL A   1      39.730  24.932  26.142  1.00  0.00    -0.237 OA
ATOM     91  O   UNL A   1      41.463  26.392  25.176  1.00  0.00    -0.744 OA
ENDBRANCH  87  88
ENDBRANCH  55  80
BRANCH  67  92
ATOM     92  C   UNL A   1      44.271  28.477  36.060  1.00  0.00     0.058 A 
ATOM     93  C   UNL A   1      43.997  27.326  36.814  1.00  0.00     0.135 A 
ATOM     94  C   UNL A   1      45.616  28.819  35.847  1.00  0.00     0.135 A 
ATOM     95  F   UNL A   1      42.728  26.958  37.049  1.00  0.00    -0.206 F 
ATOM     96  C   UNL A   1      45.019  26.562  37.368  1.00  0.00     0.059 A 
ATOM     97  C   UNL A   1      46.655  28.053  36.366  1.00  0.00     0.059 A 
ATOM     98  F   UNL A   1      45.933  29.902  35.121  1.00  0.00    -0.206 F 
ATOM     99  C   UNL A   1      46.346  26.936  37.141  1.00  0.00     0.060 A 
BRANCH  99 100
ATOM    100  S   UNL A   1      47.664  25.933  37.857  1.00  0.00     0.124 S 
ATOM    101  O   UNL A   1      48.323  26.898  38.731  1.00  0.00    -0.237 OA
ATOM    102  O   UNL A   1      46.921  24.872  38.530  1.00  0.00    -0.237 OA
ATOM    103  O   UNL A   1      48.438  25.509  36.694  1.00  0.00    -0.744 OA
ENDBRANCH  99 100
ENDBRANCH  67  92
ENDBRANCH  41  42
ENDBRANCH  33  36
ENDBRANCH  31  32
ENDBRANCH  30  31
ENDBRANCH   1  30
TORSDOF 18
ENDMDL
MODEL 2
REMARK VINA RESULT:     -11.2      3.663      9.593
REMARK SMILES NC(=O)c1cc(NC(=O)/C=C\C(=O)NCCCCNC(=O)c2ccc(-c3c4nc(c(-c5c(F)cc(S(=O)(=O)[O-])cc5F)c5ccc([nH]5)c(-c5c(F)cc(S(=O)(=O)[O-])cc5F)c5nc(c(-c6c(F)cc(S(=O)(=O)[O-])cc6F)c6ccc3[nH]6)C=C5)C=C4)cc2)ccc1N1CCOCC1
REMARK SMILES IDX 16 1 15 2 14 3 12 4 13 5 11 7 10 8 8 9 7 10 9 12 6 13 4 14
REMARK SMILES IDX 5 15 90 16 89 17 88 18 2 19 1 20 3 23 91 24 92 25 96 26
REMARK SMILES IDX 93 27 95 28 94 29 17 30 18 31 19 32 20 33 21 35 22 36 23 37
REMARK SMILES IDX 87 38 24 39 86 40 25 41 26 42 27 43 80 44 28 45 85 46 79 47
REMARK SMILES IDX 81 48 29 49 84 50 78 51 77 52 30 54 64 55 43 56 63 57 44 58
REMARK SMILES IDX 47 59 62 60 82 61 45 62 46 63 61 65 83 66 48 67 31 68 32 69
REMARK SMILES IDX 41 70 33 71 34 72 40 73 42 74 35 75 36 76 37 77 38 78 39 79
REMARK SMILES IDX 65 80 66 81 75 82 67 83 68 84 74 85 76 86 69 87 70 88 71 89
REMARK SMILES IDX 72 90 73 91 49 92 50 93 59 94 51 95 52 96 58 97 60 98 53 99
REMARK SMILES IDX 54 100 55 101 56 102 57 103
REMARK H PARENT 14 6 7 11 1 21 1 22 19 34 81 53 47 64
REMARK Flexibility Score: inf
ROOT
ATOM      1  C   UNL A   1      44.323  22.202  26.442  1.00  0.00     0.023 C 
ENDROOT
BRANCH   1   2
ATOM      2  C   UNL A   1      42.999  21.522  26.110  1.00  0.00     0.116 C 
BRANCH   2   3
ATOM      3  N   UNL A   1      42.173  21.178  27.245  1.00  0.00    -0.353 N 
ATOM      4  C   UNL A   1      41.039  20.436  27.227  1.00  0.00     0.244 C 
ATOM      5  O   UNL A   1      40.793  19.659  28.146  1.00  0.00    -0.270 OA
ATOM      6  H   UNL A   1      42.466  21.516  28.122  1.00  0.00     0.163 HD
BRANCH   4   7
ATOM      7  C   UNL A   1      40.106  20.509  26.089  1.00  0.00     0.077 C 
ATOM      8  C   UNL A   1      39.239  21.487  25.785  1.00  0.00     0.077 C 
BRANCH   8   9
ATOM      9  C   UNL A   1      39.039  22.845  26.346  1.00  0.00     0.248 C 
ATOM     10  N   UNL A   1      37.825  23.405  26.578  1.00  0.00    -0.322 N 
ATOM     11  H   UNL A   1      37.848  24.141  27.232  1.00  0.00     0.170 HD
ATOM     12  O   UNL A   1      40.052  23.469  26.673  1.00  0.00    -0.270 OA
BRANCH  10  13
ATOM     13  C   UNL A   1      36.549  23.143  26.073  1.00  0.00     0.042 A 
ATOM     14  C   UNL A   1      34.712  21.672  25.471  1.00  0.00     0.064 A 
ATOM     15  C   UNL A   1      36.017  21.866  25.966  1.00  0.00     0.042 A 
ATOM     16  C   UNL A   1      33.930  22.748  25.016  1.00  0.00     0.050 A 
ATOM     17  C   UNL A   1      34.505  24.029  25.138  1.00  0.00     0.029 A 
ATOM     18  C   UNL A   1      35.796  24.226  25.628  1.00  0.00     0.028 A 
BRANCH  14  19
ATOM     19  C   UNL A   1      34.302  20.254  25.396  1.00  0.00     0.250 C 
ATOM     20  N   UNL A   1      33.279  19.905  26.236  1.00  0.00    -0.366 N 
ATOM     21  H   UNL A   1      32.947  18.979  26.248  1.00  0.00     0.159 HD
ATOM     22  H   UNL A   1      32.877  20.581  26.829  1.00  0.00     0.159 HD
ATOM     23  O   UNL A   1      34.795  19.446  24.626  1.00  0.00    -0.269 OA
ENDBRANCH  14  19
BRANCH  16  24
ATOM     24  N   UNL A   1      32.704  22.682  24.377  1.00  0.00    -0.366 N 
ATOM     25  C   UNL A   1      32.482  22.962  22.952  1.00  0.00     0.145 C 
ATOM     26  C   UNL A   1      31.507  22.889  25.209  1.00  0.00     0.145 C 
ATOM     27  C   UNL A   1      31.793  24.328  22.749  1.00  0.00     0.181 C 
ATOM     28  C   UNL A   1      31.002  24.319  24.984  1.00  0.00     0.181 C 
ATOM     29  O   UNL A   1      30.645  24.514  23.604  1.00  0.00    -0.378 OA
ENDBRANCH  16  24
ENDBRANCH  10  13
ENDBRANCH   8   9
ENDBRANCH   4   7
ENDBRANCH   2   3
ENDBRANCH   1   2
BRANCH   1  30
ATOM     30  C   UNL A   1      44.299  23.203  27.597  1.00  0.00     0.023 C 
BRANCH  30  31
ATOM     31  C   UNL A   1      44.629  24.639  27.223  1.00  0.00     0.116 C 
BRANCH  31  32
ATOM     32  N   UNL A   1      43.958  25.033  25.999  1.00  0.00    -0.352 N 
ATOM     33  C   UNL A   1      42.840  25.806  25.832  1.00  0.00     0.251 C 
ATOM     34  H   UNL A   1      44.365  24.697  25.168  1.00  0.00     0.163 HD
ATOM     35  O   UNL A   1      42.260  25.796  24.750  1.00  0.00    -0.269 OA
BRANCH  33  36
ATOM     36  C   UNL A   1      42.345  26.658  26.936  1.00  0.00     0.039 A 
ATOM     37  C   UNL A   1      42.816  27.970  27.034  1.00  0.00     0.014 A 
ATOM     38  C   UNL A   1      41.495  26.143  27.920  1.00  0.00     0.014 A 
ATOM     39  C   UNL A   1      42.444  28.760  28.122  1.00  0.00     0.010 A 
ATOM     40  C   UNL A   1      41.061  26.956  28.961  1.00  0.00     0.010 A 
ATOM     41  C   UNL A   1      41.567  28.256  29.096  1.00  0.00    -0.014 A 
BRANCH  41  42
ATOM     42  C   UNL A   1      41.242  29.041  30.311  1.00  0.00     0.031 A 
ATOM     43  C   UNL A   1      42.061  28.847  31.561  1.00  0.00     0.074 A 
ATOM     44  C   UNL A   1      40.198  29.891  30.301  1.00  0.00     0.049 A 
ATOM     45  N   UNL A   1      41.914  29.391  32.741  1.00  0.00    -0.248 NA
ATOM     46  C   UNL A   1      43.174  27.885  31.482  1.00  0.00     0.031 C 
ATOM     47  C   UNL A   1      39.311  30.125  29.160  1.00  0.00     0.029 A 
ATOM     48  N   UNL A   1      39.704  30.710  31.281  1.00  0.00    -0.354 N 
ATOM     49  C   UNL A   1      42.898  28.823  33.545  1.00  0.00     0.074 A 
ATOM     50  C   UNL A   1      43.595  27.849  32.736  1.00  0.00     0.031 C 
ATOM     51  C   UNL A   1      38.394  31.045  29.499  1.00  0.00     0.029 A 
ATOM     52  C   UNL A   1      38.610  31.442  30.887  1.00  0.00     0.049 A 
ATOM     53  H   UNL A   1      40.094  30.769  32.183  1.00  0.00     0.167 HD
ATOM     54  C   UNL A   1      43.208  29.108  34.832  1.00  0.00     0.037 A 
ATOM     55  C   UNL A   1      37.867  32.334  31.572  1.00  0.00     0.037 A 
ATOM     56  C   UNL A   1      42.526  30.107  35.614  1.00  0.00     0.049 A 
ATOM     57  C   UNL A   1      38.250  32.661  32.989  1.00  0.00     0.074 A 
ATOM     58  C   UNL A   1      42.787  30.516  36.909  1.00  0.00     0.029 A 
ATOM     59  N   UNL A   1      41.448  30.858  35.165  1.00  0.00    -0.354 N 
ATOM     60  N   UNL A   1      39.215  32.152  33.721  1.00  0.00    -0.248 NA
ATOM     61  C   UNL A   1      37.459  33.694  33.668  1.00  0.00     0.031 C 
ATOM     62  C   UNL A   1      41.843  31.488  37.257  1.00  0.00     0.029 A 
ATOM     63  C   UNL A   1      41.027  31.723  36.160  1.00  0.00     0.049 A 
ATOM     64  H   UNL A   1      41.043  30.787  34.270  1.00  0.00     0.167 HD
ATOM     65  C   UNL A   1      39.168  32.829  34.934  1.00  0.00     0.074 A 
ATOM     66  C   UNL A   1      38.085  33.787  34.834  1.00  0.00     0.031 C 
ATOM     67  C   UNL A   1      39.952  32.676  36.031  1.00  0.00     0.037 A 
BRANCH  54  68
ATOM     68  C   UNL A   1      44.333  28.332  35.467  1.00  0.00     0.058 A 
ATOM     69  C   UNL A   1      45.668  28.763  35.387  1.00  0.00     0.135 A 
ATOM     70  C   UNL A   1      44.073  27.146  36.172  1.00  0.00     0.135 A 
ATOM     71  F   UNL A   1      45.978  29.882  34.712  1.00  0.00    -0.206 F 
ATOM     72  C   UNL A   1      46.707  28.028  35.946  1.00  0.00     0.059 A 
ATOM     73  C   UNL A   1      45.095  26.410  36.768  1.00  0.00     0.059 A 
ATOM     74  F   UNL A   1      42.817  26.685  36.282  1.00  0.00    -0.206 F 
ATOM     75  C   UNL A   1      46.411  26.849  36.632  1.00  0.00     0.060 A 
BRANCH  75  76
ATOM     76  S   UNL A   1      47.771  25.900  37.346  1.00  0.00     0.124 S 
ATOM     77  O   UNL A   1      47.780  24.718  36.489  1.00  0.00    -0.237 OA
ATOM     78  O   UNL A   1      48.903  26.806  37.184  1.00  0.00    -0.237 OA
ATOM     79  O   UNL A   1      47.344  25.675  38.723  1.00  0.00    -0.744 OA
ENDBRANCH  75  76
ENDBRANCH  54  68
BRANCH  55  80
ATOM     80  C   UNL A   1      36.722  33.009  30.905  1.00  0.00     0.058 A 
ATOM     81  C   UNL A   1      35.398  32.693  31.246  1.00  0.00     0.135 A 
ATOM     82  C   UNL A   1      36.926  34.004  29.938  1.00  0.00     0.135 A 
ATOM     83  F   UNL A   1      35.151  31.747  32.166  1.00  0.00    -0.206 F 
ATOM     84  C   UNL A   1      34.318  33.327  30.644  1.00  0.00     0.059 A 
ATOM     85  C   UNL A   1      35.862  34.672  29.339  1.00  0.00     0.059 A 
ATOM     86  F   UNL A   1      38.173  34.360  29.591  1.00  0.00    -0.206 F 
ATOM     87  C   UNL A   1      34.560  34.319  29.692  1.00  0.00     0.060 A 
BRANCH  87  88
ATOM     88  S   UNL A   1      33.151  35.178  28.957  1.00  0.00     0.124 S 
ATOM     89  O   UNL A   1      32.316  35.424  30.127  1.00  0.00    -0.237 OA
ATOM     90  O   UNL A   1      33.783  36.351  28.363  1.00  0.00    -0.237 OA
ATOM     91  O   UNL A   1      32.628  34.205  28.001  1.00  0.00    -0.744 OA
ENDBRANCH  87  88
ENDBRANCH  55  80
BRANCH  67  92
ATOM     92  C   UNL A   1      39.702  33.604  37.189  1.00  0.00     0.058 A 
ATOM     93  C   UNL A   1      38.760  33.310  38.186  1.00  0.00     0.135 A 
ATOM     94  C   UNL A   1      40.444  34.789  37.315  1.00  0.00     0.135 A 
ATOM     95  F   UNL A   1      38.022  32.191  38.110  1.00  0.00    -0.206 F 
ATOM     96  C   UNL A   1      38.536  34.178  39.249  1.00  0.00     0.059 A 
ATOM     97  C   UNL A   1      40.258  35.657  38.386  1.00  0.00     0.059 A 
ATOM     98  F   UNL A   1      41.369  35.110  36.395  1.00  0.00    -0.206 F 
ATOM     99  C   UNL A   1      39.288  35.351  39.339  1.00  0.00     0.060 A 
BRANCH  99 100
ATOM    100  S   UNL A   1      38.995  36.466  40.727  1.00  0.00     0.124 S 
ATOM    101  O   UNL A   1      38.019  35.712  41.506  1.00  0.00    -0.237 OA
ATOM    102  O   UNL A   1      40.324  36.585  41.319  1.00  0.00    -0.237 OA
ATOM    103  O   UNL A   1      38.488  37.677  40.089  1.00  0.00    -0.744 OA
ENDBRANCH  99 100
ENDBRANCH  67  92
ENDBRANCH  41  42
ENDBRANCH  33  36
ENDBRANCH  31  32
ENDBRANCH  30  31
ENDBRANCH   1  30
TORSDOF 18
ENDMDL
MODEL 3
REMARK VINA RESULT:     -11.1      6.227     12.913
REMARK SMILES NC(=O)c1cc(NC(=O)/C=C\C(=O)NCCCCNC(=O)c2ccc(-c3c4nc(c(-c5c(F)cc(S(=O)(=O)[O-])cc5F)c5ccc([nH]5)c(-c5c(F)cc(S(=O)(=O)[O-])cc5F)c5nc(c(-c6c(F)cc(S(=O)(=O)[O-])cc6F)c6ccc3[nH]6)C=C5)C=C4)cc2)ccc1N1CCOCC1
REMARK SMILES IDX 16 1 15 2 14 3 12 4 13 5 11 7 10 8 8 9 7 10 9 12 6 13 4 14
REMARK SMILES IDX 5 15 90 16 89 17 88 18 2 19 1 20 3 23 91 24 92 25 96 26
REMARK SMILES IDX 93 27 95 28 94 29 17 30 18 31 19 32 20 33 21 35 22 36 23 37
REMARK SMILES IDX 87 38 24 39 86 40 25 41 26 42 27 43 80 44 28 45 85 46 79 47
REMARK SMILES IDX 81 48 29 49 84 50 78 51 77 52 30 54 64 55 43 56 63 57 44 58
REMARK SMILES IDX 47 59 62 60 82 61 45 62 46 63 61 65 83 66 48 67 31 68 32 69
REMARK SMILES IDX 41 70 33 71 34 72 40 73 42 74 35 75 36 76 37 77 38 78 39 79
REMARK SMILES IDX 65 80 66 81 75 82 67 83 68 84 74 85 76 86 69 87 70 88 71 89
REMARK SMILES IDX 72 90 73 91 49 92 50 93 59 94 51 95 52 96 58 97 60 98 53 99
REMARK SMILES IDX 54 100 55 101 56 102 57 103
REMARK H PARENT 14 6 7 11 1 21 1 22 19 34 81 53 47 64
REMARK Flexibility Score: inf
ROOT
ATOM      1  C   UNL A   1      42.276  20.462  25.775  1.00  0.00     0.023 C 
ENDROOT
BRANCH   1   2
ATOM      2  C   UNL A   1      43.763  20.794  25.762  1.00  0.00     0.116 C 
BRANCH   2   3
ATOM      3  N   UNL A   1      44.221  21.562  24.628  1.00  0.00    -0.353 N 
ATOM      4  C   UNL A   1      44.424  22.902  24.582  1.00  0.00     0.244 C 
ATOM      5  O   UNL A   1      45.363  23.365  23.942  1.00  0.00    -0.270 OA
ATOM      6  H   UNL A   1      44.407  21.060  23.801  1.00  0.00     0.163 HD
BRANCH   4   7
ATOM      7  C   UNL A   1      43.554  23.822  25.335  1.00  0.00     0.077 C 
ATOM      8  C   UNL A   1      43.531  24.052  26.657  1.00  0.00     0.077 C 
BRANCH   8   9
ATOM      9  C   UNL A   1      44.431  23.625  27.754  1.00  0.00     0.248 C 
ATOM     10  N   UNL A   1      45.576  24.266  28.098  1.00  0.00    -0.322 N 
ATOM     11  H   UNL A   1      45.878  24.071  29.015  1.00  0.00     0.170 HD
ATOM     12  O   UNL A   1      44.069  22.655  28.427  1.00  0.00    -0.270 OA
BRANCH  10  13
ATOM     13  C   UNL A   1      46.411  25.148  27.409  1.00  0.00     0.042 A 
ATOM     14  C   UNL A   1      46.853  27.157  26.116  1.00  0.00     0.064 A 
ATOM     15  C   UNL A   1      45.954  26.294  26.773  1.00  0.00     0.042 A 
ATOM     16  C   UNL A   1      48.225  26.862  26.029  1.00  0.00     0.050 A 
ATOM     17  C   UNL A   1      48.651  25.688  26.683  1.00  0.00     0.029 A 
ATOM     18  C   UNL A   1      47.765  24.832  27.336  1.00  0.00     0.028 A 
BRANCH  14  19
ATOM     19  C   UNL A   1      46.208  28.318  25.469  1.00  0.00     0.250 C 
ATOM     20  N   UNL A   1      45.091  28.787  26.108  1.00  0.00    -0.366 N 
ATOM     21  H   UNL A   1      44.603  29.559  25.741  1.00  0.00     0.159 HD
ATOM     22  H   UNL A   1      44.778  28.352  26.933  1.00  0.00     0.159 HD
ATOM     23  O   UNL A   1      46.638  28.859  24.464  1.00  0.00    -0.269 OA
ENDBRANCH  14  19
BRANCH  16  24
ATOM     24  N   UNL A   1      49.182  27.540  25.295  1.00  0.00    -0.366 N 
ATOM     25  C   UNL A   1      49.877  27.002  24.117  1.00  0.00     0.145 C 
ATOM     26  C   UNL A   1      49.945  28.585  25.999  1.00  0.00     0.145 C 
ATOM     27  C   UNL A   1      51.333  26.613  24.451  1.00  0.00     0.181 C 
ATOM     28  C   UNL A   1      51.323  28.017  26.361  1.00  0.00     0.181 C 
ATOM     29  O   UNL A   1      52.040  27.644  25.172  1.00  0.00    -0.378 OA
ENDBRANCH  16  24
ENDBRANCH  10  13
ENDBRANCH   8   9
ENDBRANCH   4   7
ENDBRANCH   2   3
ENDBRANCH   1   2
BRANCH   1  30
ATOM     30  C   UNL A   1      41.595  20.454  27.144  1.00  0.00     0.023 C 
BRANCH  30  31
ATOM     31  C   UNL A   1      40.763  21.686  27.466  1.00  0.00     0.116 C 
BRANCH  31  32
ATOM     32  N   UNL A   1      39.744  21.911  26.459  1.00  0.00    -0.352 N 
ATOM     33  C   UNL A   1      38.940  23.003  26.267  1.00  0.00     0.251 C 
ATOM     34  H   UNL A   1      39.609  21.172  25.822  1.00  0.00     0.163 HD
ATOM     35  O   UNL A   1      37.950  22.900  25.548  1.00  0.00    -0.269 OA
BRANCH  33  36
ATOM     36  C   UNL A   1      39.269  24.298  26.902  1.00  0.00     0.039 A 
ATOM     37  C   UNL A   1      40.027  25.225  26.181  1.00  0.00     0.014 A 
ATOM     38  C   UNL A   1      38.915  24.563  28.228  1.00  0.00     0.014 A 
ATOM     39  C   UNL A   1      40.437  26.410  26.792  1.00  0.00     0.010 A 
ATOM     40  C   UNL A   1      39.256  25.778  28.811  1.00  0.00     0.010 A 
ATOM     41  C   UNL A   1      40.058  26.692  28.115  1.00  0.00    -0.014 A 
BRANCH  41  42
ATOM     42  C   UNL A   1      40.568  27.895  28.816  1.00  0.00     0.031 A 
ATOM     43  C   UNL A   1      42.000  27.929  29.285  1.00  0.00     0.074 A 
ATOM     44  C   UNL A   1      39.742  28.929  29.061  1.00  0.00     0.049 A 
ATOM     45  N   UNL A   1      42.630  28.855  29.959  1.00  0.00    -0.248 NA
ATOM     46  C   UNL A   1      42.825  26.745  28.984  1.00  0.00     0.031 C 
ATOM     47  C   UNL A   1      38.328  28.986  28.690  1.00  0.00     0.029 A 
ATOM     48  N   UNL A   1      39.972  30.128  29.683  1.00  0.00    -0.354 N 
ATOM     49  C   UNL A   1      43.911  28.359  30.180  1.00  0.00     0.074 A 
ATOM     50  C   UNL A   1      43.950  27.026  29.622  1.00  0.00     0.031 C 
ATOM     51  C   UNL A   1      37.821  30.169  29.074  1.00  0.00     0.029 A 
ATOM     52  C   UNL A   1      38.865  30.939  29.742  1.00  0.00     0.049 A 
ATOM     53  H   UNL A   1      40.847  30.384  30.055  1.00  0.00     0.167 HD
ATOM     54  C   UNL A   1      44.966  28.969  30.770  1.00  0.00     0.037 A 
ATOM     55  C   UNL A   1      38.713  32.167  30.275  1.00  0.00     0.037 A 
ATOM     56  C   UNL A   1      44.921  30.312  31.289  1.00  0.00     0.049 A 
ATOM     57  C   UNL A   1      39.907  32.841  30.895  1.00  0.00     0.074 A 
ATOM     58  C   UNL A   1      45.941  31.050  31.862  1.00  0.00     0.029 A 
ATOM     59  N   UNL A   1      43.791  31.118  31.292  1.00  0.00    -0.354 N 
ATOM     60  N   UNL A   1      41.126  32.378  31.052  1.00  0.00    -0.248 NA
ATOM     61  C   UNL A   1      39.712  34.208  31.392  1.00  0.00     0.031 C 
ATOM     62  C   UNL A   1      45.418  32.290  32.246  1.00  0.00     0.029 A 
ATOM     63  C   UNL A   1      44.086  32.344  31.863  1.00  0.00     0.049 A 
ATOM     64  H   UNL A   1      42.910  30.857  30.939  1.00  0.00     0.167 HD
ATOM     65  C   UNL A   1      41.852  33.411  31.635  1.00  0.00     0.074 A 
ATOM     66  C   UNL A   1      40.936  34.524  31.794  1.00  0.00     0.031 C 
ATOM     67  C   UNL A   1      43.158  33.440  32.001  1.00  0.00     0.037 A 
BRANCH  54  68
ATOM     68  C   UNL A   1      46.251  28.191  30.879  1.00  0.00     0.058 A 
ATOM     69  C   UNL A   1      46.537  27.386  31.994  1.00  0.00     0.135 A 
ATOM     70  C   UNL A   1      47.207  28.242  29.852  1.00  0.00     0.135 A 
ATOM     71  F   UNL A   1      45.667  27.310  33.015  1.00  0.00    -0.206 F 
ATOM     72  C   UNL A   1      47.738  26.694  32.107  1.00  0.00     0.059 A 
ATOM     73  C   UNL A   1      48.403  27.533  29.929  1.00  0.00     0.059 A 
ATOM     74  F   UNL A   1      46.989  28.995  28.762  1.00  0.00    -0.206 F 
ATOM     75  C   UNL A   1      48.668  26.777  31.069  1.00  0.00     0.060 A 
BRANCH  75  76
ATOM     76  S   UNL A   1      50.227  25.880  31.232  1.00  0.00     0.124 S 
ATOM     77  O   UNL A   1      50.517  25.549  29.841  1.00  0.00    -0.237 OA
ATOM     78  O   UNL A   1      51.100  26.879  31.840  1.00  0.00    -0.237 OA
ATOM     79  O   UNL A   1      49.881  24.750  32.089  1.00  0.00    -0.744 OA
ENDBRANCH  75  76
ENDBRANCH  54  68
BRANCH  55  80
ATOM     80  C   UNL A   1      37.394  32.849  30.198  1.00  0.00     0.058 A 
ATOM     81  C   UNL A   1      36.481  32.777  31.260  1.00  0.00     0.135 A 
ATOM     82  C   UNL A   1      37.032  33.611  29.077  1.00  0.00     0.135 A 
ATOM     83  F   UNL A   1      36.780  32.060  32.354  1.00  0.00    -0.206 F 
ATOM     84  C   UNL A   1      35.251  33.423  31.209  1.00  0.00     0.059 A 
ATOM     85  C   UNL A   1      35.818  34.287  29.013  1.00  0.00     0.059 A 
ATOM     86  F   UNL A   1      37.879  33.730  28.042  1.00  0.00    -0.206 F 
ATOM     87  C   UNL A   1      34.929  34.180  30.081  1.00  0.00     0.060 A 
BRANCH  87  88
ATOM     88  S   UNL A   1      33.352  35.061  30.050  1.00  0.00     0.124 S 
ATOM     89  O   UNL A   1      32.627  34.327  29.020  1.00  0.00    -0.237 OA
ATOM     90  O   UNL A   1      32.876  34.885  31.418  1.00  0.00    -0.237 OA
ATOM     91  O   UNL A   1      33.739  36.425  29.700  1.00  0.00    -0.744 OA
ENDBRANCH  87  88
ENDBRANCH  55  80
BRANCH  67  92
ATOM     92  C   UNL A   1      43.687  34.733  32.558  1.00  0.00     0.058 A 
ATOM     93  C   UNL A   1      44.168  35.758  31.729  1.00  0.00     0.135 A 
ATOM     94  C   UNL A   1      43.680  34.959  33.944  1.00  0.00     0.135 A 
ATOM     95  F   UNL A   1      44.200  35.591  30.397  1.00  0.00    -0.206 F 
ATOM     96  C   UNL A   1      44.658  36.948  32.257  1.00  0.00     0.059 A 
ATOM     97  C   UNL A   1      44.136  36.153  34.492  1.00  0.00     0.059 A 
ATOM     98  F   UNL A   1      43.216  34.016  34.780  1.00  0.00    -0.206 F 
ATOM     99  C   UNL A   1      44.640  37.135  33.640  1.00  0.00     0.060 A 
BRANCH  99 100
ATOM    100  S   UNL A   1      45.270  38.686  34.315  1.00  0.00     0.124 S 
ATOM    101  O   UNL A   1      44.301  39.644  33.796  1.00  0.00    -0.237 OA
ATOM    102  O   UNL A   1      45.218  38.446  35.753  1.00  0.00    -0.237 OA
ATOM    103  O   UNL A   1      46.613  38.781  33.749  1.00  0.00    -0.744 OA
ENDBRANCH  99 100
ENDBRANCH  67  92
ENDBRANCH  41  42
ENDBRANCH  33  36
ENDBRANCH  31  32
ENDBRANCH  30  31
ENDBRANCH   1  30
TORSDOF 18
ENDMDL
