MODEL 1
REMARK VINA RESULT:     -12.0      0.000      0.000
REMARK SMILES O=C(C[C@H](C(=O)NCCCCNC(=O)c1ccc(-c2c3nc(c(-c4c(F)cc(S(=O)(=O)[O-])cc4F)c4ccc([nH]4)c(-c4c(F)cc(S(=O)(=O)[O-])cc4F)c4nc(c(-c5c(F)cc(S(=O)(=O)[O-])cc5F)c5ccc2[nH]5)C=C4)C=C3)cc1)c1ccccc1)Nc1ccc(Cl)cc1Cl
REMARK SMILES IDX 9 1 8 2 7 3 5 4 6 5 4 7 3 8 2 9 1 10 87 11 88 13 89 14 94 15
REMARK SMILES IDX 90 16 93 17 95 18 91 19 92 20 81 21 82 22 86 23 83 24 85 25
REMARK SMILES IDX 84 26 10 27 11 28 12 29 13 30 14 32 15 33 16 34 80 35 17 36
REMARK SMILES IDX 79 37 18 38 19 39 20 40 73 41 21 42 78 43 72 44 74 45 22 46
REMARK SMILES IDX 77 47 71 48 70 49 23 51 57 52 36 53 56 54 37 55 40 56 55 57
REMARK SMILES IDX 75 58 38 59 39 60 54 62 76 63 41 64 24 65 25 66 34 67 26 68
REMARK SMILES IDX 27 69 33 70 35 71 28 72 29 73 30 74 31 75 32 76 58 77 59 78
REMARK SMILES IDX 68 79 60 80 61 81 67 82 69 83 62 84 63 85 64 86 65 87 66 88
REMARK SMILES IDX 42 89 43 90 52 91 44 92 45 93 51 94 53 95 46 96 47 97 48 98
REMARK SMILES IDX 49 99 50 100
REMARK H PARENT 7 6 87 12 12 31 74 50 40 61
REMARK Flexibility Score: inf
ROOT
ATOM      1  C   UNL A   1      34.731  23.534  23.901  1.00  0.00     0.023 C 
ENDROOT
BRANCH   1   2
ATOM      2  C   UNL A   1      33.740  22.493  24.421  1.00  0.00     0.116 C 
BRANCH   2   3
ATOM      3  N   UNL A   1      33.199  22.879  25.708  1.00  0.00    -0.356 N 
ATOM      4  C   UNL A   1      32.404  23.906  26.105  1.00  0.00     0.228 C 
ATOM      5  O   UNL A   1      31.892  23.785  27.225  1.00  0.00    -0.274 OA
ATOM      6  H   UNL A   1      33.460  22.277  26.442  1.00  0.00     0.163 HD
BRANCH   4   7
ATOM      7  C   UNL A   1      32.217  25.209  25.322  1.00  0.00     0.118 C 
BRANCH   7   8
ATOM      8  C   UNL A   1      30.952  25.078  24.430  1.00  0.00     0.118 C 
BRANCH   8   9
ATOM      9  C   UNL A   1      30.660  26.131  23.370  1.00  0.00     0.225 C 
ATOM     10  O   UNL A   1      31.183  26.081  22.261  1.00  0.00    -0.275 OA
ATOM     11  N   UNL A   1      29.806  27.115  23.799  1.00  0.00    -0.325 N 
ATOM     12  H   UNL A   1      29.510  27.062  24.736  1.00  0.00     0.169 HD
BRANCH  11  13
ATOM     13  C   UNL A   1      29.307  28.196  23.042  1.00  0.00     0.060 A 
ATOM     14  C   UNL A   1      30.274  29.016  22.444  1.00  0.00     0.029 A 
ATOM     15  C   UNL A   1      27.957  28.569  22.944  1.00  0.00     0.066 A 
ATOM     16  C   UNL A   1      29.925  30.189  21.777  1.00  0.00     0.023 A 
ATOM     17  C   UNL A   1      27.606  29.752  22.275  1.00  0.00     0.043 A 
ATOM     18  Cl  UNL A   1      26.688  27.748  23.782  1.00  0.00    -0.082 Cl
ATOM     19  C   UNL A   1      28.589  30.557  21.704  1.00  0.00     0.042 A 
ATOM     20  Cl  UNL A   1      28.153  32.031  20.932  1.00  0.00    -0.084 Cl
ENDBRANCH  11  13
ENDBRANCH   8   9
ENDBRANCH   7   8
BRANCH   7  21
ATOM     21  C   UNL A   1      32.540  26.519  26.030  1.00  0.00    -0.035 A 
ATOM     22  C   UNL A   1      33.702  27.261  25.754  1.00  0.00     0.004 A 
ATOM     23  C   UNL A   1      31.606  27.098  26.905  1.00  0.00     0.004 A 
ATOM     24  C   UNL A   1      33.984  28.450  26.433  1.00  0.00     0.000 A 
ATOM     25  C   UNL A   1      31.880  28.291  27.577  1.00  0.00     0.000 A 
ATOM     26  C   UNL A   1      33.080  28.956  27.360  1.00  0.00     0.000 A 
ENDBRANCH   7  21
ENDBRANCH   4   7
ENDBRANCH   2   3
ENDBRANCH   1   2
BRANCH   1  27
ATOM     27  C   UNL A   1      36.202  23.143  23.931  1.00  0.00     0.023 C 
BRANCH  27  28
ATOM     28  C   UNL A   1      36.978  23.390  25.218  1.00  0.00     0.116 C 
BRANCH  28  29
ATOM     29  N   UNL A   1      38.190  22.600  25.376  1.00  0.00    -0.352 N 
ATOM     30  C   UNL A   1      39.376  22.913  26.018  1.00  0.00     0.251 C 
ATOM     31  H   UNL A   1      38.163  21.706  24.963  1.00  0.00     0.163 HD
ATOM     32  O   UNL A   1      40.319  22.146  25.974  1.00  0.00    -0.269 OA
BRANCH  30  33
ATOM     33  C   UNL A   1      39.485  24.205  26.733  1.00  0.00     0.039 A 
ATOM     34  C   UNL A   1      38.939  24.347  28.010  1.00  0.00     0.014 A 
ATOM     35  C   UNL A   1      40.194  25.254  26.153  1.00  0.00     0.014 A 
ATOM     36  C   UNL A   1      39.214  25.502  28.750  1.00  0.00     0.010 A 
ATOM     37  C   UNL A   1      40.589  26.322  26.940  1.00  0.00     0.010 A 
ATOM     38  C   UNL A   1      40.093  26.473  28.244  1.00  0.00    -0.014 A 
BRANCH  38  39
ATOM     39  C   UNL A   1      40.484  27.694  28.998  1.00  0.00     0.031 A 
ATOM     40  C   UNL A   1      41.798  27.691  29.742  1.00  0.00     0.074 A 
ATOM     41  C   UNL A   1      39.633  28.732  29.129  1.00  0.00     0.049 A 
ATOM     42  N   UNL A   1      42.220  28.489  30.686  1.00  0.00    -0.248 NA
ATOM     43  C   UNL A   1      42.729  26.591  29.428  1.00  0.00     0.031 C 
ATOM     44  C   UNL A   1      38.308  28.839  28.513  1.00  0.00     0.029 A 
ATOM     45  N   UNL A   1      39.751  29.893  29.853  1.00  0.00    -0.354 N 
ATOM     46  C   UNL A   1      43.430  27.954  31.115  1.00  0.00     0.074 A 
ATOM     47  C   UNL A   1      43.640  26.729  30.378  1.00  0.00     0.031 C 
ATOM     48  C   UNL A   1      37.746  30.007  28.869  1.00  0.00     0.029 A 
ATOM     49  C   UNL A   1      38.648  30.711  29.774  1.00  0.00     0.049 A 
ATOM     50  H   UNL A   1      40.551  30.118  30.381  1.00  0.00     0.167 HD
ATOM     51  C   UNL A   1      44.309  28.457  32.012  1.00  0.00     0.037 A 
ATOM     52  C   UNL A   1      38.392  31.890  30.375  1.00  0.00     0.037 A 
ATOM     53  C   UNL A   1      44.139  29.726  32.665  1.00  0.00     0.049 A 
ATOM     54  C   UNL A   1      39.430  32.476  31.296  1.00  0.00     0.074 A 
ATOM     55  C   UNL A   1      44.988  30.360  33.555  1.00  0.00     0.029 A 
ATOM     56  N   UNL A   1      43.063  30.576  32.460  1.00  0.00    -0.354 N 
ATOM     57  N   UNL A   1      40.569  31.958  31.689  1.00  0.00    -0.248 NA
ATOM     58  C   UNL A   1      39.155  33.811  31.847  1.00  0.00     0.031 C 
ATOM     59  C   UNL A   1      44.425  31.596  33.887  1.00  0.00     0.029 A 
ATOM     60  C   UNL A   1      43.240  31.742  33.184  1.00  0.00     0.049 A 
ATOM     61  H   UNL A   1      42.289  30.379  31.886  1.00  0.00     0.167 HD
ATOM     62  C   UNL A   1      41.162  32.917  32.503  1.00  0.00     0.074 A 
ATOM     63  C   UNL A   1      40.260  34.050  32.540  1.00  0.00     0.031 C 
ATOM     64  C   UNL A   1      42.343  32.867  33.166  1.00  0.00     0.037 A 
BRANCH  51  65
ATOM     65  C   UNL A   1      45.550  27.658  32.298  1.00  0.00     0.058 A 
ATOM     66  C   UNL A   1      46.773  27.960  31.676  1.00  0.00     0.135 A 
ATOM     67  C   UNL A   1      45.528  26.596  33.215  1.00  0.00     0.135 A 
ATOM     68  F   UNL A   1      46.845  28.952  30.774  1.00  0.00    -0.206 F 
ATOM     69  C   UNL A   1      47.921  27.220  31.930  1.00  0.00     0.059 A 
ATOM     70  C   UNL A   1      46.674  25.861  33.509  1.00  0.00     0.059 A 
ATOM     71  F   UNL A   1      44.385  26.260  33.836  1.00  0.00    -0.206 F 
ATOM     72  C   UNL A   1      47.862  26.172  32.849  1.00  0.00     0.060 A 
BRANCH  72  73
ATOM     73  S   UNL A   1      49.367  25.233  33.180  1.00  0.00     0.124 S 
ATOM     74  O   UNL A   1      49.756  24.826  31.831  1.00  0.00    -0.237 OA
ATOM     75  O   UNL A   1      50.225  26.229  33.813  1.00  0.00    -0.237 OA
ATOM     76  O   UNL A   1      48.910  24.156  34.052  1.00  0.00    -0.744 OA
ENDBRANCH  72  73
ENDBRANCH  51  65
BRANCH  52  77
ATOM     77  C   UNL A   1      37.120  32.615  30.109  1.00  0.00     0.058 A 
ATOM     78  C   UNL A   1      37.046  33.591  29.102  1.00  0.00     0.135 A 
ATOM     79  C   UNL A   1      35.964  32.371  30.866  1.00  0.00     0.135 A 
ATOM     80  F   UNL A   1      38.125  33.861  28.353  1.00  0.00    -0.206 F 
ATOM     81  C   UNL A   1      35.886  34.324  28.879  1.00  0.00     0.059 A 
ATOM     82  C   UNL A   1      34.783  33.074  30.645  1.00  0.00     0.059 A 
ATOM     83  F   UNL A   1      35.974  31.432  31.825  1.00  0.00    -0.206 F 
ATOM     84  C   UNL A   1      34.759  34.063  29.661  1.00  0.00     0.060 A 
BRANCH  84  85
ATOM     85  S   UNL A   1      33.252  35.012  29.360  1.00  0.00     0.124 S 
ATOM     86  O   UNL A   1      32.600  34.205  28.335  1.00  0.00    -0.237 OA
ATOM     87  O   UNL A   1      32.617  35.011  30.674  1.00  0.00    -0.237 OA
ATOM     88  O   UNL A   1      33.758  36.308  28.918  1.00  0.00    -0.744 OA
ENDBRANCH  84  85
ENDBRANCH  52  77
BRANCH  64  89
ATOM     89  C   UNL A   1      42.762  34.093  33.924  1.00  0.00     0.058 A 
ATOM     90  C   UNL A   1      42.588  34.197  35.311  1.00  0.00     0.135 A 
ATOM     91  C   UNL A   1      43.400  35.150  33.255  1.00  0.00     0.135 A 
ATOM     92  F   UNL A   1      41.980  33.212  35.992  1.00  0.00    -0.206 F 
ATOM     93  C   UNL A   1      43.015  35.320  36.010  1.00  0.00     0.059 A 
ATOM     94  C   UNL A   1      43.855  36.272  33.938  1.00  0.00     0.059 A 
ATOM     95  F   UNL A   1      43.599  35.090  31.929  1.00  0.00    -0.206 F 
ATOM     96  C   UNL A   1      43.648  36.353  35.315  1.00  0.00     0.060 A 
BRANCH  96  97
ATOM     97  S   UNL A   1      44.230  37.790  36.238  1.00  0.00     0.124 S 
ATOM     98  O   UNL A   1      45.591  37.391  36.576  1.00  0.00    -0.237 OA
ATOM     99  O   UNL A   1      44.108  38.864  35.257  1.00  0.00    -0.237 OA
ATOM    100  O   UNL A   1      43.300  37.869  37.361  1.00  0.00    -0.744 OA
ENDBRANCH  96  97
ENDBRANCH  64  89
ENDBRANCH  38  39
ENDBRANCH  30  33
ENDBRANCH  28  29
ENDBRANCH  27  28
ENDBRANCH   1  27
TORSDOF 18
ENDMDL
MODEL 2
REMARK VINA RESULT:     -11.8      3.224      9.485
REMARK SMILES O=C(C[C@H](C(=O)NCCCCNC(=O)c1ccc(-c2c3nc(c(-c4c(F)cc(S(=O)(=O)[O-])cc4F)c4ccc([nH]4)c(-c4c(F)cc(S(=O)(=O)[O-])cc4F)c4nc(c(-c5c(F)cc(S(=O)(=O)[O-])cc5F)c5ccc2[nH]5)C=C4)C=C3)cc1)c1ccccc1)Nc1ccc(Cl)cc1Cl
REMARK SMILES IDX 9 1 8 2 7 3 5 4 6 5 4 7 3 8 2 9 1 10 87 11 88 13 89 14 94 15
REMARK SMILES IDX 90 16 93 17 95 18 91 19 92 20 81 21 82 22 86 23 83 24 85 25
REMARK SMILES IDX 84 26 10 27 11 28 12 29 13 30 14 32 15 33 16 34 80 35 17 36
REMARK SMILES IDX 79 37 18 38 19 39 20 40 73 41 21 42 78 43 72 44 74 45 22 46
REMARK SMILES IDX 77 47 71 48 70 49 23 51 57 52 36 53 56 54 37 55 40 56 55 57
REMARK SMILES IDX 75 58 38 59 39 60 54 62 76 63 41 64 24 65 25 66 34 67 26 68
REMARK SMILES IDX 27 69 33 70 35 71 28 72 29 73 30 74 31 75 32 76 58 77 59 78
REMARK SMILES IDX 68 79 60 80 61 81 67 82 69 83 62 84 63 85 64 86 65 87 66 88
REMARK SMILES IDX 42 89 43 90 52 91 44 92 45 93 51 94 53 95 46 96 47 97 48 98
REMARK SMILES IDX 49 99 50 100
REMARK H PARENT 7 6 87 12 12 31 74 50 40 61
REMARK Flexibility Score: inf
ROOT
ATOM      1  C   UNL A   1      32.896  26.988  26.305  1.00  0.00     0.023 C 
ENDROOT
BRANCH   1   2
ATOM      2  C   UNL A   1      31.398  27.238  26.480  1.00  0.00     0.116 C 
BRANCH   2   3
ATOM      3  N   UNL A   1      30.614  26.250  25.767  1.00  0.00    -0.356 N 
ATOM      4  C   UNL A   1      30.498  25.937  24.451  1.00  0.00     0.228 C 
ATOM      5  O   UNL A   1      29.959  24.851  24.204  1.00  0.00    -0.274 OA
ATOM      6  H   UNL A   1      30.053  25.694  26.355  1.00  0.00     0.163 HD
BRANCH   4   7
ATOM      7  C   UNL A   1      30.871  26.879  23.301  1.00  0.00     0.118 C 
BRANCH   7   8
ATOM      8  C   UNL A   1      31.627  26.065  22.216  1.00  0.00     0.118 C 
BRANCH   8   9
ATOM      9  C   UNL A   1      33.018  25.519  22.511  1.00  0.00     0.225 C 
ATOM     10  O   UNL A   1      34.009  25.955  21.934  1.00  0.00    -0.275 OA
ATOM     11  N   UNL A   1      33.021  24.505  23.434  1.00  0.00    -0.325 N 
ATOM     12  H   UNL A   1      32.143  24.215  23.771  1.00  0.00     0.169 HD
BRANCH  11  13
ATOM     13  C   UNL A   1      34.147  23.832  23.952  1.00  0.00     0.060 A 
ATOM     14  C   UNL A   1      35.141  23.502  23.019  1.00  0.00     0.029 A 
ATOM     15  C   UNL A   1      34.290  23.375  25.272  1.00  0.00     0.066 A 
ATOM     16  C   UNL A   1      36.243  22.726  23.369  1.00  0.00     0.023 A 
ATOM     17  C   UNL A   1      35.399  22.591  25.625  1.00  0.00     0.043 A 
ATOM     18  Cl  UNL A   1      33.059  23.558  26.471  1.00  0.00    -0.082 Cl
ATOM     19  C   UNL A   1      36.363  22.264  24.673  1.00  0.00     0.042 A 
ATOM     20  Cl  UNL A   1      37.691  21.259  25.102  1.00  0.00    -0.084 Cl
ENDBRANCH  11  13
ENDBRANCH   8   9
ENDBRANCH   7   8
BRANCH   7  21
ATOM     21  C   UNL A   1      29.870  27.959  22.911  1.00  0.00    -0.035 A 
ATOM     22  C   UNL A   1      28.514  27.900  23.277  1.00  0.00     0.004 A 
ATOM     23  C   UNL A   1      30.307  29.129  22.268  1.00  0.00     0.004 A 
ATOM     24  C   UNL A   1      27.611  28.894  22.888  1.00  0.00     0.000 A 
ATOM     25  C   UNL A   1      29.410  30.130  21.887  1.00  0.00     0.000 A 
ATOM     26  C   UNL A   1      28.057  30.001  22.175  1.00  0.00     0.000 A 
ENDBRANCH   7  21
ENDBRANCH   4   7
ENDBRANCH   2   3
ENDBRANCH   1   2
BRANCH   1  27
ATOM     27  C   UNL A   1      33.829  28.056  26.860  1.00  0.00     0.023 C 
BRANCH  27  28
ATOM     28  C   UNL A   1      33.776  29.443  26.234  1.00  0.00     0.116 C 
BRANCH  28  29
ATOM     29  N   UNL A   1      33.645  30.546  27.174  1.00  0.00    -0.352 N 
ATOM     30  C   UNL A   1      34.515  30.980  28.160  1.00  0.00     0.251 C 
ATOM     31  H   UNL A   1      32.810  31.064  27.097  1.00  0.00     0.163 HD
ATOM     32  O   UNL A   1      34.193  31.882  28.911  1.00  0.00    -0.269 OA
BRANCH  30  33
ATOM     33  C   UNL A   1      35.829  30.312  28.301  1.00  0.00     0.039 A 
ATOM     34  C   UNL A   1      36.767  30.387  27.270  1.00  0.00     0.014 A 
ATOM     35  C   UNL A   1      36.148  29.670  29.494  1.00  0.00     0.014 A 
ATOM     36  C   UNL A   1      38.068  29.921  27.490  1.00  0.00     0.010 A 
ATOM     37  C   UNL A   1      37.469  29.350  29.761  1.00  0.00     0.010 A 
ATOM     38  C   UNL A   1      38.446  29.454  28.759  1.00  0.00    -0.014 A 
BRANCH  38  39
ATOM     39  C   UNL A   1      39.825  29.004  29.087  1.00  0.00     0.031 A 
ATOM     40  C   UNL A   1      40.788  30.005  29.680  1.00  0.00     0.074 A 
ATOM     41  C   UNL A   1      40.254  27.772  28.743  1.00  0.00     0.049 A 
ATOM     42  N   UNL A   1      42.090  29.950  29.776  1.00  0.00    -0.248 NA
ATOM     43  C   UNL A   1      40.206  31.272  30.161  1.00  0.00     0.031 C 
ATOM     44  C   UNL A   1      39.446  26.728  28.110  1.00  0.00     0.029 A 
ATOM     45  N   UNL A   1      41.496  27.198  28.858  1.00  0.00    -0.354 N 
ATOM     46  C   UNL A   1      42.481  31.190  30.269  1.00  0.00     0.074 A 
ATOM     47  C   UNL A   1      41.289  31.998  30.387  1.00  0.00     0.031 C 
ATOM     48  C   UNL A   1      40.206  25.637  27.911  1.00  0.00     0.029 A 
ATOM     49  C   UNL A   1      41.566  25.919  28.359  1.00  0.00     0.049 A 
ATOM     50  H   UNL A   1      42.267  27.661  29.261  1.00  0.00     0.167 HD
ATOM     51  C   UNL A   1      43.717  31.607  30.630  1.00  0.00     0.037 A 
ATOM     52  C   UNL A   1      42.613  25.076  28.263  1.00  0.00     0.037 A 
ATOM     53  C   UNL A   1      44.879  30.763  30.604  1.00  0.00     0.049 A 
ATOM     54  C   UNL A   1      43.959  25.530  28.762  1.00  0.00     0.074 A 
ATOM     55  C   UNL A   1      46.174  31.061  30.995  1.00  0.00     0.029 A 
ATOM     56  N   UNL A   1      44.876  29.435  30.205  1.00  0.00    -0.354 N 
ATOM     57  N   UNL A   1      44.312  26.705  29.227  1.00  0.00    -0.248 NA
ATOM     58  C   UNL A   1      45.049  24.543  28.735  1.00  0.00     0.031 C 
ATOM     59  C   UNL A   1      46.953  29.912  30.832  1.00  0.00     0.029 A 
ATOM     60  C   UNL A   1      46.138  28.892  30.366  1.00  0.00     0.049 A 
ATOM     61  H   UNL A   1      44.093  28.951  29.857  1.00  0.00     0.167 HD
ATOM     62  C   UNL A   1      45.651  26.588  29.581  1.00  0.00     0.074 A 
ATOM     63  C   UNL A   1      46.045  25.226  29.284  1.00  0.00     0.031 C 
ATOM     64  C   UNL A   1      46.486  27.521  30.101  1.00  0.00     0.037 A 
BRANCH  51  65
ATOM     65  C   UNL A   1      43.859  33.017  31.130  1.00  0.00     0.058 A 
ATOM     66  C   UNL A   1      43.645  33.340  32.481  1.00  0.00     0.135 A 
ATOM     67  C   UNL A   1      44.235  34.055  30.262  1.00  0.00     0.135 A 
ATOM     68  F   UNL A   1      43.262  32.390  33.349  1.00  0.00    -0.206 F 
ATOM     69  C   UNL A   1      43.767  34.644  32.946  1.00  0.00     0.059 A 
ATOM     70  C   UNL A   1      44.394  35.362  30.713  1.00  0.00     0.059 A 
ATOM     71  F   UNL A   1      44.449  33.805  28.960  1.00  0.00    -0.206 F 
ATOM     72  C   UNL A   1      44.143  35.648  32.055  1.00  0.00     0.060 A 
BRANCH  72  73
ATOM     73  S   UNL A   1      44.315  37.332  32.681  1.00  0.00     0.124 S 
ATOM     74  O   UNL A   1      43.396  37.314  33.817  1.00  0.00    -0.237 OA
ATOM     75  O   UNL A   1      45.734  37.400  33.015  1.00  0.00    -0.237 OA
ATOM     76  O   UNL A   1      43.900  38.158  31.551  1.00  0.00    -0.744 OA
ENDBRANCH  72  73
ENDBRANCH  51  65
BRANCH  52  77
ATOM     77  C   UNL A   1      42.436  23.709  27.702  1.00  0.00     0.058 A 
ATOM     78  C   UNL A   1      42.332  22.593  28.548  1.00  0.00     0.135 A 
ATOM     79  C   UNL A   1      42.392  23.483  26.318  1.00  0.00     0.135 A 
ATOM     80  F   UNL A   1      42.370  22.758  29.880  1.00  0.00    -0.206 F 
ATOM     81  C   UNL A   1      42.229  21.301  28.045  1.00  0.00     0.059 A 
ATOM     82  C   UNL A   1      42.264  22.201  25.790  1.00  0.00     0.059 A 
ATOM     83  F   UNL A   1      42.463  24.517  25.465  1.00  0.00    -0.206 F 
ATOM     84  C   UNL A   1      42.203  21.114  26.662  1.00  0.00     0.060 A 
BRANCH  84  85
ATOM     85  S   UNL A   1      42.059  19.434  26.014  1.00  0.00     0.124 S 
ATOM     86  O   UNL A   1      42.909  19.504  24.831  1.00  0.00    -0.237 OA
ATOM     87  O   UNL A   1      42.568  18.630  27.121  1.00  0.00    -0.237 OA
ATOM     88  O   UNL A   1      40.628  19.298  25.758  1.00  0.00    -0.744 OA
ENDBRANCH  84  85
ENDBRANCH  52  77
BRANCH  64  89
ATOM     89  C   UNL A   1      47.879  27.085  30.448  1.00  0.00     0.058 A 
ATOM     90  C   UNL A   1      48.910  27.084  29.499  1.00  0.00     0.135 A 
ATOM     91  C   UNL A   1      48.193  26.720  31.768  1.00  0.00     0.135 A 
ATOM     92  F   UNL A   1      48.656  27.422  28.225  1.00  0.00    -0.206 F 
ATOM     93  C   UNL A   1      50.206  26.715  29.840  1.00  0.00     0.059 A 
ATOM     94  C   UNL A   1      49.487  26.370  32.136  1.00  0.00     0.059 A 
ATOM     95  F   UNL A   1      47.241  26.717  32.714  1.00  0.00    -0.206 F 
ATOM     96  C   UNL A   1      50.486  26.360  31.162  1.00  0.00     0.060 A 
BRANCH  96  97
ATOM     97  S   UNL A   1      52.179  25.918  31.602  1.00  0.00     0.124 S 
ATOM     98  O   UNL A   1      52.423  26.790  32.745  1.00  0.00    -0.237 OA
ATOM     99  O   UNL A   1      52.063  24.494  31.903  1.00  0.00    -0.237 OA
ATOM    100  O   UNL A   1      52.935  26.236  30.394  1.00  0.00    -0.744 OA
ENDBRANCH  96  97
ENDBRANCH  64  89
ENDBRANCH  38  39
ENDBRANCH  30  33
ENDBRANCH  28  29
ENDBRANCH  27  28
ENDBRANCH   1  27
TORSDOF 18
ENDMDL
MODEL 3
REMARK VINA RESULT:     -11.7      3.749      9.857
REMARK SMILES O=C(C[C@H](C(=O)NCCCCNC(=O)c1ccc(-c2c3nc(c(-c4c(F)cc(S(=O)(=O)[O-])cc4F)c4ccc([nH]4)c(-c4c(F)cc(S(=O)(=O)[O-])cc4F)c4nc(c(-c5c(F)cc(S(=O)(=O)[O-])cc5F)c5ccc2[nH]5)C=C4)C=C3)cc1)c1ccccc1)Nc1ccc(Cl)cc1Cl
REMARK SMILES IDX 9 1 8 2 7 3 5 4 6 5 4 7 3 8 2 9 1 10 87 11 88 13 89 14 94 15
REMARK SMILES IDX 90 16 93 17 95 18 91 19 92 20 81 21 82 22 86 23 83 24 85 25
REMARK SMILES IDX 84 26 10 27 11 28 12 29 13 30 14 32 15 33 16 34 80 35 17 36
REMARK SMILES IDX 79 37 18 38 19 39 20 40 73 41 21 42 78 43 72 44 74 45 22 46
REMARK SMILES IDX 77 47 71 48 70 49 23 51 57 52 36 53 56 54 37 55 40 56 55 57
REMARK SMILES IDX 75 58 38 59 39 60 54 62 76 63 41 64 24 65 25 66 34 67 26 68
REMARK SMILES IDX 27 69 33 70 35 71 28 72 29 73 30 74 31 75 32 76 58 77 59 78
REMARK SMILES IDX 68 79 60 80 61 81 67 82 69 83 62 84 63 85 64 86 65 87 66 88
REMARK SMILES IDX 42 89 43 90 52 91 44 92 45 93 51 94 53 95 46 96 47 97 48 98
REMARK SMILES IDX 49 99 50 100
REMARK H PARENT 7 6 87 12 12 31 74 50 40 61
REMARK Flexibility Score: inf
ROOT
ATOM      1  C   UNL A   1      33.741  27.554  24.507  1.00  0.00     0.023 C 
ENDROOT
BRANCH   1   2
ATOM      2  C   UNL A   1      32.780  26.479  24.000  1.00  0.00     0.116 C 
BRANCH   2   3
ATOM      3  N   UNL A   1      31.993  25.925  25.084  1.00  0.00    -0.356 N 
ATOM      4  C   UNL A   1      32.083  24.771  25.794  1.00  0.00     0.228 C 
ATOM      5  O   UNL A   1      31.427  24.734  26.842  1.00  0.00    -0.274 OA
ATOM      6  H   UNL A   1      31.244  26.500  25.360  1.00  0.00     0.163 HD
BRANCH   4   7
ATOM      7  C   UNL A   1      32.825  23.517  25.318  1.00  0.00     0.118 C 
BRANCH   7   8
ATOM      8  C   UNL A   1      31.982  22.829  24.210  1.00  0.00     0.118 C 
BRANCH   8   9
ATOM      9  C   UNL A   1      32.290  21.394  23.806  1.00  0.00     0.225 C 
ATOM     10  O   UNL A   1      32.002  20.969  22.691  1.00  0.00    -0.275 OA
ATOM     11  N   UNL A   1      32.874  20.659  24.807  1.00  0.00    -0.325 N 
ATOM     12  H   UNL A   1      32.992  21.112  25.673  1.00  0.00     0.169 HD
BRANCH  11  13
ATOM     13  C   UNL A   1      33.322  19.324  24.729  1.00  0.00     0.060 A 
ATOM     14  C   UNL A   1      32.322  18.343  24.798  1.00  0.00     0.029 A 
ATOM     15  C   UNL A   1      34.664  18.913  24.709  1.00  0.00     0.066 A 
ATOM     16  C   UNL A   1      32.634  16.986  24.862  1.00  0.00     0.023 A 
ATOM     17  C   UNL A   1      34.978  17.547  24.776  1.00  0.00     0.043 A 
ATOM     18  Cl  UNL A   1      35.990  20.017  24.805  1.00  0.00    -0.082 Cl
ATOM     19  C   UNL A   1      33.965  16.594  24.861  1.00  0.00     0.042 A 
ATOM     20  Cl  UNL A   1      34.361  14.925  24.996  1.00  0.00    -0.084 Cl
ENDBRANCH  11  13
ENDBRANCH   8   9
ENDBRANCH   7   8
BRANCH   7  21
ATOM     21  C   UNL A   1      34.344  23.585  25.215  1.00  0.00    -0.035 A 
ATOM     22  C   UNL A   1      35.016  23.625  23.980  1.00  0.00     0.004 A 
ATOM     23  C   UNL A   1      35.125  23.738  26.373  1.00  0.00     0.004 A 
ATOM     24  C   UNL A   1      36.412  23.666  23.913  1.00  0.00     0.000 A 
ATOM     25  C   UNL A   1      36.519  23.790  26.309  1.00  0.00     0.000 A 
ATOM     26  C   UNL A   1      37.165  23.729  25.080  1.00  0.00     0.000 A 
ENDBRANCH   7  21
ENDBRANCH   4   7
ENDBRANCH   2   3
ENDBRANCH   1   2
BRANCH   1  27
ATOM     27  C   UNL A   1      33.140  28.633  25.398  1.00  0.00     0.023 C 
BRANCH  27  28
ATOM     28  C   UNL A   1      33.589  28.687  26.852  1.00  0.00     0.116 C 
BRANCH  28  29
ATOM     29  N   UNL A   1      33.583  30.011  27.457  1.00  0.00    -0.352 N 
ATOM     30  C   UNL A   1      34.581  30.673  28.153  1.00  0.00     0.251 C 
ATOM     31  H   UNL A   1      32.741  30.512  27.357  1.00  0.00     0.163 HD
ATOM     32  O   UNL A   1      34.359  31.756  28.661  1.00  0.00    -0.269 OA
BRANCH  30  33
ATOM     33  C   UNL A   1      35.907  30.031  28.290  1.00  0.00     0.039 A 
ATOM     34  C   UNL A   1      36.823  30.085  27.237  1.00  0.00     0.014 A 
ATOM     35  C   UNL A   1      36.260  29.433  29.497  1.00  0.00     0.014 A 
ATOM     36  C   UNL A   1      38.136  29.647  27.447  1.00  0.00     0.010 A 
ATOM     37  C   UNL A   1      37.591  29.143  29.747  1.00  0.00     0.010 A 
ATOM     38  C   UNL A   1      38.547  29.229  28.723  1.00  0.00    -0.014 A 
BRANCH  38  39
ATOM     39  C   UNL A   1      39.939  28.811  29.037  1.00  0.00     0.031 A 
ATOM     40  C   UNL A   1      40.879  29.830  29.635  1.00  0.00     0.074 A 
ATOM     41  C   UNL A   1      40.398  27.595  28.677  1.00  0.00     0.049 A 
ATOM     42  N   UNL A   1      42.183  29.808  29.723  1.00  0.00    -0.248 NA
ATOM     43  C   UNL A   1      40.267  31.076  30.134  1.00  0.00     0.031 C 
ATOM     44  C   UNL A   1      39.613  26.537  28.038  1.00  0.00     0.029 A 
ATOM     45  N   UNL A   1      41.655  27.053  28.779  1.00  0.00    -0.354 N 
ATOM     46  C   UNL A   1      42.545  31.053  30.227  1.00  0.00     0.074 A 
ATOM     47  C   UNL A   1      41.333  31.828  30.361  1.00  0.00     0.031 C 
ATOM     48  C   UNL A   1      40.400  25.469  27.822  1.00  0.00     0.029 A 
ATOM     49  C   UNL A   1      41.755  25.781  28.264  1.00  0.00     0.049 A 
ATOM     50  H   UNL A   1      42.416  27.531  29.181  1.00  0.00     0.167 HD
ATOM     51  C   UNL A   1      43.771  31.498  30.586  1.00  0.00     0.037 A 
ATOM     52  C   UNL A   1      42.822  24.966  28.153  1.00  0.00     0.037 A 
ATOM     53  C   UNL A   1      44.955  30.685  30.543  1.00  0.00     0.049 A 
ATOM     54  C   UNL A   1      44.160  25.450  28.649  1.00  0.00     0.074 A 
ATOM     55  C   UNL A   1      46.243  31.013  30.929  1.00  0.00     0.029 A 
ATOM     56  N   UNL A   1      44.984  29.362  30.129  1.00  0.00    -0.354 N 
ATOM     57  N   UNL A   1      44.485  26.629  29.125  1.00  0.00    -0.248 NA
ATOM     58  C   UNL A   1      45.274  24.492  28.605  1.00  0.00     0.031 C 
ATOM     59  C   UNL A   1      47.051  29.886  30.749  1.00  0.00     0.029 A 
ATOM     60  C   UNL A   1      46.261  28.850  30.277  1.00  0.00     0.049 A 
ATOM     61  H   UNL A   1      44.211  28.861  29.781  1.00  0.00     0.167 HD
ATOM     62  C   UNL A   1      45.829  26.543  29.469  1.00  0.00     0.074 A 
ATOM     63  C   UNL A   1      46.256  25.195  29.155  1.00  0.00     0.031 C 
ATOM     64  C   UNL A   1      46.642  27.492  29.994  1.00  0.00     0.037 A 
BRANCH  51  65
ATOM     65  C   UNL A   1      43.880  32.906  31.100  1.00  0.00     0.058 A 
ATOM     66  C   UNL A   1      44.027  33.995  30.225  1.00  0.00     0.135 A 
ATOM     67  C   UNL A   1      43.815  33.177  32.476  1.00  0.00     0.135 A 
ATOM     68  F   UNL A   1      44.118  33.791  28.902  1.00  0.00    -0.206 F 
ATOM     69  C   UNL A   1      44.138  35.298  30.697  1.00  0.00     0.059 A 
ATOM     70  C   UNL A   1      43.890  34.478  32.969  1.00  0.00     0.059 A 
ATOM     71  F   UNL A   1      43.678  32.174  33.359  1.00  0.00    -0.206 F 
ATOM     72  C   UNL A   1      44.066  35.529  32.070  1.00  0.00     0.060 A 
BRANCH  72  73
ATOM     73  S   UNL A   1      44.193  37.230  32.663  1.00  0.00     0.124 S 
ATOM     74  O   UNL A   1      45.516  37.223  33.282  1.00  0.00    -0.237 OA
ATOM     75  O   UNL A   1      44.074  38.001  31.430  1.00  0.00    -0.237 OA
ATOM     76  O   UNL A   1      43.069  37.351  33.586  1.00  0.00    -0.744 OA
ENDBRANCH  72  73
ENDBRANCH  51  65
BRANCH  52  77
ATOM     77  C   UNL A   1      42.678  23.601  27.578  1.00  0.00     0.058 A 
ATOM     78  C   UNL A   1      42.305  22.517  28.388  1.00  0.00     0.135 A 
ATOM     79  C   UNL A   1      42.931  23.345  26.223  1.00  0.00     0.135 A 
ATOM     80  F   UNL A   1      42.054  22.711  29.692  1.00  0.00    -0.206 F 
ATOM     81  C   UNL A   1      42.224  21.223  27.886  1.00  0.00     0.059 A 
ATOM     82  C   UNL A   1      42.833  22.063  25.689  1.00  0.00     0.059 A 
ATOM     83  F   UNL A   1      43.267  24.350  25.399  1.00  0.00    -0.206 F 
ATOM     84  C   UNL A   1      42.497  21.004  26.534  1.00  0.00     0.060 A 
BRANCH  84  85
ATOM     85  S   UNL A   1      42.381  19.323  25.885  1.00  0.00     0.124 S 
ATOM     86  O   UNL A   1      42.981  18.550  26.967  1.00  0.00    -0.237 OA
ATOM     87  O   UNL A   1      40.942  19.159  25.705  1.00  0.00    -0.237 OA
ATOM     88  O   UNL A   1      43.156  19.389  24.649  1.00  0.00    -0.744 OA
ENDBRANCH  84  85
ENDBRANCH  52  77
BRANCH  64  89
ATOM     89  C   UNL A   1      48.048  27.088  30.329  1.00  0.00     0.058 A 
ATOM     90  C   UNL A   1      49.096  27.237  29.410  1.00  0.00     0.135 A 
ATOM     91  C   UNL A   1      48.355  26.602  31.611  1.00  0.00     0.135 A 
ATOM     92  F   UNL A   1      48.851  27.694  28.173  1.00  0.00    -0.206 F 
ATOM     93  C   UNL A   1      50.403  26.896  29.743  1.00  0.00     0.059 A 
ATOM     94  C   UNL A   1      49.657  26.277  31.972  1.00  0.00     0.059 A 
ATOM     95  F   UNL A   1      47.385  26.453  32.527  1.00  0.00    -0.206 F 
ATOM     96  C   UNL A   1      50.673  26.418  31.027  1.00  0.00     0.060 A 
BRANCH  96  97
ATOM     97  S   UNL A   1      52.378  26.013  31.460  1.00  0.00     0.124 S 
ATOM     98  O   UNL A   1      52.669  27.017  32.477  1.00  0.00    -0.237 OA
ATOM     99  O   UNL A   1      52.262  24.639  31.939  1.00  0.00    -0.237 OA
ATOM    100  O   UNL A   1      53.093  26.169  30.197  1.00  0.00    -0.744 OA
ENDBRANCH  96  97
ENDBRANCH  64  89
ENDBRANCH  38  39
ENDBRANCH  30  33
ENDBRANCH  28  29
ENDBRANCH  27  28
ENDBRANCH   1  27
TORSDOF 18
ENDMDL
