MODEL 1
REMARK VINA RESULT:     -13.5      0.000      0.000
REMARK SMILES O=C(NCCCCNC(=O)c1nn(Cc2ccc(O)cc2)c2ccccc12)c1ccc(-c2c3nc(c(-c4c(F)cc(S(=O)(=O)[O-])cc4F)c4ccc([nH]4)c(-c4c(F)cc(S(=O)(=O)[O-])cc4F)c4nc(c(-c5c(F)cc(S(=O)(=O)[O-])cc5F)c5ccc2[nH]5)C=C4)C=C3)cc1
REMARK SMILES IDX 5 1 4 2 3 3 1 4 2 5 28 7 29 8 93 9 30 10 92 11 31 12 32 13
REMARK SMILES IDX 33 14 86 15 34 16 91 17 85 18 87 19 35 20 90 21 84 22 83 23
REMARK SMILES IDX 36 25 70 26 49 27 69 28 50 29 53 30 68 31 88 32 51 33 52 34
REMARK SMILES IDX 67 36 89 37 54 38 37 39 38 40 47 41 39 42 40 43 46 44 48 45
REMARK SMILES IDX 41 46 42 47 43 48 44 49 45 50 71 51 72 52 81 53 73 54 74 55
REMARK SMILES IDX 80 56 82 57 75 58 76 59 77 60 78 61 79 62 55 63 56 64 65 65
REMARK SMILES IDX 57 66 58 67 64 68 66 69 59 70 60 71 61 72 62 73 63 74 6 75
REMARK SMILES IDX 7 76 8 77 9 78 10 80 11 81 12 82 27 83 13 84 22 85 26 86
REMARK SMILES IDX 23 87 25 88 24 89 14 90 15 91 16 92 21 93 17 94 20 95 18 96
REMARK SMILES IDX 19 97
REMARK H PARENT 3 6 87 24 53 35 8 79 19 98
REMARK Flexibility Score: inf
ROOT
ATOM      1  C   UNL A   1      35.765  23.855  25.152  1.00  0.00     0.023 C 
ENDROOT
BRANCH   1   2
ATOM      2  C   UNL A   1      36.960  24.105  26.057  1.00  0.00     0.116 C 
BRANCH   2   3
ATOM      3  N   UNL A   1      37.803  22.925  26.295  1.00  0.00    -0.352 N 
ATOM      4  O   UNL A   1      39.845  21.895  26.275  1.00  0.00    -0.269 OA
ATOM      5  C   UNL A   1      39.191  22.901  26.455  1.00  0.00     0.251 C 
ATOM      6  H   UNL A   1      37.340  22.058  26.348  1.00  0.00     0.163 HD
BRANCH   5   7
ATOM      7  C   UNL A   1      39.827  24.162  26.891  1.00  0.00     0.039 A 
ATOM      8  C   UNL A   1      40.213  25.184  26.021  1.00  0.00     0.014 A 
ATOM      9  C   UNL A   1      39.874  24.336  28.262  1.00  0.00     0.014 A 
ATOM     10  C   UNL A   1      40.543  26.425  26.571  1.00  0.00     0.010 A 
ATOM     11  C   UNL A   1      39.891  25.608  28.749  1.00  0.00     0.010 A 
ATOM     12  C   UNL A   1      40.344  26.639  27.947  1.00  0.00    -0.014 A 
BRANCH  12  13
ATOM     13  C   UNL A   1      40.511  27.940  28.589  1.00  0.00     0.031 A 
ATOM     14  C   UNL A   1      41.642  28.743  28.066  1.00  0.00     0.074 A 
ATOM     15  C   UNL A   1      39.602  28.452  29.456  1.00  0.00     0.049 A 
ATOM     16  N   UNL A   1      42.780  28.937  28.644  1.00  0.00    -0.248 NA
ATOM     17  C   UNL A   1      41.594  29.236  26.679  1.00  0.00     0.031 C 
ATOM     18  C   UNL A   1      38.305  27.897  29.880  1.00  0.00     0.029 A 
ATOM     19  N   UNL A   1      39.610  29.653  30.092  1.00  0.00    -0.354 N 
ATOM     20  C   UNL A   1      43.484  29.802  27.817  1.00  0.00     0.074 A 
ATOM     21  C   UNL A   1      42.813  29.765  26.543  1.00  0.00     0.031 C 
ATOM     22  C   UNL A   1      37.562  28.852  30.480  1.00  0.00     0.029 A 
ATOM     23  C   UNL A   1      38.398  30.017  30.677  1.00  0.00     0.049 A 
ATOM     24  H   UNL A   1      40.412  30.224  30.134  1.00  0.00     0.167 HD
ATOM     25  C   UNL A   1      44.390  30.676  28.339  1.00  0.00     0.037 A 
ATOM     26  C   UNL A   1      38.109  31.180  31.314  1.00  0.00     0.037 A 
ATOM     27  C   UNL A   1      44.710  30.330  29.705  1.00  0.00     0.049 A 
ATOM     28  C   UNL A   1      39.413  31.746  31.748  1.00  0.00     0.074 A 
ATOM     29  C   UNL A   1      45.225  29.206  30.323  1.00  0.00     0.029 A 
ATOM     30  N   UNL A   1      44.104  31.060  30.701  1.00  0.00    -0.354 N 
ATOM     31  N   UNL A   1      40.180  31.180  32.643  1.00  0.00    -0.248 NA
ATOM     32  C   UNL A   1      40.086  32.657  30.835  1.00  0.00     0.031 C 
ATOM     33  C   UNL A   1      44.484  29.080  31.534  1.00  0.00     0.029 A 
ATOM     34  C   UNL A   1      43.627  30.177  31.636  1.00  0.00     0.049 A 
ATOM     35  H   UNL A   1      44.026  32.041  30.736  1.00  0.00     0.167 HD
ATOM     36  C   UNL A   1      41.465  31.312  32.139  1.00  0.00     0.074 A 
ATOM     37  C   UNL A   1      41.353  32.302  31.067  1.00  0.00     0.031 C 
ATOM     38  C   UNL A   1      42.441  30.402  32.437  1.00  0.00     0.037 A 
BRANCH  25  39
ATOM     39  C   UNL A   1      44.683  32.046  27.778  1.00  0.00     0.058 A 
ATOM     40  C   UNL A   1      45.910  32.267  27.118  1.00  0.00     0.135 A 
ATOM     41  C   UNL A   1      43.950  33.207  28.106  1.00  0.00     0.135 A 
ATOM     42  F   UNL A   1      46.693  31.235  26.765  1.00  0.00    -0.206 F 
ATOM     43  C   UNL A   1      46.407  33.548  26.874  1.00  0.00     0.059 A 
ATOM     44  C   UNL A   1      44.400  34.491  27.822  1.00  0.00     0.059 A 
ATOM     45  F   UNL A   1      42.810  33.163  28.804  1.00  0.00    -0.206 F 
ATOM     46  C   UNL A   1      45.648  34.653  27.245  1.00  0.00     0.060 A 
BRANCH  46  47
ATOM     47  S   UNL A   1      46.331  36.304  27.024  1.00  0.00     0.124 S 
ATOM     48  O   UNL A   1      45.120  37.109  26.927  1.00  0.00    -0.237 OA
ATOM     49  O   UNL A   1      47.116  36.469  28.243  1.00  0.00    -0.237 OA
ATOM     50  O   UNL A   1      47.109  36.183  25.795  1.00  0.00    -0.744 OA
ENDBRANCH  46  47
ENDBRANCH  25  39
BRANCH  26  51
ATOM     51  C   UNL A   1      36.848  31.972  31.286  1.00  0.00     0.058 A 
ATOM     52  C   UNL A   1      36.109  32.201  32.463  1.00  0.00     0.135 A 
ATOM     53  C   UNL A   1      36.500  32.768  30.176  1.00  0.00     0.135 A 
ATOM     54  F   UNL A   1      36.374  31.495  33.573  1.00  0.00    -0.206 F 
ATOM     55  C   UNL A   1      35.139  33.205  32.556  1.00  0.00     0.059 A 
ATOM     56  C   UNL A   1      35.531  33.772  30.242  1.00  0.00     0.059 A 
ATOM     57  F   UNL A   1      37.160  32.656  29.013  1.00  0.00    -0.206 F 
ATOM     58  C   UNL A   1      34.875  34.006  31.446  1.00  0.00     0.060 A 
BRANCH  58  59
ATOM     59  S   UNL A   1      33.762  35.424  31.620  1.00  0.00     0.124 S 
ATOM     60  O   UNL A   1      32.576  34.808  32.204  1.00  0.00    -0.237 OA
ATOM     61  O   UNL A   1      34.522  36.304  32.502  1.00  0.00    -0.237 OA
ATOM     62  O   UNL A   1      33.606  35.905  30.250  1.00  0.00    -0.744 OA
ENDBRANCH  58  59
ENDBRANCH  26  51
BRANCH  38  63
ATOM     63  C   UNL A   1      42.192  29.415  33.552  1.00  0.00     0.058 A 
ATOM     64  C   UNL A   1      41.603  28.148  33.388  1.00  0.00     0.135 A 
ATOM     65  C   UNL A   1      42.746  29.700  34.809  1.00  0.00     0.135 A 
ATOM     66  F   UNL A   1      41.130  27.755  32.197  1.00  0.00    -0.206 F 
ATOM     67  C   UNL A   1      41.550  27.218  34.431  1.00  0.00     0.059 A 
ATOM     68  C   UNL A   1      42.730  28.781  35.853  1.00  0.00     0.059 A 
ATOM     69  F   UNL A   1      43.373  30.870  35.014  1.00  0.00    -0.206 F 
ATOM     70  C   UNL A   1      42.124  27.543  35.660  1.00  0.00     0.060 A 
BRANCH  70  71
ATOM     71  S   UNL A   1      42.133  26.312  36.983  1.00  0.00     0.124 S 
ATOM     72  O   UNL A   1      40.744  26.330  37.430  1.00  0.00    -0.237 OA
ATOM     73  O   UNL A   1      42.558  25.100  36.286  1.00  0.00    -0.237 OA
ATOM     74  O   UNL A   1      43.102  26.842  37.938  1.00  0.00    -0.744 OA
ENDBRANCH  70  71
ENDBRANCH  38  63
ENDBRANCH  12  13
ENDBRANCH   5   7
ENDBRANCH   2   3
ENDBRANCH   1   2
BRANCH   1  75
ATOM     75  C   UNL A   1      34.572  24.792  25.380  1.00  0.00     0.023 C 
BRANCH  75  76
ATOM     76  C   UNL A   1      33.447  24.752  24.342  1.00  0.00     0.116 C 
BRANCH  76  77
ATOM     77  N   UNL A   1      33.838  25.280  23.048  1.00  0.00    -0.351 N 
ATOM     78  C   UNL A   1      33.311  26.359  22.363  1.00  0.00     0.272 C 
ATOM     79  H   UNL A   1      34.576  24.807  22.599  1.00  0.00     0.163 HD
ATOM     80  O   UNL A   1      33.656  26.524  21.193  1.00  0.00    -0.267 OA
BRANCH  78  81
ATOM     81  C   UNL A   1      32.367  27.252  23.052  1.00  0.00     0.158 A 
ATOM     82  N   UNL A   1      31.063  27.299  22.719  1.00  0.00    -0.166 NA
ATOM     83  C   UNL A   1      32.655  28.149  24.127  1.00  0.00     0.033 A 
ATOM     84  N   UNL A   1      30.526  28.200  23.572  1.00  0.00    -0.260 N 
ATOM     85  C   UNL A   1      31.451  28.787  24.407  1.00  0.00     0.069 A 
ATOM     86  C   UNL A   1      33.799  28.483  24.884  1.00  0.00     0.013 A 
ATOM     87  C   UNL A   1      31.357  29.786  25.388  1.00  0.00     0.028 A 
ATOM     88  C   UNL A   1      33.675  29.369  25.958  1.00  0.00     0.001 A 
ATOM     89  C   UNL A   1      32.469  30.014  26.201  1.00  0.00     0.002 A 
BRANCH  84  90
ATOM     90  C   UNL A   1      29.088  28.462  23.516  1.00  0.00     0.180 C 
BRANCH  90  91
ATOM     91  C   UNL A   1      28.737  29.800  22.888  1.00  0.00    -0.026 A 
ATOM     92  C   UNL A   1      28.431  29.913  21.523  1.00  0.00     0.009 A 
ATOM     93  C   UNL A   1      28.670  30.966  23.669  1.00  0.00     0.009 A 
ATOM     94  C   UNL A   1      28.116  31.139  20.941  1.00  0.00     0.046 A 
ATOM     95  C   UNL A   1      28.333  32.199  23.092  1.00  0.00     0.046 A 
ATOM     96  C   UNL A   1      28.072  32.276  21.728  1.00  0.00     0.115 A 
BRANCH  96  97
ATOM     97  O   UNL A   1      27.764  33.454  21.116  1.00  0.00    -0.508 OA
ATOM     98  H   UNL A   1      26.979  33.910  21.346  1.00  0.00     0.293 HD
ENDBRANCH  96  97
ENDBRANCH  90  91
ENDBRANCH  84  90
ENDBRANCH  78  81
ENDBRANCH  76  77
ENDBRANCH  75  76
ENDBRANCH   1  75
TORSDOF 17
ENDMDL
MODEL 2
REMARK VINA RESULT:     -13.4      3.246      5.381
REMARK SMILES O=C(NCCCCNC(=O)c1nn(Cc2ccc(O)cc2)c2ccccc12)c1ccc(-c2c3nc(c(-c4c(F)cc(S(=O)(=O)[O-])cc4F)c4ccc([nH]4)c(-c4c(F)cc(S(=O)(=O)[O-])cc4F)c4nc(c(-c5c(F)cc(S(=O)(=O)[O-])cc5F)c5ccc2[nH]5)C=C4)C=C3)cc1
REMARK SMILES IDX 5 1 4 2 3 3 1 4 2 5 28 7 29 8 93 9 30 10 92 11 31 12 32 13
REMARK SMILES IDX 33 14 86 15 34 16 91 17 85 18 87 19 35 20 90 21 84 22 83 23
REMARK SMILES IDX 36 25 70 26 49 27 69 28 50 29 53 30 68 31 88 32 51 33 52 34
REMARK SMILES IDX 67 36 89 37 54 38 37 39 38 40 47 41 39 42 40 43 46 44 48 45
REMARK SMILES IDX 41 46 42 47 43 48 44 49 45 50 71 51 72 52 81 53 73 54 74 55
REMARK SMILES IDX 80 56 82 57 75 58 76 59 77 60 78 61 79 62 55 63 56 64 65 65
REMARK SMILES IDX 57 66 58 67 64 68 66 69 59 70 60 71 61 72 62 73 63 74 6 75
REMARK SMILES IDX 7 76 8 77 9 78 10 80 11 81 12 82 27 83 13 84 22 85 26 86
REMARK SMILES IDX 23 87 25 88 24 89 14 90 15 91 16 92 21 93 17 94 20 95 18 96
REMARK SMILES IDX 19 97
REMARK H PARENT 3 6 87 24 53 35 8 79 19 98
REMARK Flexibility Score: inf
ROOT
ATOM      1  C   UNL A   1      39.095  23.159  26.574  1.00  0.00     0.023 C 
ENDROOT
BRANCH   1   2
ATOM      2  C   UNL A   1      40.312  22.961  27.461  1.00  0.00     0.116 C 
BRANCH   2   3
ATOM      3  N   UNL A   1      41.525  22.535  26.749  1.00  0.00    -0.352 N 
ATOM      4  O   UNL A   1      43.126  22.879  25.153  1.00  0.00    -0.269 OA
ATOM      5  C   UNL A   1      42.385  23.339  25.996  1.00  0.00     0.251 C 
ATOM      6  H   UNL A   1      41.758  21.580  26.810  1.00  0.00     0.163 HD
BRANCH   5   7
ATOM      7  C   UNL A   1      42.373  24.785  26.300  1.00  0.00     0.039 A 
ATOM      8  C   UNL A   1      41.606  25.724  25.607  1.00  0.00     0.014 A 
ATOM      9  C   UNL A   1      43.065  25.135  27.446  1.00  0.00     0.014 A 
ATOM     10  C   UNL A   1      41.469  26.999  26.162  1.00  0.00     0.010 A 
ATOM     11  C   UNL A   1      42.674  26.253  28.118  1.00  0.00     0.010 A 
ATOM     12  C   UNL A   1      41.983  27.246  27.447  1.00  0.00    -0.014 A 
BRANCH  12  13
ATOM     13  C   UNL A   1      41.760  28.491  28.175  1.00  0.00     0.031 A 
ATOM     14  C   UNL A   1      42.825  29.508  27.994  1.00  0.00     0.074 A 
ATOM     15  C   UNL A   1      40.595  28.772  28.810  1.00  0.00     0.049 A 
ATOM     16  N   UNL A   1      43.739  29.825  28.849  1.00  0.00    -0.248 NA
ATOM     17  C   UNL A   1      43.024  30.113  26.666  1.00  0.00     0.031 C 
ATOM     18  C   UNL A   1      39.352  27.982  28.864  1.00  0.00     0.029 A 
ATOM     19  N   UNL A   1      40.239  29.896  29.486  1.00  0.00    -0.354 N 
ATOM     20  C   UNL A   1      44.457  30.863  28.271  1.00  0.00     0.074 A 
ATOM     21  C   UNL A   1      44.128  30.838  26.869  1.00  0.00     0.031 C 
ATOM     22  C   UNL A   1      38.332  28.749  29.306  1.00  0.00     0.029 A 
ATOM     23  C   UNL A   1      38.878  30.008  29.765  1.00  0.00     0.049 A 
ATOM     24  H   UNL A   1      40.894  30.579  29.758  1.00  0.00     0.167 HD
ATOM     25  C   UNL A   1      45.043  31.818  29.047  1.00  0.00     0.037 A 
ATOM     26  C   UNL A   1      38.244  31.047  30.367  1.00  0.00     0.037 A 
ATOM     27  C   UNL A   1      45.082  31.402  30.430  1.00  0.00     0.049 A 
ATOM     28  C   UNL A   1      39.286  31.769  31.143  1.00  0.00     0.074 A 
ATOM     29  C   UNL A   1      45.624  30.321  31.101  1.00  0.00     0.029 A 
ATOM     30  N   UNL A   1      44.136  31.932  31.277  1.00  0.00    -0.354 N 
ATOM     31  N   UNL A   1      39.903  31.251  32.172  1.00  0.00    -0.248 NA
ATOM     32  C   UNL A   1      39.987  32.855  30.475  1.00  0.00     0.031 C 
ATOM     33  C   UNL A   1      44.648  29.968  32.079  1.00  0.00     0.029 A 
ATOM     34  C   UNL A   1      43.612  30.902  32.016  1.00  0.00     0.049 A 
ATOM     35  H   UNL A   1      43.881  32.881  31.341  1.00  0.00     0.167 HD
ATOM     36  C   UNL A   1      41.229  31.630  32.015  1.00  0.00     0.074 A 
ATOM     37  C   UNL A   1      41.204  32.685  31.000  1.00  0.00     0.031 C 
ATOM     38  C   UNL A   1      42.248  30.862  32.503  1.00  0.00     0.037 A 
BRANCH  25  39
ATOM     39  C   UNL A   1      45.217  33.262  28.647  1.00  0.00     0.058 A 
ATOM     40  C   UNL A   1      46.502  33.841  28.712  1.00  0.00     0.135 A 
ATOM     41  C   UNL A   1      44.148  34.170  28.481  1.00  0.00     0.135 A 
ATOM     42  F   UNL A   1      47.590  33.072  28.875  1.00  0.00    -0.206 F 
ATOM     43  C   UNL A   1      46.701  35.221  28.694  1.00  0.00     0.059 A 
ATOM     44  C   UNL A   1      44.329  35.546  28.405  1.00  0.00     0.059 A 
ATOM     45  F   UNL A   1      42.868  33.780  28.485  1.00  0.00    -0.206 F 
ATOM     46  C   UNL A   1      45.603  36.065  28.554  1.00  0.00     0.060 A 
BRANCH  46  47
ATOM     47  S   UNL A   1      45.847  37.846  28.632  1.00  0.00     0.124 S 
ATOM     48  O   UNL A   1      46.728  37.969  29.787  1.00  0.00    -0.237 OA
ATOM     49  O   UNL A   1      46.449  38.124  27.333  1.00  0.00    -0.237 OA
ATOM     50  O   UNL A   1      44.492  38.362  28.814  1.00  0.00    -0.744 OA
ENDBRANCH  46  47
ENDBRANCH  25  39
BRANCH  26  51
ATOM     51  C   UNL A   1      36.908  31.629  30.062  1.00  0.00     0.058 A 
ATOM     52  C   UNL A   1      36.137  32.241  31.068  1.00  0.00     0.135 A 
ATOM     53  C   UNL A   1      36.491  31.867  28.736  1.00  0.00     0.135 A 
ATOM     54  F   UNL A   1      36.462  32.076  32.360  1.00  0.00    -0.206 F 
ATOM     55  C   UNL A   1      35.065  33.093  30.778  1.00  0.00     0.059 A 
ATOM     56  C   UNL A   1      35.421  32.709  28.422  1.00  0.00     0.059 A 
ATOM     57  F   UNL A   1      37.171  31.359  27.698  1.00  0.00    -0.206 F 
ATOM     58  C   UNL A   1      34.731  33.344  29.449  1.00  0.00     0.060 A 
BRANCH  58  59
ATOM     59  S   UNL A   1      33.474  34.592  29.071  1.00  0.00     0.124 S 
ATOM     60  O   UNL A   1      32.898  34.849  30.385  1.00  0.00    -0.237 OA
ATOM     61  O   UNL A   1      34.276  35.673  28.505  1.00  0.00    -0.237 OA
ATOM     62  O   UNL A   1      32.594  33.913  28.124  1.00  0.00    -0.744 OA
ENDBRANCH  58  59
ENDBRANCH  26  51
BRANCH  38  63
ATOM     63  C   UNL A   1      41.917  29.750  33.469  1.00  0.00     0.058 A 
ATOM     64  C   UNL A   1      41.586  28.434  33.096  1.00  0.00     0.135 A 
ATOM     65  C   UNL A   1      42.127  29.990  34.835  1.00  0.00     0.135 A 
ATOM     66  F   UNL A   1      41.455  28.093  31.807  1.00  0.00    -0.206 F 
ATOM     67  C   UNL A   1      41.449  27.412  34.041  1.00  0.00     0.059 A 
ATOM     68  C   UNL A   1      42.025  28.983  35.790  1.00  0.00     0.059 A 
ATOM     69  F   UNL A   1      42.502  31.212  35.250  1.00  0.00    -0.206 F 
ATOM     70  C   UNL A   1      41.679  27.697  35.388  1.00  0.00     0.060 A 
BRANCH  70  71
ATOM     71  S   UNL A   1      41.588  26.360  36.600  1.00  0.00     0.124 S 
ATOM     72  O   UNL A   1      42.944  26.340  37.139  1.00  0.00    -0.237 OA
ATOM     73  O   UNL A   1      40.550  26.830  37.513  1.00  0.00    -0.237 OA
ATOM     74  O   UNL A   1      41.218  25.196  35.799  1.00  0.00    -0.744 OA
ENDBRANCH  70  71
ENDBRANCH  38  63
ENDBRANCH  12  13
ENDBRANCH   5   7
ENDBRANCH   2   3
ENDBRANCH   1   2
BRANCH   1  75
ATOM     75  C   UNL A   1      38.663  21.919  25.781  1.00  0.00     0.023 C 
BRANCH  75  76
ATOM     76  C   UNL A   1      37.175  21.795  25.439  1.00  0.00     0.116 C 
BRANCH  76  77
ATOM     77  N   UNL A   1      36.300  22.137  26.546  1.00  0.00    -0.351 N 
ATOM     78  C   UNL A   1      34.939  22.376  26.525  1.00  0.00     0.272 C 
ATOM     79  H   UNL A   1      36.734  22.208  27.427  1.00  0.00     0.163 HD
ATOM     80  O   UNL A   1      34.419  22.840  27.540  1.00  0.00    -0.267 OA
BRANCH  78  81
ATOM     81  C   UNL A   1      34.177  22.074  25.304  1.00  0.00     0.158 A 
ATOM     82  N   UNL A   1      33.629  20.862  25.092  1.00  0.00    -0.166 NA
ATOM     83  C   UNL A   1      33.900  22.961  24.218  1.00  0.00     0.033 A 
ATOM     84  N   UNL A   1      33.003  20.976  23.899  1.00  0.00    -0.260 N 
ATOM     85  C   UNL A   1      33.181  22.203  23.298  1.00  0.00     0.069 A 
ATOM     86  C   UNL A   1      34.179  24.312  23.920  1.00  0.00     0.013 A 
ATOM     87  C   UNL A   1      32.770  22.734  22.067  1.00  0.00     0.028 A 
ATOM     88  C   UNL A   1      33.645  24.884  22.762  1.00  0.00     0.001 A 
ATOM     89  C   UNL A   1      32.955  24.101  21.847  1.00  0.00     0.002 A 
BRANCH  84  90
ATOM     90  C   UNL A   1      32.250  19.834  23.380  1.00  0.00     0.180 C 
BRANCH  90  91
ATOM     91  C   UNL A   1      32.755  18.493  23.884  1.00  0.00    -0.026 A 
ATOM     92  C   UNL A   1      32.406  18.007  25.154  1.00  0.00     0.009 A 
ATOM     93  C   UNL A   1      33.559  17.675  23.073  1.00  0.00     0.009 A 
ATOM     94  C   UNL A   1      32.872  16.781  25.624  1.00  0.00     0.046 A 
ATOM     95  C   UNL A   1      34.014  16.431  23.533  1.00  0.00     0.046 A 
ATOM     96  C   UNL A   1      33.676  16.001  24.812  1.00  0.00     0.115 A 
BRANCH  96  97
ATOM     97  O   UNL A   1      34.113  14.812  25.314  1.00  0.00    -0.508 OA
ATOM     98  H   UNL A   1      34.987  14.522  25.139  1.00  0.00     0.293 HD
ENDBRANCH  96  97
ENDBRANCH  90  91
ENDBRANCH  84  90
ENDBRANCH  78  81
ENDBRANCH  76  77
ENDBRANCH  75  76
ENDBRANCH   1  75
TORSDOF 17
ENDMDL
MODEL 3
REMARK VINA RESULT:     -13.2      3.573      8.220
REMARK SMILES O=C(NCCCCNC(=O)c1nn(Cc2ccc(O)cc2)c2ccccc12)c1ccc(-c2c3nc(c(-c4c(F)cc(S(=O)(=O)[O-])cc4F)c4ccc([nH]4)c(-c4c(F)cc(S(=O)(=O)[O-])cc4F)c4nc(c(-c5c(F)cc(S(=O)(=O)[O-])cc5F)c5ccc2[nH]5)C=C4)C=C3)cc1
REMARK SMILES IDX 5 1 4 2 3 3 1 4 2 5 28 7 29 8 93 9 30 10 92 11 31 12 32 13
REMARK SMILES IDX 33 14 86 15 34 16 91 17 85 18 87 19 35 20 90 21 84 22 83 23
REMARK SMILES IDX 36 25 70 26 49 27 69 28 50 29 53 30 68 31 88 32 51 33 52 34
REMARK SMILES IDX 67 36 89 37 54 38 37 39 38 40 47 41 39 42 40 43 46 44 48 45
REMARK SMILES IDX 41 46 42 47 43 48 44 49 45 50 71 51 72 52 81 53 73 54 74 55
REMARK SMILES IDX 80 56 82 57 75 58 76 59 77 60 78 61 79 62 55 63 56 64 65 65
REMARK SMILES IDX 57 66 58 67 64 68 66 69 59 70 60 71 61 72 62 73 63 74 6 75
REMARK SMILES IDX 7 76 8 77 9 78 10 80 11 81 12 82 27 83 13 84 22 85 26 86
REMARK SMILES IDX 23 87 25 88 24 89 14 90 15 91 16 92 21 93 17 94 20 95 18 96
REMARK SMILES IDX 19 97
REMARK H PARENT 3 6 87 24 53 35 8 79 19 98
REMARK Flexibility Score: inf
ROOT
ATOM      1  C   UNL A   1      39.118  21.244  25.570  1.00  0.00     0.023 C 
ENDROOT
BRANCH   1   2
ATOM      2  C   UNL A   1      39.554  20.187  26.571  1.00  0.00     0.116 C 
BRANCH   2   3
ATOM      3  N   UNL A   1      40.667  19.341  26.121  1.00  0.00    -0.352 N 
ATOM      4  O   UNL A   1      42.703  19.094  25.109  1.00  0.00    -0.269 OA
ATOM      5  C   UNL A   1      41.966  19.754  25.812  1.00  0.00     0.251 C 
ATOM      6  H   UNL A   1      40.478  18.379  26.028  1.00  0.00     0.163 HD
BRANCH   5   7
ATOM      7  C   UNL A   1      42.416  21.026  26.414  1.00  0.00     0.039 A 
ATOM      8  C   UNL A   1      42.768  22.159  25.677  1.00  0.00     0.014 A 
ATOM      9  C   UNL A   1      42.312  21.076  27.793  1.00  0.00     0.014 A 
ATOM     10  C   UNL A   1      42.906  23.370  26.359  1.00  0.00     0.010 A 
ATOM     11  C   UNL A   1      42.143  22.292  28.381  1.00  0.00     0.010 A 
ATOM     12  C   UNL A   1      42.555  23.434  27.719  1.00  0.00    -0.014 A 
BRANCH  12  13
ATOM     13  C   UNL A   1      42.516  24.679  28.480  1.00  0.00     0.031 A 
ATOM     14  C   UNL A   1      41.291  25.489  28.274  1.00  0.00     0.074 A 
ATOM     15  C   UNL A   1      43.429  24.982  29.437  1.00  0.00     0.049 A 
ATOM     16  N   UNL A   1      41.192  26.568  27.573  1.00  0.00    -0.248 NA
ATOM     17  C   UNL A   1      39.994  24.961  28.731  1.00  0.00     0.031 C 
ATOM     18  C   UNL A   1      44.551  24.172  29.942  1.00  0.00     0.029 A 
ATOM     19  N   UNL A   1      43.492  26.075  30.242  1.00  0.00    -0.354 N 
ATOM     20  C   UNL A   1      39.883  27.004  27.728  1.00  0.00     0.074 A 
ATOM     21  C   UNL A   1      39.151  25.878  28.247  1.00  0.00     0.031 C 
ATOM     22  C   UNL A   1      45.007  24.682  31.107  1.00  0.00     0.029 A 
ATOM     23  C   UNL A   1      44.363  25.959  31.324  1.00  0.00     0.049 A 
ATOM     24  H   UNL A   1      42.961  26.888  30.074  1.00  0.00     0.167 HD
ATOM     25  C   UNL A   1      39.583  28.333  27.674  1.00  0.00     0.037 A 
ATOM     26  C   UNL A   1      44.572  26.866  32.313  1.00  0.00     0.037 A 
ATOM     27  C   UNL A   1      40.689  29.086  27.129  1.00  0.00     0.049 A 
ATOM     28  C   UNL A   1      44.142  28.178  31.765  1.00  0.00     0.074 A 
ATOM     29  C   UNL A   1      41.391  29.050  25.939  1.00  0.00     0.029 A 
ATOM     30  N   UNL A   1      41.493  29.763  28.017  1.00  0.00    -0.354 N 
ATOM     31  N   UNL A   1      44.750  28.776  30.774  1.00  0.00    -0.248 NA
ATOM     32  C   UNL A   1      42.759  28.575  31.980  1.00  0.00     0.031 C 
ATOM     33  C   UNL A   1      42.753  29.260  26.308  1.00  0.00     0.029 A 
ATOM     34  C   UNL A   1      42.797  29.504  27.682  1.00  0.00     0.049 A 
ATOM     35  H   UNL A   1      41.186  30.331  28.761  1.00  0.00     0.167 HD
ATOM     36  C   UNL A   1      43.727  29.278  29.984  1.00  0.00     0.074 A 
ATOM     37  C   UNL A   1      42.527  29.196  30.819  1.00  0.00     0.031 C 
ATOM     38  C   UNL A   1      43.885  29.442  28.637  1.00  0.00     0.037 A 
BRANCH  25  39
ATOM     39  C   UNL A   1      38.481  28.997  28.461  1.00  0.00     0.058 A 
ATOM     40  C   UNL A   1      37.629  29.912  27.808  1.00  0.00     0.135 A 
ATOM     41  C   UNL A   1      38.406  28.994  29.871  1.00  0.00     0.135 A 
ATOM     42  F   UNL A   1      37.623  30.004  26.468  1.00  0.00    -0.206 F 
ATOM     43  C   UNL A   1      36.822  30.810  28.506  1.00  0.00     0.059 A 
ATOM     44  C   UNL A   1      37.568  29.843  30.585  1.00  0.00     0.059 A 
ATOM     45  F   UNL A   1      39.210  28.243  30.632  1.00  0.00    -0.206 F 
ATOM     46  C   UNL A   1      36.812  30.776  29.897  1.00  0.00     0.060 A 
BRANCH  46  47
ATOM     47  S   UNL A   1      35.851  32.001  30.801  1.00  0.00     0.124 S 
ATOM     48  O   UNL A   1      34.651  32.093  29.978  1.00  0.00    -0.237 OA
ATOM     49  O   UNL A   1      35.691  31.357  32.100  1.00  0.00    -0.237 OA
ATOM     50  O   UNL A   1      36.715  33.178  30.792  1.00  0.00    -0.744 OA
ENDBRANCH  46  47
ENDBRANCH  25  39
BRANCH  26  51
ATOM     51  C   UNL A   1      44.803  26.628  33.765  1.00  0.00     0.058 A 
ATOM     52  C   UNL A   1      45.959  27.114  34.405  1.00  0.00     0.135 A 
ATOM     53  C   UNL A   1      43.767  26.186  34.615  1.00  0.00     0.135 A 
ATOM     54  F   UNL A   1      46.993  27.561  33.677  1.00  0.00    -0.206 F 
ATOM     55  C   UNL A   1      46.055  27.225  35.797  1.00  0.00     0.059 A 
ATOM     56  C   UNL A   1      43.843  26.282  36.006  1.00  0.00     0.059 A 
ATOM     57  F   UNL A   1      42.609  25.733  34.113  1.00  0.00    -0.206 F 
ATOM     58  C   UNL A   1      44.979  26.832  36.590  1.00  0.00     0.060 A 
BRANCH  58  59
ATOM     59  S   UNL A   1      45.027  27.153  38.372  1.00  0.00     0.124 S 
ATOM     60  O   UNL A   1      44.934  28.608  38.420  1.00  0.00    -0.237 OA
ATOM     61  O   UNL A   1      43.855  26.424  38.847  1.00  0.00    -0.237 OA
ATOM     62  O   UNL A   1      46.312  26.595  38.784  1.00  0.00    -0.744 OA
ENDBRANCH  58  59
ENDBRANCH  26  51
BRANCH  38  63
ATOM     63  C   UNL A   1      45.277  29.351  28.057  1.00  0.00     0.058 A 
ATOM     64  C   UNL A   1      46.219  30.396  28.061  1.00  0.00     0.135 A 
ATOM     65  C   UNL A   1      45.729  28.089  27.645  1.00  0.00     0.135 A 
ATOM     66  F   UNL A   1      45.900  31.613  28.523  1.00  0.00    -0.206 F 
ATOM     67  C   UNL A   1      47.542  30.197  27.655  1.00  0.00     0.059 A 
ATOM     68  C   UNL A   1      47.048  27.861  27.265  1.00  0.00     0.059 A 
ATOM     69  F   UNL A   1      44.894  27.037  27.672  1.00  0.00    -0.206 F 
ATOM     70  C   UNL A   1      47.949  28.921  27.265  1.00  0.00     0.060 A 
BRANCH  70  71
ATOM     71  S   UNL A   1      49.679  28.643  26.823  1.00  0.00     0.124 S 
ATOM     72  O   UNL A   1      49.572  27.618  25.790  1.00  0.00    -0.237 OA
ATOM     73  O   UNL A   1      50.105  29.962  26.364  1.00  0.00    -0.237 OA
ATOM     74  O   UNL A   1      50.286  28.203  28.077  1.00  0.00    -0.744 OA
ENDBRANCH  70  71
ENDBRANCH  38  63
ENDBRANCH  12  13
ENDBRANCH   5   7
ENDBRANCH   2   3
ENDBRANCH   1   2
BRANCH   1  75
ATOM     75  C   UNL A   1      39.004  22.665  26.136  1.00  0.00     0.023 C 
BRANCH  75  76
ATOM     76  C   UNL A   1      37.801  23.500  25.684  1.00  0.00     0.116 C 
BRANCH  76  77
ATOM     77  N   UNL A   1      37.475  23.325  24.280  1.00  0.00    -0.351 N 
ATOM     78  C   UNL A   1      36.229  23.305  23.682  1.00  0.00     0.272 C 
ATOM     79  H   UNL A   1      38.243  23.204  23.675  1.00  0.00     0.163 HD
ATOM     80  O   UNL A   1      36.160  22.952  22.505  1.00  0.00    -0.267 OA
BRANCH  78  81
ATOM     81  C   UNL A   1      35.051  23.700  24.469  1.00  0.00     0.158 A 
ATOM     82  N   UNL A   1      34.307  24.774  24.141  1.00  0.00    -0.166 NA
ATOM     83  C   UNL A   1      34.527  23.045  25.626  1.00  0.00     0.033 A 
ATOM     84  N   UNL A   1      33.320  24.797  25.065  1.00  0.00    -0.260 N 
ATOM     85  C   UNL A   1      33.434  23.811  26.020  1.00  0.00     0.069 A 
ATOM     86  C   UNL A   1      34.860  21.894  26.373  1.00  0.00     0.013 A 
ATOM     87  C   UNL A   1      32.688  23.497  27.165  1.00  0.00     0.028 A 
ATOM     88  C   UNL A   1      34.031  21.496  27.426  1.00  0.00     0.001 A 
ATOM     89  C   UNL A   1      32.963  22.293  27.818  1.00  0.00     0.002 A 
BRANCH  84  90
ATOM     90  C   UNL A   1      32.286  25.829  24.974  1.00  0.00     0.180 C 
BRANCH  90  91
ATOM     91  C   UNL A   1      32.590  27.069  25.798  1.00  0.00    -0.026 A 
ATOM     92  C   UNL A   1      33.904  27.525  25.980  1.00  0.00     0.009 A 
ATOM     93  C   UNL A   1      31.554  27.823  26.372  1.00  0.00     0.009 A 
ATOM     94  C   UNL A   1      34.189  28.658  26.741  1.00  0.00     0.046 A 
ATOM     95  C   UNL A   1      31.833  28.976  27.122  1.00  0.00     0.046 A 
ATOM     96  C   UNL A   1      33.152  29.374  27.310  1.00  0.00     0.115 A 
BRANCH  96  97
ATOM     97  O   UNL A   1      33.476  30.472  28.050  1.00  0.00    -0.508 OA
ATOM     98  H   UNL A   1      33.228  31.326  27.755  1.00  0.00     0.293 HD
ENDBRANCH  96  97
ENDBRANCH  90  91
ENDBRANCH  84  90
ENDBRANCH  78  81
ENDBRANCH  76  77
ENDBRANCH  75  76
ENDBRANCH   1  75
TORSDOF 17
ENDMDL
