MODEL 1
REMARK VINA RESULT:     -11.3      0.000      0.000
REMARK SMILES CC(C)C[C@H](NC(=O)CNC(=O)[C@@H](NC(=O)OCc1ccccc1)C(C)C)C(=O)N[C@@H](C)C(=O)NCCCCNC(=O)c1ccc(-c2c3nc(c(-c4c(F)cc(S(=O)(=O)[O-])cc4F)c4ccc([nH]4)c(-c4c(F)cc(S(=O)(=O)[O-])cc4F)c4nc(c(-c5c(F)cc(S(=O)(=O)[O-])cc5F)c5ccc2[nH]5)C=C4)C=C3)cc1
REMARK SMILES IDX 31 1 32 2 30 3 28 4 29 5 5 7 4 8 2 9 1 10 3 11 6 12 7 13
REMARK SMILES IDX 8 15 9 16 10 17 11 18 12 20 13 21 14 22 15 23 16 25 17 26
REMARK SMILES IDX 18 27 19 28 20 29 24 30 21 31 23 32 22 33 25 34 26 35 27 36
REMARK SMILES IDX 33 37 34 38 35 39 36 41 37 42 38 43 39 44 40 45 41 46 42 48
REMARK SMILES IDX 43 49 44 50 108 51 45 52 107 53 46 54 47 55 48 56 101 57
REMARK SMILES IDX 49 58 106 59 100 60 102 61 50 62 105 63 99 64 98 65 51 67
REMARK SMILES IDX 85 68 64 69 84 70 65 71 68 72 83 73 103 74 66 75 67 76 82 78
REMARK SMILES IDX 104 79 69 80 52 81 53 82 62 83 54 84 55 85 61 86 63 87 56 88
REMARK SMILES IDX 57 89 58 90 59 91 60 92 86 93 87 94 96 95 88 96 89 97 95 98
REMARK SMILES IDX 97 99 90 100 91 101 92 102 93 103 94 104 70 105 71 106
REMARK SMILES IDX 80 107 72 108 73 109 79 110 81 111 74 112 75 113 76 114
REMARK SMILES IDX 77 115 78 116
REMARK H PARENT 30 6 6 14 10 19 14 24 35 40 40 47 102 66 68 77
REMARK Flexibility Score: inf
ROOT
ATOM      1  C   UNL A   1      30.721  27.427  22.710  1.00  0.00     0.168 C 
ATOM      2  C   UNL A   1      31.284  26.340  21.810  1.00  0.00     0.041 C 
ENDROOT
BRANCH   1   3
ATOM      3  N   UNL A   1      29.336  27.191  23.049  1.00  0.00    -0.343 N 
ATOM      4  C   UNL A   1      28.850  26.450  24.068  1.00  0.00     0.243 C 
ATOM      5  O   UNL A   1      27.619  26.391  24.168  1.00  0.00    -0.273 OA
ATOM      6  H   UNL A   1      28.667  27.623  22.469  1.00  0.00     0.164 HD
BRANCH   4   7
ATOM      7  C   UNL A   1      29.768  25.830  25.158  1.00  0.00     0.171 C 
BRANCH   7   8
ATOM      8  C   UNL A   1      30.936  26.789  25.303  1.00  0.00     0.038 C 
BRANCH   8   9
ATOM      9  C   UNL A   1      31.624  26.379  26.577  1.00  0.00    -0.015 C 
ATOM     10  C   UNL A   1      33.012  25.808  26.264  1.00  0.00     0.007 C 
ATOM     11  C   UNL A   1      31.229  27.496  27.558  1.00  0.00     0.007 C 
ENDBRANCH   8   9
ENDBRANCH   7   8
BRANCH   7  12
ATOM     12  N   UNL A   1      30.163  24.366  25.234  1.00  0.00    -0.343 N 
ATOM     13  C   UNL A   1      31.010  23.406  24.733  1.00  0.00     0.240 C 
ATOM     14  H   UNL A   1      29.586  23.934  25.906  1.00  0.00     0.164 HD
ATOM     15  O   UNL A   1      30.842  22.314  25.316  1.00  0.00    -0.273 OA
BRANCH  13  16
ATOM     16  C   UNL A   1      32.179  23.391  23.522  1.00  0.00     0.216 C 
BRANCH  16  17
ATOM     17  N   UNL A   1      33.682  23.625  23.278  1.00  0.00    -0.345 N 
ATOM     18  C   UNL A   1      34.979  23.556  23.710  1.00  0.00     0.243 C 
ATOM     19  H   UNL A   1      33.736  24.010  22.373  1.00  0.00     0.164 HD
ATOM     20  O   UNL A   1      35.740  23.609  22.713  1.00  0.00    -0.273 OA
BRANCH  18  21
ATOM     21  C   UNL A   1      35.832  23.410  25.167  1.00  0.00     0.177 C 
BRANCH  21  22
ATOM     22  N   UNL A   1      35.330  22.886  26.477  1.00  0.00    -0.309 N 
ATOM     23  C   UNL A   1      34.461  21.872  26.798  1.00  0.00     0.408 C 
ATOM     24  H   UNL A   1      35.694  23.360  27.260  1.00  0.00     0.167 HD
ATOM     25  O   UNL A   1      34.006  21.782  27.924  1.00  0.00    -0.225 OA
BRANCH  23  26
ATOM     26  O   UNL A   1      34.116  21.105  25.730  1.00  0.00    -0.445 OA
BRANCH  26  27
ATOM     27  C   UNL A   1      33.304  19.929  25.925  1.00  0.00     0.270 C 
BRANCH  27  28
ATOM     28  C   UNL A   1      33.223  18.950  24.784  1.00  0.00    -0.011 A 
ATOM     29  C   UNL A   1      34.081  17.839  24.777  1.00  0.00     0.007 A 
ATOM     30  C   UNL A   1      32.354  19.142  23.708  1.00  0.00     0.007 A 
ATOM     31  C   UNL A   1      34.122  16.990  23.671  1.00  0.00     0.000 A 
ATOM     32  C   UNL A   1      32.420  18.316  22.590  1.00  0.00     0.000 A 
ATOM     33  C   UNL A   1      33.311  17.248  22.568  1.00  0.00     0.000 A 
ENDBRANCH  27  28
ENDBRANCH  26  27
ENDBRANCH  23  26
ENDBRANCH  21  22
BRANCH  21  34
ATOM     34  C   UNL A   1      37.355  23.155  25.053  1.00  0.00     0.015 C 
ATOM     35  C   UNL A   1      38.139  23.829  26.174  1.00  0.00     0.010 C 
ATOM     36  C   UNL A   1      37.708  21.641  25.115  1.00  0.00     0.010 C 
ENDBRANCH  21  34
ENDBRANCH  18  21
ENDBRANCH  16  17
ENDBRANCH  13  16
ENDBRANCH   7  12
ENDBRANCH   4   7
ENDBRANCH   1   3
BRANCH   1  37
ATOM     37  C   UNL A   1      31.094  28.835  22.270  1.00  0.00     0.242 C 
ATOM     38  O   UNL A   1      30.255  29.582  21.762  1.00  0.00    -0.273 OA
ATOM     39  N   UNL A   1      32.326  29.323  22.517  1.00  0.00    -0.354 N 
ATOM     40  H   UNL A   1      32.574  30.139  22.025  1.00  0.00     0.163 HD
BRANCH  39  41
ATOM     41  C   UNL A   1      33.323  28.798  23.412  1.00  0.00     0.116 C 
BRANCH  41  42
ATOM     42  C   UNL A   1      33.185  29.398  24.803  1.00  0.00     0.023 C 
BRANCH  42  43
ATOM     43  C   UNL A   1      34.383  29.115  25.710  1.00  0.00     0.023 C 
BRANCH  43  44
ATOM     44  C   UNL A   1      34.024  28.975  27.182  1.00  0.00     0.116 C 
BRANCH  44  45
ATOM     45  N   UNL A   1      33.884  30.268  27.841  1.00  0.00    -0.352 N 
ATOM     46  C   UNL A   1      34.788  30.941  28.614  1.00  0.00     0.251 C 
ATOM     47  H   UNL A   1      33.018  30.719  27.712  1.00  0.00     0.163 HD
ATOM     48  O   UNL A   1      34.465  31.967  29.202  1.00  0.00    -0.269 OA
BRANCH  46  49
ATOM     49  C   UNL A   1      36.132  30.370  28.752  1.00  0.00     0.039 A 
ATOM     50  C   UNL A   1      37.025  30.513  27.692  1.00  0.00     0.014 A 
ATOM     51  C   UNL A   1      36.524  29.797  29.965  1.00  0.00     0.014 A 
ATOM     52  C   UNL A   1      38.345  30.115  27.869  1.00  0.00     0.010 A 
ATOM     53  C   UNL A   1      37.861  29.492  30.167  1.00  0.00     0.010 A 
ATOM     54  C   UNL A   1      38.779  29.634  29.115  1.00  0.00    -0.014 A 
BRANCH  54  55
ATOM     55  C   UNL A   1      40.194  29.254  29.332  1.00  0.00     0.031 A 
ATOM     56  C   UNL A   1      41.150  30.257  29.913  1.00  0.00     0.074 A 
ATOM     57  C   UNL A   1      40.617  28.030  28.966  1.00  0.00     0.049 A 
ATOM     58  N   UNL A   1      42.430  30.134  30.145  1.00  0.00    -0.248 NA
ATOM     59  C   UNL A   1      40.603  31.583  30.248  1.00  0.00     0.031 C 
ATOM     60  C   UNL A   1      39.785  26.994  28.347  1.00  0.00     0.029 A 
ATOM     61  N   UNL A   1      41.855  27.448  29.055  1.00  0.00    -0.354 N 
ATOM     62  C   UNL A   1      42.841  31.365  30.642  1.00  0.00     0.074 A 
ATOM     63  C   UNL A   1      41.693  32.242  30.612  1.00  0.00     0.031 C 
ATOM     64  C   UNL A   1      40.528  25.895  28.146  1.00  0.00     0.029 A 
ATOM     65  C   UNL A   1      41.896  26.160  28.577  1.00  0.00     0.049 A 
ATOM     66  H   UNL A   1      42.641  27.909  29.428  1.00  0.00     0.167 HD
ATOM     67  C   UNL A   1      44.061  31.723  31.108  1.00  0.00     0.037 A 
ATOM     68  C   UNL A   1      42.925  25.295  28.488  1.00  0.00     0.037 A 
ATOM     69  C   UNL A   1      45.191  30.833  31.145  1.00  0.00     0.049 A 
ATOM     70  C   UNL A   1      44.276  25.722  28.995  1.00  0.00     0.074 A 
ATOM     71  C   UNL A   1      46.457  31.075  31.646  1.00  0.00     0.029 A 
ATOM     72  N   UNL A   1      45.195  29.535  30.654  1.00  0.00    -0.354 N 
ATOM     73  N   UNL A   1      44.634  26.866  29.530  1.00  0.00    -0.248 NA
ATOM     74  C   UNL A   1      45.364  24.740  28.892  1.00  0.00     0.031 C 
ATOM     75  C   UNL A   1      47.244  29.945  31.402  1.00  0.00     0.029 A 
ATOM     76  C   UNL A   1      46.452  28.972  30.813  1.00  0.00     0.049 A 
ATOM     77  H   UNL A   1      44.420  29.080  30.253  1.00  0.00     0.167 HD
ATOM     78  C   UNL A   1      45.979  26.730  29.855  1.00  0.00     0.074 A 
ATOM     79  C   UNL A   1      46.366  25.388  29.468  1.00  0.00     0.031 C 
ATOM     80  C   UNL A   1      46.818  27.632  30.424  1.00  0.00     0.037 A 
BRANCH  67  81
ATOM     81  C   UNL A   1      44.232  33.133  31.604  1.00  0.00     0.058 A 
ATOM     82  C   UNL A   1      44.638  34.175  30.753  1.00  0.00     0.135 A 
ATOM     83  C   UNL A   1      43.969  33.453  32.945  1.00  0.00     0.135 A 
ATOM     84  F   UNL A   1      44.924  33.925  29.464  1.00  0.00    -0.206 F 
ATOM     85  C   UNL A   1      44.811  35.472  31.221  1.00  0.00     0.059 A 
ATOM     86  C   UNL A   1      44.100  34.751  33.428  1.00  0.00     0.059 A 
ATOM     87  F   UNL A   1      43.581  32.497  33.805  1.00  0.00    -0.206 F 
ATOM     88  C   UNL A   1      44.538  35.752  32.560  1.00  0.00     0.060 A 
BRANCH  88  89
ATOM     89  S   UNL A   1      44.767  37.441  33.150  1.00  0.00     0.124 S 
ATOM     90  O   UNL A   1      43.384  37.871  33.344  1.00  0.00    -0.237 OA
ATOM     91  O   UNL A   1      45.546  37.242  34.367  1.00  0.00    -0.237 OA
ATOM     92  O   UNL A   1      45.476  38.093  32.053  1.00  0.00    -0.744 OA
ENDBRANCH  88  89
ENDBRANCH  67  81
BRANCH  68  93
ATOM     93  C   UNL A   1      42.708  23.938  27.921  1.00  0.00     0.058 A 
ATOM     94  C   UNL A   1      42.582  22.817  28.754  1.00  0.00     0.135 A 
ATOM     95  C   UNL A   1      42.602  23.735  26.535  1.00  0.00     0.135 A 
ATOM     96  F   UNL A   1      42.680  22.956  30.086  1.00  0.00    -0.206 F 
ATOM     97  C   UNL A   1      42.374  21.542  28.237  1.00  0.00     0.059 A 
ATOM     98  C   UNL A   1      42.365  22.475  25.996  1.00  0.00     0.059 A 
ATOM     99  F   UNL A   1      42.698  24.777  25.694  1.00  0.00    -0.206 F 
ATOM    100  C   UNL A   1      42.263  21.383  26.855  1.00  0.00     0.060 A 
BRANCH 100 101
ATOM    101  S   UNL A   1      41.941  19.732  26.199  1.00  0.00     0.124 S 
ATOM    102  O   UNL A   1      42.823  19.699  25.039  1.00  0.00    -0.237 OA
ATOM    103  O   UNL A   1      42.325  18.878  27.319  1.00  0.00    -0.237 OA
ATOM    104  O   UNL A   1      40.511  19.760  25.905  1.00  0.00    -0.744 OA
ENDBRANCH 100 101
ENDBRANCH  68  93
BRANCH  80 105
ATOM    105  C   UNL A   1      48.229  27.190  30.701  1.00  0.00     0.058 A 
ATOM    106  C   UNL A   1      49.264  27.385  29.773  1.00  0.00     0.135 A 
ATOM    107  C   UNL A   1      48.561  26.614  31.939  1.00  0.00     0.135 A 
ATOM    108  F   UNL A   1      49.003  27.925  28.572  1.00  0.00    -0.206 F 
ATOM    109  C   UNL A   1      50.571  27.002  30.053  1.00  0.00     0.059 A 
ATOM    110  C   UNL A   1      49.866  26.256  32.253  1.00  0.00     0.059 A 
ATOM    111  F   UNL A   1      47.612  26.415  32.869  1.00  0.00    -0.206 F 
ATOM    112  C   UNL A   1      50.864  26.441  31.298  1.00  0.00     0.060 A 
BRANCH 112 113
ATOM    113  S   UNL A   1      52.571  25.984  31.659  1.00  0.00     0.124 S 
ATOM    114  O   UNL A   1      52.951  27.004  32.632  1.00  0.00    -0.237 OA
ATOM    115  O   UNL A   1      52.426  24.631  32.185  1.00  0.00    -0.237 OA
ATOM    116  O   UNL A   1      53.232  26.078  30.361  1.00  0.00    -0.744 OA
ENDBRANCH 112 113
ENDBRANCH  80 105
ENDBRANCH  54  55
ENDBRANCH  46  49
ENDBRANCH  44  45
ENDBRANCH  43  44
ENDBRANCH  42  43
ENDBRANCH  41  42
ENDBRANCH  39  41
ENDBRANCH   1  37
TORSDOF 27
ENDMDL
MODEL 2
REMARK VINA RESULT:      -9.7      1.084      2.811
REMARK SMILES CC(C)C[C@H](NC(=O)CNC(=O)[C@@H](NC(=O)OCc1ccccc1)C(C)C)C(=O)N[C@@H](C)C(=O)NCCCCNC(=O)c1ccc(-c2c3nc(c(-c4c(F)cc(S(=O)(=O)[O-])cc4F)c4ccc([nH]4)c(-c4c(F)cc(S(=O)(=O)[O-])cc4F)c4nc(c(-c5c(F)cc(S(=O)(=O)[O-])cc5F)c5ccc2[nH]5)C=C4)C=C3)cc1
REMARK SMILES IDX 31 1 32 2 30 3 28 4 29 5 5 7 4 8 2 9 1 10 3 11 6 12 7 13
REMARK SMILES IDX 8 15 9 16 10 17 11 18 12 20 13 21 14 22 15 23 16 25 17 26
REMARK SMILES IDX 18 27 19 28 20 29 24 30 21 31 23 32 22 33 25 34 26 35 27 36
REMARK SMILES IDX 33 37 34 38 35 39 36 41 37 42 38 43 39 44 40 45 41 46 42 48
REMARK SMILES IDX 43 49 44 50 108 51 45 52 107 53 46 54 47 55 48 56 101 57
REMARK SMILES IDX 49 58 106 59 100 60 102 61 50 62 105 63 99 64 98 65 51 67
REMARK SMILES IDX 85 68 64 69 84 70 65 71 68 72 83 73 103 74 66 75 67 76 82 78
REMARK SMILES IDX 104 79 69 80 52 81 53 82 62 83 54 84 55 85 61 86 63 87 56 88
REMARK SMILES IDX 57 89 58 90 59 91 60 92 86 93 87 94 96 95 88 96 89 97 95 98
REMARK SMILES IDX 97 99 90 100 91 101 92 102 93 103 94 104 70 105 71 106
REMARK SMILES IDX 80 107 72 108 73 109 79 110 81 111 74 112 75 113 76 114
REMARK SMILES IDX 77 115 78 116
REMARK H PARENT 30 6 6 14 10 19 14 24 35 40 40 47 102 66 68 77
REMARK Flexibility Score: inf
ROOT
ATOM      1  C   UNL A   1      30.813  27.389  22.864  1.00  0.00     0.168 C 
ATOM      2  C   UNL A   1      31.510  26.321  22.040  1.00  0.00     0.041 C 
ENDROOT
BRANCH   1   3
ATOM      3  N   UNL A   1      29.437  27.050  23.147  1.00  0.00    -0.343 N 
ATOM      4  C   UNL A   1      28.954  26.384  24.219  1.00  0.00     0.243 C 
ATOM      5  O   UNL A   1      27.731  26.207  24.252  1.00  0.00    -0.273 OA
ATOM      6  H   UNL A   1      28.773  27.338  22.480  1.00  0.00     0.164 HD
BRANCH   4   7
ATOM      7  C   UNL A   1      29.848  25.995  25.429  1.00  0.00     0.171 C 
BRANCH   7   8
ATOM      8  C   UNL A   1      31.278  26.208  24.966  1.00  0.00     0.038 C 
BRANCH   8   9
ATOM      9  C   UNL A   1      32.072  26.420  26.227  1.00  0.00    -0.015 C 
ATOM     10  C   UNL A   1      33.573  26.377  25.916  1.00  0.00     0.007 C 
ATOM     11  C   UNL A   1      31.262  27.496  26.970  1.00  0.00     0.007 C 
ENDBRANCH   8   9
ENDBRANCH   7   8
BRANCH   7  12
ATOM     12  N   UNL A   1      29.660  24.758  26.290  1.00  0.00    -0.343 N 
ATOM     13  C   UNL A   1      30.301  23.698  26.883  1.00  0.00     0.240 C 
ATOM     14  H   UNL A   1      28.702  24.689  26.508  1.00  0.00     0.164 HD
ATOM     15  O   UNL A   1      29.504  23.017  27.563  1.00  0.00    -0.273 OA
BRANCH  13  16
ATOM     16  C   UNL A   1      31.887  23.132  26.873  1.00  0.00     0.216 C 
BRANCH  16  17
ATOM     17  N   UNL A   1      32.716  21.833  26.857  1.00  0.00    -0.345 N 
ATOM     18  C   UNL A   1      33.143  20.707  26.208  1.00  0.00     0.243 C 
ATOM     19  H   UNL A   1      33.146  21.796  27.741  1.00  0.00     0.164 HD
ATOM     20  O   UNL A   1      34.182  20.285  26.773  1.00  0.00    -0.273 OA
BRANCH  18  21
ATOM     21  C   UNL A   1      32.693  19.748  24.885  1.00  0.00     0.177 C 
BRANCH  21  22
ATOM     22  N   UNL A   1      32.247  20.204  23.530  1.00  0.00    -0.309 N 
ATOM     23  C   UNL A   1      32.320  21.416  22.890  1.00  0.00     0.408 C 
ATOM     24  H   UNL A   1      31.820  19.497  22.994  1.00  0.00     0.167 HD
ATOM     25  O   UNL A   1      31.669  21.622  21.881  1.00  0.00    -0.225 OA
BRANCH  23  26
ATOM     26  O   UNL A   1      33.077  22.328  23.555  1.00  0.00    -0.445 OA
BRANCH  26  27
ATOM     27  C   UNL A   1      34.402  22.644  23.079  1.00  0.00     0.270 C 
BRANCH  27  28
ATOM     28  C   UNL A   1      35.496  22.750  24.106  1.00  0.00    -0.011 A 
ATOM     29  C   UNL A   1      35.353  23.661  25.165  1.00  0.00     0.007 A 
ATOM     30  C   UNL A   1      36.674  22.003  24.009  1.00  0.00     0.007 A 
ATOM     31  C   UNL A   1      36.405  23.876  26.054  1.00  0.00     0.000 A 
ATOM     32  C   UNL A   1      37.736  22.244  24.875  1.00  0.00     0.000 A 
ATOM     33  C   UNL A   1      37.605  23.187  25.890  1.00  0.00     0.000 A 
ENDBRANCH  27  28
ENDBRANCH  26  27
ENDBRANCH  23  26
ENDBRANCH  21  22
BRANCH  21  34
ATOM     34  C   UNL A   1      33.378  18.364  24.770  1.00  0.00     0.015 C 
ATOM     35  C   UNL A   1      32.721  17.319  25.665  1.00  0.00     0.010 C 
ATOM     36  C   UNL A   1      33.330  17.799  23.322  1.00  0.00     0.010 C 
ENDBRANCH  21  34
ENDBRANCH  18  21
ENDBRANCH  16  17
ENDBRANCH  13  16
ENDBRANCH   7  12
ENDBRANCH   4   7
ENDBRANCH   1   3
BRANCH   1  37
ATOM     37  C   UNL A   1      31.090  28.806  22.384  1.00  0.00     0.242 C 
ATOM     38  O   UNL A   1      30.245  29.431  21.738  1.00  0.00    -0.273 OA
ATOM     39  N   UNL A   1      32.226  29.439  22.739  1.00  0.00    -0.354 N 
ATOM     40  H   UNL A   1      32.446  30.251  22.229  1.00  0.00     0.163 HD
BRANCH  39  41
ATOM     41  C   UNL A   1      33.157  29.070  23.773  1.00  0.00     0.116 C 
BRANCH  41  42
ATOM     42  C   UNL A   1      32.820  29.759  25.087  1.00  0.00     0.023 C 
BRANCH  42  43
ATOM     43  C   UNL A   1      34.049  30.088  25.934  1.00  0.00     0.023 C 
BRANCH  43  44
ATOM     44  C   UNL A   1      33.920  29.685  27.396  1.00  0.00     0.116 C 
BRANCH  44  45
ATOM     45  N   UNL A   1      33.755  30.837  28.274  1.00  0.00    -0.352 N 
ATOM     46  C   UNL A   1      34.652  31.387  29.147  1.00  0.00     0.251 C 
ATOM     47  H   UNL A   1      32.877  31.281  28.233  1.00  0.00     0.163 HD
ATOM     48  O   UNL A   1      34.312  32.284  29.908  1.00  0.00    -0.269 OA
BRANCH  46  49
ATOM     49  C   UNL A   1      36.012  30.836  29.171  1.00  0.00     0.039 A 
ATOM     50  C   UNL A   1      36.810  30.992  28.040  1.00  0.00     0.014 A 
ATOM     51  C   UNL A   1      36.513  30.270  30.346  1.00  0.00     0.014 A 
ATOM     52  C   UNL A   1      38.146  30.614  28.105  1.00  0.00     0.010 A 
ATOM     53  C   UNL A   1      37.866  29.985  30.435  1.00  0.00     0.010 A 
ATOM     54  C   UNL A   1      38.691  30.140  29.310  1.00  0.00    -0.014 A 
BRANCH  54  55
ATOM     55  C   UNL A   1      40.124  29.782  29.407  1.00  0.00     0.031 A 
ATOM     56  C   UNL A   1      41.118  30.814  29.859  1.00  0.00     0.074 A 
ATOM     57  C   UNL A   1      40.527  28.548  29.048  1.00  0.00     0.049 A 
ATOM     58  N   UNL A   1      42.415  30.712  29.975  1.00  0.00    -0.248 NA
ATOM     59  C   UNL A   1      40.588  32.147  30.195  1.00  0.00     0.031 C 
ATOM     60  C   UNL A   1      39.653  27.483  28.549  1.00  0.00     0.029 A 
ATOM     61  N   UNL A   1      41.775  27.982  29.043  1.00  0.00    -0.354 N 
ATOM     62  C   UNL A   1      42.855  31.964  30.386  1.00  0.00     0.074 A 
ATOM     63  C   UNL A   1      41.698  32.829  30.432  1.00  0.00     0.031 C 
ATOM     64  C   UNL A   1      40.388  26.383  28.319  1.00  0.00     0.029 A 
ATOM     65  C   UNL A   1      41.787  26.677  28.610  1.00  0.00     0.049 A 
ATOM     66  H   UNL A   1      42.586  28.464  29.323  1.00  0.00     0.167 HD
ATOM     67  C   UNL A   1      44.108  32.351  30.722  1.00  0.00     0.037 A 
ATOM     68  C   UNL A   1      42.815  25.819  28.457  1.00  0.00     0.037 A 
ATOM     69  C   UNL A   1      45.249  31.473  30.686  1.00  0.00     0.049 A 
ATOM     70  C   UNL A   1      44.202  26.277  28.819  1.00  0.00     0.074 A 
ATOM     71  C   UNL A   1      46.552  31.745  31.057  1.00  0.00     0.029 A 
ATOM     72  N   UNL A   1      45.223  30.157  30.244  1.00  0.00    -0.354 N 
ATOM     73  N   UNL A   1      44.593  27.443  29.276  1.00  0.00    -0.248 NA
ATOM     74  C   UNL A   1      45.287  25.302  28.651  1.00  0.00     0.031 C 
ATOM     75  C   UNL A   1      47.328  30.614  30.782  1.00  0.00     0.029 A 
ATOM     76  C   UNL A   1      46.496  29.613  30.305  1.00  0.00     0.049 A 
ATOM     77  H   UNL A   1      44.419  29.681  29.934  1.00  0.00     0.167 HD
ATOM     78  C   UNL A   1      45.964  27.332  29.479  1.00  0.00     0.074 A 
ATOM     79  C   UNL A   1      46.330  25.980  29.107  1.00  0.00     0.031 C 
ATOM     80  C   UNL A   1      46.841  28.262  29.933  1.00  0.00     0.037 A 
BRANCH  67  81
ATOM     81  C   UNL A   1      44.307  33.780  31.148  1.00  0.00     0.058 A 
ATOM     82  C   UNL A   1      44.605  34.795  30.223  1.00  0.00     0.135 A 
ATOM     83  C   UNL A   1      44.180  34.145  32.498  1.00  0.00     0.135 A 
ATOM     84  F   UNL A   1      44.759  34.502  28.921  1.00  0.00    -0.206 F 
ATOM     85  C   UNL A   1      44.805  36.111  30.625  1.00  0.00     0.059 A 
ATOM     86  C   UNL A   1      44.340  35.462  32.918  1.00  0.00     0.059 A 
ATOM     87  F   UNL A   1      43.900  33.216  33.425  1.00  0.00    -0.206 F 
ATOM     88  C   UNL A   1      44.669  36.435  31.975  1.00  0.00     0.060 A 
BRANCH  88  89
ATOM     89  S   UNL A   1      44.929  38.148  32.478  1.00  0.00     0.124 S 
ATOM     90  O   UNL A   1      43.662  38.454  33.136  1.00  0.00    -0.237 OA
ATOM     91  O   UNL A   1      46.090  38.040  33.356  1.00  0.00    -0.237 OA
ATOM     92  O   UNL A   1      45.164  38.843  31.216  1.00  0.00    -0.744 OA
ENDBRANCH  88  89
ENDBRANCH  67  81
BRANCH  68  93
ATOM     93  C   UNL A   1      42.562  24.439  27.962  1.00  0.00     0.058 A 
ATOM     94  C   UNL A   1      42.377  24.184  26.595  1.00  0.00     0.135 A 
ATOM     95  C   UNL A   1      42.521  23.345  28.841  1.00  0.00     0.135 A 
ATOM     96  F   UNL A   1      42.403  25.196  25.714  1.00  0.00    -0.206 F 
ATOM     97  C   UNL A   1      42.145  22.898  26.118  1.00  0.00     0.059 A 
ATOM     98  C   UNL A   1      42.319  22.047  28.385  1.00  0.00     0.059 A 
ATOM     99  F   UNL A   1      42.709  23.532  30.157  1.00  0.00    -0.206 F 
ATOM    100  C   UNL A   1      42.122  21.835  27.022  1.00  0.00     0.060 A 
BRANCH 100 101
ATOM    101  S   UNL A   1      41.872  20.164  26.384  1.00  0.00     0.124 S 
ATOM    102  O   UNL A   1      42.180  19.353  27.556  1.00  0.00    -0.237 OA
ATOM    103  O   UNL A   1      40.470  20.199  25.980  1.00  0.00    -0.237 OA
ATOM    104  O   UNL A   1      42.831  20.077  25.286  1.00  0.00    -0.744 OA
ENDBRANCH 100 101
ENDBRANCH  68  93
BRANCH  80 105
ATOM    105  C   UNL A   1      48.277  27.844  30.093  1.00  0.00     0.058 A 
ATOM    106  C   UNL A   1      48.722  27.127  31.215  1.00  0.00     0.135 A 
ATOM    107  C   UNL A   1      49.211  28.115  29.078  1.00  0.00     0.135 A 
ATOM    108  F   UNL A   1      47.874  26.845  32.217  1.00  0.00    -0.206 F 
ATOM    109  C   UNL A   1      50.045  26.716  31.336  1.00  0.00     0.059 A 
ATOM    110  C   UNL A   1      50.529  27.685  29.163  1.00  0.00     0.059 A 
ATOM    111  F   UNL A   1      48.838  28.789  27.977  1.00  0.00    -0.206 F 
ATOM    112  C   UNL A   1      50.941  26.996  30.303  1.00  0.00     0.060 A 
BRANCH 112 113
ATOM    113  S   UNL A   1      52.645  26.425  30.459  1.00  0.00     0.124 S 
ATOM    114  O   UNL A   1      52.867  25.799  29.159  1.00  0.00    -0.237 OA
ATOM    115  O   UNL A   1      53.370  27.669  30.694  1.00  0.00    -0.237 OA
ATOM    116  O   UNL A   1      52.596  25.511  31.596  1.00  0.00    -0.744 OA
ENDBRANCH 112 113
ENDBRANCH  80 105
ENDBRANCH  54  55
ENDBRANCH  46  49
ENDBRANCH  44  45
ENDBRANCH  43  44
ENDBRANCH  42  43
ENDBRANCH  41  42
ENDBRANCH  39  41
ENDBRANCH   1  37
TORSDOF 27
ENDMDL
MODEL 3
REMARK VINA RESULT:      -9.2      6.500     12.101
REMARK SMILES CC(C)C[C@H](NC(=O)CNC(=O)[C@@H](NC(=O)OCc1ccccc1)C(C)C)C(=O)N[C@@H](C)C(=O)NCCCCNC(=O)c1ccc(-c2c3nc(c(-c4c(F)cc(S(=O)(=O)[O-])cc4F)c4ccc([nH]4)c(-c4c(F)cc(S(=O)(=O)[O-])cc4F)c4nc(c(-c5c(F)cc(S(=O)(=O)[O-])cc5F)c5ccc2[nH]5)C=C4)C=C3)cc1
REMARK SMILES IDX 31 1 32 2 30 3 28 4 29 5 5 7 4 8 2 9 1 10 3 11 6 12 7 13
REMARK SMILES IDX 8 15 9 16 10 17 11 18 12 20 13 21 14 22 15 23 16 25 17 26
REMARK SMILES IDX 18 27 19 28 20 29 24 30 21 31 23 32 22 33 25 34 26 35 27 36
REMARK SMILES IDX 33 37 34 38 35 39 36 41 37 42 38 43 39 44 40 45 41 46 42 48
REMARK SMILES IDX 43 49 44 50 108 51 45 52 107 53 46 54 47 55 48 56 101 57
REMARK SMILES IDX 49 58 106 59 100 60 102 61 50 62 105 63 99 64 98 65 51 67
REMARK SMILES IDX 85 68 64 69 84 70 65 71 68 72 83 73 103 74 66 75 67 76 82 78
REMARK SMILES IDX 104 79 69 80 52 81 53 82 62 83 54 84 55 85 61 86 63 87 56 88
REMARK SMILES IDX 57 89 58 90 59 91 60 92 86 93 87 94 96 95 88 96 89 97 95 98
REMARK SMILES IDX 97 99 90 100 91 101 92 102 93 103 94 104 70 105 71 106
REMARK SMILES IDX 80 107 72 108 73 109 79 110 81 111 74 112 75 113 76 114
REMARK SMILES IDX 77 115 78 116
REMARK H PARENT 30 6 6 14 10 19 14 24 35 40 40 47 102 66 68 77
REMARK Flexibility Score: inf
ROOT
ATOM      1  C   UNL A   1      45.078  27.804  25.650  1.00  0.00     0.168 C 
ATOM      2  C   UNL A   1      43.925  27.079  24.977  1.00  0.00     0.041 C 
ENDROOT
BRANCH   1   3
ATOM      3  N   UNL A   1      44.667  29.063  26.230  1.00  0.00    -0.343 N 
ATOM      4  C   UNL A   1      43.595  29.300  27.016  1.00  0.00     0.243 C 
ATOM      5  O   UNL A   1      43.440  30.465  27.400  1.00  0.00    -0.273 OA
ATOM      6  H   UNL A   1      45.237  29.840  26.028  1.00  0.00     0.164 HD
BRANCH   4   7
ATOM      7  C   UNL A   1      42.685  28.158  27.548  1.00  0.00     0.171 C 
BRANCH   7   8
ATOM      8  C   UNL A   1      41.347  28.807  27.850  1.00  0.00     0.038 C 
BRANCH   8   9
ATOM      9  C   UNL A   1      40.325  27.932  27.176  1.00  0.00    -0.015 C 
ATOM     10  C   UNL A   1      41.004  27.049  26.122  1.00  0.00     0.007 C 
ATOM     11  C   UNL A   1      39.398  27.527  28.334  1.00  0.00     0.007 C 
ENDBRANCH   8   9
ENDBRANCH   7   8
BRANCH   7  12
ATOM     12  N   UNL A   1      43.104  27.114  28.569  1.00  0.00    -0.343 N 
ATOM     13  C   UNL A   1      43.656  25.867  28.735  1.00  0.00     0.240 C 
ATOM     14  H   UNL A   1      42.899  27.472  29.464  1.00  0.00     0.164 HD
ATOM     15  O   UNL A   1      43.792  25.596  29.947  1.00  0.00    -0.273 OA
BRANCH  13  16
ATOM     16  C   UNL A   1      44.157  24.657  27.676  1.00  0.00     0.216 C 
BRANCH  16  17
ATOM     17  N   UNL A   1      43.733  23.902  26.402  1.00  0.00    -0.345 N 
ATOM     18  C   UNL A   1      43.674  22.746  25.673  1.00  0.00     0.243 C 
ATOM     19  H   UNL A   1      43.291  24.580  25.841  1.00  0.00     0.164 HD
ATOM     20  O   UNL A   1      42.773  22.861  24.805  1.00  0.00    -0.273 OA
BRANCH  18  21
ATOM     21  C   UNL A   1      44.437  21.234  25.613  1.00  0.00     0.177 C 
BRANCH  21  22
ATOM     22  N   UNL A   1      43.829  19.912  25.259  1.00  0.00    -0.309 N 
ATOM     23  C   UNL A   1      42.740  19.232  25.746  1.00  0.00     0.408 C 
ATOM     24  H   UNL A   1      44.302  19.438  24.536  1.00  0.00     0.167 HD
ATOM     25  O   UNL A   1      42.575  18.056  25.477  1.00  0.00    -0.225 OA
BRANCH  23  26
ATOM     26  O   UNL A   1      41.987  19.972  26.603  1.00  0.00    -0.445 OA
BRANCH  26  27
ATOM     27  C   UNL A   1      40.576  20.139  26.355  1.00  0.00     0.270 C 
BRANCH  27  28
ATOM     28  C   UNL A   1      39.984  21.495  26.631  1.00  0.00    -0.011 A 
ATOM     29  C   UNL A   1      38.821  21.883  25.947  1.00  0.00     0.007 A 
ATOM     30  C   UNL A   1      40.586  22.397  27.512  1.00  0.00     0.007 A 
ATOM     31  C   UNL A   1      38.326  23.180  26.082  1.00  0.00     0.000 A 
ATOM     32  C   UNL A   1      40.113  23.701  27.619  1.00  0.00     0.000 A 
ATOM     33  C   UNL A   1      38.991  24.095  26.896  1.00  0.00     0.000 A 
ENDBRANCH  27  28
ENDBRANCH  26  27
ENDBRANCH  23  26
ENDBRANCH  21  22
BRANCH  21  34
ATOM     34  C   UNL A   1      45.941  21.233  25.242  1.00  0.00     0.015 C 
ATOM     35  C   UNL A   1      46.372  19.926  24.585  1.00  0.00     0.010 C 
ATOM     36  C   UNL A   1      46.304  22.369  24.244  1.00  0.00     0.010 C 
ENDBRANCH  21  34
ENDBRANCH  18  21
ENDBRANCH  16  17
ENDBRANCH  13  16
ENDBRANCH   7  12
ENDBRANCH   4   7
ENDBRANCH   1   3
BRANCH   1  37
ATOM     37  C   UNL A   1      46.358  27.807  24.828  1.00  0.00     0.242 C 
ATOM     38  O   UNL A   1      46.682  28.796  24.167  1.00  0.00    -0.273 OA
ATOM     39  N   UNL A   1      47.209  26.764  24.885  1.00  0.00    -0.354 N 
ATOM     40  H   UNL A   1      47.895  26.725  24.180  1.00  0.00     0.163 HD
BRANCH  39  41
ATOM     41  C   UNL A   1      47.237  25.698  25.852  1.00  0.00     0.116 C 
BRANCH  41  42
ATOM     42  C   UNL A   1      48.559  25.676  26.607  1.00  0.00     0.023 C 
BRANCH  42  43
ATOM     43  C   UNL A   1      49.038  27.063  27.034  1.00  0.00     0.023 C 
BRANCH  43  44
ATOM     44  C   UNL A   1      49.005  27.294  28.538  1.00  0.00     0.116 C 
BRANCH  44  45
ATOM     45  N   UNL A   1      48.331  26.212  29.247  1.00  0.00    -0.352 N 
ATOM     46  C   UNL A   1      47.405  26.288  30.250  1.00  0.00     0.251 C 
ATOM     47  H   UNL A   1      48.578  25.301  28.966  1.00  0.00     0.163 HD
ATOM     48  O   UNL A   1      47.028  25.276  30.829  1.00  0.00    -0.269 OA
BRANCH  46  49
ATOM     49  C   UNL A   1      46.919  27.617  30.635  1.00  0.00     0.039 A 
ATOM     50  C   UNL A   1      47.412  28.190  31.805  1.00  0.00     0.014 A 
ATOM     51  C   UNL A   1      46.065  28.320  29.781  1.00  0.00     0.014 A 
ATOM     52  C   UNL A   1      47.079  29.507  32.099  1.00  0.00     0.010 A 
ATOM     53  C   UNL A   1      45.815  29.661  30.029  1.00  0.00     0.010 A 
ATOM     54  C   UNL A   1      46.307  30.261  31.199  1.00  0.00    -0.014 A 
BRANCH  54  55
ATOM     55  C   UNL A   1      45.987  31.680  31.475  1.00  0.00     0.031 A 
ATOM     56  C   UNL A   1      46.867  32.761  30.916  1.00  0.00     0.074 A 
ATOM     57  C   UNL A   1      44.937  31.983  32.261  1.00  0.00     0.049 A 
ATOM     58  N   UNL A   1      46.781  34.055  31.072  1.00  0.00    -0.248 NA
ATOM     59  C   UNL A   1      48.014  32.330  30.098  1.00  0.00     0.031 C 
ATOM     60  C   UNL A   1      44.044  31.011  32.897  1.00  0.00     0.029 A 
ATOM     61  N   UNL A   1      44.444  33.197  32.664  1.00  0.00    -0.354 N 
ATOM     62  C   UNL A   1      47.863  34.589  30.383  1.00  0.00     0.074 A 
ATOM     63  C   UNL A   1      48.631  33.479  29.868  1.00  0.00     0.031 C 
ATOM     64  C   UNL A   1      43.093  31.668  33.580  1.00  0.00     0.029 A 
ATOM     65  C   UNL A   1      43.334  33.102  33.470  1.00  0.00     0.049 A 
ATOM     66  H   UNL A   1      44.846  34.056  32.400  1.00  0.00     0.167 HD
ATOM     67  C   UNL A   1      48.173  35.891  30.176  1.00  0.00     0.037 A 
ATOM     68  C   UNL A   1      42.601  34.066  34.060  1.00  0.00     0.037 A 
ATOM     69  C   UNL A   1      47.389  36.986  30.683  1.00  0.00     0.049 A 
ATOM     70  C   UNL A   1      42.975  35.505  33.831  1.00  0.00     0.074 A 
ATOM     71  C   UNL A   1      47.581  38.342  30.487  1.00  0.00     0.029 A 
ATOM     72  N   UNL A   1      46.270  36.853  31.494  1.00  0.00    -0.354 N 
ATOM     73  N   UNL A   1      43.960  35.998  33.117  1.00  0.00    -0.248 NA
ATOM     74  C   UNL A   1      42.137  36.520  34.482  1.00  0.00     0.031 C 
ATOM     75  C   UNL A   1      46.616  39.029  31.230  1.00  0.00     0.029 A 
ATOM     76  C   UNL A   1      45.779  38.103  31.833  1.00  0.00     0.049 A 
ATOM     77  H   UNL A   1      45.883  35.996  31.785  1.00  0.00     0.167 HD
ATOM     78  C   UNL A   1      43.841  37.381  33.208  1.00  0.00     0.074 A 
ATOM     79  C   UNL A   1      42.681  37.644  34.035  1.00  0.00     0.031 C 
ATOM     80  C   UNL A   1      44.619  38.346  32.656  1.00  0.00     0.037 A 
BRANCH  67  81
ATOM     81  C   UNL A   1      49.410  36.195  29.376  1.00  0.00     0.058 A 
ATOM     82  C   UNL A   1      50.667  36.355  29.985  1.00  0.00     0.135 A 
ATOM     83  C   UNL A   1      49.344  36.310  27.978  1.00  0.00     0.135 A 
ATOM     84  F   UNL A   1      50.787  36.276  31.320  1.00  0.00    -0.206 F 
ATOM     85  C   UNL A   1      51.804  36.653  29.242  1.00  0.00     0.059 A 
ATOM     86  C   UNL A   1      50.475  36.572  27.211  1.00  0.00     0.059 A 
ATOM     87  F   UNL A   1      48.170  36.170  27.343  1.00  0.00    -0.206 F 
ATOM     88  C   UNL A   1      51.699  36.758  27.855  1.00  0.00     0.060 A 
BRANCH  88  89
ATOM     89  S   UNL A   1      53.184  37.143  26.907  1.00  0.00     0.124 S 
ATOM     90  O   UNL A   1      54.065  37.667  27.947  1.00  0.00    -0.237 OA
ATOM     91  O   UNL A   1      53.551  35.840  26.363  1.00  0.00    -0.237 OA
ATOM     92  O   UNL A   1      52.721  38.121  25.928  1.00  0.00    -0.744 OA
ENDBRANCH  88  89
ENDBRANCH  67  81
BRANCH  68  93
ATOM     93  C   UNL A   1      41.429  33.698  34.900  1.00  0.00     0.058 A 
ATOM     94  C   UNL A   1      41.578  33.421  36.267  1.00  0.00     0.135 A 
ATOM     95  C   UNL A   1      40.135  33.636  34.359  1.00  0.00     0.135 A 
ATOM     96  F   UNL A   1      42.795  33.462  36.831  1.00  0.00    -0.206 F 
ATOM     97  C   UNL A   1      40.491  33.079  37.065  1.00  0.00     0.059 A 
ATOM     98  C   UNL A   1      39.028  33.326  35.143  1.00  0.00     0.059 A 
ATOM     99  F   UNL A   1      39.935  33.910  33.060  1.00  0.00    -0.206 F 
ATOM    100  C   UNL A   1      39.218  33.040  36.493  1.00  0.00     0.060 A 
BRANCH 100 101
ATOM    101  S   UNL A   1      37.809  32.647  37.551  1.00  0.00     0.124 S 
ATOM    102  O   UNL A   1      36.718  33.309  36.845  1.00  0.00    -0.237 OA
ATOM    103  O   UNL A   1      37.800  31.188  37.518  1.00  0.00    -0.237 OA
ATOM    104  O   UNL A   1      38.178  33.235  38.835  1.00  0.00    -0.744 OA
ENDBRANCH 100 101
ENDBRANCH  68  93
BRANCH  80 105
ATOM    105  C   UNL A   1      44.223  39.778  32.893  1.00  0.00     0.058 A 
ATOM    106  C   UNL A   1      43.317  40.446  32.055  1.00  0.00     0.135 A 
ATOM    107  C   UNL A   1      44.715  40.472  34.011  1.00  0.00     0.135 A 
ATOM    108  F   UNL A   1      42.821  39.832  30.969  1.00  0.00    -0.206 F 
ATOM    109  C   UNL A   1      42.933  41.760  32.302  1.00  0.00     0.059 A 
ATOM    110  C   UNL A   1      44.317  41.773  34.297  1.00  0.00     0.059 A 
ATOM    111  F   UNL A   1      45.576  39.877  34.853  1.00  0.00    -0.206 F 
ATOM    112  C   UNL A   1      43.435  42.414  33.429  1.00  0.00     0.060 A 
BRANCH 112 113
ATOM    113  S   UNL A   1      42.899  44.105  33.756  1.00  0.00     0.124 S 
ATOM    114  O   UNL A   1      42.394  44.513  32.448  1.00  0.00    -0.237 OA
ATOM    115  O   UNL A   1      41.890  43.916  34.793  1.00  0.00    -0.237 OA
ATOM    116  O   UNL A   1      44.121  44.773  34.193  1.00  0.00    -0.744 OA
ENDBRANCH 112 113
ENDBRANCH  80 105
ENDBRANCH  54  55
ENDBRANCH  46  49
ENDBRANCH  44  45
ENDBRANCH  43  44
ENDBRANCH  42  43
ENDBRANCH  41  42
ENDBRANCH  39  41
ENDBRANCH   1  37
TORSDOF 27
ENDMDL
