MODEL 1
REMARK VINA RESULT:     -12.4      0.000      0.000
REMARK SMILES C[C@H](Oc1cc2oc(=O)cc(-c3ccccc3)c2cc1Cl)C(=O)NCCCCNC(=O)c1ccc(-c2c3nc(c(-c4c(F)cc(S(=O)(=O)[O-])cc4F)c4ccc([nH]4)c(-c4c(F)cc(S(=O)(=O)[O-])cc4F)c4nc(c(-c5c(F)cc(S(=O)(=O)[O-])cc5F)c5ccc2[nH]5)C=C4)C=C3)cc1
REMARK SMILES IDX 26 1 25 2 24 3 22 4 23 5 2 7 1 8 3 9 4 10 5 11 20 12 6 13
REMARK SMILES IDX 19 14 21 15 7 16 18 17 8 18 11 19 9 20 10 21 12 22 13 23
REMARK SMILES IDX 17 24 14 25 16 26 15 27 27 28 28 29 29 30 30 31 31 33 32 34
REMARK SMILES IDX 33 35 97 36 34 37 96 38 35 39 36 40 37 41 90 42 38 43 95 44
REMARK SMILES IDX 89 45 91 46 39 47 94 48 88 49 87 50 40 52 74 53 53 54 73 55
REMARK SMILES IDX 54 56 57 57 72 58 92 59 55 60 56 61 71 63 93 64 58 65 41 66
REMARK SMILES IDX 42 67 51 68 43 69 44 70 50 71 52 72 45 73 46 74 47 75 48 76
REMARK SMILES IDX 49 77 75 78 76 79 85 80 77 81 78 82 84 83 86 84 79 85 80 86
REMARK SMILES IDX 81 87 82 88 83 89 59 90 60 91 69 92 61 93 62 94 68 95 70 96
REMARK SMILES IDX 63 97 64 98 65 99 66 100 67 101
REMARK H PARENT 24 6 29 32 91 51 57 62
REMARK Flexibility Score: inf
ROOT
ATOM      1  C   UNL A   1      32.881  29.190  24.945  1.00  0.00     0.023 C 
ENDROOT
BRANCH   1   2
ATOM      2  C   UNL A   1      31.361  29.129  24.843  1.00  0.00     0.116 C 
BRANCH   2   3
ATOM      3  N   UNL A   1      30.868  29.686  23.596  1.00  0.00    -0.353 N 
ATOM      4  C   UNL A   1      30.347  29.043  22.504  1.00  0.00     0.260 C 
ATOM      5  O   UNL A   1      29.973  29.723  21.546  1.00  0.00    -0.271 OA
ATOM      6  H   UNL A   1      30.914  30.667  23.524  1.00  0.00     0.163 HD
BRANCH   4   7
ATOM      7  C   UNL A   1      30.164  27.514  22.516  1.00  0.00     0.258 C 
ATOM      8  C   UNL A   1      29.532  27.135  23.858  1.00  0.00     0.064 C 
BRANCH   7   9
ATOM      9  O   UNL A   1      31.416  26.969  22.091  1.00  0.00    -0.479 OA
BRANCH   9  10
ATOM     10  C   UNL A   1      32.061  25.901  22.626  1.00  0.00     0.142 A 
ATOM     11  C   UNL A   1      31.481  24.682  22.941  1.00  0.00     0.096 A 
ATOM     12  C   UNL A   1      33.433  26.072  22.897  1.00  0.00     0.084 A 
ATOM     13  C   UNL A   1      32.216  23.729  23.651  1.00  0.00     0.142 A 
ATOM     14  C   UNL A   1      34.177  25.080  23.552  1.00  0.00     0.037 A 
ATOM     15  Cl  UNL A   1      34.262  27.527  22.458  1.00  0.00    -0.080 Cl
ATOM     16  O   UNL A   1      31.504  22.588  24.064  1.00  0.00    -0.423 OA
ATOM     17  C   UNL A   1      33.559  23.903  23.977  1.00  0.00     0.027 A 
ATOM     18  C   UNL A   1      32.085  21.663  24.910  1.00  0.00     0.336 A 
ATOM     19  C   UNL A   1      34.256  22.855  24.740  1.00  0.00    -0.000 A 
ATOM     20  O   UNL A   1      31.458  20.719  25.377  1.00  0.00    -0.246 OA
ATOM     21  C   UNL A   1      33.518  21.827  25.193  1.00  0.00     0.103 A 
BRANCH  19  22
ATOM     22  C   UNL A   1      35.697  22.816  25.070  1.00  0.00    -0.017 A 
ATOM     23  C   UNL A   1      36.270  23.861  25.810  1.00  0.00     0.009 A 
ATOM     24  C   UNL A   1      36.505  21.750  24.659  1.00  0.00     0.009 A 
ATOM     25  C   UNL A   1      37.628  23.840  26.134  1.00  0.00     0.001 A 
ATOM     26  C   UNL A   1      37.862  21.725  24.993  1.00  0.00     0.001 A 
ATOM     27  C   UNL A   1      38.422  22.770  25.728  1.00  0.00     0.000 A 
ENDBRANCH  19  22
ENDBRANCH   9  10
ENDBRANCH   7   9
ENDBRANCH   4   7
ENDBRANCH   2   3
ENDBRANCH   1   2
BRANCH   1  28
ATOM     28  C   UNL A   1      33.505  28.121  25.841  1.00  0.00     0.023 C 
BRANCH  28  29
ATOM     29  C   UNL A   1      33.463  28.419  27.336  1.00  0.00     0.116 C 
BRANCH  29  30
ATOM     30  N   UNL A   1      33.407  29.842  27.632  1.00  0.00    -0.352 N 
ATOM     31  C   UNL A   1      34.387  30.657  28.155  1.00  0.00     0.251 C 
ATOM     32  H   UNL A   1      32.551  30.284  27.430  1.00  0.00     0.163 HD
ATOM     33  O   UNL A   1      34.122  31.810  28.468  1.00  0.00    -0.269 OA
BRANCH  31  34
ATOM     34  C   UNL A   1      35.748  30.116  28.367  1.00  0.00     0.039 A 
ATOM     35  C   UNL A   1      36.646  30.106  27.298  1.00  0.00     0.014 A 
ATOM     36  C   UNL A   1      36.144  29.651  29.624  1.00  0.00     0.014 A 
ATOM     37  C   UNL A   1      37.966  29.700  27.508  1.00  0.00     0.010 A 
ATOM     38  C   UNL A   1      37.477  29.318  29.849  1.00  0.00     0.010 A 
ATOM     39  C   UNL A   1      38.403  29.342  28.795  1.00  0.00    -0.014 A 
BRANCH  39  40
ATOM     40  C   UNL A   1      39.824  29.001  29.062  1.00  0.00     0.031 A 
ATOM     41  C   UNL A   1      40.754  30.033  29.639  1.00  0.00     0.074 A 
ATOM     42  C   UNL A   1      40.295  27.785  28.716  1.00  0.00     0.049 A 
ATOM     43  N   UNL A   1      42.039  29.949  29.873  1.00  0.00    -0.248 NA
ATOM     44  C   UNL A   1      40.169  31.342  29.971  1.00  0.00     0.031 C 
ATOM     45  C   UNL A   1      39.506  26.714  28.101  1.00  0.00     0.029 A 
ATOM     46  N   UNL A   1      41.554  27.247  28.822  1.00  0.00    -0.354 N 
ATOM     47  C   UNL A   1      42.418  31.194  30.360  1.00  0.00     0.074 A 
ATOM     48  C   UNL A   1      41.237  32.031  30.342  1.00  0.00     0.031 C 
ATOM     49  C   UNL A   1      40.293  25.644  27.907  1.00  0.00     0.029 A 
ATOM     50  C   UNL A   1      41.648  25.960  28.347  1.00  0.00     0.049 A 
ATOM     51  H   UNL A   1      42.318  27.738  29.202  1.00  0.00     0.167 HD
ATOM     52  C   UNL A   1      43.633  31.597  30.802  1.00  0.00     0.037 A 
ATOM     53  C   UNL A   1      42.707  25.130  28.267  1.00  0.00     0.037 A 
ATOM     54  C   UNL A   1      44.796  30.749  30.847  1.00  0.00     0.049 A 
ATOM     55  C   UNL A   1      44.046  25.600  28.771  1.00  0.00     0.074 A 
ATOM     56  C   UNL A   1      46.055  31.043  31.343  1.00  0.00     0.029 A 
ATOM     57  N   UNL A   1      44.846  29.446  30.376  1.00  0.00    -0.354 N 
ATOM     58  N   UNL A   1      44.371  26.759  29.293  1.00  0.00    -0.248 NA
ATOM     59  C   UNL A   1      45.161  24.648  28.678  1.00  0.00     0.031 C 
ATOM     60  C   UNL A   1      46.878  29.931  31.133  1.00  0.00     0.029 A 
ATOM     61  C   UNL A   1      46.120  28.928  30.550  1.00  0.00     0.049 A 
ATOM     62  H   UNL A   1      44.088  28.959  29.978  1.00  0.00     0.167 HD
ATOM     63  C   UNL A   1      45.720  26.664  29.617  1.00  0.00     0.074 A 
ATOM     64  C   UNL A   1      46.147  25.333  29.241  1.00  0.00     0.031 C 
ATOM     65  C   UNL A   1      46.529  27.596  30.178  1.00  0.00     0.037 A 
BRANCH  52  66
ATOM     66  C   UNL A   1      43.767  33.018  31.277  1.00  0.00     0.058 A 
ATOM     67  C   UNL A   1      43.542  33.372  32.617  1.00  0.00     0.135 A 
ATOM     68  C   UNL A   1      44.155  34.034  30.390  1.00  0.00     0.135 A 
ATOM     69  F   UNL A   1      43.154  32.443  33.507  1.00  0.00    -0.206 F 
ATOM     70  C   UNL A   1      43.667  34.687  33.054  1.00  0.00     0.059 A 
ATOM     71  C   UNL A   1      44.313  35.352  30.811  1.00  0.00     0.059 A 
ATOM     72  F   UNL A   1      44.383  33.752  29.097  1.00  0.00    -0.206 F 
ATOM     73  C   UNL A   1      44.052  35.671  32.141  1.00  0.00     0.060 A 
BRANCH  73  74
ATOM     74  S   UNL A   1      44.209  37.372  32.724  1.00  0.00     0.124 S 
ATOM     75  O   UNL A   1      43.187  37.418  33.765  1.00  0.00    -0.237 OA
ATOM     76  O   UNL A   1      45.591  37.417  33.191  1.00  0.00    -0.237 OA
ATOM     77  O   UNL A   1      43.927  38.166  31.532  1.00  0.00    -0.744 OA
ENDBRANCH  73  74
ENDBRANCH  52  66
BRANCH  53  78
ATOM     78  C   UNL A   1      42.538  23.760  27.716  1.00  0.00     0.058 A 
ATOM     79  C   UNL A   1      42.417  22.652  28.569  1.00  0.00     0.135 A 
ATOM     80  C   UNL A   1      42.482  23.529  26.333  1.00  0.00     0.135 A 
ATOM     81  F   UNL A   1      42.471  22.821  29.898  1.00  0.00    -0.206 F 
ATOM     82  C   UNL A   1      42.261  21.362  28.072  1.00  0.00     0.059 A 
ATOM     83  C   UNL A   1      42.303  22.252  25.812  1.00  0.00     0.059 A 
ATOM     84  F   UNL A   1      42.578  24.557  25.475  1.00  0.00    -0.206 F 
ATOM     85  C   UNL A   1      42.203  21.172  26.690  1.00  0.00     0.060 A 
BRANCH  85  86
ATOM     86  S   UNL A   1      41.951  19.500  26.057  1.00  0.00     0.124 S 
ATOM     87  O   UNL A   1      40.509  19.484  25.836  1.00  0.00    -0.237 OA
ATOM     88  O   UNL A   1      42.782  19.498  24.856  1.00  0.00    -0.237 OA
ATOM     89  O   UNL A   1      42.433  18.654  27.144  1.00  0.00    -0.744 OA
ENDBRANCH  85  86
ENDBRANCH  53  78
BRANCH  65  90
ATOM     90  C   UNL A   1      47.953  27.201  30.456  1.00  0.00     0.058 A 
ATOM     91  C   UNL A   1      48.981  27.446  29.533  1.00  0.00     0.135 A 
ATOM     92  C   UNL A   1      48.300  26.617  31.685  1.00  0.00     0.135 A 
ATOM     93  F   UNL A   1      48.701  27.996  28.341  1.00  0.00    -0.206 F 
ATOM     94  C   UNL A   1      50.302  27.106  29.809  1.00  0.00     0.059 A 
ATOM     95  C   UNL A   1      49.617  26.294  31.994  1.00  0.00     0.059 A 
ATOM     96  F   UNL A   1      47.357  26.370  32.607  1.00  0.00    -0.206 F 
ATOM     97  C   UNL A   1      50.610  26.532  31.044  1.00  0.00     0.060 A 
BRANCH  97  98
ATOM     98  S   UNL A   1      52.333  26.131  31.406  1.00  0.00     0.124 S 
ATOM     99  O   UNL A   1      52.685  27.178  32.359  1.00  0.00    -0.237 OA
ATOM    100  O   UNL A   1      52.232  24.782  31.955  1.00  0.00    -0.237 OA
ATOM    101  O   UNL A   1      52.983  26.223  30.103  1.00  0.00    -0.744 OA
ENDBRANCH  97  98
ENDBRANCH  65  90
ENDBRANCH  39  40
ENDBRANCH  31  34
ENDBRANCH  29  30
ENDBRANCH  28  29
ENDBRANCH   1  28
TORSDOF 17
ENDMDL
MODEL 2
REMARK VINA RESULT:     -12.3      1.390      2.393
REMARK SMILES C[C@H](Oc1cc2oc(=O)cc(-c3ccccc3)c2cc1Cl)C(=O)NCCCCNC(=O)c1ccc(-c2c3nc(c(-c4c(F)cc(S(=O)(=O)[O-])cc4F)c4ccc([nH]4)c(-c4c(F)cc(S(=O)(=O)[O-])cc4F)c4nc(c(-c5c(F)cc(S(=O)(=O)[O-])cc5F)c5ccc2[nH]5)C=C4)C=C3)cc1
REMARK SMILES IDX 26 1 25 2 24 3 22 4 23 5 2 7 1 8 3 9 4 10 5 11 20 12 6 13
REMARK SMILES IDX 19 14 21 15 7 16 18 17 8 18 11 19 9 20 10 21 12 22 13 23
REMARK SMILES IDX 17 24 14 25 16 26 15 27 27 28 28 29 29 30 30 31 31 33 32 34
REMARK SMILES IDX 33 35 97 36 34 37 96 38 35 39 36 40 37 41 90 42 38 43 95 44
REMARK SMILES IDX 89 45 91 46 39 47 94 48 88 49 87 50 40 52 74 53 53 54 73 55
REMARK SMILES IDX 54 56 57 57 72 58 92 59 55 60 56 61 71 63 93 64 58 65 41 66
REMARK SMILES IDX 42 67 51 68 43 69 44 70 50 71 52 72 45 73 46 74 47 75 48 76
REMARK SMILES IDX 49 77 75 78 76 79 85 80 77 81 78 82 84 83 86 84 79 85 80 86
REMARK SMILES IDX 81 87 82 88 83 89 59 90 60 91 69 92 61 93 62 94 68 95 70 96
REMARK SMILES IDX 63 97 64 98 65 99 66 100 67 101
REMARK H PARENT 24 6 29 32 91 51 57 62
REMARK Flexibility Score: inf
ROOT
ATOM      1  C   UNL A   1      31.445  28.834  25.988  1.00  0.00     0.023 C 
ENDROOT
BRANCH   1   2
ATOM      2  C   UNL A   1      32.016  29.171  24.614  1.00  0.00     0.116 C 
BRANCH   2   3
ATOM      3  N   UNL A   1      31.240  28.588  23.534  1.00  0.00    -0.353 N 
ATOM      4  C   UNL A   1      31.525  27.503  22.748  1.00  0.00     0.260 C 
ATOM      5  O   UNL A   1      30.706  27.171  21.888  1.00  0.00    -0.271 OA
ATOM      6  H   UNL A   1      30.385  29.036  23.339  1.00  0.00     0.163 HD
BRANCH   4   7
ATOM      7  C   UNL A   1      32.802  26.678  22.993  1.00  0.00     0.258 C 
ATOM      8  C   UNL A   1      33.247  26.106  21.644  1.00  0.00     0.064 C 
BRANCH   7   9
ATOM      9  O   UNL A   1      32.512  25.835  24.111  1.00  0.00    -0.479 OA
BRANCH   9  10
ATOM     10  C   UNL A   1      33.094  24.644  24.404  1.00  0.00     0.142 A 
ATOM     11  C   UNL A   1      34.325  24.477  25.018  1.00  0.00     0.096 A 
ATOM     12  C   UNL A   1      32.381  23.490  24.023  1.00  0.00     0.084 A 
ATOM     13  C   UNL A   1      34.890  23.201  25.101  1.00  0.00     0.142 A 
ATOM     14  C   UNL A   1      32.932  22.209  24.171  1.00  0.00     0.037 A 
ATOM     15  Cl  UNL A   1      30.798  23.599  23.329  1.00  0.00    -0.080 Cl
ATOM     16  O   UNL A   1      36.205  23.142  25.596  1.00  0.00    -0.423 OA
ATOM     17  C   UNL A   1      34.222  22.053  24.679  1.00  0.00     0.027 A 
ATOM     18  C   UNL A   1      36.918  21.959  25.567  1.00  0.00     0.336 A 
ATOM     19  C   UNL A   1      34.896  20.748  24.787  1.00  0.00    -0.000 A 
ATOM     20  O   UNL A   1      38.099  21.899  25.887  1.00  0.00    -0.246 OA
ATOM     21  C   UNL A   1      36.182  20.748  25.179  1.00  0.00     0.103 A 
BRANCH  19  22
ATOM     22  C   UNL A   1      34.302  19.424  24.501  1.00  0.00    -0.017 A 
ATOM     23  C   UNL A   1      32.943  19.328  24.169  1.00  0.00     0.009 A 
ATOM     24  C   UNL A   1      35.075  18.258  24.553  1.00  0.00     0.009 A 
ATOM     25  C   UNL A   1      32.366  18.087  23.893  1.00  0.00     0.001 A 
ATOM     26  C   UNL A   1      34.499  17.018  24.266  1.00  0.00     0.001 A 
ATOM     27  C   UNL A   1      33.146  16.933  23.938  1.00  0.00     0.000 A 
ENDBRANCH  19  22
ENDBRANCH   9  10
ENDBRANCH   7   9
ENDBRANCH   4   7
ENDBRANCH   2   3
ENDBRANCH   1   2
BRANCH   1  28
ATOM     28  C   UNL A   1      32.295  27.872  26.815  1.00  0.00     0.023 C 
BRANCH  28  29
ATOM     29  C   UNL A   1      33.626  28.433  27.303  1.00  0.00     0.116 C 
BRANCH  29  30
ATOM     30  N   UNL A   1      33.544  29.829  27.703  1.00  0.00    -0.352 N 
ATOM     31  C   UNL A   1      34.507  30.621  28.288  1.00  0.00     0.251 C 
ATOM     32  H   UNL A   1      32.681  30.270  27.530  1.00  0.00     0.163 HD
ATOM     33  O   UNL A   1      34.220  31.743  28.684  1.00  0.00    -0.269 OA
BRANCH  31  34
ATOM     34  C   UNL A   1      35.876  30.090  28.466  1.00  0.00     0.039 A 
ATOM     35  C   UNL A   1      36.756  30.110  27.382  1.00  0.00     0.014 A 
ATOM     36  C   UNL A   1      36.299  29.604  29.706  1.00  0.00     0.014 A 
ATOM     37  C   UNL A   1      38.083  29.714  27.562  1.00  0.00     0.010 A 
ATOM     38  C   UNL A   1      37.639  29.281  29.902  1.00  0.00     0.010 A 
ATOM     39  C   UNL A   1      38.546  29.335  28.833  1.00  0.00    -0.014 A 
BRANCH  39  40
ATOM     40  C   UNL A   1      39.975  29.003  29.069  1.00  0.00     0.031 A 
ATOM     41  C   UNL A   1      40.911  30.042  29.623  1.00  0.00     0.074 A 
ATOM     42  C   UNL A   1      40.446  27.790  28.715  1.00  0.00     0.049 A 
ATOM     43  N   UNL A   1      42.201  29.967  29.829  1.00  0.00    -0.248 NA
ATOM     44  C   UNL A   1      40.325  31.348  29.967  1.00  0.00     0.031 C 
ATOM     45  C   UNL A   1      39.651  26.713  28.119  1.00  0.00     0.029 A 
ATOM     46  N   UNL A   1      41.711  27.261  28.793  1.00  0.00    -0.354 N 
ATOM     47  C   UNL A   1      42.583  31.215  30.306  1.00  0.00     0.074 A 
ATOM     48  C   UNL A   1      41.397  32.045  30.313  1.00  0.00     0.031 C 
ATOM     49  C   UNL A   1      40.440  25.648  27.909  1.00  0.00     0.029 A 
ATOM     50  C   UNL A   1      41.802  25.973  28.317  1.00  0.00     0.049 A 
ATOM     51  H   UNL A   1      42.480  27.757  29.156  1.00  0.00     0.167 HD
ATOM     52  C   UNL A   1      43.805  31.627  30.720  1.00  0.00     0.037 A 
ATOM     53  C   UNL A   1      42.864  25.150  28.216  1.00  0.00     0.037 A 
ATOM     54  C   UNL A   1      44.975  30.787  30.740  1.00  0.00     0.049 A 
ATOM     55  C   UNL A   1      44.211  25.629  28.689  1.00  0.00     0.074 A 
ATOM     56  C   UNL A   1      46.242  31.089  31.207  1.00  0.00     0.029 A 
ATOM     57  N   UNL A   1      45.022  29.483  30.270  1.00  0.00    -0.354 N 
ATOM     58  N   UNL A   1      44.540  26.791  29.201  1.00  0.00    -0.248 NA
ATOM     59  C   UNL A   1      45.330  24.684  28.572  1.00  0.00     0.031 C 
ATOM     60  C   UNL A   1      47.067  29.982  30.981  1.00  0.00     0.029 A 
ATOM     61  C   UNL A   1      46.303  28.973  30.417  1.00  0.00     0.049 A 
ATOM     62  H   UNL A   1      44.259  28.991  29.889  1.00  0.00     0.167 HD
ATOM     63  C   UNL A   1      45.897  26.705  29.496  1.00  0.00     0.074 A 
ATOM     64  C   UNL A   1      46.324  25.377  29.113  1.00  0.00     0.031 C 
ATOM     65  C   UNL A   1      46.712  27.643  30.038  1.00  0.00     0.037 A 
BRANCH  52  66
ATOM     66  C   UNL A   1      43.940  33.049  31.190  1.00  0.00     0.058 A 
ATOM     67  C   UNL A   1      44.269  34.091  30.307  1.00  0.00     0.135 A 
ATOM     68  C   UNL A   1      43.708  33.382  32.534  1.00  0.00     0.135 A 
ATOM     69  F   UNL A   1      44.518  33.828  29.013  1.00  0.00    -0.206 F 
ATOM     70  C   UNL A   1      44.395  35.405  30.745  1.00  0.00     0.059 A 
ATOM     71  C   UNL A   1      43.800  34.695  32.989  1.00  0.00     0.059 A 
ATOM     72  F   UNL A   1      43.390  32.426  33.422  1.00  0.00    -0.206 F 
ATOM     73  C   UNL A   1      44.159  35.697  32.090  1.00  0.00     0.060 A 
BRANCH  73  74
ATOM     74  S   UNL A   1      44.325  37.407  32.642  1.00  0.00     0.124 S 
ATOM     75  O   UNL A   1      43.270  37.491  33.648  1.00  0.00    -0.237 OA
ATOM     76  O   UNL A   1      45.692  37.439  33.153  1.00  0.00    -0.237 OA
ATOM     77  O   UNL A   1      44.095  38.180  31.425  1.00  0.00    -0.744 OA
ENDBRANCH  73  74
ENDBRANCH  52  66
BRANCH  53  78
ATOM     78  C   UNL A   1      42.693  23.778  27.670  1.00  0.00     0.058 A 
ATOM     79  C   UNL A   1      42.451  22.690  28.523  1.00  0.00     0.135 A 
ATOM     80  C   UNL A   1      42.752  23.525  26.291  1.00  0.00     0.135 A 
ATOM     81  F   UNL A   1      42.392  22.880  29.850  1.00  0.00    -0.206 F 
ATOM     82  C   UNL A   1      42.291  21.399  28.032  1.00  0.00     0.059 A 
ATOM     83  C   UNL A   1      42.570  22.247  25.773  1.00  0.00     0.059 A 
ATOM     84  F   UNL A   1      42.964  24.534  25.432  1.00  0.00    -0.206 F 
ATOM     85  C   UNL A   1      42.349  21.187  26.653  1.00  0.00     0.060 A 
BRANCH  85  86
ATOM     86  S   UNL A   1      42.090  19.516  26.023  1.00  0.00     0.124 S 
ATOM     87  O   UNL A   1      40.647  19.503  25.810  1.00  0.00    -0.237 OA
ATOM     88  O   UNL A   1      42.914  19.511  24.818  1.00  0.00    -0.237 OA
ATOM     89  O   UNL A   1      42.576  18.669  27.108  1.00  0.00    -0.744 OA
ENDBRANCH  85  86
ENDBRANCH  53  78
BRANCH  65  90
ATOM     90  C   UNL A   1      48.144  27.258  30.284  1.00  0.00     0.058 A 
ATOM     91  C   UNL A   1      49.163  27.582  29.375  1.00  0.00     0.135 A 
ATOM     92  C   UNL A   1      48.508  26.601  31.471  1.00  0.00     0.135 A 
ATOM     93  F   UNL A   1      48.868  28.203  28.222  1.00  0.00    -0.206 F 
ATOM     94  C   UNL A   1      50.492  27.250  29.624  1.00  0.00     0.059 A 
ATOM     95  C   UNL A   1      49.833  26.284  31.753  1.00  0.00     0.059 A 
ATOM     96  F   UNL A   1      47.574  26.277  32.378  1.00  0.00    -0.206 F 
ATOM     97  C   UNL A   1      50.816  26.602  30.818  1.00  0.00     0.060 A 
BRANCH  97  98
ATOM     98  S   UNL A   1      52.548  26.210  31.147  1.00  0.00     0.124 S 
ATOM     99  O   UNL A   1      52.430  24.962  31.894  1.00  0.00    -0.237 OA
ATOM    100  O   UNL A   1      53.104  26.095  29.803  1.00  0.00    -0.237 OA
ATOM    101  O   UNL A   1      53.016  27.359  31.915  1.00  0.00    -0.744 OA
ENDBRANCH  97  98
ENDBRANCH  65  90
ENDBRANCH  39  40
ENDBRANCH  31  34
ENDBRANCH  29  30
ENDBRANCH  28  29
ENDBRANCH   1  28
TORSDOF 17
ENDMDL
MODEL 3
REMARK VINA RESULT:     -12.0      2.886      9.185
REMARK SMILES C[C@H](Oc1cc2oc(=O)cc(-c3ccccc3)c2cc1Cl)C(=O)NCCCCNC(=O)c1ccc(-c2c3nc(c(-c4c(F)cc(S(=O)(=O)[O-])cc4F)c4ccc([nH]4)c(-c4c(F)cc(S(=O)(=O)[O-])cc4F)c4nc(c(-c5c(F)cc(S(=O)(=O)[O-])cc5F)c5ccc2[nH]5)C=C4)C=C3)cc1
REMARK SMILES IDX 26 1 25 2 24 3 22 4 23 5 2 7 1 8 3 9 4 10 5 11 20 12 6 13
REMARK SMILES IDX 19 14 21 15 7 16 18 17 8 18 11 19 9 20 10 21 12 22 13 23
REMARK SMILES IDX 17 24 14 25 16 26 15 27 27 28 28 29 29 30 30 31 31 33 32 34
REMARK SMILES IDX 33 35 97 36 34 37 96 38 35 39 36 40 37 41 90 42 38 43 95 44
REMARK SMILES IDX 89 45 91 46 39 47 94 48 88 49 87 50 40 52 74 53 53 54 73 55
REMARK SMILES IDX 54 56 57 57 72 58 92 59 55 60 56 61 71 63 93 64 58 65 41 66
REMARK SMILES IDX 42 67 51 68 43 69 44 70 50 71 52 72 45 73 46 74 47 75 48 76
REMARK SMILES IDX 49 77 75 78 76 79 85 80 77 81 78 82 84 83 86 84 79 85 80 86
REMARK SMILES IDX 81 87 82 88 83 89 59 90 60 91 69 92 61 93 62 94 68 95 70 96
REMARK SMILES IDX 63 97 64 98 65 99 66 100 67 101
REMARK H PARENT 24 6 29 32 91 51 57 62
REMARK Flexibility Score: inf
ROOT
ATOM      1  C   UNL A   1      35.250  22.962  23.552  1.00  0.00     0.023 C 
ENDROOT
BRANCH   1   2
ATOM      2  C   UNL A   1      34.103  23.647  22.815  1.00  0.00     0.116 C 
BRANCH   2   3
ATOM      3  N   UNL A   1      33.161  22.696  22.252  1.00  0.00    -0.353 N 
ATOM      4  C   UNL A   1      32.408  21.743  22.885  1.00  0.00     0.260 C 
ATOM      5  O   UNL A   1      31.654  21.044  22.204  1.00  0.00    -0.271 OA
ATOM      6  H   UNL A   1      33.046  22.743  21.275  1.00  0.00     0.163 HD
BRANCH   4   7
ATOM      7  C   UNL A   1      32.451  21.609  24.419  1.00  0.00     0.258 C 
ATOM      8  C   UNL A   1      32.518  20.115  24.749  1.00  0.00     0.064 C 
BRANCH   7   9
ATOM      9  O   UNL A   1      31.399  22.443  24.912  1.00  0.00    -0.479 OA
BRANCH   9  10
ATOM     10  C   UNL A   1      31.384  23.800  24.943  1.00  0.00     0.142 A 
ATOM     11  C   UNL A   1      30.607  24.617  24.136  1.00  0.00     0.096 A 
ATOM     12  C   UNL A   1      32.255  24.414  25.864  1.00  0.00     0.084 A 
ATOM     13  C   UNL A   1      30.817  25.999  24.143  1.00  0.00     0.142 A 
ATOM     14  C   UNL A   1      32.410  25.807  25.907  1.00  0.00     0.037 A 
ATOM     15  Cl  UNL A   1      33.199  23.475  26.971  1.00  0.00    -0.080 Cl
ATOM     16  O   UNL A   1      30.098  26.734  23.185  1.00  0.00    -0.423 OA
ATOM     17  C   UNL A   1      31.715  26.619  25.010  1.00  0.00     0.027 A 
ATOM     18  C   UNL A   1      30.350  28.079  22.993  1.00  0.00     0.336 A 
ATOM     19  C   UNL A   1      31.887  28.080  24.942  1.00  0.00    -0.000 A 
ATOM     20  O   UNL A   1      29.822  28.722  22.093  1.00  0.00    -0.246 OA
ATOM     21  C   UNL A   1      31.251  28.731  23.953  1.00  0.00     0.103 A 
BRANCH  19  22
ATOM     22  C   UNL A   1      32.700  28.914  25.854  1.00  0.00    -0.017 A 
ATOM     23  C   UNL A   1      32.174  30.116  26.352  1.00  0.00     0.009 A 
ATOM     24  C   UNL A   1      33.990  28.525  26.234  1.00  0.00     0.009 A 
ATOM     25  C   UNL A   1      32.925  30.915  27.216  1.00  0.00     0.001 A 
ATOM     26  C   UNL A   1      34.736  29.321  27.107  1.00  0.00     0.001 A 
ATOM     27  C   UNL A   1      34.205  30.515  27.595  1.00  0.00     0.000 A 
ENDBRANCH  19  22
ENDBRANCH   9  10
ENDBRANCH   7   9
ENDBRANCH   4   7
ENDBRANCH   2   3
ENDBRANCH   1   2
BRANCH   1  28
ATOM     28  C   UNL A   1      36.251  23.915  24.203  1.00  0.00     0.023 C 
BRANCH  28  29
ATOM     29  C   UNL A   1      36.695  23.530  25.610  1.00  0.00     0.116 C 
BRANCH  29  30
ATOM     30  N   UNL A   1      37.874  22.678  25.622  1.00  0.00    -0.352 N 
ATOM     31  C   UNL A   1      39.140  22.957  26.087  1.00  0.00     0.251 C 
ATOM     32  H   UNL A   1      37.750  21.777  25.246  1.00  0.00     0.163 HD
ATOM     33  O   UNL A   1      40.053  22.165  25.893  1.00  0.00    -0.269 OA
BRANCH  31  34
ATOM     34  C   UNL A   1      39.392  24.235  26.789  1.00  0.00     0.039 A 
ATOM     35  C   UNL A   1      38.942  24.385  28.103  1.00  0.00     0.014 A 
ATOM     36  C   UNL A   1      40.097  25.267  26.165  1.00  0.00     0.014 A 
ATOM     37  C   UNL A   1      39.265  25.542  28.816  1.00  0.00     0.010 A 
ATOM     38  C   UNL A   1      40.482  26.385  26.900  1.00  0.00     0.010 A 
ATOM     39  C   UNL A   1      40.073  26.534  28.233  1.00  0.00    -0.014 A 
BRANCH  39  40
ATOM     40  C   UNL A   1      40.511  27.726  29.005  1.00  0.00     0.031 A 
ATOM     41  C   UNL A   1      41.846  27.730  29.698  1.00  0.00     0.074 A 
ATOM     42  C   UNL A   1      39.675  28.776  29.142  1.00  0.00     0.049 A 
ATOM     43  N   UNL A   1      42.371  28.642  30.475  1.00  0.00    -0.248 NA
ATOM     44  C   UNL A   1      42.692  26.539  29.516  1.00  0.00     0.031 C 
ATOM     45  C   UNL A   1      38.333  28.872  28.562  1.00  0.00     0.029 A 
ATOM     46  N   UNL A   1      39.826  29.959  29.822  1.00  0.00    -0.354 N 
ATOM     47  C   UNL A   1      43.595  28.130  30.889  1.00  0.00     0.074 A 
ATOM     48  C   UNL A   1      43.713  26.806  30.316  1.00  0.00     0.031 C 
ATOM     49  C   UNL A   1      37.795  30.057  28.891  1.00  0.00     0.029 A 
ATOM     50  C   UNL A   1      38.733  30.790  29.734  1.00  0.00     0.049 A 
ATOM     51  H   UNL A   1      40.640  30.190  30.326  1.00  0.00     0.167 HD
ATOM     52  C   UNL A   1      44.543  28.717  31.658  1.00  0.00     0.037 A 
ATOM     53  C   UNL A   1      38.510  32.003  30.278  1.00  0.00     0.037 A 
ATOM     54  C   UNL A   1      44.433  30.047  32.198  1.00  0.00     0.049 A 
ATOM     55  C   UNL A   1      39.582  32.637  31.124  1.00  0.00     0.074 A 
ATOM     56  C   UNL A   1      45.368  30.758  32.930  1.00  0.00     0.029 A 
ATOM     57  N   UNL A   1      43.320  30.865  32.070  1.00  0.00    -0.354 N 
ATOM     58  N   UNL A   1      40.762  32.167  31.448  1.00  0.00    -0.248 NA
ATOM     59  C   UNL A   1      39.292  33.968  31.675  1.00  0.00     0.031 C 
ATOM     60  C   UNL A   1      44.805  31.990  33.281  1.00  0.00     0.029 A 
ATOM     61  C   UNL A   1      43.537  32.066  32.727  1.00  0.00     0.049 A 
ATOM     62  H   UNL A   1      42.497  30.629  31.583  1.00  0.00     0.167 HD
ATOM     63  C   UNL A   1      41.368  33.156  32.216  1.00  0.00     0.074 A 
ATOM     64  C   UNL A   1      40.427  34.253  32.300  1.00  0.00     0.031 C 
ATOM     65  C   UNL A   1      42.593  33.154  32.795  1.00  0.00     0.037 A 
BRANCH  52  66
ATOM     66  C   UNL A   1      45.786  27.926  31.958  1.00  0.00     0.058 A 
ATOM     67  C   UNL A   1      45.881  27.101  33.090  1.00  0.00     0.135 A 
ATOM     68  C   UNL A   1      46.886  27.968  31.087  1.00  0.00     0.135 A 
ATOM     69  F   UNL A   1      44.865  27.034  33.966  1.00  0.00    -0.206 F 
ATOM     70  C   UNL A   1      47.033  26.371  33.365  1.00  0.00     0.059 A 
ATOM     71  C   UNL A   1      48.039  27.224  31.327  1.00  0.00     0.059 A 
ATOM     72  F   UNL A   1      46.851  28.740  29.988  1.00  0.00    -0.206 F 
ATOM     73  C   UNL A   1      48.108  26.441  32.477  1.00  0.00     0.060 A 
BRANCH  73  74
ATOM     74  S   UNL A   1      49.595  25.487  32.849  1.00  0.00     0.124 S 
ATOM     75  O   UNL A   1      50.448  26.504  33.455  1.00  0.00    -0.237 OA
ATOM     76  O   UNL A   1      49.090  24.461  33.756  1.00  0.00    -0.237 OA
ATOM     77  O   UNL A   1      50.025  25.006  31.540  1.00  0.00    -0.744 OA
ENDBRANCH  73  74
ENDBRANCH  52  66
BRANCH  53  78
ATOM     78  C   UNL A   1      37.229  32.712  30.014  1.00  0.00     0.058 A 
ATOM     79  C   UNL A   1      36.094  32.461  30.801  1.00  0.00     0.135 A 
ATOM     80  C   UNL A   1      37.115  33.658  28.985  1.00  0.00     0.135 A 
ATOM     81  F   UNL A   1      36.153  31.560  31.793  1.00  0.00    -0.206 F 
ATOM     82  C   UNL A   1      34.887  33.112  30.568  1.00  0.00     0.059 A 
ATOM     83  C   UNL A   1      35.925  34.340  28.748  1.00  0.00     0.059 A 
ATOM     84  F   UNL A   1      38.176  33.945  28.215  1.00  0.00    -0.206 F 
ATOM     85  C   UNL A   1      34.813  34.053  29.539  1.00  0.00     0.060 A 
BRANCH  85  86
ATOM     86  S   UNL A   1      33.256  34.927  29.278  1.00  0.00     0.124 S 
ATOM     87  O   UNL A   1      32.663  34.878  30.610  1.00  0.00    -0.237 OA
ATOM     88  O   UNL A   1      33.712  36.240  28.829  1.00  0.00    -0.237 OA
ATOM     89  O   UNL A   1      32.587  34.124  28.258  1.00  0.00    -0.744 OA
ENDBRANCH  85  86
ENDBRANCH  53  78
BRANCH  65  90
ATOM     90  C   UNL A   1      43.007  34.391  33.544  1.00  0.00     0.058 A 
ATOM     91  C   UNL A   1      42.803  34.521  34.926  1.00  0.00     0.135 A 
ATOM     92  C   UNL A   1      43.665  35.437  32.877  1.00  0.00     0.135 A 
ATOM     93  F   UNL A   1      42.173  33.552  35.610  1.00  0.00    -0.206 F 
ATOM     94  C   UNL A   1      43.217  35.655  35.618  1.00  0.00     0.059 A 
ATOM     95  C   UNL A   1      44.112  36.568  33.553  1.00  0.00     0.059 A 
ATOM     96  F   UNL A   1      43.894  35.359  31.556  1.00  0.00    -0.206 F 
ATOM     97  C   UNL A   1      43.873  36.672  34.922  1.00  0.00     0.060 A 
BRANCH  97  98
ATOM     98  S   UNL A   1      44.439  38.122  35.838  1.00  0.00     0.124 S 
ATOM     99  O   UNL A   1      43.775  37.934  37.124  1.00  0.00    -0.237 OA
ATOM    100  O   UNL A   1      45.888  37.946  35.840  1.00  0.00    -0.237 OA
ATOM    101  O   UNL A   1      43.950  39.241  35.038  1.00  0.00    -0.744 OA
ENDBRANCH  97  98
ENDBRANCH  65  90
ENDBRANCH  39  40
ENDBRANCH  31  34
ENDBRANCH  29  30
ENDBRANCH  28  29
ENDBRANCH   1  28
TORSDOF 17
ENDMDL
