MODEL 1
REMARK VINA RESULT:     -10.0      0.000      0.000
REMARK SMILES CCN(CC(C)C)C(=O)N[C@](C)(CC)C(=O)NCCCCNC(=O)c1ccc(-c2c3nc(c(-c4c(F)cc(S(=O)(=O)[O-])cc4F)c4ccc([nH]4)c(-c4c(F)cc(S(=O)(=O)[O-])cc4F)c4nc(c(-c5c(F)cc(S(=O)(=O)[O-])cc5F)c5ccc2[nH]5)C=C4)C=C3)cc1
REMARK SMILES IDX 19 1 18 2 17 3 15 4 16 5 11 7 12 8 10 9 8 10 9 11 3 13 2 14
REMARK SMILES IDX 1 15 4 16 5 17 6 18 7 19 13 20 14 21 20 22 21 23 22 24 23 25
REMARK SMILES IDX 24 27 25 28 26 29 90 30 27 31 89 32 28 33 29 34 30 35 83 36
REMARK SMILES IDX 31 37 88 38 82 39 84 40 32 41 87 42 81 43 80 44 33 46 67 47
REMARK SMILES IDX 46 48 66 49 47 50 50 51 65 52 85 53 48 54 49 55 64 57 86 58
REMARK SMILES IDX 51 59 34 60 35 61 44 62 36 63 37 64 43 65 45 66 38 67 39 68
REMARK SMILES IDX 40 69 41 70 42 71 68 72 69 73 78 74 70 75 71 76 77 77 79 78
REMARK SMILES IDX 72 79 73 80 74 81 75 82 76 83 52 84 53 85 62 86 54 87 55 88
REMARK SMILES IDX 61 89 63 90 56 91 57 92 58 93 59 94 60 95
REMARK H PARENT 17 6 10 12 22 26 84 45 50 56
REMARK Flexibility Score: inf
ROOT
ATOM      1  C   UNL A   1      33.804  25.347  25.529  1.00  0.00     0.023 C 
ENDROOT
BRANCH   1   2
ATOM      2  C   UNL A   1      35.277  24.940  25.476  1.00  0.00     0.116 C 
BRANCH   2   3
ATOM      3  N   UNL A   1      35.550  24.091  24.333  1.00  0.00    -0.354 N 
ATOM      4  C   UNL A   1      36.346  22.995  24.198  1.00  0.00     0.245 C 
ATOM      5  O   UNL A   1      36.615  22.669  23.037  1.00  0.00    -0.272 OA
ATOM      6  H   UNL A   1      35.077  24.354  23.510  1.00  0.00     0.163 HD
BRANCH   4   7
ATOM      7  C   UNL A   1      36.935  22.232  25.441  1.00  0.00     0.117 C 
ATOM      8  C   UNL A   1      37.432  20.894  24.875  1.00  0.00     0.045 C 
BRANCH   7   9
ATOM      9  N   UNL A   1      35.746  22.013  26.326  1.00  0.00    -0.324 N 
ATOM     10  C   UNL A   1      34.523  21.498  26.456  1.00  0.00     0.318 C 
ATOM     11  O   UNL A   1      34.125  21.509  27.631  1.00  0.00    -0.249 OA
ATOM     12  H   UNL A   1      35.962  22.433  27.191  1.00  0.00     0.166 HD
BRANCH  10  13
ATOM     13  N   UNL A   1      33.746  20.961  25.476  1.00  0.00    -0.325 N 
BRANCH  13  14
ATOM     14  C   UNL A   1      32.691  21.840  24.937  1.00  0.00     0.118 C 
ATOM     15  C   UNL A   1      32.864  22.127  23.446  1.00  0.00     0.027 C 
ENDBRANCH  13  14
BRANCH  13  16
ATOM     16  C   UNL A   1      33.927  19.704  24.761  1.00  0.00     0.124 C 
BRANCH  16  17
ATOM     17  C   UNL A   1      32.689  18.800  24.567  1.00  0.00     0.002 C 
ATOM     18  C   UNL A   1      32.432  18.302  23.143  1.00  0.00     0.009 C 
ATOM     19  C   UNL A   1      32.720  17.653  25.591  1.00  0.00     0.009 C 
ENDBRANCH  16  17
ENDBRANCH  13  16
ENDBRANCH  10  13
ENDBRANCH   7   9
BRANCH   7  20
ATOM     20  C   UNL A   1      38.072  23.060  26.066  1.00  0.00     0.035 C 
ATOM     21  C   UNL A   1      39.376  22.320  26.344  1.00  0.00     0.007 C 
ENDBRANCH   7  20
ENDBRANCH   4   7
ENDBRANCH   2   3
ENDBRANCH   1   2
BRANCH   1  22
ATOM     22  C   UNL A   1      33.548  26.849  25.411  1.00  0.00     0.023 C 
BRANCH  22  23
ATOM     23  C   UNL A   1      34.292  27.707  26.421  1.00  0.00     0.116 C 
BRANCH  23  24
ATOM     24  N   UNL A   1      33.768  29.061  26.504  1.00  0.00    -0.352 N 
ATOM     25  C   UNL A   1      34.268  30.130  27.206  1.00  0.00     0.251 C 
ATOM     26  H   UNL A   1      32.946  29.234  25.989  1.00  0.00     0.163 HD
ATOM     27  O   UNL A   1      33.634  31.178  27.280  1.00  0.00    -0.269 OA
BRANCH  25  28
ATOM     28  C   UNL A   1      35.561  29.981  27.899  1.00  0.00     0.039 A 
ATOM     29  C   UNL A   1      35.566  29.634  29.252  1.00  0.00     0.014 A 
ATOM     30  C   UNL A   1      36.760  30.121  27.194  1.00  0.00     0.014 A 
ATOM     31  C   UNL A   1      36.779  29.365  29.883  1.00  0.00     0.010 A 
ATOM     32  C   UNL A   1      37.958  29.772  27.803  1.00  0.00     0.010 A 
ATOM     33  C   UNL A   1      37.981  29.397  29.154  1.00  0.00    -0.014 A 
BRANCH  33  34
ATOM     34  C   UNL A   1      39.275  29.053  29.791  1.00  0.00     0.031 A 
ATOM     35  C   UNL A   1      39.783  29.875  30.942  1.00  0.00     0.074 A 
ATOM     36  C   UNL A   1      40.021  28.049  29.289  1.00  0.00     0.049 A 
ATOM     37  N   UNL A   1      40.916  29.784  31.587  1.00  0.00    -0.248 NA
ATOM     38  C   UNL A   1      38.913  30.968  31.407  1.00  0.00     0.031 C 
ATOM     39  C   UNL A   1      39.662  27.225  28.132  1.00  0.00     0.029 A 
ATOM     40  N   UNL A   1      41.242  27.563  29.676  1.00  0.00    -0.354 N 
ATOM     41  C   UNL A   1      40.901  30.810  32.523  1.00  0.00     0.074 A 
ATOM     42  C   UNL A   1      39.678  31.554  32.317  1.00  0.00     0.031 C 
ATOM     43  C   UNL A   1      40.635  26.326  27.914  1.00  0.00     0.029 A 
ATOM     44  C   UNL A   1      41.699  26.530  28.892  1.00  0.00     0.049 A 
ATOM     45  H   UNL A   1      41.746  27.918  30.443  1.00  0.00     0.167 HD
ATOM     46  C   UNL A   1      41.811  31.091  33.487  1.00  0.00     0.037 A 
ATOM     47  C   UNL A   1      42.849  25.830  28.950  1.00  0.00     0.037 A 
ATOM     48  C   UNL A   1      43.016  30.333  33.696  1.00  0.00     0.049 A 
ATOM     49  C   UNL A   1      43.838  26.144  30.040  1.00  0.00     0.074 A 
ATOM     50  C   UNL A   1      43.980  30.500  34.673  1.00  0.00     0.029 A 
ATOM     51  N   UNL A   1      43.423  29.264  32.909  1.00  0.00    -0.354 N 
ATOM     52  N   UNL A   1      43.778  27.075  30.962  1.00  0.00    -0.248 NA
ATOM     53  C   UNL A   1      45.043  25.306  30.107  1.00  0.00     0.031 C 
ATOM     54  C   UNL A   1      44.989  29.553  34.456  1.00  0.00     0.029 A 
ATOM     55  C   UNL A   1      44.631  28.769  33.370  1.00  0.00     0.049 A 
ATOM     56  H   UNL A   1      42.926  28.911  32.136  1.00  0.00     0.167 HD
ATOM     57  C   UNL A   1      44.926  26.925  31.730  1.00  0.00     0.074 A 
ATOM     58  C   UNL A   1      45.655  25.803  31.173  1.00  0.00     0.031 C 
ATOM     59  C   UNL A   1      45.341  27.649  32.800  1.00  0.00     0.037 A 
BRANCH  46  60
ATOM     60  C   UNL A   1      41.519  32.262  34.386  1.00  0.00     0.058 A 
ATOM     61  C   UNL A   1      40.663  32.143  35.493  1.00  0.00     0.135 A 
ATOM     62  C   UNL A   1      42.091  33.518  34.135  1.00  0.00     0.135 A 
ATOM     63  F   UNL A   1      40.075  30.967  35.771  1.00  0.00    -0.206 F 
ATOM     64  C   UNL A   1      40.347  33.237  36.291  1.00  0.00     0.059 A 
ATOM     65  C   UNL A   1      41.813  34.621  34.939  1.00  0.00     0.059 A 
ATOM     66  F   UNL A   1      42.918  33.690  33.092  1.00  0.00    -0.206 F 
ATOM     67  C   UNL A   1      40.922  34.475  36.001  1.00  0.00     0.060 A 
BRANCH  67  68
ATOM     68  S   UNL A   1      40.481  35.892  37.029  1.00  0.00     0.124 S 
ATOM     69  O   UNL A   1      39.777  35.242  38.130  1.00  0.00    -0.237 OA
ATOM     70  O   UNL A   1      41.785  36.458  37.359  1.00  0.00    -0.237 OA
ATOM     71  O   UNL A   1      39.653  36.707  36.148  1.00  0.00    -0.744 OA
ENDBRANCH  67  68
ENDBRANCH  46  60
BRANCH  47  72
ATOM     72  C   UNL A   1      43.106  24.754  27.958  1.00  0.00     0.058 A 
ATOM     73  C   UNL A   1      43.838  25.007  26.789  1.00  0.00     0.135 A 
ATOM     74  C   UNL A   1      42.664  23.440  28.182  1.00  0.00     0.135 A 
ATOM     75  F   UNL A   1      44.279  26.247  26.529  1.00  0.00    -0.206 F 
ATOM     76  C   UNL A   1      44.121  23.997  25.874  1.00  0.00     0.059 A 
ATOM     77  C   UNL A   1      42.953  22.410  27.293  1.00  0.00     0.059 A 
ATOM     78  F   UNL A   1      41.976  23.144  29.295  1.00  0.00    -0.206 F 
ATOM     79  C   UNL A   1      43.679  22.700  26.138  1.00  0.00     0.060 A 
BRANCH  79  80
ATOM     80  S   UNL A   1      44.114  21.383  24.980  1.00  0.00     0.124 S 
ATOM     81  O   UNL A   1      45.450  21.019  25.437  1.00  0.00    -0.237 OA
ATOM     82  O   UNL A   1      43.064  20.400  25.225  1.00  0.00    -0.237 OA
ATOM     83  O   UNL A   1      44.049  22.045  23.680  1.00  0.00    -0.744 OA
ENDBRANCH  79  80
ENDBRANCH  47  72
BRANCH  59  84
ATOM     84  C   UNL A   1      46.629  27.238  33.455  1.00  0.00     0.058 A 
ATOM     85  C   UNL A   1      47.858  27.801  33.078  1.00  0.00     0.135 A 
ATOM     86  C   UNL A   1      46.626  26.313  34.510  1.00  0.00     0.135 A 
ATOM     87  F   UNL A   1      47.917  28.685  32.070  1.00  0.00    -0.206 F 
ATOM     88  C   UNL A   1      49.044  27.444  33.712  1.00  0.00     0.059 A 
ATOM     89  C   UNL A   1      47.796  25.962  35.176  1.00  0.00     0.059 A 
ATOM     90  F   UNL A   1      45.475  25.753  34.916  1.00  0.00    -0.206 F 
ATOM     91  C   UNL A   1      49.003  26.525  34.763  1.00  0.00     0.060 A 
BRANCH  91  92
ATOM     92  S   UNL A   1      50.542  26.100  35.602  1.00  0.00     0.124 S 
ATOM     93  O   UNL A   1      50.632  27.155  36.605  1.00  0.00    -0.237 OA
ATOM     94  O   UNL A   1      50.260  24.761  36.115  1.00  0.00    -0.237 OA
ATOM     95  O   UNL A   1      51.538  26.158  34.537  1.00  0.00    -0.744 OA
ENDBRANCH  91  92
ENDBRANCH  59  84
ENDBRANCH  33  34
ENDBRANCH  25  28
ENDBRANCH  23  24
ENDBRANCH  22  23
ENDBRANCH   1  22
TORSDOF 20
ENDMDL
MODEL 2
REMARK VINA RESULT:      -9.9      3.334      9.595
REMARK SMILES CCN(CC(C)C)C(=O)N[C@](C)(CC)C(=O)NCCCCNC(=O)c1ccc(-c2c3nc(c(-c4c(F)cc(S(=O)(=O)[O-])cc4F)c4ccc([nH]4)c(-c4c(F)cc(S(=O)(=O)[O-])cc4F)c4nc(c(-c5c(F)cc(S(=O)(=O)[O-])cc5F)c5ccc2[nH]5)C=C4)C=C3)cc1
REMARK SMILES IDX 19 1 18 2 17 3 15 4 16 5 11 7 12 8 10 9 8 10 9 11 3 13 2 14
REMARK SMILES IDX 1 15 4 16 5 17 6 18 7 19 13 20 14 21 20 22 21 23 22 24 23 25
REMARK SMILES IDX 24 27 25 28 26 29 90 30 27 31 89 32 28 33 29 34 30 35 83 36
REMARK SMILES IDX 31 37 88 38 82 39 84 40 32 41 87 42 81 43 80 44 33 46 67 47
REMARK SMILES IDX 46 48 66 49 47 50 50 51 65 52 85 53 48 54 49 55 64 57 86 58
REMARK SMILES IDX 51 59 34 60 35 61 44 62 36 63 37 64 43 65 45 66 38 67 39 68
REMARK SMILES IDX 40 69 41 70 42 71 68 72 69 73 78 74 70 75 71 76 77 77 79 78
REMARK SMILES IDX 72 79 73 80 74 81 75 82 76 83 52 84 53 85 62 86 54 87 55 88
REMARK SMILES IDX 61 89 63 90 56 91 57 92 58 93 59 94 60 95
REMARK H PARENT 17 6 10 12 22 26 84 45 50 56
REMARK Flexibility Score: inf
ROOT
ATOM      1  C   UNL A   1      38.355  23.305  26.103  1.00  0.00     0.023 C 
ENDROOT
BRANCH   1   2
ATOM      2  C   UNL A   1      37.167  22.501  25.574  1.00  0.00     0.116 C 
BRANCH   2   3
ATOM      3  N   UNL A   1      36.134  22.358  26.581  1.00  0.00    -0.354 N 
ATOM      4  C   UNL A   1      34.883  22.888  26.666  1.00  0.00     0.245 C 
ATOM      5  O   UNL A   1      34.355  22.836  27.781  1.00  0.00    -0.272 OA
ATOM      6  H   UNL A   1      36.382  21.777  27.335  1.00  0.00     0.163 HD
BRANCH   4   7
ATOM      7  C   UNL A   1      34.183  23.580  25.438  1.00  0.00     0.117 C 
ATOM      8  C   UNL A   1      35.156  24.689  25.012  1.00  0.00     0.045 C 
BRANCH   7   9
ATOM      9  N   UNL A   1      32.938  24.176  26.021  1.00  0.00    -0.324 N 
ATOM     10  C   UNL A   1      31.976  25.091  25.914  1.00  0.00     0.318 C 
ATOM     11  O   UNL A   1      31.052  24.906  26.721  1.00  0.00    -0.249 OA
ATOM     12  H   UNL A   1      32.747  23.669  26.844  1.00  0.00     0.166 HD
BRANCH  10  13
ATOM     13  N   UNL A   1      31.910  26.119  25.024  1.00  0.00    -0.325 N 
BRANCH  13  14
ATOM     14  C   UNL A   1      31.071  25.887  23.833  1.00  0.00     0.118 C 
ATOM     15  C   UNL A   1      31.780  26.251  22.530  1.00  0.00     0.027 C 
ENDBRANCH  13  14
BRANCH  13  16
ATOM     16  C   UNL A   1      32.408  27.480  25.173  1.00  0.00     0.124 C 
BRANCH  16  17
ATOM     17  C   UNL A   1      31.558  28.473  25.999  1.00  0.00     0.002 C 
ATOM     18  C   UNL A   1      31.733  28.411  27.517  1.00  0.00     0.009 C 
ATOM     19  C   UNL A   1      31.742  29.896  25.446  1.00  0.00     0.009 C 
ENDBRANCH  16  17
ENDBRANCH  13  16
ENDBRANCH  10  13
ENDBRANCH   7   9
BRANCH   7  20
ATOM     20  C   UNL A   1      33.954  22.545  24.323  1.00  0.00     0.035 C 
ATOM     21  C   UNL A   1      33.856  23.089  22.902  1.00  0.00     0.007 C 
ENDBRANCH   7  20
ENDBRANCH   4   7
ENDBRANCH   2   3
ENDBRANCH   1   2
BRANCH   1  22
ATOM     22  C   UNL A   1      39.526  22.464  26.608  1.00  0.00     0.023 C 
BRANCH  22  23
ATOM     23  C   UNL A   1      40.737  23.261  27.064  1.00  0.00     0.116 C 
BRANCH  23  24
ATOM     24  N   UNL A   1      41.360  24.007  25.982  1.00  0.00    -0.352 N 
ATOM     25  C   UNL A   1      41.737  25.327  25.959  1.00  0.00     0.251 C 
ATOM     26  H   UNL A   1      41.534  23.498  25.156  1.00  0.00     0.163 HD
ATOM     27  O   UNL A   1      42.132  25.844  24.918  1.00  0.00    -0.269 OA
BRANCH  25  28
ATOM     28  C   UNL A   1      41.623  26.119  27.198  1.00  0.00     0.039 A 
ATOM     29  C   UNL A   1      42.585  27.095  27.466  1.00  0.00     0.014 A 
ATOM     30  C   UNL A   1      40.533  25.937  28.053  1.00  0.00     0.014 A 
ATOM     31  C   UNL A   1      42.417  27.935  28.565  1.00  0.00     0.010 A 
ATOM     32  C   UNL A   1      40.326  26.828  29.097  1.00  0.00     0.010 A 
ATOM     33  C   UNL A   1      41.268  27.831  29.368  1.00  0.00    -0.014 A 
BRANCH  33  34
ATOM     34  C   UNL A   1      41.039  28.756  30.504  1.00  0.00     0.031 A 
ATOM     35  C   UNL A   1      41.859  28.619  31.756  1.00  0.00     0.074 A 
ATOM     36  C   UNL A   1      40.051  29.669  30.434  1.00  0.00     0.049 A 
ATOM     37  N   UNL A   1      41.767  29.277  32.882  1.00  0.00    -0.248 NA
ATOM     38  C   UNL A   1      42.899  27.577  31.753  1.00  0.00     0.031 C 
ATOM     39  C   UNL A   1      39.145  29.851  29.296  1.00  0.00     0.029 A 
ATOM     40  N   UNL A   1      39.630  30.604  31.344  1.00  0.00    -0.354 N 
ATOM     41  C   UNL A   1      42.724  28.723  33.722  1.00  0.00     0.074 A 
ATOM     42  C   UNL A   1      43.340  27.631  33.000  1.00  0.00     0.031 C 
ATOM     43  C   UNL A   1      38.287  30.846  29.571  1.00  0.00     0.029 A 
ATOM     44  C   UNL A   1      38.559  31.351  30.914  1.00  0.00     0.049 A 
ATOM     45  H   UNL A   1      40.054  30.729  32.223  1.00  0.00     0.167 HD
ATOM     46  C   UNL A   1      43.081  29.110  34.971  1.00  0.00     0.037 A 
ATOM     47  C   UNL A   1      37.868  32.327  31.534  1.00  0.00     0.037 A 
ATOM     48  C   UNL A   1      42.475  30.210  35.672  1.00  0.00     0.049 A 
ATOM     49  C   UNL A   1      38.291  32.754  32.913  1.00  0.00     0.074 A 
ATOM     50  C   UNL A   1      42.792  30.717  36.919  1.00  0.00     0.029 A 
ATOM     51  N   UNL A   1      41.421  30.973  35.185  1.00  0.00    -0.354 N 
ATOM     52  N   UNL A   1      39.245  32.266  33.669  1.00  0.00    -0.248 NA
ATOM     53  C   UNL A   1      37.553  33.872  33.519  1.00  0.00     0.031 C 
ATOM     54  C   UNL A   1      41.907  31.765  37.201  1.00  0.00     0.029 A 
ATOM     55  C   UNL A   1      41.068  31.938  36.112  1.00  0.00     0.049 A 
ATOM     56  H   UNL A   1      40.990  30.845  34.310  1.00  0.00     0.167 HD
ATOM     57  C   UNL A   1      39.236  33.028  34.832  1.00  0.00     0.074 A 
ATOM     58  C   UNL A   1      38.191  34.018  34.673  1.00  0.00     0.031 C 
ATOM     59  C   UNL A   1      40.022  32.917  35.933  1.00  0.00     0.037 A 
BRANCH  46  60
ATOM     60  C   UNL A   1      44.182  28.334  35.641  1.00  0.00     0.058 A 
ATOM     61  C   UNL A   1      45.535  28.651  35.436  1.00  0.00     0.135 A 
ATOM     62  C   UNL A   1      43.886  27.256  36.489  1.00  0.00     0.135 A 
ATOM     63  F   UNL A   1      45.876  29.663  34.621  1.00  0.00    -0.206 F 
ATOM     64  C   UNL A   1      46.555  27.900  36.008  1.00  0.00     0.059 A 
ATOM     65  C   UNL A   1      44.891  26.508  37.099  1.00  0.00     0.059 A 
ATOM     66  F   UNL A   1      42.611  26.909  36.724  1.00  0.00    -0.206 F 
ATOM     67  C   UNL A   1      46.222  26.825  36.833  1.00  0.00     0.060 A 
BRANCH  67  68
ATOM     68  S   UNL A   1      47.558  25.842  37.548  1.00  0.00     0.124 S 
ATOM     69  O   UNL A   1      48.265  26.846  38.336  1.00  0.00    -0.237 OA
ATOM     70  O   UNL A   1      46.831  24.834  38.313  1.00  0.00    -0.237 OA
ATOM     71  O   UNL A   1      48.274  25.342  36.380  1.00  0.00    -0.744 OA
ENDBRANCH  67  68
ENDBRANCH  46  60
BRANCH  47  72
ATOM     72  C   UNL A   1      36.724  32.974  30.839  1.00  0.00     0.058 A 
ATOM     73  C   UNL A   1      35.400  32.673  31.189  1.00  0.00     0.135 A 
ATOM     74  C   UNL A   1      36.934  33.942  29.844  1.00  0.00     0.135 A 
ATOM     75  F   UNL A   1      35.148  31.752  32.132  1.00  0.00    -0.206 F 
ATOM     76  C   UNL A   1      34.323  33.304  30.575  1.00  0.00     0.059 A 
ATOM     77  C   UNL A   1      35.874  34.602  29.232  1.00  0.00     0.059 A 
ATOM     78  F   UNL A   1      38.183  34.279  29.487  1.00  0.00    -0.206 F 
ATOM     79  C   UNL A   1      34.570  34.272  29.601  1.00  0.00     0.060 A 
BRANCH  79  80
ATOM     80  S   UNL A   1      33.166  35.137  28.862  1.00  0.00     0.124 S 
ATOM     81  O   UNL A   1      33.821  36.278  28.233  1.00  0.00    -0.237 OA
ATOM     82  O   UNL A   1      32.629  34.129  27.954  1.00  0.00    -0.237 OA
ATOM     83  O   UNL A   1      32.321  35.447  30.011  1.00  0.00    -0.744 OA
ENDBRANCH  79  80
ENDBRANCH  47  72
BRANCH  59  84
ATOM     84  C   UNL A   1      39.799  33.906  37.042  1.00  0.00     0.058 A 
ATOM     85  C   UNL A   1      39.049  33.577  38.182  1.00  0.00     0.135 A 
ATOM     86  C   UNL A   1      40.391  35.177  36.990  1.00  0.00     0.135 A 
ATOM     87  F   UNL A   1      38.456  32.376  38.278  1.00  0.00    -0.206 F 
ATOM     88  C   UNL A   1      38.877  34.483  39.223  1.00  0.00     0.059 A 
ATOM     89  C   UNL A   1      40.255  36.089  38.032  1.00  0.00     0.059 A 
ATOM     90  F   UNL A   1      41.128  35.538  35.927  1.00  0.00    -0.206 F 
ATOM     91  C   UNL A   1      39.485  35.737  39.140  1.00  0.00     0.060 A 
BRANCH  91  92
ATOM     92  S   UNL A   1      39.286  36.889  40.514  1.00  0.00     0.124 S 
ATOM     93  O   UNL A   1      38.664  38.031  39.852  1.00  0.00    -0.237 OA
ATOM     94  O   UNL A   1      38.427  36.142  41.428  1.00  0.00    -0.237 OA
ATOM     95  O   UNL A   1      40.653  37.101  40.981  1.00  0.00    -0.744 OA
ENDBRANCH  91  92
ENDBRANCH  59  84
ENDBRANCH  33  34
ENDBRANCH  25  28
ENDBRANCH  23  24
ENDBRANCH  22  23
ENDBRANCH   1  22
TORSDOF 20
ENDMDL
MODEL 3
REMARK VINA RESULT:      -9.9      4.794      6.399
REMARK SMILES CCN(CC(C)C)C(=O)N[C@](C)(CC)C(=O)NCCCCNC(=O)c1ccc(-c2c3nc(c(-c4c(F)cc(S(=O)(=O)[O-])cc4F)c4ccc([nH]4)c(-c4c(F)cc(S(=O)(=O)[O-])cc4F)c4nc(c(-c5c(F)cc(S(=O)(=O)[O-])cc5F)c5ccc2[nH]5)C=C4)C=C3)cc1
REMARK SMILES IDX 19 1 18 2 17 3 15 4 16 5 11 7 12 8 10 9 8 10 9 11 3 13 2 14
REMARK SMILES IDX 1 15 4 16 5 17 6 18 7 19 13 20 14 21 20 22 21 23 22 24 23 25
REMARK SMILES IDX 24 27 25 28 26 29 90 30 27 31 89 32 28 33 29 34 30 35 83 36
REMARK SMILES IDX 31 37 88 38 82 39 84 40 32 41 87 42 81 43 80 44 33 46 67 47
REMARK SMILES IDX 46 48 66 49 47 50 50 51 65 52 85 53 48 54 49 55 64 57 86 58
REMARK SMILES IDX 51 59 34 60 35 61 44 62 36 63 37 64 43 65 45 66 38 67 39 68
REMARK SMILES IDX 40 69 41 70 42 71 68 72 69 73 78 74 70 75 71 76 77 77 79 78
REMARK SMILES IDX 72 79 73 80 74 81 75 82 76 83 52 84 53 85 62 86 54 87 55 88
REMARK SMILES IDX 61 89 63 90 56 91 57 92 58 93 59 94 60 95
REMARK H PARENT 17 6 10 12 22 26 84 45 50 56
REMARK Flexibility Score: inf
ROOT
ATOM      1  C   UNL A   1      33.265  30.678  27.266  1.00  0.00     0.023 C 
ENDROOT
BRANCH   1   2
ATOM      2  C   UNL A   1      32.328  29.958  26.296  1.00  0.00     0.116 C 
BRANCH   2   3
ATOM      3  N   UNL A   1      32.927  29.824  24.983  1.00  0.00    -0.354 N 
ATOM      4  C   UNL A   1      33.285  28.724  24.266  1.00  0.00     0.245 C 
ATOM      5  O   UNL A   1      34.049  28.928  23.317  1.00  0.00    -0.272 OA
ATOM      6  H   UNL A   1      33.107  30.680  24.530  1.00  0.00     0.163 HD
BRANCH   4   7
ATOM      7  C   UNL A   1      32.806  27.278  24.661  1.00  0.00     0.117 C 
ATOM      8  C   UNL A   1      33.507  26.989  25.997  1.00  0.00     0.045 C 
BRANCH   7   9
ATOM      9  N   UNL A   1      33.367  26.404  23.580  1.00  0.00    -0.324 N 
ATOM     10  C   UNL A   1      33.743  25.181  23.208  1.00  0.00     0.318 C 
ATOM     11  O   UNL A   1      33.971  25.104  21.991  1.00  0.00    -0.249 OA
ATOM     12  H   UNL A   1      33.530  26.991  22.806  1.00  0.00     0.166 HD
BRANCH  10  13
ATOM     13  N   UNL A   1      33.851  24.076  23.995  1.00  0.00    -0.325 N 
BRANCH  13  14
ATOM     14  C   UNL A   1      32.958  22.953  23.653  1.00  0.00     0.118 C 
ATOM     15  C   UNL A   1      32.249  22.367  24.873  1.00  0.00     0.027 C 
ENDBRANCH  13  14
BRANCH  13  16
ATOM     16  C   UNL A   1      34.850  23.782  25.014  1.00  0.00     0.124 C 
BRANCH  16  17
ATOM     17  C   UNL A   1      36.010  22.834  24.634  1.00  0.00     0.002 C 
ATOM     18  C   UNL A   1      36.570  22.985  23.218  1.00  0.00     0.009 C 
ATOM     19  C   UNL A   1      37.109  22.904  25.708  1.00  0.00     0.009 C 
ENDBRANCH  16  17
ENDBRANCH  13  16
ENDBRANCH  10  13
ENDBRANCH   7   9
BRANCH   7  20
ATOM     20  C   UNL A   1      31.273  27.257  24.790  1.00  0.00     0.035 C 
ATOM     21  C   UNL A   1      30.632  25.896  25.038  1.00  0.00     0.007 C 
ENDBRANCH   7  20
ENDBRANCH   4   7
ENDBRANCH   2   3
ENDBRANCH   1   2
BRANCH   1  22
ATOM     22  C   UNL A   1      34.622  30.006  27.467  1.00  0.00     0.023 C 
BRANCH  22  23
ATOM     23  C   UNL A   1      35.673  30.873  28.140  1.00  0.00     0.116 C 
BRANCH  23  24
ATOM     24  N   UNL A   1      35.553  30.879  29.590  1.00  0.00    -0.352 N 
ATOM     25  C   UNL A   1      36.416  30.355  30.521  1.00  0.00     0.251 C 
ATOM     26  H   UNL A   1      34.748  31.315  29.952  1.00  0.00     0.163 HD
ATOM     27  O   UNL A   1      36.107  30.324  31.708  1.00  0.00    -0.269 OA
BRANCH  25  28
ATOM     28  C   UNL A   1      37.701  29.797  30.062  1.00  0.00     0.039 A 
ATOM     29  C   UNL A   1      38.032  29.887  28.708  1.00  0.00     0.014 A 
ATOM     30  C   UNL A   1      38.599  29.246  30.981  1.00  0.00     0.014 A 
ATOM     31  C   UNL A   1      39.297  29.481  28.286  1.00  0.00     0.010 A 
ATOM     32  C   UNL A   1      39.885  28.921  30.571  1.00  0.00     0.010 A 
ATOM     33  C   UNL A   1      40.245  29.028  29.219  1.00  0.00    -0.014 A 
BRANCH  33  34
ATOM     34  C   UNL A   1      41.616  28.651  28.800  1.00  0.00     0.031 A 
ATOM     35  C   UNL A   1      42.689  29.701  28.722  1.00  0.00     0.074 A 
ATOM     36  C   UNL A   1      41.875  27.383  28.424  1.00  0.00     0.049 A 
ATOM     37  N   UNL A   1      43.925  29.591  28.312  1.00  0.00    -0.248 NA
ATOM     38  C   UNL A   1      42.309  31.064  29.127  1.00  0.00     0.031 C 
ATOM     39  C   UNL A   1      40.897  26.293  28.394  1.00  0.00     0.029 A 
ATOM     40  N   UNL A   1      43.034  26.801  27.979  1.00  0.00    -0.354 N 
ATOM     41  C   UNL A   1      44.465  30.868  28.399  1.00  0.00     0.074 A 
ATOM     42  C   UNL A   1      43.404  31.749  28.835  1.00  0.00     0.031 C 
ATOM     43  C   UNL A   1      41.501  25.172  27.968  1.00  0.00     0.029 A 
ATOM     44  C   UNL A   1      42.898  25.470  27.665  1.00  0.00     0.049 A 
ATOM     45  H   UNL A   1      43.884  27.290  27.893  1.00  0.00     0.167 HD
ATOM     46  C   UNL A   1      45.739  31.266  28.165  1.00  0.00     0.037 A 
ATOM     47  C   UNL A   1      43.795  24.589  27.180  1.00  0.00     0.037 A 
ATOM     48  C   UNL A   1      46.792  30.379  27.750  1.00  0.00     0.049 A 
ATOM     49  C   UNL A   1      45.209  25.046  26.946  1.00  0.00     0.074 A 
ATOM     50  C   UNL A   1      48.127  30.667  27.534  1.00  0.00     0.029 A 
ATOM     51  N   UNL A   1      46.626  29.025  27.485  1.00  0.00    -0.354 N 
ATOM     52  N   UNL A   1      45.722  26.243  27.098  1.00  0.00    -0.248 NA
ATOM     53  C   UNL A   1      46.168  24.032  26.486  1.00  0.00     0.031 C 
ATOM     54  C   UNL A   1      48.762  29.495  27.103  1.00  0.00     0.029 A 
ATOM     55  C   UNL A   1      47.832  28.468  27.095  1.00  0.00     0.049 A 
ATOM     56  H   UNL A   1      45.776  28.536  27.563  1.00  0.00     0.167 HD
ATOM     57  C   UNL A   1      47.068  26.124  26.771  1.00  0.00     0.074 A 
ATOM     58  C   UNL A   1      47.291  24.734  26.428  1.00  0.00     0.031 C 
ATOM     59  C   UNL A   1      48.033  27.079  26.757  1.00  0.00     0.037 A 
BRANCH  46  60
ATOM     60  C   UNL A   1      46.050  32.725  28.366  1.00  0.00     0.058 A 
ATOM     61  C   UNL A   1      46.452  33.225  29.615  1.00  0.00     0.135 A 
ATOM     62  C   UNL A   1      45.937  33.635  27.304  1.00  0.00     0.135 A 
ATOM     63  F   UNL A   1      46.561  32.402  30.671  1.00  0.00    -0.206 F 
ATOM     64  C   UNL A   1      46.684  34.581  29.817  1.00  0.00     0.059 A 
ATOM     65  C   UNL A   1      46.194  34.993  27.475  1.00  0.00     0.059 A 
ATOM     66  F   UNL A   1      45.559  33.213  26.087  1.00  0.00    -0.206 F 
ATOM     67  C   UNL A   1      46.545  35.459  28.741  1.00  0.00     0.060 A 
BRANCH  67  68
ATOM     68  S   UNL A   1      46.823  37.220  29.025  1.00  0.00     0.124 S 
ATOM     69  O   UNL A   1      48.240  37.236  29.378  1.00  0.00    -0.237 OA
ATOM     70  O   UNL A   1      46.488  37.803  27.729  1.00  0.00    -0.237 OA
ATOM     71  O   UNL A   1      45.902  37.540  30.109  1.00  0.00    -0.744 OA
ENDBRANCH  67  68
ENDBRANCH  46  60
BRANCH  47  72
ATOM     72  C   UNL A   1      43.379  23.187  26.912  1.00  0.00     0.058 A 
ATOM     73  C   UNL A   1      43.268  22.705  25.600  1.00  0.00     0.135 A 
ATOM     74  C   UNL A   1      43.130  22.291  27.963  1.00  0.00     0.135 A 
ATOM     75  F   UNL A   1      43.492  23.524  24.562  1.00  0.00    -0.206 F 
ATOM     76  C   UNL A   1      42.920  21.383  25.338  1.00  0.00     0.059 A 
ATOM     77  C   UNL A   1      42.803  20.960  27.726  1.00  0.00     0.059 A 
ATOM     78  F   UNL A   1      43.242  22.700  29.236  1.00  0.00    -0.206 F 
ATOM     79  C   UNL A   1      42.695  20.516  26.408  1.00  0.00     0.060 A 
BRANCH  79  80
ATOM     80  S   UNL A   1      42.317  18.784  26.057  1.00  0.00     0.124 S 
ATOM     81  O   UNL A   1      43.263  18.487  24.988  1.00  0.00    -0.237 OA
ATOM     82  O   UNL A   1      42.583  18.146  27.342  1.00  0.00    -0.237 OA
ATOM     83  O   UNL A   1      40.911  18.821  25.665  1.00  0.00    -0.744 OA
ENDBRANCH  79  80
ENDBRANCH  47  72
BRANCH  59  84
ATOM     84  C   UNL A   1      49.422  26.650  26.380  1.00  0.00     0.058 A 
ATOM     85  C   UNL A   1      50.250  25.961  27.279  1.00  0.00     0.135 A 
ATOM     86  C   UNL A   1      49.910  26.881  25.083  1.00  0.00     0.135 A 
ATOM     87  F   UNL A   1      49.834  25.722  28.533  1.00  0.00    -0.206 F 
ATOM     88  C   UNL A   1      51.522  25.533  26.913  1.00  0.00     0.059 A 
ATOM     89  C   UNL A   1      51.168  26.439  24.687  1.00  0.00     0.059 A 
ATOM     90  F   UNL A   1      49.153  27.527  24.181  1.00  0.00    -0.206 F 
ATOM     91  C   UNL A   1      51.972  25.775  25.613  1.00  0.00     0.060 A 
BRANCH  91  92
ATOM     92  S   UNL A   1      53.608  25.182  25.139  1.00  0.00     0.124 S 
ATOM     93  O   UNL A   1      54.470  25.948  26.033  1.00  0.00    -0.237 OA
ATOM     94  O   UNL A   1      53.517  23.751  25.419  1.00  0.00    -0.237 OA
ATOM     95  O   UNL A   1      53.700  25.532  23.725  1.00  0.00    -0.744 OA
ENDBRANCH  91  92
ENDBRANCH  59  84
ENDBRANCH  33  34
ENDBRANCH  25  28
ENDBRANCH  23  24
ENDBRANCH  22  23
ENDBRANCH   1  22
TORSDOF 20
ENDMDL
