MODEL 1
REMARK VINA RESULT:     -10.8      0.000      0.000
REMARK SMILES CC1(CNS(=O)(=O)Cc2ccc(C(=O)NCCCCNC(=O)c3ccc(-c4c5nc(c(-c6c(F)cc(S(=O)(=O)[O-])cc6F)c6ccc([nH]6)c(-c6c(F)cc(S(=O)(=O)[O-])cc6F)c6nc(c(-c7c(F)cc(S(=O)(=O)[O-])cc7F)c7ccc4[nH]7)C=C6)C=C5)cc3)cc2)COC1
REMARK SMILES IDX 16 1 15 2 13 3 14 4 12 6 9 7 10 8 90 9 11 10 89 11 8 12 5 13
REMARK SMILES IDX 6 14 7 15 4 16 3 18 2 19 1 20 91 21 93 22 92 23 17 24 18 25
REMARK SMILES IDX 19 26 20 27 21 28 22 30 23 31 24 32 88 33 25 34 87 35 26 36
REMARK SMILES IDX 27 37 28 38 81 39 29 40 86 41 80 42 82 43 30 44 85 45 79 46
REMARK SMILES IDX 78 47 31 49 65 50 44 51 64 52 45 53 48 54 63 55 83 56 46 57
REMARK SMILES IDX 47 58 62 60 84 61 49 62 32 63 33 64 42 65 34 66 35 67 41 68
REMARK SMILES IDX 43 69 36 70 37 71 38 72 39 73 40 74 66 75 67 76 76 77 68 78
REMARK SMILES IDX 69 79 75 80 77 81 70 82 71 83 72 84 73 85 74 86 50 87 51 88
REMARK SMILES IDX 60 89 52 90 53 91 59 92 61 93 54 94 55 95 56 96 57 97 58 98
REMARK H PARENT 15 5 4 17 20 29 82 48 48 59
REMARK Flexibility Score: inf
ROOT
ATOM      1  C   UNL A   1      31.453  29.663  24.881  1.00  0.00     0.116 C 
ENDROOT
BRANCH   1   2
ATOM      2  N   UNL A   1      30.817  29.792  23.586  1.00  0.00    -0.352 N 
ATOM      3  C   UNL A   1      30.432  28.845  22.672  1.00  0.00     0.251 C 
ATOM      4  O   UNL A   1      29.877  29.221  21.640  1.00  0.00    -0.269 OA
ATOM      5  H   UNL A   1      30.630  30.720  23.315  1.00  0.00     0.163 HD
BRANCH   3   6
ATOM      6  C   UNL A   1      30.610  27.385  22.901  1.00  0.00     0.039 A 
ATOM      7  C   UNL A   1      31.089  24.624  23.231  1.00  0.00    -0.032 A 
ATOM      8  C   UNL A   1      31.865  25.378  22.343  1.00  0.00     0.005 A 
ATOM      9  C   UNL A   1      30.074  25.262  23.949  1.00  0.00     0.005 A 
ATOM     10  C   UNL A   1      31.630  26.746  22.184  1.00  0.00     0.014 A 
ATOM     11  C   UNL A   1      29.861  26.633  23.809  1.00  0.00     0.014 A 
BRANCH   7  12
ATOM     12  C   UNL A   1      31.359  23.162  23.454  1.00  0.00     0.189 C 
BRANCH  12  13
ATOM     13  S   UNL A   1      32.616  22.945  24.732  1.00  0.00     0.215 S 
ATOM     14  O   UNL A   1      32.204  21.854  25.595  1.00  0.00    -0.212 OA
ATOM     15  O   UNL A   1      32.976  24.223  25.296  1.00  0.00    -0.212 OA
BRANCH  13  16
ATOM     16  N   UNL A   1      33.970  22.411  23.879  1.00  0.00    -0.214 NA
ATOM     17  H   UNL A   1      33.645  22.054  22.981  1.00  0.00     0.141 HD
BRANCH  16  18
ATOM     18  C   UNL A   1      34.789  21.360  24.503  1.00  0.00     0.110 C 
BRANCH  18  19
ATOM     19  C   UNL A   1      36.255  21.764  24.665  1.00  0.00     0.028 C 
ATOM     20  C   UNL A   1      37.221  20.608  24.874  1.00  0.00     0.018 C 
ATOM     21  C   UNL A   1      36.400  22.884  25.715  1.00  0.00     0.170 C 
ATOM     22  C   UNL A   1      36.721  22.857  23.684  1.00  0.00     0.170 C 
ATOM     23  O   UNL A   1      36.454  23.890  24.670  1.00  0.00    -0.380 OA
ENDBRANCH  18  19
ENDBRANCH  16  18
ENDBRANCH  13  16
ENDBRANCH  12  13
ENDBRANCH   7  12
ENDBRANCH   3   6
ENDBRANCH   1   2
BRANCH   1  24
ATOM     24  C   UNL A   1      32.913  29.236  24.719  1.00  0.00     0.023 C 
BRANCH  24  25
ATOM     25  C   UNL A   1      33.290  27.988  25.518  1.00  0.00     0.023 C 
BRANCH  25  26
ATOM     26  C   UNL A   1      33.945  28.274  26.861  1.00  0.00     0.116 C 
BRANCH  26  27
ATOM     27  N   UNL A   1      33.656  29.609  27.360  1.00  0.00    -0.352 N 
ATOM     28  C   UNL A   1      34.474  30.441  28.082  1.00  0.00     0.251 C 
ATOM     29  H   UNL A   1      32.760  29.960  27.153  1.00  0.00     0.163 HD
ATOM     30  O   UNL A   1      34.032  31.486  28.547  1.00  0.00    -0.269 OA
BRANCH  28  31
ATOM     31  C   UNL A   1      35.878  30.047  28.318  1.00  0.00     0.039 A 
ATOM     32  C   UNL A   1      36.795  30.159  27.271  1.00  0.00     0.014 A 
ATOM     33  C   UNL A   1      36.288  29.582  29.571  1.00  0.00     0.014 A 
ATOM     34  C   UNL A   1      38.132  29.831  27.493  1.00  0.00     0.010 A 
ATOM     35  C   UNL A   1      37.635  29.343  29.813  1.00  0.00     0.010 A 
ATOM     36  C   UNL A   1      38.567  29.437  28.769  1.00  0.00    -0.014 A 
BRANCH  36  37
ATOM     37  C   UNL A   1      39.981  29.062  29.013  1.00  0.00     0.031 A 
ATOM     38  C   UNL A   1      40.924  30.067  29.621  1.00  0.00     0.074 A 
ATOM     39  C   UNL A   1      40.421  27.838  28.663  1.00  0.00     0.049 A 
ATOM     40  N   UNL A   1      42.197  29.945  29.892  1.00  0.00    -0.248 NA
ATOM     41  C   UNL A   1      40.370  31.394  29.937  1.00  0.00     0.031 C 
ATOM     42  C   UNL A   1      39.612  26.799  28.021  1.00  0.00     0.029 A 
ATOM     43  N   UNL A   1      41.658  27.260  28.796  1.00  0.00    -0.354 N 
ATOM     44  C   UNL A   1      42.596  31.177  30.398  1.00  0.00     0.074 A 
ATOM     45  C   UNL A   1      41.449  32.054  30.331  1.00  0.00     0.031 C 
ATOM     46  C   UNL A   1      40.366  25.702  27.845  1.00  0.00     0.029 A 
ATOM     47  C   UNL A   1      41.717  25.968  28.329  1.00  0.00     0.049 A 
ATOM     48  H   UNL A   1      42.431  27.726  29.189  1.00  0.00     0.167 HD
ATOM     49  C   UNL A   1      43.799  31.537  30.903  1.00  0.00     0.037 A 
ATOM     50  C   UNL A   1      42.746  25.098  28.298  1.00  0.00     0.037 A 
ATOM     51  C   UNL A   1      44.927  30.648  30.992  1.00  0.00     0.049 A 
ATOM     52  C   UNL A   1      44.073  25.519  28.871  1.00  0.00     0.074 A 
ATOM     53  C   UNL A   1      46.177  30.895  31.532  1.00  0.00     0.029 A 
ATOM     54  N   UNL A   1      44.942  29.340  30.529  1.00  0.00    -0.354 N 
ATOM     55  N   UNL A   1      44.416  26.668  29.405  1.00  0.00    -0.248 NA
ATOM     56  C   UNL A   1      45.150  24.520  28.852  1.00  0.00     0.031 C 
ATOM     57  C   UNL A   1      46.962  29.752  31.353  1.00  0.00     0.029 A 
ATOM     58  C   UNL A   1      46.184  28.772  30.757  1.00  0.00     0.049 A 
ATOM     59  H   UNL A   1      44.182  28.883  30.103  1.00  0.00     0.167 HD
ATOM     60  C   UNL A   1      45.735  26.518  29.819  1.00  0.00     0.074 A 
ATOM     61  C   UNL A   1      46.124  25.164  29.482  1.00  0.00     0.031 C 
ATOM     62  C   UNL A   1      46.550  27.417  30.427  1.00  0.00     0.037 A 
BRANCH  49  63
ATOM     63  C   UNL A   1      43.953  32.949  31.405  1.00  0.00     0.058 A 
ATOM     64  C   UNL A   1      44.308  34.004  30.548  1.00  0.00     0.135 A 
ATOM     65  C   UNL A   1      43.718  33.256  32.754  1.00  0.00     0.135 A 
ATOM     66  F   UNL A   1      44.563  33.765  29.251  1.00  0.00    -0.206 F 
ATOM     67  C   UNL A   1      44.455  35.305  31.015  1.00  0.00     0.059 A 
ATOM     68  C   UNL A   1      43.827  34.558  33.238  1.00  0.00     0.059 A 
ATOM     69  F   UNL A   1      43.378  32.288  33.621  1.00  0.00    -0.206 F 
ATOM     70  C   UNL A   1      44.212  35.573  32.363  1.00  0.00     0.060 A 
BRANCH  70  71
ATOM     71  S   UNL A   1      44.402  37.268  32.952  1.00  0.00     0.124 S 
ATOM     72  O   UNL A   1      43.851  38.027  31.833  1.00  0.00    -0.237 OA
ATOM     73  O   UNL A   1      43.601  37.265  34.171  1.00  0.00    -0.237 OA
ATOM     74  O   UNL A   1      45.842  37.401  33.150  1.00  0.00    -0.744 OA
ENDBRANCH  70  71
ENDBRANCH  49  63
BRANCH  50  75
ATOM     75  C   UNL A   1      42.553  23.735  27.734  1.00  0.00     0.058 A 
ATOM     76  C   UNL A   1      42.349  22.628  28.571  1.00  0.00     0.135 A 
ATOM     77  C   UNL A   1      42.562  23.511  26.348  1.00  0.00     0.135 A 
ATOM     78  F   UNL A   1      42.335  22.788  29.903  1.00  0.00    -0.206 F 
ATOM     79  C   UNL A   1      42.186  21.345  28.059  1.00  0.00     0.059 A 
ATOM     80  C   UNL A   1      42.372  22.242  25.810  1.00  0.00     0.059 A 
ATOM     81  F   UNL A   1      42.733  24.538  25.502  1.00  0.00    -0.206 F 
ATOM     82  C   UNL A   1      42.198  21.162  26.675  1.00  0.00     0.060 A 
BRANCH  82  83
ATOM     83  S   UNL A   1      41.947  19.499  26.019  1.00  0.00     0.124 S 
ATOM     84  O   UNL A   1      40.521  19.515  25.715  1.00  0.00    -0.237 OA
ATOM     85  O   UNL A   1      42.845  19.486  24.868  1.00  0.00    -0.237 OA
ATOM     86  O   UNL A   1      42.348  18.637  27.127  1.00  0.00    -0.744 OA
ENDBRANCH  82  83
ENDBRANCH  50  75
BRANCH  62  87
ATOM     87  C   UNL A   1      47.926  26.951  30.819  1.00  0.00     0.058 A 
ATOM     88  C   UNL A   1      49.004  26.976  29.921  1.00  0.00     0.135 A 
ATOM     89  C   UNL A   1      48.175  26.516  32.132  1.00  0.00     0.135 A 
ATOM     90  F   UNL A   1      48.820  27.380  28.654  1.00  0.00    -0.206 F 
ATOM     91  C   UNL A   1      50.274  26.554  30.301  1.00  0.00     0.059 A 
ATOM     92  C   UNL A   1      49.443  26.122  32.542  1.00  0.00     0.059 A 
ATOM     93  F   UNL A   1      47.182  26.487  33.035  1.00  0.00    -0.206 F 
ATOM     94  C   UNL A   1      50.485  26.129  31.614  1.00  0.00     0.060 A 
BRANCH  94  95
ATOM     95  S   UNL A   1      52.142  25.605  32.101  1.00  0.00     0.124 S 
ATOM     96  O   UNL A   1      52.291  26.267  33.393  1.00  0.00    -0.237 OA
ATOM     97  O   UNL A   1      52.009  24.152  32.143  1.00  0.00    -0.237 OA
ATOM     98  O   UNL A   1      52.990  26.121  31.030  1.00  0.00    -0.744 OA
ENDBRANCH  94  95
ENDBRANCH  62  87
ENDBRANCH  36  37
ENDBRANCH  28  31
ENDBRANCH  26  27
ENDBRANCH  25  26
ENDBRANCH  24  25
ENDBRANCH   1  24
TORSDOF 19
ENDMDL
MODEL 2
REMARK VINA RESULT:     -10.7      0.923      2.045
REMARK SMILES CC1(CNS(=O)(=O)Cc2ccc(C(=O)NCCCCNC(=O)c3ccc(-c4c5nc(c(-c6c(F)cc(S(=O)(=O)[O-])cc6F)c6ccc([nH]6)c(-c6c(F)cc(S(=O)(=O)[O-])cc6F)c6nc(c(-c7c(F)cc(S(=O)(=O)[O-])cc7F)c7ccc4[nH]7)C=C6)C=C5)cc3)cc2)COC1
REMARK SMILES IDX 16 1 15 2 13 3 14 4 12 6 9 7 10 8 90 9 11 10 89 11 8 12 5 13
REMARK SMILES IDX 6 14 7 15 4 16 3 18 2 19 1 20 91 21 93 22 92 23 17 24 18 25
REMARK SMILES IDX 19 26 20 27 21 28 22 30 23 31 24 32 88 33 25 34 87 35 26 36
REMARK SMILES IDX 27 37 28 38 81 39 29 40 86 41 80 42 82 43 30 44 85 45 79 46
REMARK SMILES IDX 78 47 31 49 65 50 44 51 64 52 45 53 48 54 63 55 83 56 46 57
REMARK SMILES IDX 47 58 62 60 84 61 49 62 32 63 33 64 42 65 34 66 35 67 41 68
REMARK SMILES IDX 43 69 36 70 37 71 38 72 39 73 40 74 66 75 67 76 76 77 68 78
REMARK SMILES IDX 69 79 75 80 77 81 70 82 71 83 72 84 73 85 74 86 50 87 51 88
REMARK SMILES IDX 60 89 52 90 53 91 59 92 61 93 54 94 55 95 56 96 57 97 58 98
REMARK H PARENT 15 5 4 17 20 29 82 48 48 59
REMARK Flexibility Score: inf
ROOT
ATOM      1  C   UNL A   1      31.597  29.503  24.951  1.00  0.00     0.116 C 
ENDROOT
BRANCH   1   2
ATOM      2  N   UNL A   1      30.923  29.684  23.682  1.00  0.00    -0.352 N 
ATOM      3  C   UNL A   1      30.561  28.779  22.716  1.00  0.00     0.251 C 
ATOM      4  O   UNL A   1      29.962  29.193  21.724  1.00  0.00    -0.269 OA
ATOM      5  H   UNL A   1      30.682  30.616  23.477  1.00  0.00     0.163 HD
BRANCH   3   6
ATOM      6  C   UNL A   1      30.817  27.318  22.844  1.00  0.00     0.039 A 
ATOM      7  C   UNL A   1      31.160  24.539  23.189  1.00  0.00    -0.032 A 
ATOM      8  C   UNL A   1      30.160  25.223  23.890  1.00  0.00     0.005 A 
ATOM      9  C   UNL A   1      31.985  25.256  22.318  1.00  0.00     0.005 A 
ATOM     10  C   UNL A   1      29.988  26.599  23.714  1.00  0.00     0.014 A 
ATOM     11  C   UNL A   1      31.791  26.623  22.125  1.00  0.00     0.014 A 
BRANCH   7  12
ATOM     12  C   UNL A   1      31.328  23.051  23.326  1.00  0.00     0.189 C 
BRANCH  12  13
ATOM     13  S   UNL A   1      32.920  22.668  24.087  1.00  0.00     0.215 S 
ATOM     14  O   UNL A   1      33.078  23.509  25.258  1.00  0.00    -0.212 OA
ATOM     15  O   UNL A   1      33.953  22.620  23.080  1.00  0.00    -0.212 OA
BRANCH  13  16
ATOM     16  N   UNL A   1      32.732  21.085  24.640  1.00  0.00    -0.214 NA
ATOM     17  H   UNL A   1      32.144  21.120  25.473  1.00  0.00     0.141 HD
BRANCH  16  18
ATOM     18  C   UNL A   1      33.954  20.345  24.992  1.00  0.00     0.110 C 
BRANCH  18  19
ATOM     19  C   UNL A   1      33.842  18.845  24.715  1.00  0.00     0.028 C 
ATOM     20  C   UNL A   1      35.159  18.146  24.415  1.00  0.00     0.018 C 
ATOM     21  C   UNL A   1      32.744  18.563  23.669  1.00  0.00     0.170 C 
ATOM     22  C   UNL A   1      32.888  18.097  25.667  1.00  0.00     0.170 C 
ATOM     23  O   UNL A   1      31.797  18.230  24.717  1.00  0.00    -0.380 OA
ENDBRANCH  18  19
ENDBRANCH  16  18
ENDBRANCH  13  16
ENDBRANCH  12  13
ENDBRANCH   7  12
ENDBRANCH   3   6
ENDBRANCH   1   2
BRANCH   1  24
ATOM     24  C   UNL A   1      33.057  29.103  24.727  1.00  0.00     0.023 C 
BRANCH  24  25
ATOM     25  C   UNL A   1      33.500  27.883  25.535  1.00  0.00     0.023 C 
BRANCH  25  26
ATOM     26  C   UNL A   1      34.101  28.211  26.894  1.00  0.00     0.116 C 
BRANCH  26  27
ATOM     27  N   UNL A   1      33.769  29.551  27.352  1.00  0.00    -0.352 N 
ATOM     28  C   UNL A   1      34.559  30.431  28.047  1.00  0.00     0.251 C 
ATOM     29  H   UNL A   1      32.862  29.867  27.135  1.00  0.00     0.163 HD
ATOM     30  O   UNL A   1      34.082  31.475  28.480  1.00  0.00    -0.269 OA
BRANCH  28  31
ATOM     31  C   UNL A   1      35.975  30.090  28.294  1.00  0.00     0.039 A 
ATOM     32  C   UNL A   1      36.348  29.639  29.562  1.00  0.00     0.014 A 
ATOM     33  C   UNL A   1      36.924  30.204  27.275  1.00  0.00     0.014 A 
ATOM     34  C   UNL A   1      37.673  29.273  29.796  1.00  0.00     0.010 A 
ATOM     35  C   UNL A   1      38.223  29.754  27.486  1.00  0.00     0.010 A 
ATOM     36  C   UNL A   1      38.617  29.311  28.756  1.00  0.00    -0.014 A 
BRANCH  36  37
ATOM     37  C   UNL A   1      40.035  28.948  28.997  1.00  0.00     0.031 A 
ATOM     38  C   UNL A   1      40.971  29.962  29.601  1.00  0.00     0.074 A 
ATOM     39  C   UNL A   1      40.485  27.727  28.648  1.00  0.00     0.049 A 
ATOM     40  N   UNL A   1      42.246  29.852  29.869  1.00  0.00    -0.248 NA
ATOM     41  C   UNL A   1      40.407  31.286  29.916  1.00  0.00     0.031 C 
ATOM     42  C   UNL A   1      39.684  26.680  28.010  1.00  0.00     0.029 A 
ATOM     43  N   UNL A   1      41.728  27.160  28.779  1.00  0.00    -0.354 N 
ATOM     44  C   UNL A   1      42.636  31.088  30.371  1.00  0.00     0.074 A 
ATOM     45  C   UNL A   1      41.481  31.955  30.306  1.00  0.00     0.031 C 
ATOM     46  C   UNL A   1      40.446  25.589  27.834  1.00  0.00     0.029 A 
ATOM     47  C   UNL A   1      41.796  25.869  28.314  1.00  0.00     0.049 A 
ATOM     48  H   UNL A   1      42.497  27.634  29.169  1.00  0.00     0.167 HD
ATOM     49  C   UNL A   1      43.837  31.459  30.873  1.00  0.00     0.037 A 
ATOM     50  C   UNL A   1      42.833  25.007  28.281  1.00  0.00     0.037 A 
ATOM     51  C   UNL A   1      44.973  30.581  30.960  1.00  0.00     0.049 A 
ATOM     52  C   UNL A   1      44.158  25.441  28.851  1.00  0.00     0.074 A 
ATOM     53  C   UNL A   1      46.222  30.839  31.497  1.00  0.00     0.029 A 
ATOM     54  N   UNL A   1      44.998  29.272  30.500  1.00  0.00    -0.354 N 
ATOM     55  N   UNL A   1      44.492  26.593  29.381  1.00  0.00    -0.248 NA
ATOM     56  C   UNL A   1      45.243  24.451  28.830  1.00  0.00     0.031 C 
ATOM     57  C   UNL A   1      47.017  29.702  31.318  1.00  0.00     0.029 A 
ATOM     58  C   UNL A   1      46.246  28.715  30.725  1.00  0.00     0.049 A 
ATOM     59  H   UNL A   1      44.241  28.808  30.076  1.00  0.00     0.167 HD
ATOM     60  C   UNL A   1      45.813  26.455  29.792  1.00  0.00     0.074 A 
ATOM     61  C   UNL A   1      46.213  25.104  29.456  1.00  0.00     0.031 C 
ATOM     62  C   UNL A   1      46.622  27.362  30.396  1.00  0.00     0.037 A 
BRANCH  49  63
ATOM     63  C   UNL A   1      43.980  32.873  31.372  1.00  0.00     0.058 A 
ATOM     64  C   UNL A   1      43.689  33.221  32.701  1.00  0.00     0.135 A 
ATOM     65  C   UNL A   1      44.438  33.888  30.517  1.00  0.00     0.135 A 
ATOM     66  F   UNL A   1      43.230  32.295  33.558  1.00  0.00    -0.206 F 
ATOM     67  C   UNL A   1      43.816  34.529  33.157  1.00  0.00     0.059 A 
ATOM     68  C   UNL A   1      44.605  35.198  30.961  1.00  0.00     0.059 A 
ATOM     69  F   UNL A   1      44.730  33.615  29.235  1.00  0.00    -0.206 F 
ATOM     70  C   UNL A   1      44.276  35.511  32.278  1.00  0.00     0.060 A 
BRANCH  70  71
ATOM     71  S   UNL A   1      44.441  37.202  32.888  1.00  0.00     0.124 S 
ATOM     72  O   UNL A   1      43.154  37.399  33.550  1.00  0.00    -0.237 OA
ATOM     73  O   UNL A   1      45.598  37.102  33.771  1.00  0.00    -0.237 OA
ATOM     74  O   UNL A   1      44.647  37.984  31.674  1.00  0.00    -0.744 OA
ENDBRANCH  70  71
ENDBRANCH  49  63
BRANCH  50  75
ATOM     75  C   UNL A   1      42.650  23.642  27.720  1.00  0.00     0.058 A 
ATOM     76  C   UNL A   1      42.707  23.413  26.337  1.00  0.00     0.135 A 
ATOM     77  C   UNL A   1      42.420  22.536  28.554  1.00  0.00     0.135 A 
ATOM     78  F   UNL A   1      42.921  24.437  25.497  1.00  0.00    -0.206 F 
ATOM     79  C   UNL A   1      42.520  22.144  25.797  1.00  0.00     0.059 A 
ATOM     80  C   UNL A   1      42.258  21.253  28.041  1.00  0.00     0.059 A 
ATOM     81  F   UNL A   1      42.375  22.695  29.886  1.00  0.00    -0.206 F 
ATOM     82  C   UNL A   1      42.296  21.069  26.659  1.00  0.00     0.060 A 
BRANCH  82  83
ATOM     83  S   UNL A   1      42.091  19.421  25.951  1.00  0.00     0.124 S 
ATOM     84  O   UNL A   1      40.655  19.385  25.702  1.00  0.00    -0.237 OA
ATOM     85  O   UNL A   1      42.944  19.488  24.768  1.00  0.00    -0.237 OA
ATOM     86  O   UNL A   1      42.572  18.538  27.011  1.00  0.00    -0.744 OA
ENDBRANCH  82  83
ENDBRANCH  50  75
BRANCH  62  87
ATOM     87  C   UNL A   1      48.003  26.909  30.786  1.00  0.00     0.058 A 
ATOM     88  C   UNL A   1      49.109  27.081  29.940  1.00  0.00     0.135 A 
ATOM     89  C   UNL A   1      48.225  26.334  32.048  1.00  0.00     0.135 A 
ATOM     90  F   UNL A   1      48.951  27.623  28.721  1.00  0.00    -0.206 F 
ATOM     91  C   UNL A   1      50.383  26.668  30.318  1.00  0.00     0.059 A 
ATOM     92  C   UNL A   1      49.496  25.945  32.460  1.00  0.00     0.059 A 
ATOM     93  F   UNL A   1      47.205  26.159  32.902  1.00  0.00    -0.206 F 
ATOM     94  C   UNL A   1      50.567  26.102  31.580  1.00  0.00     0.060 A 
BRANCH  94  95
ATOM     95  S   UNL A   1      52.228  25.591  32.067  1.00  0.00     0.124 S 
ATOM     96  O   UNL A   1      52.045  24.158  32.275  1.00  0.00    -0.237 OA
ATOM     97  O   UNL A   1      53.024  25.968  30.903  1.00  0.00    -0.237 OA
ATOM     98  O   UNL A   1      52.484  26.372  33.274  1.00  0.00    -0.744 OA
ENDBRANCH  94  95
ENDBRANCH  62  87
ENDBRANCH  36  37
ENDBRANCH  28  31
ENDBRANCH  26  27
ENDBRANCH  25  26
ENDBRANCH  24  25
ENDBRANCH   1  24
TORSDOF 19
ENDMDL
MODEL 3
REMARK VINA RESULT:     -10.5      3.096      4.020
REMARK SMILES CC1(CNS(=O)(=O)Cc2ccc(C(=O)NCCCCNC(=O)c3ccc(-c4c5nc(c(-c6c(F)cc(S(=O)(=O)[O-])cc6F)c6ccc([nH]6)c(-c6c(F)cc(S(=O)(=O)[O-])cc6F)c6nc(c(-c7c(F)cc(S(=O)(=O)[O-])cc7F)c7ccc4[nH]7)C=C6)C=C5)cc3)cc2)COC1
REMARK SMILES IDX 16 1 15 2 13 3 14 4 12 6 9 7 10 8 90 9 11 10 89 11 8 12 5 13
REMARK SMILES IDX 6 14 7 15 4 16 3 18 2 19 1 20 91 21 93 22 92 23 17 24 18 25
REMARK SMILES IDX 19 26 20 27 21 28 22 30 23 31 24 32 88 33 25 34 87 35 26 36
REMARK SMILES IDX 27 37 28 38 81 39 29 40 86 41 80 42 82 43 30 44 85 45 79 46
REMARK SMILES IDX 78 47 31 49 65 50 44 51 64 52 45 53 48 54 63 55 83 56 46 57
REMARK SMILES IDX 47 58 62 60 84 61 49 62 32 63 33 64 42 65 34 66 35 67 41 68
REMARK SMILES IDX 43 69 36 70 37 71 38 72 39 73 40 74 66 75 67 76 76 77 68 78
REMARK SMILES IDX 69 79 75 80 77 81 70 82 71 83 72 84 73 85 74 86 50 87 51 88
REMARK SMILES IDX 60 89 52 90 53 91 59 92 61 93 54 94 55 95 56 96 57 97 58 98
REMARK H PARENT 15 5 4 17 20 29 82 48 48 59
REMARK Flexibility Score: inf
ROOT
ATOM      1  C   UNL A   1      33.144  28.951  27.330  1.00  0.00     0.116 C 
ENDROOT
BRANCH   1   2
ATOM      2  N   UNL A   1      32.495  28.876  26.038  1.00  0.00    -0.352 N 
ATOM      3  C   UNL A   1      32.282  27.814  25.195  1.00  0.00     0.251 C 
ATOM      4  O   UNL A   1      31.668  28.015  24.147  1.00  0.00    -0.269 OA
ATOM      5  H   UNL A   1      32.146  29.735  25.707  1.00  0.00     0.163 HD
BRANCH   3   6
ATOM      6  C   UNL A   1      32.715  26.428  25.521  1.00  0.00     0.039 A 
ATOM      7  C   UNL A   1      33.698  23.842  26.078  1.00  0.00    -0.032 A 
ATOM      8  C   UNL A   1      34.501  24.780  25.417  1.00  0.00     0.005 A 
ATOM      9  C   UNL A   1      32.403  24.209  26.455  1.00  0.00     0.005 A 
ATOM     10  C   UNL A   1      34.015  26.062  25.147  1.00  0.00     0.014 A 
ATOM     11  C   UNL A   1      31.932  25.498  26.208  1.00  0.00     0.014 A 
BRANCH   7  12
ATOM     12  C   UNL A   1      34.219  22.475  26.424  1.00  0.00     0.189 C 
BRANCH  12  13
ATOM     13  S   UNL A   1      34.354  21.462  24.936  1.00  0.00     0.215 S 
ATOM     14  O   UNL A   1      35.552  21.858  24.222  1.00  0.00    -0.212 OA
ATOM     15  O   UNL A   1      33.083  21.409  24.254  1.00  0.00    -0.212 OA
BRANCH  13  16
ATOM     16  N   UNL A   1      34.630  19.907  25.531  1.00  0.00    -0.214 NA
ATOM     17  H   UNL A   1      35.450  19.952  26.135  1.00  0.00     0.141 HD
BRANCH  16  18
ATOM     18  C   UNL A   1      34.864  18.840  24.545  1.00  0.00     0.110 C 
BRANCH  18  19
ATOM     19  C   UNL A   1      33.926  17.645  24.727  1.00  0.00     0.028 C 
ATOM     20  C   UNL A   1      34.620  16.299  24.866  1.00  0.00     0.018 C 
ATOM     21  C   UNL A   1      32.814  17.656  23.659  1.00  0.00     0.170 C 
ATOM     22  C   UNL A   1      32.759  17.901  25.700  1.00  0.00     0.170 C 
ATOM     23  O   UNL A   1      31.886  18.262  24.596  1.00  0.00    -0.380 OA
ENDBRANCH  18  19
ENDBRANCH  16  18
ENDBRANCH  13  16
ENDBRANCH  12  13
ENDBRANCH   7  12
ENDBRANCH   3   6
ENDBRANCH   1   2
BRANCH   1  24
ATOM     24  C   UNL A   1      34.532  29.582  27.194  1.00  0.00     0.023 C 
BRANCH  24  25
ATOM     25  C   UNL A   1      34.601  31.039  27.653  1.00  0.00     0.023 C 
BRANCH  25  26
ATOM     26  C   UNL A   1      35.826  31.378  28.490  1.00  0.00     0.116 C 
BRANCH  26  27
ATOM     27  N   UNL A   1      35.659  31.050  29.897  1.00  0.00    -0.352 N 
ATOM     28  C   UNL A   1      36.527  30.379  30.720  1.00  0.00     0.251 C 
ATOM     29  H   UNL A   1      34.817  31.347  30.311  1.00  0.00     0.163 HD
ATOM     30  O   UNL A   1      36.178  30.061  31.853  1.00  0.00    -0.269 OA
BRANCH  28  31
ATOM     31  C   UNL A   1      37.868  30.018  30.216  1.00  0.00     0.039 A 
ATOM     32  C   UNL A   1      38.870  29.700  31.135  1.00  0.00     0.014 A 
ATOM     33  C   UNL A   1      38.128  29.982  28.844  1.00  0.00     0.014 A 
ATOM     34  C   UNL A   1      40.128  29.316  30.671  1.00  0.00     0.010 A 
ATOM     35  C   UNL A   1      39.353  29.512  28.385  1.00  0.00     0.010 A 
ATOM     36  C   UNL A   1      40.375  29.202  29.293  1.00  0.00    -0.014 A 
BRANCH  36  37
ATOM     37  C   UNL A   1      41.715  28.819  28.785  1.00  0.00     0.031 A 
ATOM     38  C   UNL A   1      42.799  29.860  28.683  1.00  0.00     0.074 A 
ATOM     39  C   UNL A   1      41.946  27.552  28.389  1.00  0.00     0.049 A 
ATOM     40  N   UNL A   1      44.025  29.735  28.246  1.00  0.00    -0.248 NA
ATOM     41  C   UNL A   1      42.450  31.228  29.099  1.00  0.00     0.031 C 
ATOM     42  C   UNL A   1      40.959  26.470  28.395  1.00  0.00     0.029 A 
ATOM     43  N   UNL A   1      43.085  26.959  27.905  1.00  0.00    -0.354 N 
ATOM     44  C   UNL A   1      44.585  31.004  28.323  1.00  0.00     0.074 A 
ATOM     45  C   UNL A   1      43.547  31.899  28.783  1.00  0.00     0.031 C 
ATOM     46  C   UNL A   1      41.544  25.340  27.965  1.00  0.00     0.029 A 
ATOM     47  C   UNL A   1      42.934  25.623  27.622  1.00  0.00     0.049 A 
ATOM     48  H   UNL A   1      43.930  27.446  27.772  1.00  0.00     0.167 HD
ATOM     49  C   UNL A   1      45.859  31.386  28.068  1.00  0.00     0.037 A 
ATOM     50  C   UNL A   1      43.819  24.727  27.142  1.00  0.00     0.037 A 
ATOM     51  C   UNL A   1      46.893  30.483  27.638  1.00  0.00     0.049 A 
ATOM     52  C   UNL A   1      45.232  25.174  26.871  1.00  0.00     0.074 A 
ATOM     53  C   UNL A   1      48.229  30.755  27.399  1.00  0.00     0.029 A 
ATOM     54  N   UNL A   1      46.708  29.131  27.384  1.00  0.00    -0.354 N 
ATOM     55  N   UNL A   1      45.763  26.365  27.011  1.00  0.00    -0.248 NA
ATOM     56  C   UNL A   1      46.170  24.150  26.390  1.00  0.00     0.031 C 
ATOM     57  C   UNL A   1      48.840  29.578  26.954  1.00  0.00     0.029 A 
ATOM     58  C   UNL A   1      47.901  28.559  26.975  1.00  0.00     0.049 A 
ATOM     59  H   UNL A   1      45.855  28.650  27.480  1.00  0.00     0.167 HD
ATOM     60  C   UNL A   1      47.105  26.227  26.673  1.00  0.00     0.074 A 
ATOM     61  C   UNL A   1      47.305  24.834  26.329  1.00  0.00     0.031 C 
ATOM     62  C   UNL A   1      48.084  27.166  26.650  1.00  0.00     0.037 A 
BRANCH  49  63
ATOM     63  C   UNL A   1      46.204  32.840  28.253  1.00  0.00     0.058 A 
ATOM     64  C   UNL A   1      46.659  33.341  29.484  1.00  0.00     0.135 A 
ATOM     65  C   UNL A   1      46.102  33.740  27.180  1.00  0.00     0.135 A 
ATOM     66  F   UNL A   1      46.758  32.530  30.549  1.00  0.00    -0.206 F 
ATOM     67  C   UNL A   1      46.971  34.686  29.653  1.00  0.00     0.059 A 
ATOM     68  C   UNL A   1      46.440  35.084  27.318  1.00  0.00     0.059 A 
ATOM     69  F   UNL A   1      45.670  33.319  25.981  1.00  0.00    -0.206 F 
ATOM     70  C   UNL A   1      46.858  35.550  28.564  1.00  0.00     0.060 A 
BRANCH  70  71
ATOM     71  S   UNL A   1      47.273  37.291  28.800  1.00  0.00     0.124 S 
ATOM     72  O   UNL A   1      46.780  37.878  27.557  1.00  0.00    -0.237 OA
ATOM     73  O   UNL A   1      46.521  37.629  30.003  1.00  0.00    -0.237 OA
ATOM     74  O   UNL A   1      48.725  37.278  28.954  1.00  0.00    -0.744 OA
ENDBRANCH  70  71
ENDBRANCH  49  63
BRANCH  50  75
ATOM     75  C   UNL A   1      43.407  23.315  26.920  1.00  0.00     0.058 A 
ATOM     76  C   UNL A   1      43.249  22.429  27.997  1.00  0.00     0.135 A 
ATOM     77  C   UNL A   1      43.155  22.824  25.630  1.00  0.00     0.135 A 
ATOM     78  F   UNL A   1      43.481  22.849  29.250  1.00  0.00    -0.206 F 
ATOM     79  C   UNL A   1      42.881  21.101  27.803  1.00  0.00     0.059 A 
ATOM     80  C   UNL A   1      42.758  21.508  25.412  1.00  0.00     0.059 A 
ATOM     81  F   UNL A   1      43.271  23.634  24.567  1.00  0.00    -0.206 F 
ATOM     82  C   UNL A   1      42.637  20.650  26.505  1.00  0.00     0.060 A 
BRANCH  82  83
ATOM     83  S   UNL A   1      42.124  18.935  26.267  1.00  0.00     0.124 S 
ATOM     84  O   UNL A   1      42.246  18.402  27.619  1.00  0.00    -0.237 OA
ATOM     85  O   UNL A   1      40.763  19.091  25.761  1.00  0.00    -0.237 OA
ATOM     86  O   UNL A   1      43.090  18.427  25.298  1.00  0.00    -0.744 OA
ENDBRANCH  82  83
ENDBRANCH  50  75
BRANCH  62  87
ATOM     87  C   UNL A   1      49.474  26.710  26.297  1.00  0.00     0.058 A 
ATOM     88  C   UNL A   1      50.001  26.859  25.005  1.00  0.00     0.135 A 
ATOM     89  C   UNL A   1      50.306  26.157  27.285  1.00  0.00     0.135 A 
ATOM     90  F   UNL A   1      49.246  27.379  24.023  1.00  0.00    -0.206 F 
ATOM     91  C   UNL A   1      51.292  26.444  24.696  1.00  0.00     0.059 A 
ATOM     92  C   UNL A   1      51.611  25.766  27.006  1.00  0.00     0.059 A 
ATOM     93  F   UNL A   1      49.858  26.005  28.541  1.00  0.00    -0.206 F 
ATOM     94  C   UNL A   1      52.090  25.900  25.703  1.00  0.00     0.060 A 
BRANCH  94  95
ATOM     95  S   UNL A   1      53.771  25.386  25.293  1.00  0.00     0.124 S 
ATOM     96  O   UNL A   1      54.183  26.439  24.370  1.00  0.00    -0.237 OA
ATOM     97  O   UNL A   1      54.426  25.395  26.598  1.00  0.00    -0.237 OA
ATOM     98  O   UNL A   1      53.589  24.066  24.699  1.00  0.00    -0.744 OA
ENDBRANCH  94  95
ENDBRANCH  62  87
ENDBRANCH  36  37
ENDBRANCH  28  31
ENDBRANCH  26  27
ENDBRANCH  25  26
ENDBRANCH  24  25
ENDBRANCH   1  24
TORSDOF 19
ENDMDL
