MODEL 1
REMARK VINA RESULT:     -11.4      0.000      0.000
REMARK SMILES [NH3+][C@H](Cn1nnc2ccccc21)C(=O)NCCCCNC(=O)c1ccc(-c2c3nc(c(-c4c(F)cc(S(=O)(=O)[O-])cc4F)c4ccc([nH]4)c(-c4c(F)cc(S(=O)(=O)[O-])cc4F)c4nc(c(-c5c(F)cc(S(=O)(=O)[O-])cc5F)c5ccc2[nH]5)C=C4)C=C3)cc1
REMARK SMILES IDX 18 1 17 2 16 3 15 4 13 5 14 6 2 8 1 9 3 13 4 14 5 15 12 16
REMARK SMILES IDX 6 17 7 18 11 19 8 20 10 21 9 22 19 23 20 24 21 25 22 27
REMARK SMILES IDX 23 28 24 29 88 30 25 31 87 32 26 33 27 34 28 35 81 36 29 37
REMARK SMILES IDX 86 38 80 39 82 40 30 41 85 42 79 43 78 44 31 46 65 47 44 48
REMARK SMILES IDX 64 49 45 50 48 51 63 52 83 53 46 54 47 55 62 57 84 58 49 59
REMARK SMILES IDX 32 60 33 61 42 62 34 63 35 64 41 65 43 66 36 67 37 68 38 69
REMARK SMILES IDX 39 70 40 71 66 72 67 73 76 74 68 75 69 76 75 77 77 78 70 79
REMARK SMILES IDX 71 80 72 81 73 82 74 83 50 84 51 85 60 86 52 87 53 88 59 89
REMARK SMILES IDX 61 90 54 91 55 92 56 93 57 94 58 95
REMARK H PARENT 15 7 1 10 1 11 1 12 20 26 82 45 48 56
REMARK Flexibility Score: inf
ROOT
ATOM      1  C   UNL A   1      42.199  20.639  26.476  1.00  0.00     0.023 C 
ENDROOT
BRANCH   1   2
ATOM      2  C   UNL A   1      42.256  19.140  26.204  1.00  0.00     0.023 C 
BRANCH   2   3
ATOM      3  C   UNL A   1      43.644  18.552  26.062  1.00  0.00     0.116 C 
BRANCH   3   4
ATOM      4  N   UNL A   1      44.197  18.444  24.739  1.00  0.00    -0.351 N 
ATOM      5  C   UNL A   1      44.978  19.335  24.065  1.00  0.00     0.280 C 
ATOM      6  O   UNL A   1      45.685  18.847  23.171  1.00  0.00    -0.268 OA
ATOM      7  H   UNL A   1      43.983  17.614  24.255  1.00  0.00     0.163 HD
BRANCH   5   8
ATOM      8  C   UNL A   1      45.013  20.880  24.319  1.00  0.00     0.292 C 
BRANCH   8   9
ATOM      9  N   UNL A   1      44.617  21.653  23.120  1.00  0.00    -0.346 N 
ATOM     10  H   UNL A   1      45.445  21.865  22.564  1.00  0.00     0.345 HD
ATOM     11  H   UNL A   1      44.170  22.524  23.410  1.00  0.00     0.345 HD
ATOM     12  H   UNL A   1      43.963  21.105  22.563  1.00  0.00     0.345 HD
ENDBRANCH   8   9
BRANCH   8  13
ATOM     13  C   UNL A   1      46.078  21.530  25.209  1.00  0.00     0.222 C 
BRANCH  13  14
ATOM     14  N   UNL A   1      46.190  22.964  25.411  1.00  0.00    -0.238 N 
ATOM     15  N   UNL A   1      46.361  23.681  24.274  1.00  0.00    -0.066 NA
ATOM     16  C   UNL A   1      45.877  23.803  26.464  1.00  0.00     0.089 A 
ATOM     17  N   UNL A   1      45.991  24.928  24.507  1.00  0.00    -0.130 NA
ATOM     18  C   UNL A   1      45.657  25.027  25.824  1.00  0.00     0.113 A 
ATOM     19  C   UNL A   1      45.650  23.663  27.842  1.00  0.00     0.030 A 
ATOM     20  C   UNL A   1      45.131  26.116  26.535  1.00  0.00     0.032 A 
ATOM     21  C   UNL A   1      45.135  24.766  28.542  1.00  0.00     0.002 A 
ATOM     22  C   UNL A   1      44.860  25.968  27.898  1.00  0.00     0.002 A 
ENDBRANCH  13  14
ENDBRANCH   8  13
ENDBRANCH   5   8
ENDBRANCH   3   4
ENDBRANCH   2   3
ENDBRANCH   1   2
BRANCH   1  23
ATOM     23  C   UNL A   1      41.249  21.084  27.598  1.00  0.00     0.116 C 
BRANCH  23  24
ATOM     24  N   UNL A   1      39.953  21.578  27.170  1.00  0.00    -0.352 N 
ATOM     25  C   UNL A   1      39.539  22.791  26.678  1.00  0.00     0.251 C 
ATOM     26  H   UNL A   1      39.230  20.914  27.247  1.00  0.00     0.163 HD
ATOM     27  O   UNL A   1      38.493  22.811  26.026  1.00  0.00    -0.269 OA
BRANCH  25  28
ATOM     28  C   UNL A   1      40.199  24.072  27.039  1.00  0.00     0.039 A 
ATOM     29  C   UNL A   1      41.249  24.175  27.946  1.00  0.00     0.014 A 
ATOM     30  C   UNL A   1      39.577  25.245  26.576  1.00  0.00     0.014 A 
ATOM     31  C   UNL A   1      41.488  25.369  28.590  1.00  0.00     0.010 A 
ATOM     32  C   UNL A   1      39.867  26.465  27.165  1.00  0.00     0.010 A 
ATOM     33  C   UNL A   1      40.742  26.492  28.246  1.00  0.00    -0.014 A 
BRANCH  33  34
ATOM     34  C   UNL A   1      40.977  27.691  29.033  1.00  0.00     0.031 A 
ATOM     35  C   UNL A   1      42.136  28.504  28.560  1.00  0.00     0.074 A 
ATOM     36  C   UNL A   1      40.169  28.031  30.055  1.00  0.00     0.049 A 
ATOM     37  N   UNL A   1      43.214  28.835  29.196  1.00  0.00    -0.248 NA
ATOM     38  C   UNL A   1      42.165  28.840  27.124  1.00  0.00     0.031 C 
ATOM     39  C   UNL A   1      38.893  27.423  30.447  1.00  0.00     0.029 A 
ATOM     40  N   UNL A   1      40.270  29.082  30.906  1.00  0.00    -0.354 N 
ATOM     41  C   UNL A   1      43.961  29.600  28.301  1.00  0.00     0.074 A 
ATOM     42  C   UNL A   1      43.357  29.424  27.007  1.00  0.00     0.031 C 
ATOM     43  C   UNL A   1      38.233  28.265  31.272  1.00  0.00     0.029 A 
ATOM     44  C   UNL A   1      39.091  29.396  31.571  1.00  0.00     0.049 A 
ATOM     45  H   UNL A   1      41.109  29.581  31.042  1.00  0.00     0.167 HD
ATOM     46  C   UNL A   1      44.902  30.493  28.712  1.00  0.00     0.037 A 
ATOM     47  C   UNL A   1      38.834  30.566  32.212  1.00  0.00     0.037 A 
ATOM     48  C   UNL A   1      45.357  30.211  30.046  1.00  0.00     0.049 A 
ATOM     49  C   UNL A   1      40.153  31.204  32.487  1.00  0.00     0.074 A 
ATOM     50  C   UNL A   1      46.041  29.161  30.628  1.00  0.00     0.029 A 
ATOM     51  N   UNL A   1      44.800  30.912  31.087  1.00  0.00    -0.354 N 
ATOM     52  N   UNL A   1      41.039  30.707  33.308  1.00  0.00    -0.248 NA
ATOM     53  C   UNL A   1      40.677  32.124  31.488  1.00  0.00     0.031 C 
ATOM     54  C   UNL A   1      45.453  29.005  31.917  1.00  0.00     0.029 A 
ATOM     55  C   UNL A   1      44.490  30.003  32.069  1.00  0.00     0.049 A 
ATOM     56  H   UNL A   1      44.650  31.885  31.122  1.00  0.00     0.167 HD
ATOM     57  C   UNL A   1      42.265  30.923  32.690  1.00  0.00     0.074 A 
ATOM     58  C   UNL A   1      41.980  31.854  31.600  1.00  0.00     0.031 C 
ATOM     59  C   UNL A   1      43.341  30.119  32.940  1.00  0.00     0.037 A 
BRANCH  46  60
ATOM     60  C   UNL A   1      45.166  31.801  28.005  1.00  0.00     0.058 A 
ATOM     61  C   UNL A   1      46.403  32.027  27.370  1.00  0.00     0.135 A 
ATOM     62  C   UNL A   1      44.341  32.941  28.151  1.00  0.00     0.135 A 
ATOM     63  F   UNL A   1      47.276  31.022  27.196  1.00  0.00    -0.206 F 
ATOM     64  C   UNL A   1      46.808  33.299  26.956  1.00  0.00     0.059 A 
ATOM     65  C   UNL A   1      44.699  34.203  27.696  1.00  0.00     0.059 A 
ATOM     66  F   UNL A   1      43.185  32.904  28.827  1.00  0.00    -0.206 F 
ATOM     67  C   UNL A   1      45.950  34.382  27.134  1.00  0.00     0.060 A 
BRANCH  67  68
ATOM     68  S   UNL A   1      46.507  36.038  26.696  1.00  0.00     0.124 S 
ATOM     69  O   UNL A   1      47.406  35.760  25.584  1.00  0.00    -0.237 OA
ATOM     70  O   UNL A   1      45.253  36.700  26.360  1.00  0.00    -0.237 OA
ATOM     71  O   UNL A   1      47.149  36.512  27.924  1.00  0.00    -0.744 OA
ENDBRANCH  67  68
ENDBRANCH  46  60
BRANCH  47  72
ATOM     72  C   UNL A   1      37.564  31.344  32.175  1.00  0.00     0.058 A 
ATOM     73  C   UNL A   1      36.954  31.785  33.363  1.00  0.00     0.135 A 
ATOM     74  C   UNL A   1      37.081  31.918  30.981  1.00  0.00     0.135 A 
ATOM     75  F   UNL A   1      37.362  31.307  34.548  1.00  0.00    -0.206 F 
ATOM     76  C   UNL A   1      35.968  32.779  33.370  1.00  0.00     0.059 A 
ATOM     77  C   UNL A   1      36.093  32.901  30.963  1.00  0.00     0.059 A 
ATOM     78  F   UNL A   1      37.624  31.616  29.792  1.00  0.00    -0.206 F 
ATOM     79  C   UNL A   1      35.563  33.349  32.164  1.00  0.00     0.060 A 
BRANCH  79  80
ATOM     80  S   UNL A   1      34.437  34.765  32.182  1.00  0.00     0.124 S 
ATOM     81  O   UNL A   1      33.278  34.222  32.881  1.00  0.00    -0.237 OA
ATOM     82  O   UNL A   1      35.213  35.763  32.911  1.00  0.00    -0.237 OA
ATOM     83  O   UNL A   1      34.232  35.053  30.764  1.00  0.00    -0.744 OA
ENDBRANCH  79  80
ENDBRANCH  47  72
BRANCH  59  84
ATOM     84  C   UNL A   1      43.229  29.122  34.068  1.00  0.00     0.058 A 
ATOM     85  C   UNL A   1      43.464  29.431  35.422  1.00  0.00     0.135 A 
ATOM     86  C   UNL A   1      42.736  27.839  33.788  1.00  0.00     0.135 A 
ATOM     87  F   UNL A   1      43.820  30.668  35.794  1.00  0.00    -0.206 F 
ATOM     88  C   UNL A   1      43.278  28.491  36.439  1.00  0.00     0.059 A 
ATOM     89  C   UNL A   1      42.511  26.896  34.789  1.00  0.00     0.059 A 
ATOM     90  F   UNL A   1      42.422  27.502  32.527  1.00  0.00    -0.206 F 
ATOM     91  C   UNL A   1      42.803  27.223  36.111  1.00  0.00     0.060 A 
BRANCH  91  92
ATOM     92  S   UNL A   1      42.520  26.023  37.432  1.00  0.00     0.124 S 
ATOM     93  O   UNL A   1      43.490  26.438  38.438  1.00  0.00    -0.237 OA
ATOM     94  O   UNL A   1      41.118  26.250  37.770  1.00  0.00    -0.237 OA
ATOM     95  O   UNL A   1      42.797  24.739  36.791  1.00  0.00    -0.744 OA
ENDBRANCH  91  92
ENDBRANCH  59  84
ENDBRANCH  33  34
ENDBRANCH  25  28
ENDBRANCH  23  24
ENDBRANCH   1  23
TORSDOF 17
ENDMDL
MODEL 2
REMARK VINA RESULT:     -11.4      3.375      5.999
REMARK SMILES [NH3+][C@H](Cn1nnc2ccccc21)C(=O)NCCCCNC(=O)c1ccc(-c2c3nc(c(-c4c(F)cc(S(=O)(=O)[O-])cc4F)c4ccc([nH]4)c(-c4c(F)cc(S(=O)(=O)[O-])cc4F)c4nc(c(-c5c(F)cc(S(=O)(=O)[O-])cc5F)c5ccc2[nH]5)C=C4)C=C3)cc1
REMARK SMILES IDX 18 1 17 2 16 3 15 4 13 5 14 6 2 8 1 9 3 13 4 14 5 15 12 16
REMARK SMILES IDX 6 17 7 18 11 19 8 20 10 21 9 22 19 23 20 24 21 25 22 27
REMARK SMILES IDX 23 28 24 29 88 30 25 31 87 32 26 33 27 34 28 35 81 36 29 37
REMARK SMILES IDX 86 38 80 39 82 40 30 41 85 42 79 43 78 44 31 46 65 47 44 48
REMARK SMILES IDX 64 49 45 50 48 51 63 52 83 53 46 54 47 55 62 57 84 58 49 59
REMARK SMILES IDX 32 60 33 61 42 62 34 63 35 64 41 65 43 66 36 67 37 68 38 69
REMARK SMILES IDX 39 70 40 71 66 72 67 73 76 74 68 75 69 76 75 77 77 78 70 79
REMARK SMILES IDX 71 80 72 81 73 82 74 83 50 84 51 85 60 86 52 87 53 88 59 89
REMARK SMILES IDX 61 90 54 91 55 92 56 93 57 94 58 95
REMARK H PARENT 15 7 1 10 1 11 1 12 20 26 82 45 48 56
REMARK Flexibility Score: inf
ROOT
ATOM      1  C   UNL A   1      40.843  20.077  26.731  1.00  0.00     0.023 C 
ENDROOT
BRANCH   1   2
ATOM      2  C   UNL A   1      40.271  21.483  26.591  1.00  0.00     0.023 C 
BRANCH   2   3
ATOM      3  C   UNL A   1      38.971  21.588  25.823  1.00  0.00     0.116 C 
BRANCH   3   4
ATOM      4  N   UNL A   1      38.372  22.888  25.686  1.00  0.00    -0.351 N 
ATOM      5  C   UNL A   1      37.054  23.211  25.550  1.00  0.00     0.280 C 
ATOM      6  O   UNL A   1      36.753  24.360  25.904  1.00  0.00    -0.268 OA
ATOM      7  H   UNL A   1      38.999  23.647  25.693  1.00  0.00     0.163 HD
BRANCH   5   8
ATOM      8  C   UNL A   1      35.948  22.268  24.968  1.00  0.00     0.292 C 
BRANCH   8   9
ATOM      9  N   UNL A   1      35.013  22.988  24.074  1.00  0.00    -0.346 N 
ATOM     10  H   UNL A   1      34.173  23.241  24.594  1.00  0.00     0.345 HD
ATOM     11  H   UNL A   1      34.760  22.385  23.291  1.00  0.00     0.345 HD
ATOM     12  H   UNL A   1      35.462  23.833  23.722  1.00  0.00     0.345 HD
ENDBRANCH   8   9
BRANCH   8  13
ATOM     13  C   UNL A   1      35.338  21.131  25.794  1.00  0.00     0.222 C 
BRANCH  13  14
ATOM     14  N   UNL A   1      34.172  20.372  25.377  1.00  0.00    -0.238 N 
ATOM     15  N   UNL A   1      33.010  21.071  25.391  1.00  0.00    -0.066 NA
ATOM     16  C   UNL A   1      34.005  19.182  24.694  1.00  0.00     0.089 A 
ATOM     17  N   UNL A   1      32.151  20.469  24.588  1.00  0.00    -0.130 NA
ATOM     18  C   UNL A   1      32.739  19.333  24.119  1.00  0.00     0.113 A 
ATOM     19  C   UNL A   1      34.795  18.058  24.403  1.00  0.00     0.030 A 
ATOM     20  C   UNL A   1      32.269  18.402  23.182  1.00  0.00     0.032 A 
ATOM     21  C   UNL A   1      34.305  17.129  23.472  1.00  0.00     0.002 A 
ATOM     22  C   UNL A   1      33.071  17.305  22.855  1.00  0.00     0.002 A 
ENDBRANCH  13  14
ENDBRANCH   8  13
ENDBRANCH   5   8
ENDBRANCH   3   4
ENDBRANCH   2   3
ENDBRANCH   1   2
BRANCH   1  23
ATOM     23  C   UNL A   1      42.376  19.973  26.757  1.00  0.00     0.116 C 
BRANCH  23  24
ATOM     24  N   UNL A   1      43.032  19.979  25.462  1.00  0.00    -0.352 N 
ATOM     25  C   UNL A   1      44.009  20.777  24.921  1.00  0.00     0.251 C 
ATOM     26  H   UNL A   1      42.715  19.272  24.854  1.00  0.00     0.163 HD
ATOM     27  O   UNL A   1      44.656  20.318  23.976  1.00  0.00    -0.269 OA
BRANCH  25  28
ATOM     28  C   UNL A   1      44.195  22.197  25.311  1.00  0.00     0.039 A 
ATOM     29  C   UNL A   1      45.052  22.618  26.324  1.00  0.00     0.014 A 
ATOM     30  C   UNL A   1      43.297  23.120  24.747  1.00  0.00     0.014 A 
ATOM     31  C   UNL A   1      44.836  23.824  26.953  1.00  0.00     0.010 A 
ATOM     32  C   UNL A   1      43.126  24.367  25.327  1.00  0.00     0.010 A 
ATOM     33  C   UNL A   1      43.822  24.661  26.495  1.00  0.00    -0.014 A 
BRANCH  33  34
ATOM     34  C   UNL A   1      43.584  25.870  27.265  1.00  0.00     0.031 A 
ATOM     35  C   UNL A   1      44.637  26.913  27.088  1.00  0.00     0.074 A 
ATOM     36  C   UNL A   1      42.476  26.018  28.016  1.00  0.00     0.049 A 
ATOM     37  N   UNL A   1      45.409  27.451  27.977  1.00  0.00    -0.248 NA
ATOM     38  C   UNL A   1      44.987  27.271  25.701  1.00  0.00     0.031 C 
ATOM     39  C   UNL A   1      41.294  25.152  28.075  1.00  0.00     0.029 A 
ATOM     40  N   UNL A   1      42.125  27.055  28.819  1.00  0.00    -0.354 N 
ATOM     41  C   UNL A   1      46.199  28.369  27.285  1.00  0.00     0.074 A 
ATOM     42  C   UNL A   1      46.019  28.091  25.885  1.00  0.00     0.031 C 
ATOM     43  C   UNL A   1      40.276  25.826  28.656  1.00  0.00     0.029 A 
ATOM     44  C   UNL A   1      40.771  27.105  29.127  1.00  0.00     0.049 A 
ATOM     45  H   UNL A   1      42.775  27.714  29.155  1.00  0.00     0.167 HD
ATOM     46  C   UNL A   1      46.790  29.431  27.897  1.00  0.00     0.037 A 
ATOM     47  C   UNL A   1      40.116  28.186  29.625  1.00  0.00     0.037 A 
ATOM     48  C   UNL A   1      46.912  29.229  29.315  1.00  0.00     0.049 A 
ATOM     49  C   UNL A   1      41.151  29.080  30.219  1.00  0.00     0.074 A 
ATOM     50  C   UNL A   1      47.611  28.335  30.104  1.00  0.00     0.029 A 
ATOM     51  N   UNL A   1      45.961  29.783  30.137  1.00  0.00    -0.354 N 
ATOM     52  N   UNL A   1      41.862  28.766  31.268  1.00  0.00    -0.248 NA
ATOM     53  C   UNL A   1      41.728  30.105  29.361  1.00  0.00     0.031 C 
ATOM     54  C   UNL A   1      46.738  28.041  31.191  1.00  0.00     0.029 A 
ATOM     55  C   UNL A   1      45.588  28.814  31.037  1.00  0.00     0.049 A 
ATOM     56  H   UNL A   1      45.613  30.702  30.089  1.00  0.00     0.167 HD
ATOM     57  C   UNL A   1      43.139  29.242  30.996  1.00  0.00     0.074 A 
ATOM     58  C   UNL A   1      42.978  30.110  29.831  1.00  0.00     0.031 C 
ATOM     59  C   UNL A   1      44.247  28.675  31.560  1.00  0.00     0.037 A 
BRANCH  46  60
ATOM     60  C   UNL A   1      46.964  30.776  27.233  1.00  0.00     0.058 A 
ATOM     61  C   UNL A   1      48.244  31.350  27.118  1.00  0.00     0.135 A 
ATOM     62  C   UNL A   1      45.882  31.639  26.937  1.00  0.00     0.135 A 
ATOM     63  F   UNL A   1      49.344  30.631  27.396  1.00  0.00    -0.206 F 
ATOM     64  C   UNL A   1      48.433  32.694  26.781  1.00  0.00     0.059 A 
ATOM     65  C   UNL A   1      46.049  32.961  26.544  1.00  0.00     0.059 A 
ATOM     66  F   UNL A   1      44.606  31.268  27.104  1.00  0.00    -0.206 F 
ATOM     67  C   UNL A   1      47.325  33.492  26.506  1.00  0.00     0.060 A 
BRANCH  67  68
ATOM     68  S   UNL A   1      47.556  35.247  26.172  1.00  0.00     0.124 S 
ATOM     69  O   UNL A   1      48.754  35.232  25.343  1.00  0.00    -0.237 OA
ATOM     70  O   UNL A   1      46.311  35.593  25.497  1.00  0.00    -0.237 OA
ATOM     71  O   UNL A   1      47.719  35.825  27.507  1.00  0.00    -0.744 OA
ENDBRANCH  67  68
ENDBRANCH  46  60
BRANCH  47  72
ATOM     72  C   UNL A   1      38.773  28.684  29.215  1.00  0.00     0.058 A 
ATOM     73  C   UNL A   1      37.753  28.872  30.165  1.00  0.00     0.135 A 
ATOM     74  C   UNL A   1      38.551  29.258  27.946  1.00  0.00     0.135 A 
ATOM     75  F   UNL A   1      37.886  28.377  31.404  1.00  0.00    -0.206 F 
ATOM     76  C   UNL A   1      36.610  29.635  29.891  1.00  0.00     0.059 A 
ATOM     77  C   UNL A   1      37.418  30.011  27.647  1.00  0.00     0.059 A 
ATOM     78  F   UNL A   1      39.478  29.191  26.979  1.00  0.00    -0.206 F 
ATOM     79  C   UNL A   1      36.466  30.222  28.635  1.00  0.00     0.060 A 
BRANCH  79  80
ATOM     80  S   UNL A   1      35.095  31.365  28.339  1.00  0.00     0.124 S 
ATOM     81  O   UNL A   1      34.767  31.802  29.691  1.00  0.00    -0.237 OA
ATOM     82  O   UNL A   1      35.714  32.367  27.476  1.00  0.00    -0.237 OA
ATOM     83  O   UNL A   1      34.088  30.527  27.692  1.00  0.00    -0.744 OA
ENDBRANCH  79  80
ENDBRANCH  47  72
BRANCH  59  84
ATOM     84  C   UNL A   1      44.038  27.658  32.657  1.00  0.00     0.058 A 
ATOM     85  C   UNL A   1      43.767  27.989  33.999  1.00  0.00     0.135 A 
ATOM     86  C   UNL A   1      43.976  26.300  32.315  1.00  0.00     0.135 A 
ATOM     87  F   UNL A   1      43.687  29.268  34.389  1.00  0.00    -0.206 F 
ATOM     88  C   UNL A   1      43.511  27.013  34.965  1.00  0.00     0.059 A 
ATOM     89  C   UNL A   1      43.688  25.311  33.253  1.00  0.00     0.059 A 
ATOM     90  F   UNL A   1      44.151  25.921  31.038  1.00  0.00    -0.206 F 
ATOM     91  C   UNL A   1      43.476  25.674  34.582  1.00  0.00     0.060 A 
BRANCH  91  92
ATOM     92  S   UNL A   1      43.099  24.415  35.822  1.00  0.00     0.124 S 
ATOM     93  O   UNL A   1      44.191  23.466  35.638  1.00  0.00    -0.237 OA
ATOM     94  O   UNL A   1      43.127  25.179  37.066  1.00  0.00    -0.237 OA
ATOM     95  O   UNL A   1      41.779  23.931  35.427  1.00  0.00    -0.744 OA
ENDBRANCH  91  92
ENDBRANCH  59  84
ENDBRANCH  33  34
ENDBRANCH  25  28
ENDBRANCH  23  24
ENDBRANCH   1  23
TORSDOF 17
ENDMDL
MODEL 3
REMARK VINA RESULT:     -11.4      3.351     12.189
REMARK SMILES [NH3+][C@H](Cn1nnc2ccccc21)C(=O)NCCCCNC(=O)c1ccc(-c2c3nc(c(-c4c(F)cc(S(=O)(=O)[O-])cc4F)c4ccc([nH]4)c(-c4c(F)cc(S(=O)(=O)[O-])cc4F)c4nc(c(-c5c(F)cc(S(=O)(=O)[O-])cc5F)c5ccc2[nH]5)C=C4)C=C3)cc1
REMARK SMILES IDX 18 1 17 2 16 3 15 4 13 5 14 6 2 8 1 9 3 13 4 14 5 15 12 16
REMARK SMILES IDX 6 17 7 18 11 19 8 20 10 21 9 22 19 23 20 24 21 25 22 27
REMARK SMILES IDX 23 28 24 29 88 30 25 31 87 32 26 33 27 34 28 35 81 36 29 37
REMARK SMILES IDX 86 38 80 39 82 40 30 41 85 42 79 43 78 44 31 46 65 47 44 48
REMARK SMILES IDX 64 49 45 50 48 51 63 52 83 53 46 54 47 55 62 57 84 58 49 59
REMARK SMILES IDX 32 60 33 61 42 62 34 63 35 64 41 65 43 66 36 67 37 68 38 69
REMARK SMILES IDX 39 70 40 71 66 72 67 73 76 74 68 75 69 76 75 77 77 78 70 79
REMARK SMILES IDX 71 80 72 81 73 82 74 83 50 84 51 85 60 86 52 87 53 88 59 89
REMARK SMILES IDX 61 90 54 91 55 92 56 93 57 94 58 95
REMARK H PARENT 15 7 1 10 1 11 1 12 20 26 82 45 48 56
REMARK Flexibility Score: inf
ROOT
ATOM      1  C   UNL A   1      34.733  34.539  29.308  1.00  0.00     0.023 C 
ENDROOT
BRANCH   1   2
ATOM      2  C   UNL A   1      33.743  35.525  28.698  1.00  0.00     0.023 C 
BRANCH   2   3
ATOM      3  C   UNL A   1      33.246  36.613  29.625  1.00  0.00     0.116 C 
BRANCH   3   4
ATOM      4  N   UNL A   1      32.209  36.276  30.563  1.00  0.00    -0.351 N 
ATOM      5  C   UNL A   1      32.283  36.187  31.922  1.00  0.00     0.280 C 
ATOM      6  O   UNL A   1      31.208  36.335  32.520  1.00  0.00    -0.268 OA
ATOM      7  H   UNL A   1      31.327  36.085  30.171  1.00  0.00     0.163 HD
BRANCH   5   8
ATOM      8  C   UNL A   1      33.586  35.889  32.738  1.00  0.00     0.292 C 
BRANCH   8   9
ATOM      9  N   UNL A   1      34.654  36.877  32.466  1.00  0.00    -0.346 N 
ATOM     10  H   UNL A   1      34.351  37.511  31.726  1.00  0.00     0.345 HD
ATOM     11  H   UNL A   1      35.501  36.390  32.171  1.00  0.00     0.345 HD
ATOM     12  H   UNL A   1      34.847  37.411  33.313  1.00  0.00     0.345 HD
ENDBRANCH   8   9
BRANCH   8  13
ATOM     13  C   UNL A   1      34.058  34.458  33.016  1.00  0.00     0.222 C 
BRANCH  13  14
ATOM     14  N   UNL A   1      35.451  34.093  33.195  1.00  0.00    -0.238 N 
ATOM     15  N   UNL A   1      36.171  34.964  33.944  1.00  0.00    -0.066 NA
ATOM     16  C   UNL A   1      36.157  32.917  33.020  1.00  0.00     0.089 A 
ATOM     17  N   UNL A   1      37.231  34.332  34.416  1.00  0.00    -0.130 NA
ATOM     18  C   UNL A   1      37.233  33.071  33.899  1.00  0.00     0.113 A 
ATOM     19  C   UNL A   1      35.968  31.713  32.322  1.00  0.00     0.030 A 
ATOM     20  C   UNL A   1      38.100  31.999  34.158  1.00  0.00     0.032 A 
ATOM     21  C   UNL A   1      36.851  30.653  32.582  1.00  0.00     0.002 A 
ATOM     22  C   UNL A   1      37.889  30.784  33.500  1.00  0.00     0.002 A 
ENDBRANCH  13  14
ENDBRANCH   8  13
ENDBRANCH   5   8
ENDBRANCH   3   4
ENDBRANCH   2   3
ENDBRANCH   1   2
BRANCH   1  23
ATOM     23  C   UNL A   1      34.242  33.091  29.448  1.00  0.00     0.116 C 
BRANCH  23  24
ATOM     24  N   UNL A   1      34.359  32.266  28.259  1.00  0.00    -0.352 N 
ATOM     25  C   UNL A   1      35.025  31.092  28.006  1.00  0.00     0.251 C 
ATOM     26  H   UNL A   1      33.864  32.616  27.483  1.00  0.00     0.163 HD
ATOM     27  O   UNL A   1      34.633  30.412  27.056  1.00  0.00    -0.269 OA
BRANCH  25  28
ATOM     28  C   UNL A   1      36.275  30.709  28.711  1.00  0.00     0.039 A 
ATOM     29  C   UNL A   1      37.335  31.581  28.941  1.00  0.00     0.014 A 
ATOM     30  C   UNL A   1      36.448  29.338  28.970  1.00  0.00     0.014 A 
ATOM     31  C   UNL A   1      38.603  31.085  29.145  1.00  0.00     0.010 A 
ATOM     32  C   UNL A   1      37.709  28.838  29.253  1.00  0.00     0.010 A 
ATOM     33  C   UNL A   1      38.794  29.709  29.225  1.00  0.00    -0.014 A 
BRANCH  33  34
ATOM     34  C   UNL A   1      40.168  29.252  29.342  1.00  0.00     0.031 A 
ATOM     35  C   UNL A   1      40.634  29.097  30.751  1.00  0.00     0.074 A 
ATOM     36  C   UNL A   1      40.904  28.955  28.254  1.00  0.00     0.049 A 
ATOM     37  N   UNL A   1      41.616  29.685  31.355  1.00  0.00    -0.248 NA
ATOM     38  C   UNL A   1      39.772  28.305  31.648  1.00  0.00     0.031 C 
ATOM     39  C   UNL A   1      40.467  28.864  26.857  1.00  0.00     0.029 A 
ATOM     40  N   UNL A   1      42.200  28.560  28.186  1.00  0.00    -0.354 N 
ATOM     41  C   UNL A   1      41.620  29.177  32.653  1.00  0.00     0.074 A 
ATOM     42  C   UNL A   1      40.375  28.475  32.823  1.00  0.00     0.031 C 
ATOM     43  C   UNL A   1      41.401  28.198  26.140  1.00  0.00     0.029 A 
ATOM     44  C   UNL A   1      42.548  27.942  26.990  1.00  0.00     0.049 A 
ATOM     45  H   UNL A   1      42.841  28.700  28.921  1.00  0.00     0.167 HD
ATOM     46  C   UNL A   1      42.732  29.186  33.438  1.00  0.00     0.037 A 
ATOM     47  C   UNL A   1      43.655  27.181  26.789  1.00  0.00     0.037 A 
ATOM     48  C   UNL A   1      43.690  30.161  32.992  1.00  0.00     0.049 A 
ATOM     49  C   UNL A   1      44.621  27.533  27.868  1.00  0.00     0.074 A 
ATOM     50  C   UNL A   1      43.691  31.540  32.906  1.00  0.00     0.029 A 
ATOM     51  N   UNL A   1      44.729  29.740  32.200  1.00  0.00    -0.354 N 
ATOM     52  N   UNL A   1      45.189  28.704  27.977  1.00  0.00    -0.248 NA
ATOM     53  C   UNL A   1      44.577  26.748  29.093  1.00  0.00     0.031 C 
ATOM     54  C   UNL A   1      44.392  31.835  31.701  1.00  0.00     0.029 A 
ATOM     55  C   UNL A   1      44.829  30.628  31.156  1.00  0.00     0.049 A 
ATOM     56  H   UNL A   1      45.296  28.950  32.351  1.00  0.00     0.167 HD
ATOM     57  C   UNL A   1      45.209  28.972  29.340  1.00  0.00     0.074 A 
ATOM     58  C   UNL A   1      44.871  27.702  29.980  1.00  0.00     0.031 C 
ATOM     59  C   UNL A   1      45.220  30.253  29.815  1.00  0.00     0.037 A 
BRANCH  46  60
ATOM     60  C   UNL A   1      43.064  28.084  34.415  1.00  0.00     0.058 A 
ATOM     61  C   UNL A   1      43.207  28.370  35.786  1.00  0.00     0.135 A 
ATOM     62  C   UNL A   1      43.503  26.799  34.014  1.00  0.00     0.135 A 
ATOM     63  F   UNL A   1      42.844  29.567  36.276  1.00  0.00    -0.206 F 
ATOM     64  C   UNL A   1      43.786  27.467  36.682  1.00  0.00     0.059 A 
ATOM     65  C   UNL A   1      44.028  25.865  34.897  1.00  0.00     0.059 A 
ATOM     66  F   UNL A   1      43.529  26.422  32.729  1.00  0.00    -0.206 F 
ATOM     67  C   UNL A   1      44.203  26.219  36.222  1.00  0.00     0.060 A 
BRANCH  67  68
ATOM     68  S   UNL A   1      45.042  25.092  37.349  1.00  0.00     0.124 S 
ATOM     69  O   UNL A   1      44.747  23.800  36.744  1.00  0.00    -0.237 OA
ATOM     70  O   UNL A   1      46.424  25.545  37.256  1.00  0.00    -0.237 OA
ATOM     71  O   UNL A   1      44.388  25.353  38.633  1.00  0.00    -0.744 OA
ENDBRANCH  67  68
ENDBRANCH  46  60
BRANCH  47  72
ATOM     72  C   UNL A   1      43.731  25.897  26.038  1.00  0.00     0.058 A 
ATOM     73  C   UNL A   1      44.875  25.565  25.290  1.00  0.00     0.135 A 
ATOM     74  C   UNL A   1      42.819  24.847  26.272  1.00  0.00     0.135 A 
ATOM     75  F   UNL A   1      45.807  26.496  25.036  1.00  0.00    -0.206 F 
ATOM     76  C   UNL A   1      45.127  24.259  24.852  1.00  0.00     0.059 A 
ATOM     77  C   UNL A   1      43.043  23.542  25.837  1.00  0.00     0.059 A 
ATOM     78  F   UNL A   1      41.720  25.031  27.019  1.00  0.00    -0.206 F 
ATOM     79  C   UNL A   1      44.215  23.249  25.154  1.00  0.00     0.060 A 
BRANCH  79  80
ATOM     80  S   UNL A   1      44.628  21.531  24.764  1.00  0.00     0.124 S 
ATOM     81  O   UNL A   1      44.595  21.535  23.306  1.00  0.00    -0.237 OA
ATOM     82  O   UNL A   1      45.946  21.388  25.374  1.00  0.00    -0.237 OA
ATOM     83  O   UNL A   1      43.560  20.771  25.411  1.00  0.00    -0.744 OA
ENDBRANCH  79  80
ENDBRANCH  47  72
BRANCH  59  84
ATOM     84  C   UNL A   1      45.432  31.371  28.822  1.00  0.00     0.058 A 
ATOM     85  C   UNL A   1      46.697  31.805  28.378  1.00  0.00     0.135 A 
ATOM     86  C   UNL A   1      44.313  31.937  28.193  1.00  0.00     0.135 A 
ATOM     87  F   UNL A   1      47.819  31.234  28.837  1.00  0.00    -0.206 F 
ATOM     88  C   UNL A   1      46.841  32.796  27.405  1.00  0.00     0.059 A 
ATOM     89  C   UNL A   1      44.432  32.902  27.196  1.00  0.00     0.059 A 
ATOM     90  F   UNL A   1      43.079  31.516  28.516  1.00  0.00    -0.206 F 
ATOM     91  C   UNL A   1      45.700  33.341  26.820  1.00  0.00     0.060 A 
BRANCH  91  92
ATOM     92  S   UNL A   1      45.886  34.591  25.528  1.00  0.00     0.124 S 
ATOM     93  O   UNL A   1      45.000  34.089  24.485  1.00  0.00    -0.237 OA
ATOM     94  O   UNL A   1      45.446  35.809  26.202  1.00  0.00    -0.237 OA
ATOM     95  O   UNL A   1      47.312  34.544  25.212  1.00  0.00    -0.744 OA
ENDBRANCH  91  92
ENDBRANCH  59  84
ENDBRANCH  33  34
ENDBRANCH  25  28
ENDBRANCH  23  24
ENDBRANCH   1  23
TORSDOF 17
ENDMDL
