MODEL 1
REMARK VINA RESULT:     -11.5      0.000      0.000
REMARK SMILES CCn1cccc1C(=O)N(C)c1snc(C)c1C(=O)NCCCCNC(=O)c1ccc(-c2c3nc(c(-c4c(F)cc(S(=O)(=O)[O-])cc4F)c4ccc([nH]4)c(-c4c(F)cc(S(=O)(=O)[O-])cc4F)c4nc(c(-c5c(F)cc(S(=O)(=O)[O-])cc5F)c5ccc2[nH]5)C=C4)C=C3)cc1
REMARK SMILES IDX 22 1 21 2 20 3 18 4 19 5 17 7 12 8 13 9 14 10 15 11 16 12
REMARK SMILES IDX 10 13 11 14 8 15 9 16 7 17 3 18 4 19 5 20 6 21 2 22 1 23
REMARK SMILES IDX 23 24 24 25 25 26 26 27 27 29 28 30 29 31 93 32 30 33 92 34
REMARK SMILES IDX 31 35 32 36 33 37 86 38 34 39 91 40 85 41 87 42 35 43 90 44
REMARK SMILES IDX 84 45 83 46 36 48 70 49 49 50 69 51 50 52 53 53 68 54 88 55
REMARK SMILES IDX 51 56 52 57 67 59 89 60 54 61 37 62 38 63 47 64 39 65 40 66
REMARK SMILES IDX 46 67 48 68 41 69 42 70 43 71 44 72 45 73 71 74 72 75 81 76
REMARK SMILES IDX 73 77 74 78 80 79 82 80 75 81 76 82 77 83 78 84 79 85 55 86
REMARK SMILES IDX 56 87 65 88 57 89 58 90 64 91 66 92 59 93 60 94 61 95 62 96
REMARK SMILES IDX 63 97
REMARK H PARENT 20 6 25 28 87 47 53 58
REMARK Flexibility Score: inf
ROOT
ATOM      1  C   UNL A   1      37.036  21.714  24.303  1.00  0.00     0.023 C 
ENDROOT
BRANCH   1   2
ATOM      2  C   UNL A   1      36.652  22.826  25.272  1.00  0.00     0.116 C 
BRANCH   2   3
ATOM      3  N   UNL A   1      35.884  22.434  26.422  1.00  0.00    -0.352 N 
ATOM      4  C   UNL A   1      34.588  21.967  26.513  1.00  0.00     0.256 C 
ATOM      5  O   UNL A   1      34.280  21.511  27.618  1.00  0.00    -0.269 OA
ATOM      6  H   UNL A   1      36.357  22.512  27.282  1.00  0.00     0.163 HD
BRANCH   4   7
ATOM      7  C   UNL A   1      33.558  22.162  25.473  1.00  0.00     0.097 A 
ATOM      8  C   UNL A   1      32.813  23.291  25.077  1.00  0.00     0.131 A 
ATOM      9  S   UNL A   1      31.687  22.771  23.876  1.00  0.00    -0.017 S 
ATOM     10  N   UNL A   1      32.212  21.242  23.721  1.00  0.00    -0.195 NA
ATOM     11  C   UNL A   1      33.196  21.032  24.591  1.00  0.00     0.066 A 
ATOM     12  C   UNL A   1      33.777  19.651  24.567  1.00  0.00     0.069 C 
BRANCH   8  13
ATOM     13  N   UNL A   1      32.778  24.693  25.376  1.00  0.00    -0.300 N 
ATOM     14  C   UNL A   1      33.996  25.476  25.556  1.00  0.00     0.154 C 
BRANCH  13  15
ATOM     15  C   UNL A   1      31.540  25.232  25.765  1.00  0.00     0.275 C 
ATOM     16  O   UNL A   1      30.947  24.725  26.723  1.00  0.00    -0.267 OA
BRANCH  15  17
ATOM     17  C   UNL A   1      30.902  26.392  25.096  1.00  0.00     0.107 A 
ATOM     18  N   UNL A   1      31.109  27.777  25.054  1.00  0.00    -0.344 N 
ATOM     19  C   UNL A   1      30.328  28.321  24.046  1.00  0.00     0.086 A 
ATOM     20  C   UNL A   1      29.541  27.347  23.503  1.00  0.00     0.020 A 
ATOM     21  C   UNL A   1      29.911  26.152  24.134  1.00  0.00     0.033 A 
BRANCH  18  22
ATOM     22  C   UNL A   1      31.864  28.696  25.893  1.00  0.00     0.119 C 
ATOM     23  C   UNL A   1      31.722  28.567  27.392  1.00  0.00     0.027 C 
ENDBRANCH  18  22
ENDBRANCH  15  17
ENDBRANCH  13  15
ENDBRANCH   8  13
ENDBRANCH   4   7
ENDBRANCH   2   3
ENDBRANCH   1   2
BRANCH   1  24
ATOM     24  C   UNL A   1      37.678  20.456  24.897  1.00  0.00     0.023 C 
BRANCH  24  25
ATOM     25  C   UNL A   1      38.848  20.680  25.857  1.00  0.00     0.116 C 
BRANCH  25  26
ATOM     26  N   UNL A   1      39.763  19.551  25.932  1.00  0.00    -0.352 N 
ATOM     27  C   UNL A   1      41.140  19.568  26.050  1.00  0.00     0.251 C 
ATOM     28  H   UNL A   1      39.348  18.660  25.891  1.00  0.00     0.163 HD
ATOM     29  O   UNL A   1      41.772  18.545  25.824  1.00  0.00    -0.269 OA
BRANCH  27  30
ATOM     30  C   UNL A   1      41.854  20.815  26.423  1.00  0.00     0.039 A 
ATOM     31  C   UNL A   1      42.293  21.677  25.411  1.00  0.00     0.014 A 
ATOM     32  C   UNL A   1      42.149  21.106  27.757  1.00  0.00     0.014 A 
ATOM     33  C   UNL A   1      42.949  22.860  25.749  1.00  0.00     0.010 A 
ATOM     34  C   UNL A   1      42.814  22.274  28.101  1.00  0.00     0.010 A 
ATOM     35  C   UNL A   1      43.182  23.169  27.098  1.00  0.00    -0.014 A 
BRANCH  35  36
ATOM     36  C   UNL A   1      43.622  24.531  27.469  1.00  0.00     0.031 A 
ATOM     37  C   UNL A   1      42.410  25.430  27.773  1.00  0.00     0.074 A 
ATOM     38  C   UNL A   1      44.967  24.787  27.461  1.00  0.00     0.049 A 
ATOM     39  N   UNL A   1      42.224  26.680  27.489  1.00  0.00    -0.248 NA
ATOM     40  C   UNL A   1      41.173  24.835  28.355  1.00  0.00     0.031 C 
ATOM     41  C   UNL A   1      46.005  23.777  27.165  1.00  0.00     0.029 A 
ATOM     42  N   UNL A   1      45.744  25.908  27.694  1.00  0.00    -0.354 N 
ATOM     43  C   UNL A   1      40.972  27.067  28.025  1.00  0.00     0.074 A 
ATOM     44  C   UNL A   1      40.311  25.855  28.405  1.00  0.00     0.031 C 
ATOM     45  C   UNL A   1      47.235  24.335  27.150  1.00  0.00     0.029 A 
ATOM     46  C   UNL A   1      47.139  25.750  27.452  1.00  0.00     0.049 A 
ATOM     47  H   UNL A   1      45.359  26.758  28.006  1.00  0.00     0.167 HD
ATOM     48  C   UNL A   1      40.642  28.373  28.266  1.00  0.00     0.037 A 
ATOM     49  C   UNL A   1      48.135  26.696  27.447  1.00  0.00     0.037 A 
ATOM     50  C   UNL A   1      41.787  29.186  28.013  1.00  0.00     0.049 A 
ATOM     51  C   UNL A   1      47.504  27.934  27.931  1.00  0.00     0.074 A 
ATOM     52  C   UNL A   1      42.430  29.530  26.854  1.00  0.00     0.029 A 
ATOM     53  N   UNL A   1      42.623  29.394  29.087  1.00  0.00    -0.354 N 
ATOM     54  N   UNL A   1      47.130  28.151  29.156  1.00  0.00    -0.248 NA
ATOM     55  C   UNL A   1      47.181  28.983  26.954  1.00  0.00     0.031 C 
ATOM     56  C   UNL A   1      43.785  29.443  27.218  1.00  0.00     0.029 A 
ATOM     57  C   UNL A   1      43.906  29.341  28.610  1.00  0.00     0.049 A 
ATOM     58  H   UNL A   1      42.351  29.551  30.020  1.00  0.00     0.167 HD
ATOM     59  C   UNL A   1      46.233  29.180  29.006  1.00  0.00     0.074 A 
ATOM     60  C   UNL A   1      46.552  29.838  27.756  1.00  0.00     0.031 C 
ATOM     61  C   UNL A   1      44.985  29.036  29.524  1.00  0.00     0.037 A 
BRANCH  48  62
ATOM     62  C   UNL A   1      39.510  29.064  28.982  1.00  0.00     0.058 A 
ATOM     63  C   UNL A   1      38.650  29.879  28.198  1.00  0.00     0.135 A 
ATOM     64  C   UNL A   1      39.447  29.255  30.367  1.00  0.00     0.135 A 
ATOM     65  F   UNL A   1      38.582  29.722  26.865  1.00  0.00    -0.206 F 
ATOM     66  C   UNL A   1      37.908  30.923  28.735  1.00  0.00     0.059 A 
ATOM     67  C   UNL A   1      38.667  30.271  30.934  1.00  0.00     0.059 A 
ATOM     68  F   UNL A   1      40.196  28.520  31.199  1.00  0.00    -0.206 F 
ATOM     69  C   UNL A   1      37.952  31.136  30.105  1.00  0.00     0.060 A 
BRANCH  69  70
ATOM     70  S   UNL A   1      37.094  32.580  30.767  1.00  0.00     0.124 S 
ATOM     71  O   UNL A   1      37.709  33.665  30.012  1.00  0.00    -0.237 OA
ATOM     72  O   UNL A   1      35.701  32.291  30.437  1.00  0.00    -0.237 OA
ATOM     73  O   UNL A   1      37.412  32.536  32.191  1.00  0.00    -0.744 OA
ENDBRANCH  69  70
ENDBRANCH  48  62
BRANCH  49  74
ATOM     74  C   UNL A   1      49.573  26.831  26.964  1.00  0.00     0.058 A 
ATOM     75  C   UNL A   1      50.697  27.106  27.753  1.00  0.00     0.135 A 
ATOM     76  C   UNL A   1      49.893  26.511  25.609  1.00  0.00     0.135 A 
ATOM     77  F   UNL A   1      50.571  27.590  28.993  1.00  0.00    -0.206 F 
ATOM     78  C   UNL A   1      52.014  26.891  27.296  1.00  0.00     0.059 A 
ATOM     79  C   UNL A   1      51.178  26.232  25.151  1.00  0.00     0.059 A 
ATOM     80  F   UNL A   1      48.950  26.417  24.661  1.00  0.00    -0.206 F 
ATOM     81  C   UNL A   1      52.239  26.387  26.017  1.00  0.00     0.060 A 
BRANCH  81  82
ATOM     82  S   UNL A   1      53.876  25.812  25.518  1.00  0.00     0.124 S 
ATOM     83  O   UNL A   1      54.491  27.037  25.020  1.00  0.00    -0.237 OA
ATOM     84  O   UNL A   1      54.419  25.289  26.768  1.00  0.00    -0.237 OA
ATOM     85  O   UNL A   1      53.580  24.798  24.508  1.00  0.00    -0.744 OA
ENDBRANCH  81  82
ENDBRANCH  49  74
BRANCH  61  86
ATOM     86  C   UNL A   1      44.910  28.215  30.799  1.00  0.00     0.058 A 
ATOM     87  C   UNL A   1      45.559  28.674  31.961  1.00  0.00     0.135 A 
ATOM     88  C   UNL A   1      44.289  26.958  30.908  1.00  0.00     0.135 A 
ATOM     89  F   UNL A   1      46.170  29.870  31.958  1.00  0.00    -0.206 F 
ATOM     90  C   UNL A   1      45.593  27.936  33.148  1.00  0.00     0.059 A 
ATOM     91  C   UNL A   1      44.299  26.201  32.087  1.00  0.00     0.059 A 
ATOM     92  F   UNL A   1      43.656  26.425  29.863  1.00  0.00    -0.206 F 
ATOM     93  C   UNL A   1      44.954  26.699  33.206  1.00  0.00     0.060 A 
BRANCH  93  94
ATOM     94  S   UNL A   1      44.961  25.790  34.769  1.00  0.00     0.124 S 
ATOM     95  O   UNL A   1      45.559  26.752  35.689  1.00  0.00    -0.237 OA
ATOM     96  O   UNL A   1      43.539  25.524  34.972  1.00  0.00    -0.237 OA
ATOM     97  O   UNL A   1      45.778  24.615  34.480  1.00  0.00    -0.744 OA
ENDBRANCH  93  94
ENDBRANCH  61  86
ENDBRANCH  35  36
ENDBRANCH  27  30
ENDBRANCH  25  26
ENDBRANCH  24  25
ENDBRANCH   1  24
TORSDOF 18
ENDMDL
MODEL 2
REMARK VINA RESULT:     -11.3      5.130     11.115
REMARK SMILES CCn1cccc1C(=O)N(C)c1snc(C)c1C(=O)NCCCCNC(=O)c1ccc(-c2c3nc(c(-c4c(F)cc(S(=O)(=O)[O-])cc4F)c4ccc([nH]4)c(-c4c(F)cc(S(=O)(=O)[O-])cc4F)c4nc(c(-c5c(F)cc(S(=O)(=O)[O-])cc5F)c5ccc2[nH]5)C=C4)C=C3)cc1
REMARK SMILES IDX 22 1 21 2 20 3 18 4 19 5 17 7 12 8 13 9 14 10 15 11 16 12
REMARK SMILES IDX 10 13 11 14 8 15 9 16 7 17 3 18 4 19 5 20 6 21 2 22 1 23
REMARK SMILES IDX 23 24 24 25 25 26 26 27 27 29 28 30 29 31 93 32 30 33 92 34
REMARK SMILES IDX 31 35 32 36 33 37 86 38 34 39 91 40 85 41 87 42 35 43 90 44
REMARK SMILES IDX 84 45 83 46 36 48 70 49 49 50 69 51 50 52 53 53 68 54 88 55
REMARK SMILES IDX 51 56 52 57 67 59 89 60 54 61 37 62 38 63 47 64 39 65 40 66
REMARK SMILES IDX 46 67 48 68 41 69 42 70 43 71 44 72 45 73 71 74 72 75 81 76
REMARK SMILES IDX 73 77 74 78 80 79 82 80 75 81 76 82 77 83 78 84 79 85 55 86
REMARK SMILES IDX 56 87 65 88 57 89 58 90 64 91 66 92 59 93 60 94 61 95 62 96
REMARK SMILES IDX 63 97
REMARK H PARENT 20 6 25 28 87 47 53 58
REMARK Flexibility Score: inf
ROOT
ATOM      1  C   UNL A   1      31.524  30.379  26.105  1.00  0.00     0.023 C 
ENDROOT
BRANCH   1   2
ATOM      2  C   UNL A   1      32.935  29.840  25.902  1.00  0.00     0.116 C 
BRANCH   2   3
ATOM      3  N   UNL A   1      33.363  29.665  24.542  1.00  0.00    -0.352 N 
ATOM      4  C   UNL A   1      32.802  28.930  23.517  1.00  0.00     0.256 C 
ATOM      5  O   UNL A   1      33.283  29.149  22.401  1.00  0.00    -0.269 OA
ATOM      6  H   UNL A   1      34.189  30.144  24.303  1.00  0.00     0.163 HD
BRANCH   4   7
ATOM      7  C   UNL A   1      31.850  27.818  23.715  1.00  0.00     0.097 A 
ATOM      8  C   UNL A   1      32.027  26.480  24.120  1.00  0.00     0.131 A 
ATOM      9  S   UNL A   1      30.490  25.699  24.009  1.00  0.00    -0.017 S 
ATOM     10  N   UNL A   1      29.600  27.006  23.639  1.00  0.00    -0.195 NA
ATOM     11  C   UNL A   1      30.404  28.059  23.520  1.00  0.00     0.066 A 
ATOM     12  C   UNL A   1      29.716  29.343  23.170  1.00  0.00     0.069 C 
BRANCH   8  13
ATOM     13  N   UNL A   1      33.093  25.655  24.608  1.00  0.00    -0.300 N 
ATOM     14  C   UNL A   1      33.691  25.862  25.923  1.00  0.00     0.154 C 
BRANCH  13  15
ATOM     15  C   UNL A   1      33.734  24.821  23.676  1.00  0.00     0.275 C 
ATOM     16  O   UNL A   1      33.873  25.225  22.516  1.00  0.00    -0.267 OA
BRANCH  15  17
ATOM     17  C   UNL A   1      34.269  23.477  24.006  1.00  0.00     0.107 A 
ATOM     18  N   UNL A   1      35.472  22.961  24.502  1.00  0.00    -0.344 N 
ATOM     19  C   UNL A   1      35.289  21.627  24.833  1.00  0.00     0.086 A 
ATOM     20  C   UNL A   1      34.034  21.234  24.467  1.00  0.00     0.020 A 
ATOM     21  C   UNL A   1      33.396  22.381  23.978  1.00  0.00     0.033 A 
BRANCH  18  22
ATOM     22  C   UNL A   1      36.815  23.507  24.624  1.00  0.00     0.119 C 
ATOM     23  C   UNL A   1      37.665  23.047  25.786  1.00  0.00     0.027 C 
ENDBRANCH  18  22
ENDBRANCH  15  17
ENDBRANCH  13  15
ENDBRANCH   8  13
ENDBRANCH   4   7
ENDBRANCH   2   3
ENDBRANCH   1   2
BRANCH   1  24
ATOM     24  C   UNL A   1      31.383  31.866  26.445  1.00  0.00     0.023 C 
BRANCH  24  25
ATOM     25  C   UNL A   1      32.551  32.502  27.202  1.00  0.00     0.116 C 
BRANCH  25  26
ATOM     26  N   UNL A   1      32.367  33.921  27.469  1.00  0.00    -0.352 N 
ATOM     27  C   UNL A   1      32.985  34.702  28.427  1.00  0.00     0.251 C 
ATOM     28  H   UNL A   1      31.718  34.384  26.893  1.00  0.00     0.163 HD
ATOM     29  O   UNL A   1      32.519  35.801  28.695  1.00  0.00    -0.269 OA
BRANCH  27  30
ATOM     30  C   UNL A   1      34.187  34.210  29.147  1.00  0.00     0.039 A 
ATOM     31  C   UNL A   1      34.025  33.543  30.367  1.00  0.00     0.014 A 
ATOM     32  C   UNL A   1      35.472  34.461  28.659  1.00  0.00     0.014 A 
ATOM     33  C   UNL A   1      35.145  33.060  31.043  1.00  0.00     0.010 A 
ATOM     34  C   UNL A   1      36.592  33.997  29.333  1.00  0.00     0.010 A 
ATOM     35  C   UNL A   1      36.426  33.264  30.508  1.00  0.00    -0.014 A 
BRANCH  35  36
ATOM     36  C   UNL A   1      37.578  32.527  31.070  1.00  0.00     0.031 A 
ATOM     37  C   UNL A   1      37.895  31.285  30.218  1.00  0.00     0.074 A 
ATOM     38  C   UNL A   1      38.144  33.013  32.218  1.00  0.00     0.049 A 
ATOM     39  N   UNL A   1      38.269  30.104  30.596  1.00  0.00    -0.248 NA
ATOM     40  C   UNL A   1      37.637  31.307  28.749  1.00  0.00     0.031 C 
ATOM     41  C   UNL A   1      37.717  34.256  32.894  1.00  0.00     0.029 A 
ATOM     42  N   UNL A   1      39.170  32.596  33.047  1.00  0.00    -0.354 N 
ATOM     43  C   UNL A   1      38.487  29.322  29.436  1.00  0.00     0.074 A 
ATOM     44  C   UNL A   1      37.932  30.067  28.346  1.00  0.00     0.031 C 
ATOM     45  C   UNL A   1      38.400  34.441  34.044  1.00  0.00     0.029 A 
ATOM     46  C   UNL A   1      39.351  33.362  34.234  1.00  0.00     0.049 A 
ATOM     47  H   UNL A   1      39.737  31.821  32.832  1.00  0.00     0.167 HD
ATOM     48  C   UNL A   1      39.256  28.191  29.439  1.00  0.00     0.037 A 
ATOM     49  C   UNL A   1      40.168  33.122  35.311  1.00  0.00     0.037 A 
ATOM     50  C   UNL A   1      39.858  28.052  30.725  1.00  0.00     0.049 A 
ATOM     51  C   UNL A   1      40.995  31.967  34.926  1.00  0.00     0.074 A 
ATOM     52  C   UNL A   1      39.337  27.740  31.953  1.00  0.00     0.029 A 
ATOM     53  N   UNL A   1      41.083  28.661  30.882  1.00  0.00    -0.354 N 
ATOM     54  N   UNL A   1      41.950  31.993  34.046  1.00  0.00    -0.248 NA
ATOM     55  C   UNL A   1      40.675  30.653  35.503  1.00  0.00     0.031 C 
ATOM     56  C   UNL A   1      40.018  28.623  32.808  1.00  0.00     0.029 A 
ATOM     57  C   UNL A   1      41.098  29.211  32.135  1.00  0.00     0.049 A 
ATOM     58  H   UNL A   1      41.810  28.694  30.218  1.00  0.00     0.167 HD
ATOM     59  C   UNL A   1      42.082  30.664  33.723  1.00  0.00     0.074 A 
ATOM     60  C   UNL A   1      41.550  29.906  34.836  1.00  0.00     0.031 C 
ATOM     61  C   UNL A   1      42.006  30.301  32.415  1.00  0.00     0.037 A 
BRANCH  48  62
ATOM     62  C   UNL A   1      39.813  27.286  28.370  1.00  0.00     0.058 A 
ATOM     63  C   UNL A   1      39.652  25.887  28.556  1.00  0.00     0.135 A 
ATOM     64  C   UNL A   1      40.761  27.676  27.418  1.00  0.00     0.135 A 
ATOM     65  F   UNL A   1      38.715  25.409  29.394  1.00  0.00    -0.206 F 
ATOM     66  C   UNL A   1      40.488  24.948  27.965  1.00  0.00     0.059 A 
ATOM     67  C   UNL A   1      41.583  26.742  26.774  1.00  0.00     0.059 A 
ATOM     68  F   UNL A   1      40.973  28.970  27.145  1.00  0.00    -0.206 F 
ATOM     69  C   UNL A   1      41.479  25.390  27.101  1.00  0.00     0.060 A 
BRANCH  69  70
ATOM     70  S   UNL A   1      42.644  24.172  26.453  1.00  0.00     0.124 S 
ATOM     71  O   UNL A   1      43.769  24.318  27.369  1.00  0.00    -0.237 OA
ATOM     72  O   UNL A   1      41.889  22.927  26.575  1.00  0.00    -0.237 OA
ATOM     73  O   UNL A   1      42.874  24.622  25.084  1.00  0.00    -0.744 OA
ENDBRANCH  69  70
ENDBRANCH  48  62
BRANCH  49  74
ATOM     74  C   UNL A   1      40.329  33.601  36.748  1.00  0.00     0.058 A 
ATOM     75  C   UNL A   1      41.468  34.191  37.309  1.00  0.00     0.135 A 
ATOM     76  C   UNL A   1      39.194  33.612  37.615  1.00  0.00     0.135 A 
ATOM     77  F   UNL A   1      42.659  34.112  36.706  1.00  0.00    -0.206 F 
ATOM     78  C   UNL A   1      41.431  34.898  38.529  1.00  0.00     0.059 A 
ATOM     79  C   UNL A   1      39.113  34.354  38.791  1.00  0.00     0.059 A 
ATOM     80  F   UNL A   1      38.081  32.920  37.336  1.00  0.00    -0.206 F 
ATOM     81  C   UNL A   1      40.231  35.032  39.225  1.00  0.00     0.060 A 
BRANCH  81  82
ATOM     82  S   UNL A   1      40.084  36.179  40.612  1.00  0.00     0.124 S 
ATOM     83  O   UNL A   1      40.329  35.309  41.756  1.00  0.00    -0.237 OA
ATOM     84  O   UNL A   1      41.126  37.159  40.321  1.00  0.00    -0.237 OA
ATOM     85  O   UNL A   1      38.718  36.683  40.483  1.00  0.00    -0.744 OA
ENDBRANCH  81  82
ENDBRANCH  49  74
BRANCH  61  86
ATOM     86  C   UNL A   1      42.552  31.323  31.433  1.00  0.00     0.058 A 
ATOM     87  C   UNL A   1      43.923  31.642  31.451  1.00  0.00     0.135 A 
ATOM     88  C   UNL A   1      41.771  32.058  30.524  1.00  0.00     0.135 A 
ATOM     89  F   UNL A   1      44.752  30.985  32.279  1.00  0.00    -0.206 F 
ATOM     90  C   UNL A   1      44.480  32.624  30.627  1.00  0.00     0.059 A 
ATOM     91  C   UNL A   1      42.302  33.041  29.679  1.00  0.00     0.059 A 
ATOM     92  F   UNL A   1      40.458  31.843  30.434  1.00  0.00    -0.206 F 
ATOM     93  C   UNL A   1      43.662  33.318  29.737  1.00  0.00     0.060 A 
BRANCH  93  94
ATOM     94  S   UNL A   1      44.415  34.542  28.638  1.00  0.00     0.124 S 
ATOM     95  O   UNL A   1      45.096  35.428  29.577  1.00  0.00    -0.237 OA
ATOM     96  O   UNL A   1      45.285  33.713  27.809  1.00  0.00    -0.237 OA
ATOM     97  O   UNL A   1      43.272  35.130  27.945  1.00  0.00    -0.744 OA
ENDBRANCH  93  94
ENDBRANCH  61  86
ENDBRANCH  35  36
ENDBRANCH  27  30
ENDBRANCH  25  26
ENDBRANCH  24  25
ENDBRANCH   1  24
TORSDOF 18
ENDMDL
MODEL 3
REMARK VINA RESULT:     -11.3      3.733      7.712
REMARK SMILES CCn1cccc1C(=O)N(C)c1snc(C)c1C(=O)NCCCCNC(=O)c1ccc(-c2c3nc(c(-c4c(F)cc(S(=O)(=O)[O-])cc4F)c4ccc([nH]4)c(-c4c(F)cc(S(=O)(=O)[O-])cc4F)c4nc(c(-c5c(F)cc(S(=O)(=O)[O-])cc5F)c5ccc2[nH]5)C=C4)C=C3)cc1
REMARK SMILES IDX 22 1 21 2 20 3 18 4 19 5 17 7 12 8 13 9 14 10 15 11 16 12
REMARK SMILES IDX 10 13 11 14 8 15 9 16 7 17 3 18 4 19 5 20 6 21 2 22 1 23
REMARK SMILES IDX 23 24 24 25 25 26 26 27 27 29 28 30 29 31 93 32 30 33 92 34
REMARK SMILES IDX 31 35 32 36 33 37 86 38 34 39 91 40 85 41 87 42 35 43 90 44
REMARK SMILES IDX 84 45 83 46 36 48 70 49 49 50 69 51 50 52 53 53 68 54 88 55
REMARK SMILES IDX 51 56 52 57 67 59 89 60 54 61 37 62 38 63 47 64 39 65 40 66
REMARK SMILES IDX 46 67 48 68 41 69 42 70 43 71 44 72 45 73 71 74 72 75 81 76
REMARK SMILES IDX 73 77 74 78 80 79 82 80 75 81 76 82 77 83 78 84 79 85 55 86
REMARK SMILES IDX 56 87 65 88 57 89 58 90 64 91 66 92 59 93 60 94 61 95 62 96
REMARK SMILES IDX 63 97
REMARK H PARENT 20 6 25 28 87 47 53 58
REMARK Flexibility Score: inf
ROOT
ATOM      1  C   UNL A   1      32.372  28.941  27.168  1.00  0.00     0.023 C 
ENDROOT
BRANCH   1   2
ATOM      2  C   UNL A   1      33.543  28.090  26.689  1.00  0.00     0.116 C 
BRANCH   2   3
ATOM      3  N   UNL A   1      33.964  28.289  25.330  1.00  0.00    -0.352 N 
ATOM      4  C   UNL A   1      33.352  27.936  24.144  1.00  0.00     0.256 C 
ATOM      5  O   UNL A   1      33.857  28.434  23.134  1.00  0.00    -0.269 OA
ATOM      6  H   UNL A   1      34.828  28.750  25.228  1.00  0.00     0.163 HD
BRANCH   4   7
ATOM      7  C   UNL A   1      32.311  26.895  24.023  1.00  0.00     0.097 A 
ATOM      8  C   UNL A   1      32.328  25.506  24.260  1.00  0.00     0.131 A 
ATOM      9  S   UNL A   1      30.788  24.883  23.787  1.00  0.00    -0.017 S 
ATOM     10  N   UNL A   1      30.062  26.298  23.462  1.00  0.00    -0.195 NA
ATOM     11  C   UNL A   1      30.941  27.284  23.627  1.00  0.00     0.066 A 
ATOM     12  C   UNL A   1      30.408  28.657  23.352  1.00  0.00     0.069 C 
BRANCH   8  13
ATOM     13  N   UNL A   1      33.237  24.536  24.798  1.00  0.00    -0.300 N 
ATOM     14  C   UNL A   1      33.620  24.532  26.205  1.00  0.00     0.154 C 
BRANCH  13  15
ATOM     15  C   UNL A   1      33.963  23.762  23.876  1.00  0.00     0.275 C 
ATOM     16  O   UNL A   1      34.168  24.221  22.748  1.00  0.00    -0.267 OA
BRANCH  15  17
ATOM     17  C   UNL A   1      34.513  22.419  24.184  1.00  0.00     0.107 A 
ATOM     18  N   UNL A   1      35.744  21.902  24.609  1.00  0.00    -0.344 N 
ATOM     19  C   UNL A   1      35.578  20.572  24.962  1.00  0.00     0.086 A 
ATOM     20  C   UNL A   1      34.301  20.180  24.679  1.00  0.00     0.020 A 
ATOM     21  C   UNL A   1      33.636  21.326  24.221  1.00  0.00     0.033 A 
BRANCH  18  22
ATOM     22  C   UNL A   1      37.093  22.445  24.641  1.00  0.00     0.119 C 
ATOM     23  C   UNL A   1      37.353  23.648  25.517  1.00  0.00     0.027 C 
ENDBRANCH  18  22
ENDBRANCH  15  17
ENDBRANCH  13  15
ENDBRANCH   8  13
ENDBRANCH   4   7
ENDBRANCH   2   3
ENDBRANCH   1   2
BRANCH   1  24
ATOM     24  C   UNL A   1      32.556  30.462  27.144  1.00  0.00     0.023 C 
BRANCH  24  25
ATOM     25  C   UNL A   1      33.924  30.988  27.585  1.00  0.00     0.116 C 
BRANCH  25  26
ATOM     26  N   UNL A   1      33.853  31.950  28.675  1.00  0.00    -0.352 N 
ATOM     27  C   UNL A   1      34.704  32.091  29.754  1.00  0.00     0.251 C 
ATOM     28  H   UNL A   1      33.101  32.583  28.638  1.00  0.00     0.163 HD
ATOM     29  O   UNL A   1      34.349  32.763  30.712  1.00  0.00    -0.269 OA
BRANCH  27  30
ATOM     30  C   UNL A   1      36.026  31.415  29.770  1.00  0.00     0.039 A 
ATOM     31  C   UNL A   1      36.956  31.714  28.767  1.00  0.00     0.014 A 
ATOM     32  C   UNL A   1      36.327  30.443  30.728  1.00  0.00     0.014 A 
ATOM     33  C   UNL A   1      38.208  31.098  28.781  1.00  0.00     0.010 A 
ATOM     34  C   UNL A   1      37.564  29.816  30.740  1.00  0.00     0.010 A 
ATOM     35  C   UNL A   1      38.518  30.171  29.787  1.00  0.00    -0.014 A 
BRANCH  35  36
ATOM     36  C   UNL A   1      39.918  29.730  29.966  1.00  0.00     0.031 A 
ATOM     37  C   UNL A   1      40.748  30.825  30.660  1.00  0.00     0.074 A 
ATOM     38  C   UNL A   1      40.260  28.493  29.489  1.00  0.00     0.049 A 
ATOM     39  N   UNL A   1      41.972  31.188  30.443  1.00  0.00    -0.248 NA
ATOM     40  C   UNL A   1      40.097  31.738  31.643  1.00  0.00     0.031 C 
ATOM     41  C   UNL A   1      39.308  27.550  28.863  1.00  0.00     0.029 A 
ATOM     42  N   UNL A   1      41.436  27.767  29.424  1.00  0.00    -0.354 N 
ATOM     43  C   UNL A   1      42.298  32.203  31.375  1.00  0.00     0.074 A 
ATOM     44  C   UNL A   1      41.062  32.602  31.976  1.00  0.00     0.031 C 
ATOM     45  C   UNL A   1      39.943  26.445  28.416  1.00  0.00     0.029 A 
ATOM     46  C   UNL A   1      41.359  26.535  28.715  1.00  0.00     0.049 A 
ATOM     47  H   UNL A   1      42.271  28.082  29.840  1.00  0.00     0.167 HD
ATOM     48  C   UNL A   1      43.588  32.524  31.699  1.00  0.00     0.037 A 
ATOM     49  C   UNL A   1      42.366  25.673  28.352  1.00  0.00     0.037 A 
ATOM     50  C   UNL A   1      44.464  31.600  31.055  1.00  0.00     0.049 A 
ATOM     51  C   UNL A   1      43.578  26.187  29.010  1.00  0.00     0.074 A 
ATOM     52  C   UNL A   1      44.804  31.423  29.740  1.00  0.00     0.029 A 
ATOM     53  N   UNL A   1      44.764  30.462  31.769  1.00  0.00    -0.354 N 
ATOM     54  N   UNL A   1      43.816  26.130  30.286  1.00  0.00    -0.248 NA
ATOM     55  C   UNL A   1      44.568  26.903  28.193  1.00  0.00     0.031 C 
ATOM     56  C   UNL A   1      44.818  30.023  29.612  1.00  0.00     0.029 A 
ATOM     57  C   UNL A   1      44.776  29.422  30.878  1.00  0.00     0.049 A 
ATOM     58  H   UNL A   1      44.937  30.405  32.737  1.00  0.00     0.167 HD
ATOM     59  C   UNL A   1      44.780  27.096  30.444  1.00  0.00     0.074 A 
ATOM     60  C   UNL A   1      45.410  27.277  29.152  1.00  0.00     0.031 C 
ATOM     61  C   UNL A   1      44.575  28.075  31.364  1.00  0.00     0.037 A 
BRANCH  48  62
ATOM     62  C   UNL A   1      44.232  33.386  32.754  1.00  0.00     0.058 A 
ATOM     63  C   UNL A   1      43.961  33.061  34.110  1.00  0.00     0.135 A 
ATOM     64  C   UNL A   1      44.766  34.658  32.520  1.00  0.00     0.135 A 
ATOM     65  F   UNL A   1      43.516  31.838  34.448  1.00  0.00    -0.206 F 
ATOM     66  C   UNL A   1      44.054  33.990  35.140  1.00  0.00     0.059 A 
ATOM     67  C   UNL A   1      44.913  35.595  33.552  1.00  0.00     0.059 A 
ATOM     68  F   UNL A   1      45.082  35.056  31.281  1.00  0.00    -0.206 F 
ATOM     69  C   UNL A   1      44.497  35.270  34.843  1.00  0.00     0.060 A 
BRANCH  69  70
ATOM     70  S   UNL A   1      44.478  36.501  36.164  1.00  0.00     0.124 S 
ATOM     71  O   UNL A   1      43.789  35.785  37.230  1.00  0.00    -0.237 OA
ATOM     72  O   UNL A   1      45.902  36.743  36.383  1.00  0.00    -0.237 OA
ATOM     73  O   UNL A   1      43.747  37.618  35.571  1.00  0.00    -0.744 OA
ENDBRANCH  69  70
ENDBRANCH  48  62
BRANCH  49  74
ATOM     74  C   UNL A   1      42.575  24.504  27.399  1.00  0.00     0.058 A 
ATOM     75  C   UNL A   1      42.592  24.560  26.000  1.00  0.00     0.135 A 
ATOM     76  C   UNL A   1      42.942  23.227  27.923  1.00  0.00     0.135 A 
ATOM     77  F   UNL A   1      42.111  25.620  25.342  1.00  0.00    -0.206 F 
ATOM     78  C   UNL A   1      43.112  23.516  25.207  1.00  0.00     0.059 A 
ATOM     79  C   UNL A   1      43.516  22.205  27.171  1.00  0.00     0.059 A 
ATOM     80  F   UNL A   1      42.790  22.921  29.219  1.00  0.00    -0.206 F 
ATOM     81  C   UNL A   1      43.636  22.373  25.808  1.00  0.00     0.060 A 
BRANCH  81  82
ATOM     82  S   UNL A   1      44.581  21.169  24.851  1.00  0.00     0.124 S 
ATOM     83  O   UNL A   1      45.845  21.125  25.578  1.00  0.00    -0.237 OA
ATOM     84  O   UNL A   1      43.751  19.972  24.943  1.00  0.00    -0.237 OA
ATOM     85  O   UNL A   1      44.639  21.772  23.521  1.00  0.00    -0.744 OA
ENDBRANCH  81  82
ENDBRANCH  49  74
BRANCH  61  86
ATOM     86  C   UNL A   1      43.798  27.645  32.597  1.00  0.00     0.058 A 
ATOM     87  C   UNL A   1      44.337  26.664  33.450  1.00  0.00     0.135 A 
ATOM     88  C   UNL A   1      42.513  28.102  32.934  1.00  0.00     0.135 A 
ATOM     89  F   UNL A   1      45.565  26.174  33.216  1.00  0.00    -0.206 F 
ATOM     90  C   UNL A   1      43.646  26.169  34.560  1.00  0.00     0.059 A 
ATOM     91  C   UNL A   1      41.801  27.632  34.045  1.00  0.00     0.059 A 
ATOM     92  F   UNL A   1      41.906  29.023  32.185  1.00  0.00    -0.206 F 
ATOM     93  C   UNL A   1      42.378  26.662  34.856  1.00  0.00     0.060 A 
BRANCH  93  94
ATOM     94  S   UNL A   1      41.528  26.050  36.331  1.00  0.00     0.124 S 
ATOM     95  O   UNL A   1      42.592  25.337  37.032  1.00  0.00    -0.237 OA
ATOM     96  O   UNL A   1      41.080  27.289  36.960  1.00  0.00    -0.237 OA
ATOM     97  O   UNL A   1      40.465  25.207  35.790  1.00  0.00    -0.744 OA
ENDBRANCH  93  94
ENDBRANCH  61  86
ENDBRANCH  35  36
ENDBRANCH  27  30
ENDBRANCH  25  26
ENDBRANCH  24  25
ENDBRANCH   1  24
TORSDOF 18
ENDMDL
