MODEL 1
REMARK VINA RESULT:     -14.6      0.000      0.000
REMARK SMILES Cc1cc(/C=C2/C(=O)NC(=S)[NH+]=C2NCCCCNC(=O)c2ccc(-c3c4nc(c(-c5c(F)cc(S(=O)(=O)[O-])cc5F)c5ccc([nH]5)c(-c5c(F)cc(S(=O)(=O)[O-])cc5F)c5nc(c(-c6c(F)cc(S(=O)(=O)[O-])cc6F)c6ccc3[nH]6)C=C5)C=C4)cc2)c(C)n1-c1cccc(C(=O)[O-])c1
REMARK SMILES IDX 17 1 16 2 15 3 14 4 5 5 6 6 7 7 13 8 8 9 9 10 12 11 10 12
REMARK SMILES IDX 11 16 4 17 1 18 2 19 3 20 90 21 88 22 89 23 91 24 92 25
REMARK SMILES IDX 99 26 93 27 95 28 94 29 96 30 97 31 98 32 18 33 19 34 20 35
REMARK SMILES IDX 21 37 22 38 23 39 87 40 24 41 86 42 25 43 26 44 27 45 80 46
REMARK SMILES IDX 28 47 85 48 79 49 81 50 29 51 84 52 78 53 77 54 30 56 64 57
REMARK SMILES IDX 43 58 63 59 44 60 47 61 62 62 82 63 45 64 46 65 61 67 83 68
REMARK SMILES IDX 48 69 31 70 32 71 41 72 33 73 34 74 40 75 42 76 35 77 36 78
REMARK SMILES IDX 37 79 38 80 39 81 65 82 66 83 75 84 67 85 68 86 74 87 76 88
REMARK SMILES IDX 69 89 70 90 71 91 72 92 73 93 49 94 50 95 59 96 51 97 52 98
REMARK SMILES IDX 58 99 60 100 53 101 54 102 55 103 56 104 57 105
REMARK H PARENT 9 13 12 14 14 15 19 36 81 55 47 66
REMARK Flexibility Score: inf
ROOT
ATOM      1  C   UNL A   1      36.694  23.355  23.396  1.00  0.00     0.024 C 
ENDROOT
BRANCH   1   2
ATOM      2  C   UNL A   1      35.197  23.375  22.989  1.00  0.00     0.039 C 
BRANCH   2   3
ATOM      3  C   UNL A   1      34.192  24.253  23.688  1.00  0.00     0.194 C 
BRANCH   3   4
ATOM      4  N   UNL A   1      34.529  25.324  24.577  1.00  0.00    -0.305 N 
ATOM      5  C   UNL A   1      31.186  25.310  24.252  1.00  0.00     0.032 C 
ATOM      6  C   UNL A   1      32.078  26.213  24.746  1.00  0.00     0.128 C 
ATOM      7  C   UNL A   1      31.457  27.552  24.989  1.00  0.00     0.319 C 
ATOM      8  C   UNL A   1      33.562  26.158  25.128  1.00  0.00     0.234 C 
ATOM      9  O   UNL A   1      30.465  27.973  24.404  1.00  0.00    -0.250 OA
ATOM     10  N   UNL A   1      32.073  28.291  25.952  1.00  0.00    -0.229 N 
ATOM     11  N   UNL A   1      34.048  27.009  25.997  1.00  0.00    -0.236 N 
ATOM     12  C   UNL A   1      33.276  28.004  26.532  1.00  0.00     0.295 C 
ATOM     13  H   UNL A   1      31.612  29.106  26.258  1.00  0.00     0.268 HD
ATOM     14  H   UNL A   1      34.990  26.932  26.272  1.00  0.00     0.268 HD
ATOM     15  H   UNL A   1      35.475  25.473  24.805  1.00  0.00     0.256 HD
ATOM     16  S   UNL A   1      33.764  28.989  27.801  1.00  0.00    -0.005 S 
BRANCH   5  17
ATOM     17  C   UNL A   1      31.303  23.912  23.930  1.00  0.00    -0.003 A 
ATOM     18  C   UNL A   1      31.850  21.078  21.608  1.00  0.00     0.065 C 
ATOM     19  C   UNL A   1      31.702  22.019  22.754  1.00  0.00     0.020 A 
ATOM     20  C   UNL A   1      31.392  23.368  22.637  1.00  0.00     0.031 A 
ATOM     21  N   UNL A   1      31.860  21.718  24.121  1.00  0.00    -0.318 N 
ATOM     22  C   UNL A   1      31.319  22.840  24.812  1.00  0.00     0.027 A 
ATOM     23  C   UNL A   1      31.081  22.932  26.278  1.00  0.00     0.065 C 
BRANCH  21  24
ATOM     24  C   UNL A   1      32.742  20.699  24.728  1.00  0.00     0.046 A 
ATOM     25  C   UNL A   1      34.342  21.246  25.393  1.00  0.00     0.026 A 
ATOM     26  C   UNL A   1      32.537  18.973  24.227  1.00  0.00     0.036 A 
ATOM     27  C   UNL A   1      35.770  20.113  25.411  1.00  0.00     0.003 A 
ATOM     28  C   UNL A   1      33.908  17.789  24.402  1.00  0.00    -0.001 A 
ATOM     29  C   UNL A   1      35.532  18.346  24.962  1.00  0.00     0.010 A 
BRANCH  28  30
ATOM     30  C   UNL A   1      33.786  16.380  23.978  1.00  0.00     0.072 C 
ATOM     31  O   UNL A   1      33.553  15.433  24.705  1.00  0.00    -0.545 OA
ATOM     32  O   UNL A   1      34.094  16.206  22.680  1.00  0.00    -0.545 OA
ENDBRANCH  28  30
ENDBRANCH  21  24
ENDBRANCH   5  17
ENDBRANCH   3   4
ENDBRANCH   2   3
ENDBRANCH   1   2
BRANCH   1  33
ATOM     33  C   UNL A   1      37.372  21.970  24.138  1.00  0.00     0.116 C 
BRANCH  33  34
ATOM     34  N   UNL A   1      39.006  21.583  25.414  1.00  0.00    -0.352 N 
ATOM     35  C   UNL A   1      39.961  22.157  26.488  1.00  0.00     0.251 C 
ATOM     36  H   UNL A   1      39.272  20.648  25.264  1.00  0.00     0.163 HD
ATOM     37  O   UNL A   1      40.794  21.327  26.878  1.00  0.00    -0.269 OA
BRANCH  35  38
ATOM     38  C   UNL A   1      40.052  23.651  27.059  1.00  0.00     0.039 A 
ATOM     39  C   UNL A   1      38.981  24.507  26.851  1.00  0.00     0.014 A 
ATOM     40  C   UNL A   1      41.036  24.190  27.933  1.00  0.00     0.014 A 
ATOM     41  C   UNL A   1      38.794  25.692  27.657  1.00  0.00     0.010 A 
ATOM     42  C   UNL A   1      40.905  25.509  28.639  1.00  0.00     0.010 A 
ATOM     43  C   UNL A   1      39.746  26.314  28.567  1.00  0.00    -0.014 A 
BRANCH  43  44
ATOM     44  C   UNL A   1      39.521  27.989  28.857  1.00  0.00     0.031 A 
ATOM     45  C   UNL A   1      40.768  28.488  28.224  1.00  0.00     0.074 A 
ATOM     46  C   UNL A   1      38.853  29.025  29.560  1.00  0.00     0.049 A 
ATOM     47  N   UNL A   1      41.845  27.919  28.677  1.00  0.00    -0.248 NA
ATOM     48  C   UNL A   1      40.931  29.113  26.914  1.00  0.00     0.031 C 
ATOM     49  C   UNL A   1      37.819  28.924  30.611  1.00  0.00     0.029 A 
ATOM     50  N   UNL A   1      38.970  30.481  29.537  1.00  0.00    -0.354 N 
ATOM     51  C   UNL A   1      42.891  28.289  27.896  1.00  0.00     0.074 A 
ATOM     52  C   UNL A   1      42.243  28.883  26.724  1.00  0.00     0.031 C 
ATOM     53  C   UNL A   1      37.309  30.144  30.984  1.00  0.00     0.029 A 
ATOM     54  C   UNL A   1      37.974  31.257  30.294  1.00  0.00     0.049 A 
ATOM     55  H   UNL A   1      39.690  30.927  29.035  1.00  0.00     0.167 HD
ATOM     56  C   UNL A   1      43.950  28.691  28.654  1.00  0.00     0.037 A 
ATOM     57  C   UNL A   1      37.794  32.653  30.465  1.00  0.00     0.037 A 
ATOM     58  C   UNL A   1      43.894  30.120  28.836  1.00  0.00     0.049 A 
ATOM     59  C   UNL A   1      39.175  33.150  30.519  1.00  0.00     0.074 A 
ATOM     60  C   UNL A   1      43.597  31.147  27.960  1.00  0.00     0.029 A 
ATOM     61  N   UNL A   1      43.605  30.581  30.103  1.00  0.00    -0.354 N 
ATOM     62  N   UNL A   1      39.940  32.968  31.551  1.00  0.00    -0.248 NA
ATOM     63  C   UNL A   1      39.737  33.955  29.443  1.00  0.00     0.031 C 
ATOM     64  C   UNL A   1      42.645  31.923  28.653  1.00  0.00     0.029 A 
ATOM     65  C   UNL A   1      42.752  31.659  30.012  1.00  0.00     0.049 A 
ATOM     66  H   UNL A   1      43.953  30.200  30.941  1.00  0.00     0.167 HD
ATOM     67  C   UNL A   1      41.182  33.130  31.028  1.00  0.00     0.074 A 
ATOM     68  C   UNL A   1      41.002  33.984  29.865  1.00  0.00     0.031 C 
ATOM     69  C   UNL A   1      42.053  32.104  31.197  1.00  0.00     0.037 A 
BRANCH  56  70
ATOM     70  C   UNL A   1      44.252  27.675  29.758  1.00  0.00     0.058 A 
ATOM     71  C   UNL A   1      44.306  26.318  29.429  1.00  0.00     0.135 A 
ATOM     72  C   UNL A   1      44.279  27.992  31.143  1.00  0.00     0.135 A 
ATOM     73  F   UNL A   1      44.298  25.940  28.140  1.00  0.00    -0.206 F 
ATOM     74  C   UNL A   1      44.352  25.325  30.412  1.00  0.00     0.059 A 
ATOM     75  C   UNL A   1      44.258  27.018  32.140  1.00  0.00     0.059 A 
ATOM     76  F   UNL A   1      44.293  29.272  31.554  1.00  0.00    -0.206 F 
ATOM     77  C   UNL A   1      44.303  25.682  31.762  1.00  0.00     0.060 A 
BRANCH  77  78
ATOM     78  S   UNL A   1      44.281  24.376  33.011  1.00  0.00     0.124 S 
ATOM     79  O   UNL A   1      43.713  23.247  32.279  1.00  0.00    -0.237 OA
ATOM     80  O   UNL A   1      45.698  24.257  33.337  1.00  0.00    -0.237 OA
ATOM     81  O   UNL A   1      43.422  24.914  34.063  1.00  0.00    -0.744 OA
ENDBRANCH  77  78
ENDBRANCH  56  70
BRANCH  57  82
ATOM     82  C   UNL A   1      36.844  33.888  30.884  1.00  0.00     0.058 A 
ATOM     83  C   UNL A   1      35.819  34.403  29.993  1.00  0.00     0.135 A 
ATOM     84  C   UNL A   1      36.592  34.254  32.219  1.00  0.00     0.135 A 
ATOM     85  F   UNL A   1      35.907  34.243  28.665  1.00  0.00    -0.206 F 
ATOM     86  C   UNL A   1      34.615  35.033  30.397  1.00  0.00     0.059 A 
ATOM     87  C   UNL A   1      35.395  34.925  32.646  1.00  0.00     0.059 A 
ATOM     88  F   UNL A   1      37.461  33.905  33.177  1.00  0.00    -0.206 F 
ATOM     89  C   UNL A   1      34.381  35.250  31.739  1.00  0.00     0.060 A 
BRANCH  89  90
ATOM     90  S   UNL A   1      32.714  35.791  32.273  1.00  0.00     0.124 S 
ATOM     91  O   UNL A   1      32.134  34.572  32.827  1.00  0.00    -0.237 OA
ATOM     92  O   UNL A   1      33.018  36.838  33.246  1.00  0.00    -0.237 OA
ATOM     93  O   UNL A   1      32.100  36.267  31.036  1.00  0.00    -0.744 OA
ENDBRANCH  89  90
ENDBRANCH  57  82
BRANCH  69  94
ATOM     94  C   UNL A   1      42.131  31.450  32.570  1.00  0.00     0.058 A 
ATOM     95  C   UNL A   1      42.751  31.961  33.734  1.00  0.00     0.135 A 
ATOM     96  C   UNL A   1      41.582  30.160  32.694  1.00  0.00     0.135 A 
ATOM     97  F   UNL A   1      43.224  33.214  33.803  1.00  0.00    -0.206 F 
ATOM     98  C   UNL A   1      42.894  31.202  34.902  1.00  0.00     0.059 A 
ATOM     99  C   UNL A   1      41.655  29.411  33.867  1.00  0.00     0.059 A 
ATOM    100  F   UNL A   1      40.951  29.598  31.650  1.00  0.00    -0.206 F 
ATOM    101  C   UNL A   1      42.351  29.923  34.955  1.00  0.00     0.060 A 
BRANCH 101 102
ATOM    102  S   UNL A   1      42.561  28.936  36.452  1.00  0.00     0.124 S 
ATOM    103  O   UNL A   1      42.860  29.963  37.446  1.00  0.00    -0.237 OA
ATOM    104  O   UNL A   1      41.263  28.286  36.592  1.00  0.00    -0.237 OA
ATOM    105  O   UNL A   1      43.677  28.055  36.122  1.00  0.00    -0.744 OA
ENDBRANCH 101 102
ENDBRANCH  69  94
ENDBRANCH  43  44
ENDBRANCH  35  38
ENDBRANCH  33  34
ENDBRANCH   1  33
TORSDOF 16
ENDMDL
MODEL 2
REMARK VINA RESULT:     -14.3      7.000     12.545
REMARK SMILES Cc1cc(/C=C2/C(=O)NC(=S)[NH+]=C2NCCCCNC(=O)c2ccc(-c3c4nc(c(-c5c(F)cc(S(=O)(=O)[O-])cc5F)c5ccc([nH]5)c(-c5c(F)cc(S(=O)(=O)[O-])cc5F)c5nc(c(-c6c(F)cc(S(=O)(=O)[O-])cc6F)c6ccc3[nH]6)C=C5)C=C4)cc2)c(C)n1-c1cccc(C(=O)[O-])c1
REMARK SMILES IDX 17 1 16 2 15 3 14 4 5 5 6 6 7 7 13 8 8 9 9 10 12 11 10 12
REMARK SMILES IDX 11 16 4 17 1 18 2 19 3 20 90 21 88 22 89 23 91 24 92 25
REMARK SMILES IDX 99 26 93 27 95 28 94 29 96 30 97 31 98 32 18 33 19 34 20 35
REMARK SMILES IDX 21 37 22 38 23 39 87 40 24 41 86 42 25 43 26 44 27 45 80 46
REMARK SMILES IDX 28 47 85 48 79 49 81 50 29 51 84 52 78 53 77 54 30 56 64 57
REMARK SMILES IDX 43 58 63 59 44 60 47 61 62 62 82 63 45 64 46 65 61 67 83 68
REMARK SMILES IDX 48 69 31 70 32 71 41 72 33 73 34 74 40 75 42 76 35 77 36 78
REMARK SMILES IDX 37 79 38 80 39 81 65 82 66 83 75 84 67 85 68 86 74 87 76 88
REMARK SMILES IDX 69 89 70 90 71 91 72 92 73 93 49 94 50 95 59 96 51 97 52 98
REMARK SMILES IDX 58 99 60 100 53 101 54 102 55 103 56 104 57 105
REMARK H PARENT 9 13 12 14 14 15 19 36 81 55 47 66
REMARK Flexibility Score: inf
ROOT
ATOM      1  C   UNL A   1      46.185  23.875  39.381  1.00  0.00     0.024 C 
ENDROOT
BRANCH   1   2
ATOM      2  C   UNL A   1      45.333  22.736  40.001  1.00  0.00     0.039 C 
BRANCH   2   3
ATOM      3  C   UNL A   1      45.911  21.375  40.290  1.00  0.00     0.194 C 
BRANCH   3   4
ATOM      4  N   UNL A   1      45.620  20.602  41.460  1.00  0.00    -0.305 N 
ATOM      5  C   UNL A   1      46.694  18.472  39.096  1.00  0.00     0.032 C 
ATOM      6  C   UNL A   1      46.057  18.308  40.287  1.00  0.00     0.128 C 
ATOM      7  C   UNL A   1      45.541  16.915  40.471  1.00  0.00     0.319 C 
ATOM      8  C   UNL A   1      45.771  19.219  41.487  1.00  0.00     0.234 C 
ATOM      9  O   UNL A   1      45.264  16.152  39.552  1.00  0.00    -0.250 OA
ATOM     10  N   UNL A   1      45.415  16.529  41.770  1.00  0.00    -0.229 N 
ATOM     11  N   UNL A   1      45.560  18.699  42.671  1.00  0.00    -0.236 N 
ATOM     12  C   UNL A   1      45.519  17.346  42.860  1.00  0.00     0.295 C 
ATOM     13  H   UNL A   1      45.232  15.576  41.940  1.00  0.00     0.268 HD
ATOM     14  H   UNL A   1      45.428  19.296  43.442  1.00  0.00     0.268 HD
ATOM     15  H   UNL A   1      45.304  21.064  42.270  1.00  0.00     0.256 HD
ATOM     16  S   UNL A   1      45.468  16.612  44.369  1.00  0.00    -0.005 S 
BRANCH   5  17
ATOM     17  C   UNL A   1      47.391  19.590  38.517  1.00  0.00    -0.003 A 
ATOM     18  C   UNL A   1      50.000  22.220  38.490  1.00  0.00     0.065 C 
ATOM     19  C   UNL A   1      48.943  21.209  38.205  1.00  0.00     0.020 A 
ATOM     20  C   UNL A   1      48.367  20.374  39.155  1.00  0.00     0.031 A 
ATOM     21  N   UNL A   1      48.367  20.918  36.953  1.00  0.00    -0.318 N 
ATOM     22  C   UNL A   1      47.219  20.128  37.248  1.00  0.00     0.027 A 
ATOM     23  C   UNL A   1      46.167  19.720  36.279  1.00  0.00     0.065 C 
BRANCH  21  24
ATOM     24  C   UNL A   1      48.995  21.027  35.620  1.00  0.00     0.046 A 
ATOM     25  C   UNL A   1      50.197  19.751  35.138  1.00  0.00     0.026 A 
ATOM     26  C   UNL A   1      49.072  22.654  34.833  1.00  0.00     0.036 A 
ATOM     27  C   UNL A   1      51.559  20.151  33.994  1.00  0.00     0.003 A 
ATOM     28  C   UNL A   1      50.324  23.010  33.561  1.00  0.00    -0.001 A 
ATOM     29  C   UNL A   1      51.586  21.785  33.152  1.00  0.00     0.010 A 
BRANCH  28  30
ATOM     30  C   UNL A   1      50.433  24.334  32.918  1.00  0.00     0.072 C 
ATOM     31  O   UNL A   1      50.449  25.407  33.491  1.00  0.00    -0.545 OA
ATOM     32  O   UNL A   1      50.383  24.259  31.575  1.00  0.00    -0.545 OA
ENDBRANCH  28  30
ENDBRANCH  21  24
ENDBRANCH   5  17
ENDBRANCH   3   4
ENDBRANCH   2   3
ENDBRANCH   1   2
BRANCH   1  33
ATOM     33  C   UNL A   1      46.003  24.296  37.733  1.00  0.00     0.116 C 
BRANCH  33  34
ATOM     34  N   UNL A   1      45.726  23.246  35.925  1.00  0.00    -0.352 N 
ATOM     35  C   UNL A   1      45.234  23.321  34.459  1.00  0.00     0.251 C 
ATOM     36  H   UNL A   1      46.039  22.326  36.075  1.00  0.00     0.163 HD
ATOM     37  O   UNL A   1      45.353  22.242  33.861  1.00  0.00    -0.269 OA
BRANCH  35  38
ATOM     38  C   UNL A   1      44.541  24.543  33.690  1.00  0.00     0.039 A 
ATOM     39  C   UNL A   1      43.420  25.133  34.257  1.00  0.00     0.014 A 
ATOM     40  C   UNL A   1      45.031  25.250  32.558  1.00  0.00     0.014 A 
ATOM     41  C   UNL A   1      42.989  26.458  33.872  1.00  0.00     0.010 A 
ATOM     42  C   UNL A   1      44.464  26.550  32.065  1.00  0.00     0.010 A 
ATOM     43  C   UNL A   1      43.431  27.246  32.730  1.00  0.00    -0.014 A 
BRANCH  43  44
ATOM     44  C   UNL A   1      42.326  28.428  32.164  1.00  0.00     0.031 A 
ATOM     45  C   UNL A   1      43.290  29.533  31.928  1.00  0.00     0.074 A 
ATOM     46  C   UNL A   1      40.987  28.881  32.032  1.00  0.00     0.049 A 
ATOM     47  N   UNL A   1      44.023  29.813  32.965  1.00  0.00    -0.248 NA
ATOM     48  C   UNL A   1      43.854  29.986  30.659  1.00  0.00     0.031 C 
ATOM     49  C   UNL A   1      39.739  28.260  32.524  1.00  0.00     0.029 A 
ATOM     50  N   UNL A   1      40.393  30.077  31.441  1.00  0.00    -0.354 N 
ATOM     51  C   UNL A   1      44.998  30.676  32.584  1.00  0.00     0.074 A 
ATOM     52  C   UNL A   1      44.953  30.612  31.120  1.00  0.00     0.031 C 
ATOM     53  C   UNL A   1      38.609  28.921  32.107  1.00  0.00     0.029 A 
ATOM     54  C   UNL A   1      38.926  30.129  31.334  1.00  0.00     0.049 A 
ATOM     55  H   UNL A   1      40.954  30.823  31.125  1.00  0.00     0.167 HD
ATOM     56  C   UNL A   1      45.088  31.727  33.447  1.00  0.00     0.037 A 
ATOM     57  C   UNL A   1      38.050  31.112  30.808  1.00  0.00     0.037 A 
ATOM     58  C   UNL A   1      44.273  32.814  32.966  1.00  0.00     0.049 A 
ATOM     59  C   UNL A   1      38.713  32.367  31.186  1.00  0.00     0.074 A 
ATOM     60  C   UNL A   1      44.091  33.334  31.697  1.00  0.00     0.029 A 
ATOM     61  N   UNL A   1      43.138  33.116  33.686  1.00  0.00    -0.354 N 
ATOM     62  N   UNL A   1      38.723  32.809  32.405  1.00  0.00    -0.248 NA
ATOM     63  C   UNL A   1      39.327  33.233  30.188  1.00  0.00     0.031 C 
ATOM     64  C   UNL A   1      42.689  33.406  31.556  1.00  0.00     0.029 A 
ATOM     65  C   UNL A   1      42.108  33.405  32.817  1.00  0.00     0.049 A 
ATOM     66  H   UNL A   1      43.072  33.124  34.668  1.00  0.00     0.167 HD
ATOM     67  C   UNL A   1      39.780  33.660  32.400  1.00  0.00     0.074 A 
ATOM     68  C   UNL A   1      39.922  34.091  31.019  1.00  0.00     0.031 C 
ATOM     69  C   UNL A   1      40.752  33.430  33.318  1.00  0.00     0.037 A 
BRANCH  56  70
ATOM     70  C   UNL A   1      45.138  31.241  34.898  1.00  0.00     0.058 A 
ATOM     71  C   UNL A   1      46.382  31.117  35.524  1.00  0.00     0.135 A 
ATOM     72  C   UNL A   1      44.021  30.706  35.595  1.00  0.00     0.135 A 
ATOM     73  F   UNL A   1      47.482  31.610  34.933  1.00  0.00    -0.206 F 
ATOM     74  C   UNL A   1      46.521  30.474  36.757  1.00  0.00     0.059 A 
ATOM     75  C   UNL A   1      44.147  30.003  36.792  1.00  0.00     0.059 A 
ATOM     76  F   UNL A   1      42.778  30.833  35.100  1.00  0.00    -0.206 F 
ATOM     77  C   UNL A   1      45.405  29.899  37.371  1.00  0.00     0.060 A 
BRANCH  77  78
ATOM     78  S   UNL A   1      45.627  29.000  38.923  1.00  0.00     0.124 S 
ATOM     79  O   UNL A   1      47.079  28.863  39.006  1.00  0.00    -0.237 OA
ATOM     80  O   UNL A   1      45.034  29.924  39.884  1.00  0.00    -0.237 OA
ATOM     81  O   UNL A   1      44.908  27.748  38.708  1.00  0.00    -0.744 OA
ENDBRANCH  77  78
ENDBRANCH  56  70
BRANCH  57  82
ATOM     82  C   UNL A   1      36.590  31.513  30.249  1.00  0.00     0.058 A 
ATOM     83  C   UNL A   1      35.592  32.144  31.095  1.00  0.00     0.135 A 
ATOM     84  C   UNL A   1      36.314  31.727  28.887  1.00  0.00     0.135 A 
ATOM     85  F   UNL A   1      35.615  31.996  32.428  1.00  0.00    -0.206 F 
ATOM     86  C   UNL A   1      34.570  33.021  30.653  1.00  0.00     0.059 A 
ATOM     87  C   UNL A   1      35.260  32.583  28.415  1.00  0.00     0.059 A 
ATOM     88  F   UNL A   1      37.105  31.177  27.957  1.00  0.00    -0.206 F 
ATOM     89  C   UNL A   1      34.436  33.279  29.304  1.00  0.00     0.060 A 
BRANCH  89  90
ATOM     90  S   UNL A   1      33.316  34.625  28.766  1.00  0.00     0.124 S 
ATOM     91  O   UNL A   1      32.600  34.967  29.991  1.00  0.00    -0.237 OA
ATOM     92  O   UNL A   1      34.251  35.640  28.284  1.00  0.00    -0.237 OA
ATOM     93  O   UNL A   1      32.507  33.998  27.725  1.00  0.00    -0.744 OA
ENDBRANCH  89  90
ENDBRANCH  57  82
BRANCH  69  94
ATOM     94  C   UNL A   1      40.328  33.111  34.745  1.00  0.00     0.058 A 
ATOM     95  C   UNL A   1      39.878  31.869  35.253  1.00  0.00     0.135 A 
ATOM     96  C   UNL A   1      40.317  34.179  35.662  1.00  0.00     0.135 A 
ATOM     97  F   UNL A   1      39.931  30.739  34.533  1.00  0.00    -0.206 F 
ATOM     98  C   UNL A   1      39.367  31.731  36.549  1.00  0.00     0.059 A 
ATOM     99  C   UNL A   1      39.873  34.050  36.976  1.00  0.00     0.059 A 
ATOM    100  F   UNL A   1      40.748  35.392  35.280  1.00  0.00    -0.206 F 
ATOM    101  C   UNL A   1      39.359  32.831  37.400  1.00  0.00     0.060 A 
BRANCH 101 102
ATOM    102  S   UNL A   1      38.675  32.656  39.061  1.00  0.00     0.124 S 
ATOM    103  O   UNL A   1      38.117  33.986  39.296  1.00  0.00    -0.237 OA
ATOM    104  O   UNL A   1      37.698  31.587  38.895  1.00  0.00    -0.237 OA
ATOM    105  O   UNL A   1      39.842  32.326  39.874  1.00  0.00    -0.744 OA
ENDBRANCH 101 102
ENDBRANCH  69  94
ENDBRANCH  43  44
ENDBRANCH  35  38
ENDBRANCH  33  34
ENDBRANCH   1  33
TORSDOF 16
ENDMDL
MODEL 3
REMARK VINA RESULT:     -14.2      7.150     13.951
REMARK SMILES Cc1cc(/C=C2/C(=O)NC(=S)[NH+]=C2NCCCCNC(=O)c2ccc(-c3c4nc(c(-c5c(F)cc(S(=O)(=O)[O-])cc5F)c5ccc([nH]5)c(-c5c(F)cc(S(=O)(=O)[O-])cc5F)c5nc(c(-c6c(F)cc(S(=O)(=O)[O-])cc6F)c6ccc3[nH]6)C=C5)C=C4)cc2)c(C)n1-c1cccc(C(=O)[O-])c1
REMARK SMILES IDX 17 1 16 2 15 3 14 4 5 5 6 6 7 7 13 8 8 9 9 10 12 11 10 12
REMARK SMILES IDX 11 16 4 17 1 18 2 19 3 20 90 21 88 22 89 23 91 24 92 25
REMARK SMILES IDX 99 26 93 27 95 28 94 29 96 30 97 31 98 32 18 33 19 34 20 35
REMARK SMILES IDX 21 37 22 38 23 39 87 40 24 41 86 42 25 43 26 44 27 45 80 46
REMARK SMILES IDX 28 47 85 48 79 49 81 50 29 51 84 52 78 53 77 54 30 56 64 57
REMARK SMILES IDX 43 58 63 59 44 60 47 61 62 62 82 63 45 64 46 65 61 67 83 68
REMARK SMILES IDX 48 69 31 70 32 71 41 72 33 73 34 74 40 75 42 76 35 77 36 78
REMARK SMILES IDX 37 79 38 80 39 81 65 82 66 83 75 84 67 85 68 86 74 87 76 88
REMARK SMILES IDX 69 89 70 90 71 91 72 92 73 93 49 94 50 95 59 96 51 97 52 98
REMARK SMILES IDX 58 99 60 100 53 101 54 102 55 103 56 104 57 105
REMARK H PARENT 9 13 12 14 14 15 19 36 81 55 47 66
REMARK Flexibility Score: inf
ROOT
ATOM      1  C   UNL A   1      48.285  39.831  27.172  1.00  0.00     0.024 C 
ENDROOT
BRANCH   1   2
ATOM      2  C   UNL A   1      47.531  40.694  26.125  1.00  0.00     0.039 C 
BRANCH   2   3
ATOM      3  C   UNL A   1      46.137  40.355  25.666  1.00  0.00     0.194 C 
BRANCH   3   4
ATOM      4  N   UNL A   1      45.473  39.115  25.934  1.00  0.00    -0.305 N 
ATOM      5  C   UNL A   1      43.544  41.569  27.174  1.00  0.00     0.032 C 
ATOM      6  C   UNL A   1      43.565  40.218  27.338  1.00  0.00     0.128 C 
ATOM      7  C   UNL A   1      42.691  39.767  28.466  1.00  0.00     0.319 C 
ATOM      8  C   UNL A   1      44.262  39.058  26.616  1.00  0.00     0.234 C 
ATOM      9  O   UNL A   1      42.382  40.466  29.425  1.00  0.00    -0.250 OA
ATOM     10  N   UNL A   1      42.228  38.493  28.344  1.00  0.00    -0.229 N 
ATOM     11  N   UNL A   1      43.757  37.851  26.673  1.00  0.00    -0.236 N 
ATOM     12  C   UNL A   1      42.649  37.574  27.425  1.00  0.00     0.295 C 
ATOM     13  H   UNL A   1      41.527  38.208  28.975  1.00  0.00     0.268 HD
ATOM     14  H   UNL A   1      44.185  37.125  26.164  1.00  0.00     0.268 HD
ATOM     15  H   UNL A   1      45.888  38.276  25.627  1.00  0.00     0.256 HD
ATOM     16  S   UNL A   1      41.825  36.112  27.378  1.00  0.00    -0.005 S 
BRANCH   5  17
ATOM     17  C   UNL A   1      44.161  42.435  26.204  1.00  0.00    -0.003 A 
ATOM     18  C   UNL A   1      46.758  44.817  25.061  1.00  0.00     0.065 C 
ATOM     19  C   UNL A   1      45.666  43.817  25.228  1.00  0.00     0.020 A 
ATOM     20  C   UNL A   1      45.221  43.325  26.449  1.00  0.00     0.031 A 
ATOM     21  N   UNL A   1      44.921  43.200  24.204  1.00  0.00    -0.318 N 
ATOM     22  C   UNL A   1      43.819  42.586  24.867  1.00  0.00     0.027 A 
ATOM     23  C   UNL A   1      42.641  41.961  24.207  1.00  0.00     0.065 C 
BRANCH  21  24
ATOM     24  C   UNL A   1      45.360  42.884  22.829  1.00  0.00     0.046 A 
ATOM     25  C   UNL A   1      46.970  42.068  22.615  1.00  0.00     0.026 A 
ATOM     26  C   UNL A   1      44.668  43.845  21.461  1.00  0.00     0.036 A 
ATOM     27  C   UNL A   1      47.949  42.342  21.102  1.00  0.00     0.003 A 
ATOM     28  C   UNL A   1      45.561  43.983  19.881  1.00  0.00    -0.001 A 
ATOM     29  C   UNL A   1      47.207  43.265  19.696  1.00  0.00     0.010 A 
BRANCH  28  30
ATOM     30  C   UNL A   1      45.040  44.781  18.754  1.00  0.00     0.072 C 
ATOM     31  O   UNL A   1      45.304  45.945  18.520  1.00  0.00    -0.545 OA
ATOM     32  O   UNL A   1      44.105  44.120  18.046  1.00  0.00    -0.545 OA
ENDBRANCH  28  30
ENDBRANCH  21  24
ENDBRANCH   5  17
ENDBRANCH   3   4
ENDBRANCH   2   3
ENDBRANCH   1   2
BRANCH   1  33
ATOM     33  C   UNL A   1      48.987  38.338  26.721  1.00  0.00     0.116 C 
BRANCH  33  34
ATOM     34  N   UNL A   1      48.271  36.461  26.077  1.00  0.00    -0.352 N 
ATOM     35  C   UNL A   1      47.223  35.343  26.293  1.00  0.00     0.251 C 
ATOM     36  H   UNL A   1      48.842  36.178  25.328  1.00  0.00     0.163 HD
ATOM     37  O   UNL A   1      47.357  34.404  25.497  1.00  0.00    -0.269 OA
BRANCH  35  38
ATOM     38  C   UNL A   1      46.097  35.224  27.426  1.00  0.00     0.039 A 
ATOM     39  C   UNL A   1      45.147  34.220  27.314  1.00  0.00     0.014 A 
ATOM     40  C   UNL A   1      46.034  35.916  28.667  1.00  0.00     0.014 A 
ATOM     41  C   UNL A   1      44.375  33.781  28.455  1.00  0.00     0.010 A 
ATOM     42  C   UNL A   1      45.104  35.553  29.789  1.00  0.00     0.010 A 
ATOM     43  C   UNL A   1      44.249  34.430  29.753  1.00  0.00    -0.014 A 
BRANCH  43  44
ATOM     44  C   UNL A   1      42.819  34.076  30.631  1.00  0.00     0.031 A 
ATOM     45  C   UNL A   1      43.442  33.399  31.797  1.00  0.00     0.074 A 
ATOM     46  C   UNL A   1      41.406  33.944  30.657  1.00  0.00     0.049 A 
ATOM     47  N   UNL A   1      44.229  32.417  31.469  1.00  0.00    -0.248 NA
ATOM     48  C   UNL A   1      43.687  33.939  33.132  1.00  0.00     0.031 C 
ATOM     49  C   UNL A   1      40.432  34.120  29.559  1.00  0.00     0.029 A 
ATOM     50  N   UNL A   1      40.460  33.563  31.702  1.00  0.00    -0.354 N 
ATOM     51  C   UNL A   1      44.899  32.012  32.577  1.00  0.00     0.074 A 
ATOM     52  C   UNL A   1      44.656  33.096  33.533  1.00  0.00     0.031 C 
ATOM     53  C   UNL A   1      39.127  34.028  29.979  1.00  0.00     0.029 A 
ATOM     54  C   UNL A   1      39.025  33.705  31.408  1.00  0.00     0.049 A 
ATOM     55  H   UNL A   1      40.771  33.222  32.573  1.00  0.00     0.167 HD
ATOM     56  C   UNL A   1      44.856  30.656  32.707  1.00  0.00     0.037 A 
ATOM     57  C   UNL A   1      37.869  33.446  32.187  1.00  0.00     0.037 A 
ATOM     58  C   UNL A   1      43.741  30.289  33.542  1.00  0.00     0.049 A 
ATOM     59  C   UNL A   1      38.256  32.250  32.947  1.00  0.00     0.074 A 
ATOM     60  C   UNL A   1      43.254  30.834  34.717  1.00  0.00     0.029 A 
ATOM     61  N   UNL A   1      42.684  29.646  32.934  1.00  0.00    -0.354 N 
ATOM     62  N   UNL A   1      38.338  31.076  32.402  1.00  0.00    -0.248 NA
ATOM     63  C   UNL A   1      38.488  32.304  34.384  1.00  0.00     0.031 C 
ATOM     64  C   UNL A   1      41.872  30.980  34.478  1.00  0.00     0.029 A 
ATOM     65  C   UNL A   1      41.500  30.129  33.446  1.00  0.00     0.049 A 
ATOM     66  H   UNL A   1      42.764  28.950  32.243  1.00  0.00     0.167 HD
ATOM     67  C   UNL A   1      39.144  30.407  33.265  1.00  0.00     0.074 A 
ATOM     68  C   UNL A   1      38.973  31.072  34.547  1.00  0.00     0.031 C 
ATOM     69  C   UNL A   1      40.267  29.852  32.744  1.00  0.00     0.037 A 
BRANCH  56  70
ATOM     70  C   UNL A   1      45.235  29.967  31.393  1.00  0.00     0.058 A 
ATOM     71  C   UNL A   1      46.255  30.519  30.612  1.00  0.00     0.135 A 
ATOM     72  C   UNL A   1      44.482  28.917  30.802  1.00  0.00     0.135 A 
ATOM     73  F   UNL A   1      47.018  31.507  31.107  1.00  0.00    -0.206 F 
ATOM     74  C   UNL A   1      46.499  30.080  29.308  1.00  0.00     0.059 A 
ATOM     75  C   UNL A   1      44.665  28.510  29.481  1.00  0.00     0.059 A 
ATOM     76  F   UNL A   1      43.522  28.284  31.498  1.00  0.00    -0.206 F 
ATOM     77  C   UNL A   1      45.686  29.094  28.742  1.00  0.00     0.060 A 
BRANCH  77  78
ATOM     78  S   UNL A   1      45.970  28.604  27.027  1.00  0.00     0.124 S 
ATOM     79  O   UNL A   1      47.371  28.190  27.043  1.00  0.00    -0.237 OA
ATOM     80  O   UNL A   1      45.004  27.523  26.866  1.00  0.00    -0.237 OA
ATOM     81  O   UNL A   1      45.703  29.822  26.267  1.00  0.00    -0.744 OA
ENDBRANCH  77  78
ENDBRANCH  56  70
BRANCH  57  82
ATOM     82  C   UNL A   1      36.290  33.661  32.441  1.00  0.00     0.058 A 
ATOM     83  C   UNL A   1      35.794  34.528  33.495  1.00  0.00     0.135 A 
ATOM     84  C   UNL A   1      35.310  33.443  31.456  1.00  0.00     0.135 A 
ATOM     85  F   UNL A   1      36.536  34.801  34.578  1.00  0.00    -0.206 F 
ATOM     86  C   UNL A   1      34.563  35.230  33.476  1.00  0.00     0.059 A 
ATOM     87  C   UNL A   1      34.040  34.115  31.436  1.00  0.00     0.059 A 
ATOM     88  F   UNL A   1      35.575  32.627  30.427  1.00  0.00    -0.206 F 
ATOM     89  C   UNL A   1      33.701  35.058  32.412  1.00  0.00     0.060 A 
BRANCH  89  90
ATOM     90  S   UNL A   1      32.260  36.176  32.248  1.00  0.00     0.124 S 
ATOM     91  O   UNL A   1      31.135  35.319  32.606  1.00  0.00    -0.237 OA
ATOM     92  O   UNL A   1      32.570  37.234  33.207  1.00  0.00    -0.237 OA
ATOM     93  O   UNL A   1      32.309  36.589  30.848  1.00  0.00    -0.744 OA
ENDBRANCH  89  90
ENDBRANCH  57  82
BRANCH  69  94
ATOM     94  C   UNL A   1      40.146  29.096  31.427  1.00  0.00     0.058 A 
ATOM     95  C   UNL A   1      39.474  27.873  31.194  1.00  0.00     0.135 A 
ATOM     96  C   UNL A   1      40.830  29.631  30.320  1.00  0.00     0.135 A 
ATOM     97  F   UNL A   1      38.693  27.297  32.120  1.00  0.00    -0.206 F 
ATOM     98  C   UNL A   1      39.560  27.192  29.974  1.00  0.00     0.059 A 
ATOM     99  C   UNL A   1      40.876  29.002  29.077  1.00  0.00     0.059 A 
ATOM    100  F   UNL A   1      41.479  30.801  30.435  1.00  0.00    -0.206 F 
ATOM    101  C   UNL A   1      40.273  27.760  28.924  1.00  0.00     0.060 A 
BRANCH 101 102
ATOM    102  S   UNL A   1      40.404  26.867  27.361  1.00  0.00     0.124 S 
ATOM    103  O   UNL A   1      41.648  26.124  27.545  1.00  0.00    -0.237 OA
ATOM    104  O   UNL A   1      39.189  26.062  27.348  1.00  0.00    -0.237 OA
ATOM    105  O   UNL A   1      40.466  27.934  26.367  1.00  0.00    -0.744 OA
ENDBRANCH 101 102
ENDBRANCH  69  94
ENDBRANCH  43  44
ENDBRANCH  35  38
ENDBRANCH  33  34
ENDBRANCH   1  33
TORSDOF 16
ENDMDL
