MODEL 1
REMARK VINA RESULT:     -12.2      0.000      0.000
REMARK SMILES Cc1cc(O[C@@H]2C[C@H](C)C[C@H](C)C2)cc(C(=O)NCCCCNC(=O)c2ccc(-c3c4nc(c(-c5c(F)cc(S(=O)(=O)[O-])cc5F)c5ccc([nH]5)c(-c5c(F)cc(S(=O)(=O)[O-])cc5F)c5nc(c(-c6c(F)cc(S(=O)(=O)[O-])cc6F)c6ccc3[nH]6)C=C5)C=C4)cc2)c1N
REMARK SMILES IDX 21 1 20 2 19 3 18 4 16 5 17 6 15 8 1 9 2 10 3 11 92 12 4 13
REMARK SMILES IDX 14 14 93 15 5 18 6 19 13 20 7 21 11 22 8 23 12 24 10 25 9 26
REMARK SMILES IDX 22 27 23 28 24 29 25 31 26 32 27 33 91 34 28 35 90 36 29 37
REMARK SMILES IDX 30 38 31 39 84 40 32 41 89 42 83 43 85 44 33 45 88 46 82 47
REMARK SMILES IDX 81 48 34 50 68 51 47 52 67 53 48 54 51 55 66 56 86 57 49 58
REMARK SMILES IDX 50 59 65 61 87 62 52 63 35 64 36 65 45 66 37 67 38 68 44 69
REMARK SMILES IDX 46 70 39 71 40 72 41 73 42 74 43 75 69 76 70 77 79 78 71 79
REMARK SMILES IDX 72 80 78 81 80 82 73 83 74 84 75 85 76 86 77 87 53 88 54 89
REMARK SMILES IDX 63 90 55 91 56 92 62 93 64 94 57 95 58 96 59 97 60 98 61 99
REMARK H PARENT 18 7 93 16 93 17 23 30 85 49 51 60
REMARK Flexibility Score: inf
ROOT
ATOM      1  C   UNL A   1      39.681  22.312  26.694  1.00  0.00     0.023 C 
ENDROOT
BRANCH   1   2
ATOM      2  C   UNL A   1      38.538  23.199  26.208  1.00  0.00     0.023 C 
BRANCH   2   3
ATOM      3  C   UNL A   1      37.298  22.486  25.676  1.00  0.00     0.116 C 
BRANCH   3   4
ATOM      4  N   UNL A   1      36.177  22.488  26.590  1.00  0.00    -0.352 N 
ATOM      5  C   UNL A   1      34.823  22.578  26.384  1.00  0.00     0.253 C 
ATOM      6  O   UNL A   1      34.118  22.544  27.398  1.00  0.00    -0.269 OA
ATOM      7  H   UNL A   1      36.434  22.411  27.538  1.00  0.00     0.163 HD
BRANCH   5   8
ATOM      8  C   UNL A   1      34.170  22.740  25.041  1.00  0.00     0.066 A 
ATOM      9  C   UNL A   1      32.047  20.660  22.616  1.00  0.00     0.047 C 
ATOM     10  C   UNL A   1      32.950  21.720  23.189  1.00  0.00    -0.024 A 
ATOM     11  C   UNL A   1      33.113  22.903  22.461  1.00  0.00     0.052 A 
ATOM     12  C   UNL A   1      33.491  21.617  24.487  1.00  0.00     0.048 A 
ATOM     13  C   UNL A   1      33.455  24.058  23.133  1.00  0.00     0.120 A 
ATOM     14  C   UNL A   1      34.158  23.952  24.331  1.00  0.00     0.062 A 
BRANCH  12  15
ATOM     15  N   UNL A   1      33.155  20.508  25.277  1.00  0.00    -0.398 N 
ATOM     16  H   UNL A   1      33.180  20.576  26.258  1.00  0.00     0.156 HD
ATOM     17  H   UNL A   1      32.895  19.660  24.849  1.00  0.00     0.156 HD
ENDBRANCH  12  15
BRANCH  13  18
ATOM     18  O   UNL A   1      33.016  25.305  22.768  1.00  0.00    -0.490 OA
BRANCH  18  19
ATOM     19  C   UNL A   1      31.608  25.527  22.419  1.00  0.00     0.173 C 
ATOM     20  C   UNL A   1      30.486  24.883  23.242  1.00  0.00     0.048 C 
ATOM     21  C   UNL A   1      31.341  27.069  22.337  1.00  0.00     0.048 C 
ATOM     22  C   UNL A   1      30.130  25.638  24.522  1.00  0.00    -0.010 C 
ATOM     23  C   UNL A   1      30.020  27.650  22.969  1.00  0.00    -0.010 C 
ATOM     24  C   UNL A   1      31.270  26.125  25.418  1.00  0.00     0.008 C 
ATOM     25  C   UNL A   1      29.305  26.816  24.055  1.00  0.00     0.007 C 
ATOM     26  C   UNL A   1      30.236  29.078  23.497  1.00  0.00     0.008 C 
ENDBRANCH  18  19
ENDBRANCH  13  18
ENDBRANCH   5   8
ENDBRANCH   3   4
ENDBRANCH   2   3
ENDBRANCH   1   2
BRANCH   1  27
ATOM     27  C   UNL A   1      40.997  23.020  26.997  1.00  0.00     0.116 C 
BRANCH  27  28
ATOM     28  N   UNL A   1      41.419  23.934  25.944  1.00  0.00    -0.352 N 
ATOM     29  C   UNL A   1      41.663  25.287  26.003  1.00  0.00     0.251 C 
ATOM     30  H   UNL A   1      41.550  23.523  25.059  1.00  0.00     0.163 HD
ATOM     31  O   UNL A   1      41.917  25.914  24.979  1.00  0.00    -0.269 OA
BRANCH  29  32
ATOM     32  C   UNL A   1      41.571  25.989  27.301  1.00  0.00     0.039 A 
ATOM     33  C   UNL A   1      42.659  26.750  27.736  1.00  0.00     0.014 A 
ATOM     34  C   UNL A   1      40.393  25.949  28.051  1.00  0.00     0.014 A 
ATOM     35  C   UNL A   1      42.526  27.556  28.869  1.00  0.00     0.010 A 
ATOM     36  C   UNL A   1      40.236  26.813  29.129  1.00  0.00     0.010 A 
ATOM     37  C   UNL A   1      41.295  27.639  29.540  1.00  0.00    -0.014 A 
BRANCH  37  38
ATOM     38  C   UNL A   1      41.080  28.610  30.645  1.00  0.00     0.031 A 
ATOM     39  C   UNL A   1      41.891  28.514  31.907  1.00  0.00     0.074 A 
ATOM     40  C   UNL A   1      40.094  29.525  30.543  1.00  0.00     0.049 A 
ATOM     41  N   UNL A   1      41.792  29.216  33.007  1.00  0.00    -0.248 NA
ATOM     42  C   UNL A   1      42.927  27.471  31.953  1.00  0.00     0.031 C 
ATOM     43  C   UNL A   1      39.196  29.679  29.395  1.00  0.00     0.029 A 
ATOM     44  N   UNL A   1      39.670  30.490  31.422  1.00  0.00    -0.354 N 
ATOM     45  C   UNL A   1      42.740  28.691  33.877  1.00  0.00     0.074 A 
ATOM     46  C   UNL A   1      43.365  27.576  33.198  1.00  0.00     0.031 C 
ATOM     47  C   UNL A   1      38.347  30.692  29.631  1.00  0.00     0.029 A 
ATOM     48  C   UNL A   1      38.611  31.235  30.959  1.00  0.00     0.049 A 
ATOM     49  H   UNL A   1      40.087  30.636  32.303  1.00  0.00     0.167 HD
ATOM     50  C   UNL A   1      43.075  29.113  35.120  1.00  0.00     0.037 A 
ATOM     51  C   UNL A   1      37.923  32.238  31.541  1.00  0.00     0.037 A 
ATOM     52  C   UNL A   1      42.466  30.239  35.780  1.00  0.00     0.049 A 
ATOM     53  C   UNL A   1      38.321  32.698  32.917  1.00  0.00     0.074 A 
ATOM     54  C   UNL A   1      42.778  30.785  37.013  1.00  0.00     0.029 A 
ATOM     55  N   UNL A   1      41.418  30.988  35.265  1.00  0.00    -0.354 N 
ATOM     56  N   UNL A   1      39.268  32.236  33.697  1.00  0.00    -0.248 NA
ATOM     57  C   UNL A   1      37.564  33.820  33.489  1.00  0.00     0.031 C 
ATOM     58  C   UNL A   1      41.893  31.839  37.261  1.00  0.00     0.029 A 
ATOM     59  C   UNL A   1      41.060  31.981  36.162  1.00  0.00     0.049 A 
ATOM     60  H   UNL A   1      40.992  30.837  34.391  1.00  0.00     0.167 HD
ATOM     61  C   UNL A   1      39.238  33.027  34.841  1.00  0.00     0.074 A 
ATOM     62  C   UNL A   1      38.187  34.003  34.645  1.00  0.00     0.031 C 
ATOM     63  C   UNL A   1      40.015  32.951  35.950  1.00  0.00     0.037 A 
BRANCH  50  64
ATOM     64  C   UNL A   1      44.156  28.356  35.842  1.00  0.00     0.058 A 
ATOM     65  C   UNL A   1      43.857  27.292  36.708  1.00  0.00     0.135 A 
ATOM     66  C   UNL A   1      45.509  28.682  35.650  1.00  0.00     0.135 A 
ATOM     67  F   UNL A   1      42.580  26.946  36.940  1.00  0.00    -0.206 F 
ATOM     68  C   UNL A   1      44.856  26.603  37.388  1.00  0.00     0.059 A 
ATOM     69  C   UNL A   1      46.527  27.988  36.297  1.00  0.00     0.059 A 
ATOM     70  F   UNL A   1      45.852  29.689  34.832  1.00  0.00    -0.206 F 
ATOM     71  C   UNL A   1      46.189  26.961  37.178  1.00  0.00     0.060 A 
BRANCH  71  72
ATOM     72  S   UNL A   1      47.473  26.060  38.072  1.00  0.00     0.124 S 
ATOM     73  O   UNL A   1      46.699  24.984  38.685  1.00  0.00    -0.237 OA
ATOM     74  O   UNL A   1      48.378  25.657  37.000  1.00  0.00    -0.237 OA
ATOM     75  O   UNL A   1      48.006  27.055  38.996  1.00  0.00    -0.744 OA
ENDBRANCH  71  72
ENDBRANCH  50  64
BRANCH  51  76
ATOM     76  C   UNL A   1      36.807  32.894  30.807  1.00  0.00     0.058 A 
ATOM     77  C   UNL A   1      35.473  32.560  31.078  1.00  0.00     0.135 A 
ATOM     78  C   UNL A   1      37.050  33.882  29.840  1.00  0.00     0.135 A 
ATOM     79  F   UNL A   1      35.189  31.616  31.989  1.00  0.00    -0.206 F 
ATOM     80  C   UNL A   1      34.417  33.172  30.410  1.00  0.00     0.059 A 
ATOM     81  C   UNL A   1      36.010  34.527  29.176  1.00  0.00     0.059 A 
ATOM     82  F   UNL A   1      38.308  34.251  29.556  1.00  0.00    -0.206 F 
ATOM     83  C   UNL A   1      34.696  34.158  29.463  1.00  0.00     0.060 A 
BRANCH  83  84
ATOM     84  S   UNL A   1      33.316  34.989  28.645  1.00  0.00     0.124 S 
ATOM     85  O   UNL A   1      32.720  33.895  27.889  1.00  0.00    -0.237 OA
ATOM     86  O   UNL A   1      32.539  35.479  29.779  1.00  0.00    -0.237 OA
ATOM     87  O   UNL A   1      33.971  36.025  27.851  1.00  0.00    -0.744 OA
ENDBRANCH  83  84
ENDBRANCH  51  76
BRANCH  63  88
ATOM     88  C   UNL A   1      39.784  33.975  37.027  1.00  0.00     0.058 A 
ATOM     89  C   UNL A   1      38.947  33.718  38.123  1.00  0.00     0.135 A 
ATOM     90  C   UNL A   1      40.458  35.208  36.989  1.00  0.00     0.135 A 
ATOM     91  F   UNL A   1      38.275  32.559  38.203  1.00  0.00    -0.206 F 
ATOM     92  C   UNL A   1      38.769  34.657  39.135  1.00  0.00     0.059 A 
ATOM     93  C   UNL A   1      40.315  36.149  38.003  1.00  0.00     0.059 A 
ATOM     94  F   UNL A   1      41.278  35.498  35.967  1.00  0.00    -0.206 F 
ATOM     95  C   UNL A   1      39.460  35.868  39.068  1.00  0.00     0.060 A 
BRANCH  95  96
ATOM     96  S   UNL A   1      39.251  37.061  40.407  1.00  0.00     0.124 S 
ATOM     97  O   UNL A   1      40.633  37.429  40.692  1.00  0.00    -0.237 OA
ATOM     98  O   UNL A   1      38.435  38.096  39.779  1.00  0.00    -0.237 OA
ATOM     99  O   UNL A   1      38.579  36.288  41.448  1.00  0.00    -0.744 OA
ENDBRANCH  95  96
ENDBRANCH  63  88
ENDBRANCH  37  38
ENDBRANCH  29  32
ENDBRANCH  27  28
ENDBRANCH   1  27
TORSDOF 17
ENDMDL
MODEL 2
REMARK VINA RESULT:     -12.2      1.477      2.360
REMARK SMILES Cc1cc(O[C@@H]2C[C@H](C)C[C@H](C)C2)cc(C(=O)NCCCCNC(=O)c2ccc(-c3c4nc(c(-c5c(F)cc(S(=O)(=O)[O-])cc5F)c5ccc([nH]5)c(-c5c(F)cc(S(=O)(=O)[O-])cc5F)c5nc(c(-c6c(F)cc(S(=O)(=O)[O-])cc6F)c6ccc3[nH]6)C=C5)C=C4)cc2)c1N
REMARK SMILES IDX 21 1 20 2 19 3 18 4 16 5 17 6 15 8 1 9 2 10 3 11 92 12 4 13
REMARK SMILES IDX 14 14 93 15 5 18 6 19 13 20 7 21 11 22 8 23 12 24 10 25 9 26
REMARK SMILES IDX 22 27 23 28 24 29 25 31 26 32 27 33 91 34 28 35 90 36 29 37
REMARK SMILES IDX 30 38 31 39 84 40 32 41 89 42 83 43 85 44 33 45 88 46 82 47
REMARK SMILES IDX 81 48 34 50 68 51 47 52 67 53 48 54 51 55 66 56 86 57 49 58
REMARK SMILES IDX 50 59 65 61 87 62 52 63 35 64 36 65 45 66 37 67 38 68 44 69
REMARK SMILES IDX 46 70 39 71 40 72 41 73 42 74 43 75 69 76 70 77 79 78 71 79
REMARK SMILES IDX 72 80 78 81 80 82 73 83 74 84 75 85 76 86 77 87 53 88 54 89
REMARK SMILES IDX 63 90 55 91 56 92 62 93 64 94 57 95 58 96 59 97 60 98 61 99
REMARK H PARENT 18 7 93 16 93 17 23 30 85 49 51 60
REMARK Flexibility Score: inf
ROOT
ATOM      1  C   UNL A   1      37.904  23.317  25.501  1.00  0.00     0.023 C 
ENDROOT
BRANCH   1   2
ATOM      2  C   UNL A   1      36.642  22.531  25.849  1.00  0.00     0.023 C 
BRANCH   2   3
ATOM      3  C   UNL A   1      36.039  21.677  24.738  1.00  0.00     0.116 C 
BRANCH   3   4
ATOM      4  N   UNL A   1      34.624  21.416  24.896  1.00  0.00    -0.352 N 
ATOM      5  C   UNL A   1      33.518  22.208  24.714  1.00  0.00     0.253 C 
ATOM      6  O   UNL A   1      32.427  21.671  24.932  1.00  0.00    -0.269 OA
ATOM      7  H   UNL A   1      34.417  20.499  25.189  1.00  0.00     0.163 HD
BRANCH   5   8
ATOM      8  C   UNL A   1      33.557  23.653  24.306  1.00  0.00     0.066 A 
ATOM      9  C   UNL A   1      32.600  25.804  21.277  1.00  0.00     0.047 C 
ATOM     10  C   UNL A   1      33.228  25.327  22.560  1.00  0.00    -0.024 A 
ATOM     11  C   UNL A   1      33.794  26.287  23.406  1.00  0.00     0.052 A 
ATOM     12  C   UNL A   1      33.115  23.990  22.995  1.00  0.00     0.048 A 
ATOM     13  C   UNL A   1      33.886  26.015  24.755  1.00  0.00     0.120 A 
ATOM     14  C   UNL A   1      33.962  24.686  25.167  1.00  0.00     0.062 A 
BRANCH  12  15
ATOM     15  N   UNL A   1      32.372  23.086  22.222  1.00  0.00    -0.398 N 
ATOM     16  H   UNL A   1      31.975  22.289  22.642  1.00  0.00     0.156 HD
ATOM     17  H   UNL A   1      32.248  23.248  21.258  1.00  0.00     0.156 HD
ENDBRANCH  12  15
BRANCH  13  18
ATOM     18  O   UNL A   1      33.760  26.971  25.731  1.00  0.00    -0.490 OA
BRANCH  18  19
ATOM     19  C   UNL A   1      33.728  28.396  25.379  1.00  0.00     0.173 C 
ATOM     20  C   UNL A   1      32.393  29.116  25.151  1.00  0.00     0.048 C 
ATOM     21  C   UNL A   1      34.551  29.201  26.441  1.00  0.00     0.048 C 
ATOM     22  C   UNL A   1      31.696  29.572  26.431  1.00  0.00    -0.010 C 
ATOM     23  C   UNL A   1      33.973  30.563  26.982  1.00  0.00    -0.010 C 
ATOM     24  C   UNL A   1      31.605  28.588  27.598  1.00  0.00     0.008 C 
ATOM     25  C   UNL A   1      32.454  30.809  26.859  1.00  0.00     0.007 C 
ATOM     26  C   UNL A   1      34.403  30.812  28.437  1.00  0.00     0.008 C 
ENDBRANCH  18  19
ENDBRANCH  13  18
ENDBRANCH   5   8
ENDBRANCH   3   4
ENDBRANCH   2   3
ENDBRANCH   1   2
BRANCH   1  27
ATOM     27  C   UNL A   1      38.787  23.722  26.675  1.00  0.00     0.116 C 
BRANCH  27  28
ATOM     28  N   UNL A   1      40.211  23.681  26.370  1.00  0.00    -0.352 N 
ATOM     29  C   UNL A   1      41.208  24.564  26.718  1.00  0.00     0.251 C 
ATOM     30  H   UNL A   1      40.504  22.908  25.836  1.00  0.00     0.163 HD
ATOM     31  O   UNL A   1      42.345  24.414  26.281  1.00  0.00    -0.269 OA
BRANCH  29  32
ATOM     32  C   UNL A   1      40.890  25.719  27.584  1.00  0.00     0.039 A 
ATOM     33  C   UNL A   1      39.859  25.599  28.520  1.00  0.00     0.014 A 
ATOM     34  C   UNL A   1      41.650  26.890  27.517  1.00  0.00     0.014 A 
ATOM     35  C   UNL A   1      39.661  26.613  29.460  1.00  0.00     0.010 A 
ATOM     36  C   UNL A   1      41.505  27.859  28.504  1.00  0.00     0.010 A 
ATOM     37  C   UNL A   1      40.521  27.724  29.496  1.00  0.00    -0.014 A 
BRANCH  37  38
ATOM     38  C   UNL A   1      40.436  28.733  30.586  1.00  0.00     0.031 A 
ATOM     39  C   UNL A   1      41.317  28.615  31.798  1.00  0.00     0.074 A 
ATOM     40  C   UNL A   1      39.503  29.705  30.519  1.00  0.00     0.049 A 
ATOM     41  N   UNL A   1      41.332  29.347  32.882  1.00  0.00    -0.248 NA
ATOM     42  C   UNL A   1      42.289  27.510  31.808  1.00  0.00     0.031 C 
ATOM     43  C   UNL A   1      38.546  29.888  29.425  1.00  0.00     0.029 A 
ATOM     44  N   UNL A   1      39.196  30.715  31.397  1.00  0.00    -0.354 N 
ATOM     45  C   UNL A   1      42.298  28.784  33.706  1.00  0.00     0.074 A 
ATOM     46  C   UNL A   1      42.810  27.617  33.021  1.00  0.00     0.031 C 
ATOM     47  C   UNL A   1      37.777  30.957  29.686  1.00  0.00     0.029 A 
ATOM     48  C   UNL A   1      38.157  31.514  30.980  1.00  0.00     0.049 A 
ATOM     49  H   UNL A   1      39.675  30.854  32.246  1.00  0.00     0.167 HD
ATOM     50  C   UNL A   1      42.737  29.213  34.915  1.00  0.00     0.037 A 
ATOM     51  C   UNL A   1      37.570  32.571  31.575  1.00  0.00     0.037 A 
ATOM     52  C   UNL A   1      42.240  30.390  35.580  1.00  0.00     0.049 A 
ATOM     53  C   UNL A   1      38.081  33.037  32.911  1.00  0.00     0.074 A 
ATOM     54  C   UNL A   1      42.662  30.944  36.776  1.00  0.00     0.029 A 
ATOM     55  N   UNL A   1      41.209  31.191  35.110  1.00  0.00    -0.354 N 
ATOM     56  N   UNL A   1      39.045  32.535  33.644  1.00  0.00    -0.248 NA
ATOM     57  C   UNL A   1      37.432  34.217  33.498  1.00  0.00     0.031 C 
ATOM     58  C   UNL A   1      41.861  32.057  37.049  1.00  0.00     0.029 A 
ATOM     59  C   UNL A   1      40.970  32.226  36.000  1.00  0.00     0.049 A 
ATOM     60  H   UNL A   1      40.721  31.046  34.268  1.00  0.00     0.167 HD
ATOM     61  C   UNL A   1      39.136  33.352  34.765  1.00  0.00     0.074 A 
ATOM     62  C   UNL A   1      38.136  34.388  34.608  1.00  0.00     0.031 C 
ATOM     63  C   UNL A   1      39.976  33.254  35.826  1.00  0.00     0.037 A 
BRANCH  50  64
ATOM     64  C   UNL A   1      43.812  28.406  35.589  1.00  0.00     0.058 A 
ATOM     65  C   UNL A   1      43.504  27.389  36.506  1.00  0.00     0.135 A 
ATOM     66  C   UNL A   1      45.168  28.637  35.300  1.00  0.00     0.135 A 
ATOM     67  F   UNL A   1      42.226  27.135  36.831  1.00  0.00    -0.206 F 
ATOM     68  C   UNL A   1      44.500  26.655  37.141  1.00  0.00     0.059 A 
ATOM     69  C   UNL A   1      46.180  27.895  35.901  1.00  0.00     0.059 A 
ATOM     70  F   UNL A   1      45.519  29.596  34.429  1.00  0.00    -0.206 F 
ATOM     71  C   UNL A   1      45.836  26.918  36.834  1.00  0.00     0.060 A 
BRANCH  71  72
ATOM     72  S   UNL A   1      47.117  25.960  37.672  1.00  0.00     0.124 S 
ATOM     73  O   UNL A   1      47.314  26.742  38.889  1.00  0.00    -0.237 OA
ATOM     74  O   UNL A   1      46.472  24.663  37.850  1.00  0.00    -0.237 OA
ATOM     75  O   UNL A   1      48.229  25.979  36.727  1.00  0.00    -0.744 OA
ENDBRANCH  71  72
ENDBRANCH  50  64
BRANCH  51  76
ATOM     76  C   UNL A   1      36.453  33.279  30.894  1.00  0.00     0.058 A 
ATOM     77  C   UNL A   1      35.143  33.201  31.390  1.00  0.00     0.135 A 
ATOM     78  C   UNL A   1      36.673  34.064  29.751  1.00  0.00     0.135 A 
ATOM     79  F   UNL A   1      34.880  32.458  32.475  1.00  0.00    -0.206 F 
ATOM     80  C   UNL A   1      34.088  33.866  30.772  1.00  0.00     0.059 A 
ATOM     81  C   UNL A   1      35.639  34.758  29.130  1.00  0.00     0.059 A 
ATOM     82  F   UNL A   1      37.911  34.185  29.247  1.00  0.00    -0.206 F 
ATOM     83  C   UNL A   1      34.348  34.646  29.644  1.00  0.00     0.060 A 
BRANCH  83  84
ATOM     84  S   UNL A   1      32.982  35.554  28.886  1.00  0.00     0.124 S 
ATOM     85  O   UNL A   1      32.394  34.535  28.025  1.00  0.00    -0.237 OA
ATOM     86  O   UNL A   1      32.190  35.942  30.048  1.00  0.00    -0.237 OA
ATOM     87  O   UNL A   1      33.651  36.654  28.199  1.00  0.00    -0.744 OA
ENDBRANCH  83  84
ENDBRANCH  51  76
BRANCH  63  88
ATOM     88  C   UNL A   1      39.876  34.315  36.887  1.00  0.00     0.058 A 
ATOM     89  C   UNL A   1      40.618  35.503  36.816  1.00  0.00     0.135 A 
ATOM     90  C   UNL A   1      38.980  34.163  37.959  1.00  0.00     0.135 A 
ATOM     91  F   UNL A   1      41.493  35.696  35.817  1.00  0.00    -0.206 F 
ATOM     92  C   UNL A   1      40.491  36.496  37.783  1.00  0.00     0.059 A 
ATOM     93  C   UNL A   1      38.818  35.153  38.921  1.00  0.00     0.059 A 
ATOM     94  F   UNL A   1      38.240  33.048  38.067  1.00  0.00    -0.206 F 
ATOM     95  C   UNL A   1      39.586  36.314  38.830  1.00  0.00     0.060 A 
BRANCH  95  96
ATOM     96  S   UNL A   1      39.402  37.627  40.056  1.00  0.00     0.124 S 
ATOM     97  O   UNL A   1      39.215  36.860  41.282  1.00  0.00    -0.237 OA
ATOM     98  O   UNL A   1      40.670  38.341  39.941  1.00  0.00    -0.237 OA
ATOM     99  O   UNL A   1      38.230  38.363  39.590  1.00  0.00    -0.744 OA
ENDBRANCH  95  96
ENDBRANCH  63  88
ENDBRANCH  37  38
ENDBRANCH  29  32
ENDBRANCH  27  28
ENDBRANCH   1  27
TORSDOF 17
ENDMDL
MODEL 3
REMARK VINA RESULT:     -12.2      6.541     11.974
REMARK SMILES Cc1cc(O[C@@H]2C[C@H](C)C[C@H](C)C2)cc(C(=O)NCCCCNC(=O)c2ccc(-c3c4nc(c(-c5c(F)cc(S(=O)(=O)[O-])cc5F)c5ccc([nH]5)c(-c5c(F)cc(S(=O)(=O)[O-])cc5F)c5nc(c(-c6c(F)cc(S(=O)(=O)[O-])cc6F)c6ccc3[nH]6)C=C5)C=C4)cc2)c1N
REMARK SMILES IDX 21 1 20 2 19 3 18 4 16 5 17 6 15 8 1 9 2 10 3 11 92 12 4 13
REMARK SMILES IDX 14 14 93 15 5 18 6 19 13 20 7 21 11 22 8 23 12 24 10 25 9 26
REMARK SMILES IDX 22 27 23 28 24 29 25 31 26 32 27 33 91 34 28 35 90 36 29 37
REMARK SMILES IDX 30 38 31 39 84 40 32 41 89 42 83 43 85 44 33 45 88 46 82 47
REMARK SMILES IDX 81 48 34 50 68 51 47 52 67 53 48 54 51 55 66 56 86 57 49 58
REMARK SMILES IDX 50 59 65 61 87 62 52 63 35 64 36 65 45 66 37 67 38 68 44 69
REMARK SMILES IDX 46 70 39 71 40 72 41 73 42 74 43 75 69 76 70 77 79 78 71 79
REMARK SMILES IDX 72 80 78 81 80 82 73 83 74 84 75 85 76 86 77 87 53 88 54 89
REMARK SMILES IDX 63 90 55 91 56 92 62 93 64 94 57 95 58 96 59 97 60 98 61 99
REMARK H PARENT 18 7 93 16 93 17 23 30 85 49 51 60
REMARK Flexibility Score: inf
ROOT
ATOM      1  C   UNL A   1      34.867  30.899  27.720  1.00  0.00     0.023 C 
ENDROOT
BRANCH   1   2
ATOM      2  C   UNL A   1      35.336  29.525  27.250  1.00  0.00     0.023 C 
BRANCH   2   3
ATOM      3  C   UNL A   1      34.264  28.583  26.710  1.00  0.00     0.116 C 
BRANCH   3   4
ATOM      4  N   UNL A   1      33.052  28.554  27.498  1.00  0.00    -0.352 N 
ATOM      5  C   UNL A   1      31.792  28.080  27.229  1.00  0.00     0.253 C 
ATOM      6  O   UNL A   1      30.963  28.203  28.136  1.00  0.00    -0.269 OA
ATOM      7  H   UNL A   1      33.149  28.947  28.396  1.00  0.00     0.163 HD
BRANCH   5   8
ATOM      8  C   UNL A   1      31.368  27.467  25.924  1.00  0.00     0.066 A 
ATOM      9  C   UNL A   1      30.444  28.615  22.383  1.00  0.00     0.047 C 
ATOM     10  C   UNL A   1      30.585  27.791  23.635  1.00  0.00    -0.024 A 
ATOM     11  C   UNL A   1      30.376  26.411  23.537  1.00  0.00     0.052 A 
ATOM     12  C   UNL A   1      31.071  28.340  24.840  1.00  0.00     0.048 A 
ATOM     13  C   UNL A   1      30.986  25.577  24.450  1.00  0.00     0.120 A 
ATOM     14  C   UNL A   1      31.296  26.080  25.712  1.00  0.00     0.062 A 
BRANCH  12  15
ATOM     15  N   UNL A   1      31.461  29.688  24.863  1.00  0.00    -0.398 N 
ATOM     16  H   UNL A   1      32.106  30.026  24.202  1.00  0.00     0.156 HD
ATOM     17  H   UNL A   1      31.087  30.296  25.542  1.00  0.00     0.156 HD
ENDBRANCH  12  15
BRANCH  13  18
ATOM     18  O   UNL A   1      31.440  24.320  24.144  1.00  0.00    -0.490 OA
BRANCH  18  19
ATOM     19  C   UNL A   1      32.679  24.141  23.378  1.00  0.00     0.173 C 
ATOM     20  C   UNL A   1      33.878  25.072  23.600  1.00  0.00     0.048 C 
ATOM     21  C   UNL A   1      33.165  22.660  23.534  1.00  0.00     0.048 C 
ATOM     22  C   UNL A   1      34.746  24.705  24.802  1.00  0.00    -0.010 C 
ATOM     23  C   UNL A   1      34.697  22.380  23.769  1.00  0.00    -0.010 C 
ATOM     24  C   UNL A   1      34.053  24.364  26.122  1.00  0.00     0.008 C 
ATOM     25  C   UNL A   1      35.568  23.524  24.334  1.00  0.00     0.007 C 
ATOM     26  C   UNL A   1      34.908  21.122  24.628  1.00  0.00     0.008 C 
ENDBRANCH  18  19
ENDBRANCH  13  18
ENDBRANCH   5   8
ENDBRANCH   3   4
ENDBRANCH   2   3
ENDBRANCH   1   2
BRANCH   1  27
ATOM     27  C   UNL A   1      35.729  31.575  28.781  1.00  0.00     0.116 C 
BRANCH  27  28
ATOM     28  N   UNL A   1      35.624  30.955  30.095  1.00  0.00    -0.352 N 
ATOM     29  C   UNL A   1      36.579  30.291  30.829  1.00  0.00     0.251 C 
ATOM     30  H   UNL A   1      34.738  31.021  30.521  1.00  0.00     0.163 HD
ATOM     31  O   UNL A   1      36.275  29.744  31.885  1.00  0.00    -0.269 OA
BRANCH  29  32
ATOM     32  C   UNL A   1      37.963  30.203  30.317  1.00  0.00     0.039 A 
ATOM     33  C   UNL A   1      39.023  30.205  31.227  1.00  0.00     0.014 A 
ATOM     34  C   UNL A   1      38.208  30.053  28.949  1.00  0.00     0.014 A 
ATOM     35  C   UNL A   1      40.319  29.948  30.775  1.00  0.00     0.010 A 
ATOM     36  C   UNL A   1      39.485  29.716  28.514  1.00  0.00     0.010 A 
ATOM     37  C   UNL A   1      40.551  29.643  29.424  1.00  0.00    -0.014 A 
BRANCH  37  38
ATOM     38  C   UNL A   1      41.891  29.206  28.948  1.00  0.00     0.031 A 
ATOM     39  C   UNL A   1      43.014  30.199  28.829  1.00  0.00     0.074 A 
ATOM     40  C   UNL A   1      42.069  27.932  28.543  1.00  0.00     0.049 A 
ATOM     41  N   UNL A   1      44.223  30.025  28.361  1.00  0.00    -0.248 NA
ATOM     42  C   UNL A   1      42.732  31.575  29.264  1.00  0.00     0.031 C 
ATOM     43  C   UNL A   1      41.040  26.889  28.550  1.00  0.00     0.029 A 
ATOM     44  N   UNL A   1      43.175  27.298  28.034  1.00  0.00    -0.354 N 
ATOM     45  C   UNL A   1      44.838  31.268  28.430  1.00  0.00     0.074 A 
ATOM     46  C   UNL A   1      43.852  32.200  28.933  1.00  0.00     0.031 C 
ATOM     47  C   UNL A   1      41.569  25.744  28.091  1.00  0.00     0.029 A 
ATOM     48  C   UNL A   1      42.961  25.976  27.721  1.00  0.00     0.049 A 
ATOM     49  H   UNL A   1      44.041  27.749  27.904  1.00  0.00     0.167 HD
ATOM     50  C   UNL A   1      46.116  31.601  28.123  1.00  0.00     0.037 A 
ATOM     51  C   UNL A   1      43.789  25.056  27.188  1.00  0.00     0.037 A 
ATOM     52  C   UNL A   1      47.099  30.663  27.645  1.00  0.00     0.049 A 
ATOM     53  C   UNL A   1      45.207  25.443  26.866  1.00  0.00     0.074 A 
ATOM     54  C   UNL A   1      48.436  30.886  27.366  1.00  0.00     0.029 A 
ATOM     55  N   UNL A   1      46.852  29.325  27.372  1.00  0.00    -0.354 N 
ATOM     56  N   UNL A   1      45.792  26.609  27.005  1.00  0.00    -0.248 NA
ATOM     57  C   UNL A   1      46.078  24.392  26.324  1.00  0.00     0.031 C 
ATOM     58  C   UNL A   1      48.988  29.695  26.886  1.00  0.00     0.029 A 
ATOM     59  C   UNL A   1      48.008  28.715  26.911  1.00  0.00     0.049 A 
ATOM     60  H   UNL A   1      45.985  28.876  27.488  1.00  0.00     0.167 HD
ATOM     61  C   UNL A   1      47.108  26.424  26.593  1.00  0.00     0.074 A 
ATOM     62  C   UNL A   1      47.233  25.033  26.210  1.00  0.00     0.031 C 
ATOM     63  C   UNL A   1      48.119  27.326  26.541  1.00  0.00     0.037 A 
BRANCH  50  64
ATOM     64  C   UNL A   1      46.521  33.038  28.303  1.00  0.00     0.058 A 
ATOM     65  C   UNL A   1      47.048  33.508  29.517  1.00  0.00     0.135 A 
ATOM     66  C   UNL A   1      46.402  33.953  27.244  1.00  0.00     0.135 A 
ATOM     67  F   UNL A   1      47.170  32.680  30.567  1.00  0.00    -0.206 F 
ATOM     68  C   UNL A   1      47.407  34.840  29.688  1.00  0.00     0.059 A 
ATOM     69  C   UNL A   1      46.782  35.285  27.383  1.00  0.00     0.059 A 
ATOM     70  F   UNL A   1      45.907  33.558  26.061  1.00  0.00    -0.206 F 
ATOM     71  C   UNL A   1      47.267  35.723  28.615  1.00  0.00     0.060 A 
BRANCH  71  72
ATOM     72  S   UNL A   1      47.733  37.451  28.855  1.00  0.00     0.124 S 
ATOM     73  O   UNL A   1      48.198  37.436  30.239  1.00  0.00    -0.237 OA
ATOM     74  O   UNL A   1      48.766  37.641  27.842  1.00  0.00    -0.237 OA
ATOM     75  O   UNL A   1      46.488  38.174  28.619  1.00  0.00    -0.744 OA
ENDBRANCH  71  72
ENDBRANCH  50  64
BRANCH  51  76
ATOM     76  C   UNL A   1      43.304  23.669  26.956  1.00  0.00     0.058 A 
ATOM     77  C   UNL A   1      43.018  23.214  25.660  1.00  0.00     0.135 A 
ATOM     78  C   UNL A   1      43.139  22.765  28.017  1.00  0.00     0.135 A 
ATOM     79  F   UNL A   1      43.154  24.042  24.613  1.00  0.00    -0.206 F 
ATOM     80  C   UNL A   1      42.575  21.916  25.424  1.00  0.00     0.059 A 
ATOM     81  C   UNL A   1      42.720  21.455  27.804  1.00  0.00     0.059 A 
ATOM     82  F   UNL A   1      43.414  23.146  29.274  1.00  0.00    -0.206 F 
ATOM     83  C   UNL A   1      42.433  21.042  26.503  1.00  0.00     0.060 A 
BRANCH  83  84
ATOM     84  S   UNL A   1      41.915  19.342  26.178  1.00  0.00     0.124 S 
ATOM     85  O   UNL A   1      42.717  19.010  25.006  1.00  0.00    -0.237 OA
ATOM     86  O   UNL A   1      42.286  18.667  27.417  1.00  0.00    -0.237 OA
ATOM     87  O   UNL A   1      40.479  19.467  25.947  1.00  0.00    -0.744 OA
ENDBRANCH  83  84
ENDBRANCH  51  76
BRANCH  63  88
ATOM     88  C   UNL A   1      49.464  26.832  26.085  1.00  0.00     0.058 A 
ATOM     89  C   UNL A   1      49.852  26.880  24.738  1.00  0.00     0.135 A 
ATOM     90  C   UNL A   1      50.399  26.358  27.022  1.00  0.00     0.135 A 
ATOM     91  F   UNL A   1      48.994  27.317  23.803  1.00  0.00    -0.206 F 
ATOM     92  C   UNL A   1      51.113  26.455  24.331  1.00  0.00     0.059 A 
ATOM     93  C   UNL A   1      51.673  25.954  26.640  1.00  0.00     0.059 A 
ATOM     94  F   UNL A   1      50.080  26.301  28.325  1.00  0.00    -0.206 F 
ATOM     95  C   UNL A   1      52.018  25.997  25.290  1.00  0.00     0.060 A 
BRANCH  95  96
ATOM     96  S   UNL A   1      53.665  25.486  24.754  1.00  0.00     0.124 S 
ATOM     97  O   UNL A   1      53.807  26.217  23.500  1.00  0.00    -0.237 OA
ATOM     98  O   UNL A   1      54.508  25.944  25.854  1.00  0.00    -0.237 OA
ATOM     99  O   UNL A   1      53.546  24.036  24.626  1.00  0.00    -0.744 OA
ENDBRANCH  95  96
ENDBRANCH  63  88
ENDBRANCH  37  38
ENDBRANCH  29  32
ENDBRANCH  27  28
ENDBRANCH   1  27
TORSDOF 17
ENDMDL
