MODEL 1
REMARK VINA RESULT:     -10.7      0.000      0.000
REMARK SMILES CC[C@](C)(C(=O)NCCCCNC(=O)c1ccc(-c2c3nc(c(-c4c(F)cc(S(=O)(=O)[O-])cc4F)c4ccc([nH]4)c(-c4c(F)cc(S(=O)(=O)[O-])cc4F)c4nc(c(-c5c(F)cc(S(=O)(=O)[O-])cc5F)c5ccc2[nH]5)C=C4)C=C3)cc1)n1nnnc1-c1ccco1
REMARK SMILES IDX 10 1 9 2 8 3 7 4 5 5 6 6 3 8 4 9 2 10 1 11 81 12 82 13 85 14
REMARK SMILES IDX 83 15 84 16 86 17 87 18 90 19 88 20 89 21 11 22 12 23 13 24
REMARK SMILES IDX 14 26 15 27 16 28 80 29 17 30 79 31 18 32 19 33 20 34 73 35
REMARK SMILES IDX 21 36 78 37 72 38 74 39 22 40 77 41 71 42 70 43 23 45 57 46
REMARK SMILES IDX 36 47 56 48 37 49 40 50 55 51 75 52 38 53 39 54 54 56 76 57
REMARK SMILES IDX 41 58 24 59 25 60 34 61 26 62 27 63 33 64 35 65 28 66 29 67
REMARK SMILES IDX 30 68 31 69 32 70 58 71 59 72 68 73 60 74 61 75 67 76 69 77
REMARK SMILES IDX 62 78 63 79 64 80 65 81 66 82 42 83 43 84 52 85 44 86 45 87
REMARK SMILES IDX 51 88 53 89 46 90 47 91 48 92 49 93 50 94
REMARK H PARENT 7 7 12 25 74 44 40 55
REMARK Flexibility Score: inf
ROOT
ATOM      1  C   UNL A   1      32.505  27.654  26.471  1.00  0.00     0.023 C 
ENDROOT
BRANCH   1   2
ATOM      2  C   UNL A   1      32.769  26.768  25.258  1.00  0.00     0.023 C 
BRANCH   2   3
ATOM      3  C   UNL A   1      33.698  25.583  25.530  1.00  0.00     0.116 C 
BRANCH   3   4
ATOM      4  N   UNL A   1      34.091  24.923  24.293  1.00  0.00    -0.354 N 
ATOM      5  C   UNL A   1      33.827  23.681  23.776  1.00  0.00     0.247 C 
ATOM      6  O   UNL A   1      34.535  23.354  22.820  1.00  0.00    -0.272 OA
ATOM      7  H   UNL A   1      34.660  25.478  23.713  1.00  0.00     0.163 HD
BRANCH   5   8
ATOM      8  C   UNL A   1      32.733  22.743  24.372  1.00  0.00     0.142 C 
ATOM      9  C   UNL A   1      31.398  23.503  24.258  1.00  0.00     0.048 C 
BRANCH   8  10
ATOM     10  C   UNL A   1      32.732  21.404  23.563  1.00  0.00     0.037 C 
ATOM     11  C   UNL A   1      32.325  20.149  24.330  1.00  0.00     0.007 C 
ENDBRANCH   8  10
BRANCH   8  12
ATOM     12  N   UNL A   1      33.070  22.421  25.780  1.00  0.00    -0.207 N 
ATOM     13  N   UNL A   1      32.171  22.708  26.757  1.00  0.00    -0.044 NA
ATOM     14  C   UNL A   1      34.266  22.089  26.390  1.00  0.00     0.218 A 
ATOM     15  N   UNL A   1      32.785  22.462  27.903  1.00  0.00    -0.023 NA
ATOM     16  N   UNL A   1      34.085  22.092  27.694  1.00  0.00    -0.105 NA
BRANCH  14  17
ATOM     17  C   UNL A   1      35.522  21.821  25.773  1.00  0.00     0.172 A 
ATOM     18  C   UNL A   1      35.948  20.671  25.124  1.00  0.00     0.054 A 
ATOM     19  O   UNL A   1      36.566  22.709  25.809  1.00  0.00    -0.461 OA
ATOM     20  C   UNL A   1      37.325  20.836  24.839  1.00  0.00     0.043 A 
ATOM     21  C   UNL A   1      37.644  22.109  25.246  1.00  0.00     0.196 A 
ENDBRANCH  14  17
ENDBRANCH   8  12
ENDBRANCH   5   8
ENDBRANCH   3   4
ENDBRANCH   2   3
ENDBRANCH   1   2
BRANCH   1  22
ATOM     22  C   UNL A   1      33.755  28.244  27.109  1.00  0.00     0.116 C 
BRANCH  22  23
ATOM     23  N   UNL A   1      33.597  29.640  27.486  1.00  0.00    -0.352 N 
ATOM     24  C   UNL A   1      34.496  30.477  28.096  1.00  0.00     0.251 C 
ATOM     25  H   UNL A   1      32.722  30.040  27.275  1.00  0.00     0.163 HD
ATOM     26  O   UNL A   1      34.134  31.591  28.469  1.00  0.00    -0.269 OA
BRANCH  24  27
ATOM     27  C   UNL A   1      35.882  30.021  28.331  1.00  0.00     0.039 A 
ATOM     28  C   UNL A   1      36.798  30.094  27.282  1.00  0.00     0.014 A 
ATOM     29  C   UNL A   1      36.284  29.543  29.584  1.00  0.00     0.014 A 
ATOM     30  C   UNL A   1      38.129  29.744  27.507  1.00  0.00     0.010 A 
ATOM     31  C   UNL A   1      37.628  29.287  29.830  1.00  0.00     0.010 A 
ATOM     32  C   UNL A   1      38.564  29.376  28.793  1.00  0.00    -0.014 A 
BRANCH  32  33
ATOM     33  C   UNL A   1      40.000  29.094  29.047  1.00  0.00     0.031 A 
ATOM     34  C   UNL A   1      40.587  27.746  28.726  1.00  0.00     0.074 A 
ATOM     35  C   UNL A   1      40.772  30.061  29.583  1.00  0.00     0.049 A 
ATOM     36  N   UNL A   1      41.826  27.341  28.839  1.00  0.00    -0.248 NA
ATOM     37  C   UNL A   1      39.662  26.709  28.240  1.00  0.00     0.031 C 
ATOM     38  C   UNL A   1      40.300  31.380  30.012  1.00  0.00     0.029 A 
ATOM     39  N   UNL A   1      42.117  30.089  29.855  1.00  0.00    -0.354 N 
ATOM     40  C   UNL A   1      41.830  26.013  28.428  1.00  0.00     0.074 A 
ATOM     41  C   UNL A   1      40.460  25.656  28.138  1.00  0.00     0.031 C 
ATOM     42  C   UNL A   1      41.342  32.101  30.453  1.00  0.00     0.029 A 
ATOM     43  C   UNL A   1      42.550  31.288  30.372  1.00  0.00     0.049 A 
ATOM     44  H   UNL A   1      42.715  29.324  29.695  1.00  0.00     0.167 HD
ATOM     45  C   UNL A   1      42.886  25.178  28.270  1.00  0.00     0.037 A 
ATOM     46  C   UNL A   1      43.783  31.688  30.737  1.00  0.00     0.037 A 
ATOM     47  C   UNL A   1      44.249  25.542  28.557  1.00  0.00     0.049 A 
ATOM     48  C   UNL A   1      44.939  30.745  30.543  1.00  0.00     0.074 A 
ATOM     49  C   UNL A   1      45.395  24.782  28.399  1.00  0.00     0.029 A 
ATOM     50  N   UNL A   1      44.652  26.770  29.063  1.00  0.00    -0.354 N 
ATOM     51  N   UNL A   1      44.934  29.516  30.080  1.00  0.00    -0.248 NA
ATOM     52  C   UNL A   1      46.271  31.248  30.903  1.00  0.00     0.031 C 
ATOM     53  C   UNL A   1      46.486  25.533  28.852  1.00  0.00     0.029 A 
ATOM     54  C   UNL A   1      46.027  26.782  29.238  1.00  0.00     0.049 A 
ATOM     55  H   UNL A   1      44.050  27.521  29.267  1.00  0.00     0.167 HD
ATOM     56  C   UNL A   1      46.263  29.105  30.079  1.00  0.00     0.074 A 
ATOM     57  C   UNL A   1      47.044  30.229  30.554  1.00  0.00     0.031 C 
ATOM     58  C   UNL A   1      46.789  27.906  29.724  1.00  0.00     0.037 A 
BRANCH  45  59
ATOM     59  C   UNL A   1      42.608  23.795  27.742  1.00  0.00     0.058 A 
ATOM     60  C   UNL A   1      42.517  23.543  26.362  1.00  0.00     0.135 A 
ATOM     61  C   UNL A   1      42.478  22.702  28.613  1.00  0.00     0.135 A 
ATOM     62  F   UNL A   1      42.615  24.552  25.482  1.00  0.00    -0.206 F 
ATOM     63  C   UNL A   1      42.286  22.263  25.868  1.00  0.00     0.059 A 
ATOM     64  C   UNL A   1      42.276  21.408  28.140  1.00  0.00     0.059 A 
ATOM     65  F   UNL A   1      42.552  22.885  29.941  1.00  0.00    -0.206 F 
ATOM     66  C   UNL A   1      42.171  21.201  26.766  1.00  0.00     0.060 A 
BRANCH  66  67
ATOM     67  S   UNL A   1      41.893  19.544  26.103  1.00  0.00     0.124 S 
ATOM     68  O   UNL A   1      40.460  19.576  25.829  1.00  0.00    -0.237 OA
ATOM     69  O   UNL A   1      42.762  19.530  24.930  1.00  0.00    -0.237 OA
ATOM     70  O   UNL A   1      42.303  18.668  27.196  1.00  0.00    -0.744 OA
ENDBRANCH  66  67
ENDBRANCH  45  59
BRANCH  46  71
ATOM     71  C   UNL A   1      43.988  33.048  31.305  1.00  0.00     0.058 A 
ATOM     72  C   UNL A   1      43.944  33.278  32.687  1.00  0.00     0.135 A 
ATOM     73  C   UNL A   1      44.236  34.148  30.469  1.00  0.00     0.135 A 
ATOM     74  F   UNL A   1      43.709  32.261  33.530  1.00  0.00    -0.206 F 
ATOM     75  C   UNL A   1      44.110  34.552  33.221  1.00  0.00     0.059 A 
ATOM     76  C   UNL A   1      44.437  35.426  30.980  1.00  0.00     0.059 A 
ATOM     77  F   UNL A   1      44.311  33.980  29.139  1.00  0.00    -0.206 F 
ATOM     78  C   UNL A   1      44.357  35.621  32.357  1.00  0.00     0.060 A 
BRANCH  78  79
ATOM     79  S   UNL A   1      44.607  37.265  33.060  1.00  0.00     0.124 S 
ATOM     80  O   UNL A   1      43.475  37.369  33.973  1.00  0.00    -0.237 OA
ATOM     81  O   UNL A   1      45.921  37.135  33.682  1.00  0.00    -0.237 OA
ATOM     82  O   UNL A   1      44.558  38.140  31.892  1.00  0.00    -0.744 OA
ENDBRANCH  78  79
ENDBRANCH  46  71
BRANCH  58  83
ATOM     83  C   UNL A   1      48.284  27.763  29.820  1.00  0.00     0.058 A 
ATOM     84  C   UNL A   1      49.125  28.025  28.726  1.00  0.00     0.135 A 
ATOM     85  C   UNL A   1      48.886  27.363  31.025  1.00  0.00     0.135 A 
ATOM     86  F   UNL A   1      48.601  28.409  27.550  1.00  0.00    -0.206 F 
ATOM     87  C   UNL A   1      50.500  27.843  28.805  1.00  0.00     0.059 A 
ATOM     88  C   UNL A   1      50.264  27.210  31.138  1.00  0.00     0.059 A 
ATOM     89  F   UNL A   1      48.134  27.117  32.109  1.00  0.00    -0.206 F 
ATOM     90  C   UNL A   1      51.061  27.429  30.015  1.00  0.00     0.060 A 
BRANCH  90  91
ATOM     91  S   UNL A   1      52.847  27.181  30.101  1.00  0.00     0.124 S 
ATOM     92  O   UNL A   1      53.288  28.440  30.691  1.00  0.00    -0.237 OA
ATOM     93  O   UNL A   1      52.958  26.005  30.958  1.00  0.00    -0.237 OA
ATOM     94  O   UNL A   1      53.229  26.973  28.707  1.00  0.00    -0.744 OA
ENDBRANCH  90  91
ENDBRANCH  58  83
ENDBRANCH  32  33
ENDBRANCH  24  27
ENDBRANCH  22  23
ENDBRANCH   1  22
TORSDOF 17
ENDMDL
MODEL 2
REMARK VINA RESULT:     -10.6      5.109      9.779
REMARK SMILES CC[C@](C)(C(=O)NCCCCNC(=O)c1ccc(-c2c3nc(c(-c4c(F)cc(S(=O)(=O)[O-])cc4F)c4ccc([nH]4)c(-c4c(F)cc(S(=O)(=O)[O-])cc4F)c4nc(c(-c5c(F)cc(S(=O)(=O)[O-])cc5F)c5ccc2[nH]5)C=C4)C=C3)cc1)n1nnnc1-c1ccco1
REMARK SMILES IDX 10 1 9 2 8 3 7 4 5 5 6 6 3 8 4 9 2 10 1 11 81 12 82 13 85 14
REMARK SMILES IDX 83 15 84 16 86 17 87 18 90 19 88 20 89 21 11 22 12 23 13 24
REMARK SMILES IDX 14 26 15 27 16 28 80 29 17 30 79 31 18 32 19 33 20 34 73 35
REMARK SMILES IDX 21 36 78 37 72 38 74 39 22 40 77 41 71 42 70 43 23 45 57 46
REMARK SMILES IDX 36 47 56 48 37 49 40 50 55 51 75 52 38 53 39 54 54 56 76 57
REMARK SMILES IDX 41 58 24 59 25 60 34 61 26 62 27 63 33 64 35 65 28 66 29 67
REMARK SMILES IDX 30 68 31 69 32 70 58 71 59 72 68 73 60 74 61 75 67 76 69 77
REMARK SMILES IDX 62 78 63 79 64 80 65 81 66 82 42 83 43 84 52 85 44 86 45 87
REMARK SMILES IDX 51 88 53 89 46 90 47 91 48 92 49 93 50 94
REMARK H PARENT 7 7 12 25 74 44 40 55
REMARK Flexibility Score: inf
ROOT
ATOM      1  C   UNL A   1      38.945  22.619  26.362  1.00  0.00     0.023 C 
ENDROOT
BRANCH   1   2
ATOM      2  C   UNL A   1      37.760  23.484  25.946  1.00  0.00     0.023 C 
BRANCH   2   3
ATOM      3  C   UNL A   1      36.407  22.999  26.471  1.00  0.00     0.116 C 
BRANCH   3   4
ATOM      4  N   UNL A   1      35.910  21.873  25.695  1.00  0.00    -0.354 N 
ATOM      5  C   UNL A   1      34.753  21.666  24.989  1.00  0.00     0.247 C 
ATOM      6  O   UNL A   1      34.543  20.495  24.665  1.00  0.00    -0.272 OA
ATOM      7  H   UNL A   1      36.527  21.106  25.673  1.00  0.00     0.163 HD
BRANCH   5   8
ATOM      8  C   UNL A   1      33.765  22.823  24.648  1.00  0.00     0.142 C 
ATOM      9  C   UNL A   1      34.627  24.004  24.164  1.00  0.00     0.048 C 
BRANCH   8  10
ATOM     10  C   UNL A   1      32.769  22.319  23.552  1.00  0.00     0.037 C 
ATOM     11  C   UNL A   1      32.905  22.954  22.170  1.00  0.00     0.007 C 
ENDBRANCH   8  10
BRANCH   8  12
ATOM     12  N   UNL A   1      32.973  23.171  25.853  1.00  0.00    -0.207 N 
ATOM     13  N   UNL A   1      32.976  22.322  26.914  1.00  0.00    -0.044 NA
ATOM     14  C   UNL A   1      31.980  24.109  26.066  1.00  0.00     0.218 A 
ATOM     15  N   UNL A   1      32.083  22.798  27.766  1.00  0.00    -0.023 NA
ATOM     16  N   UNL A   1      31.448  23.894  27.251  1.00  0.00    -0.105 NA
BRANCH  14  17
ATOM     17  C   UNL A   1      31.532  25.130  25.178  1.00  0.00     0.172 A 
ATOM     18  C   UNL A   1      30.460  25.112  24.297  1.00  0.00     0.054 A 
ATOM     19  O   UNL A   1      32.198  26.318  25.024  1.00  0.00    -0.461 OA
ATOM     20  C   UNL A   1      30.536  26.293  23.520  1.00  0.00     0.043 A 
ATOM     21  C   UNL A   1      31.593  27.009  24.026  1.00  0.00     0.196 A 
ENDBRANCH  14  17
ENDBRANCH   8  12
ENDBRANCH   5   8
ENDBRANCH   3   4
ENDBRANCH   2   3
ENDBRANCH   1   2
BRANCH   1  22
ATOM     22  C   UNL A   1      40.115  23.389  26.956  1.00  0.00     0.116 C 
BRANCH  22  23
ATOM     23  N   UNL A   1      40.853  24.159  25.966  1.00  0.00    -0.352 N 
ATOM     24  C   UNL A   1      41.294  25.456  26.034  1.00  0.00     0.251 C 
ATOM     25  H   UNL A   1      41.064  23.683  25.130  1.00  0.00     0.163 HD
ATOM     26  O   UNL A   1      41.778  25.986  25.037  1.00  0.00    -0.269 OA
BRANCH  24  27
ATOM     27  C   UNL A   1      41.152  26.215  27.295  1.00  0.00     0.039 A 
ATOM     28  C   UNL A   1      42.090  27.204  27.589  1.00  0.00     0.014 A 
ATOM     29  C   UNL A   1      40.089  25.969  28.170  1.00  0.00     0.014 A 
ATOM     30  C   UNL A   1      41.926  27.986  28.733  1.00  0.00     0.010 A 
ATOM     31  C   UNL A   1      39.876  26.811  29.257  1.00  0.00     0.010 A 
ATOM     32  C   UNL A   1      40.798  27.822  29.555  1.00  0.00    -0.014 A 
BRANCH  32  33
ATOM     33  C   UNL A   1      40.581  28.719  30.720  1.00  0.00     0.031 A 
ATOM     34  C   UNL A   1      41.404  28.566  31.971  1.00  0.00     0.074 A 
ATOM     35  C   UNL A   1      39.626  29.668  30.647  1.00  0.00     0.049 A 
ATOM     36  N   UNL A   1      41.383  29.287  33.062  1.00  0.00    -0.248 NA
ATOM     37  C   UNL A   1      42.356  27.444  32.015  1.00  0.00     0.031 C 
ATOM     38  C   UNL A   1      38.710  29.862  29.520  1.00  0.00     0.029 A 
ATOM     39  N   UNL A   1      39.269  30.652  31.534  1.00  0.00    -0.354 N 
ATOM     40  C   UNL A   1      42.322  28.716  33.913  1.00  0.00     0.074 A 
ATOM     41  C   UNL A   1      42.839  27.543  33.245  1.00  0.00     0.031 C 
ATOM     42  C   UNL A   1      37.926  30.922  29.765  1.00  0.00     0.029 A 
ATOM     43  C   UNL A   1      38.257  31.465  31.078  1.00  0.00     0.049 A 
ATOM     44  H   UNL A   1      39.696  30.766  32.414  1.00  0.00     0.167 HD
ATOM     45  C   UNL A   1      42.743  29.151  35.125  1.00  0.00     0.037 A 
ATOM     46  C   UNL A   1      37.664  32.529  31.652  1.00  0.00     0.037 A 
ATOM     47  C   UNL A   1      42.227  30.323  35.782  1.00  0.00     0.049 A 
ATOM     48  C   UNL A   1      38.156  32.997  32.994  1.00  0.00     0.074 A 
ATOM     49  C   UNL A   1      42.609  30.869  36.995  1.00  0.00     0.029 A 
ATOM     50  N   UNL A   1      41.215  31.131  35.284  1.00  0.00    -0.354 N 
ATOM     51  N   UNL A   1      39.100  32.487  33.752  1.00  0.00    -0.248 NA
ATOM     52  C   UNL A   1      37.517  34.195  33.553  1.00  0.00     0.031 C 
ATOM     53  C   UNL A   1      41.797  31.980  37.252  1.00  0.00     0.029 A 
ATOM     54  C   UNL A   1      40.948  32.161  36.172  1.00  0.00     0.049 A 
ATOM     55  H   UNL A   1      40.754  30.993  34.424  1.00  0.00     0.167 HD
ATOM     56  C   UNL A   1      39.177  33.312  34.869  1.00  0.00     0.074 A 
ATOM     57  C   UNL A   1      38.209  34.372  34.669  1.00  0.00     0.031 C 
ATOM     58  C   UNL A   1      39.972  33.202  35.963  1.00  0.00     0.037 A 
BRANCH  45  59
ATOM     59  C   UNL A   1      43.833  28.366  35.808  1.00  0.00     0.058 A 
ATOM     60  C   UNL A   1      45.191  28.661  35.595  1.00  0.00     0.135 A 
ATOM     61  C   UNL A   1      43.523  27.344  36.718  1.00  0.00     0.135 A 
ATOM     62  F   UNL A   1      45.547  29.616  34.722  1.00  0.00    -0.206 F 
ATOM     63  C   UNL A   1      46.200  27.956  36.242  1.00  0.00     0.059 A 
ATOM     64  C   UNL A   1      44.516  26.645  37.400  1.00  0.00     0.059 A 
ATOM     65  F   UNL A   1      42.243  27.017  36.958  1.00  0.00    -0.206 F 
ATOM     66  C   UNL A   1      45.852  26.952  37.147  1.00  0.00     0.060 A 
BRANCH  66  67
ATOM     67  S   UNL A   1      47.177  26.064  37.994  1.00  0.00     0.124 S 
ATOM     68  O   UNL A   1      46.419  25.180  38.874  1.00  0.00    -0.237 OA
ATOM     69  O   UNL A   1      47.870  25.413  36.887  1.00  0.00    -0.237 OA
ATOM     70  O   UNL A   1      47.924  27.124  38.663  1.00  0.00    -0.744 OA
ENDBRANCH  66  67
ENDBRANCH  45  59
BRANCH  46  71
ATOM     71  C   UNL A   1      36.555  33.231  30.953  1.00  0.00     0.058 A 
ATOM     72  C   UNL A   1      35.229  33.133  31.399  1.00  0.00     0.135 A 
ATOM     73  C   UNL A   1      36.803  34.022  29.819  1.00  0.00     0.135 A 
ATOM     74  F   UNL A   1      34.938  32.389  32.477  1.00  0.00    -0.206 F 
ATOM     75  C   UNL A   1      34.185  33.767  30.734  1.00  0.00     0.059 A 
ATOM     76  C   UNL A   1      35.781  34.692  29.156  1.00  0.00     0.059 A 
ATOM     77  F   UNL A   1      38.056  34.169  29.362  1.00  0.00    -0.206 F 
ATOM     78  C   UNL A   1      34.472  34.547  29.612  1.00  0.00     0.060 A 
BRANCH  78  79
ATOM     79  S   UNL A   1      33.117  35.397  28.775  1.00  0.00     0.124 S 
ATOM     80  O   UNL A   1      32.528  34.313  27.996  1.00  0.00    -0.237 OA
ATOM     81  O   UNL A   1      32.320  35.883  29.898  1.00  0.00    -0.237 OA
ATOM     82  O   UNL A   1      33.796  36.433  28.002  1.00  0.00    -0.744 OA
ENDBRANCH  78  79
ENDBRANCH  46  71
BRANCH  58  83
ATOM     83  C   UNL A   1      39.834  34.269  37.016  1.00  0.00     0.058 A 
ATOM     84  C   UNL A   1      40.519  35.491  36.924  1.00  0.00     0.135 A 
ATOM     85  C   UNL A   1      39.002  34.068  38.130  1.00  0.00     0.135 A 
ATOM     86  F   UNL A   1      41.329  35.734  35.881  1.00  0.00    -0.206 F 
ATOM     87  C   UNL A   1      40.428  36.453  37.923  1.00  0.00     0.059 A 
ATOM     88  C   UNL A   1      38.867  35.032  39.124  1.00  0.00     0.059 A 
ATOM     89  F   UNL A   1      38.309  32.926  38.261  1.00  0.00    -0.206 F 
ATOM     90  C   UNL A   1      39.604  36.211  39.024  1.00  0.00     0.060 A 
BRANCH  90  91
ATOM     91  S   UNL A   1      39.505  37.461  40.322  1.00  0.00     0.124 S 
ATOM     92  O   UNL A   1      40.909  37.821  40.488  1.00  0.00    -0.237 OA
ATOM     93  O   UNL A   1      38.657  38.481  39.712  1.00  0.00    -0.237 OA
ATOM     94  O   UNL A   1      38.905  36.742  41.442  1.00  0.00    -0.744 OA
ENDBRANCH  90  91
ENDBRANCH  58  83
ENDBRANCH  32  33
ENDBRANCH  24  27
ENDBRANCH  22  23
ENDBRANCH   1  22
TORSDOF 17
ENDMDL
MODEL 3
REMARK VINA RESULT:     -10.6      4.967     10.025
REMARK SMILES CC[C@](C)(C(=O)NCCCCNC(=O)c1ccc(-c2c3nc(c(-c4c(F)cc(S(=O)(=O)[O-])cc4F)c4ccc([nH]4)c(-c4c(F)cc(S(=O)(=O)[O-])cc4F)c4nc(c(-c5c(F)cc(S(=O)(=O)[O-])cc5F)c5ccc2[nH]5)C=C4)C=C3)cc1)n1nnnc1-c1ccco1
REMARK SMILES IDX 10 1 9 2 8 3 7 4 5 5 6 6 3 8 4 9 2 10 1 11 81 12 82 13 85 14
REMARK SMILES IDX 83 15 84 16 86 17 87 18 90 19 88 20 89 21 11 22 12 23 13 24
REMARK SMILES IDX 14 26 15 27 16 28 80 29 17 30 79 31 18 32 19 33 20 34 73 35
REMARK SMILES IDX 21 36 78 37 72 38 74 39 22 40 77 41 71 42 70 43 23 45 57 46
REMARK SMILES IDX 36 47 56 48 37 49 40 50 55 51 75 52 38 53 39 54 54 56 76 57
REMARK SMILES IDX 41 58 24 59 25 60 34 61 26 62 27 63 33 64 35 65 28 66 29 67
REMARK SMILES IDX 30 68 31 69 32 70 58 71 59 72 68 73 60 74 61 75 67 76 69 77
REMARK SMILES IDX 62 78 63 79 64 80 65 81 66 82 42 83 43 84 52 85 44 86 45 87
REMARK SMILES IDX 51 88 53 89 46 90 47 91 48 92 49 93 50 94
REMARK H PARENT 7 7 12 25 74 44 40 55
REMARK Flexibility Score: inf
ROOT
ATOM      1  C   UNL A   1      31.898  31.739  26.896  1.00  0.00     0.023 C 
ENDROOT
BRANCH   1   2
ATOM      2  C   UNL A   1      32.140  30.234  26.836  1.00  0.00     0.023 C 
BRANCH   2   3
ATOM      3  C   UNL A   1      32.607  29.722  25.471  1.00  0.00     0.116 C 
BRANCH   3   4
ATOM      4  N   UNL A   1      31.488  29.565  24.554  1.00  0.00    -0.354 N 
ATOM      5  C   UNL A   1      31.202  28.638  23.584  1.00  0.00     0.247 C 
ATOM      6  O   UNL A   1      30.291  28.954  22.815  1.00  0.00    -0.272 OA
ATOM      7  H   UNL A   1      30.800  30.262  24.647  1.00  0.00     0.163 HD
BRANCH   5   8
ATOM      8  C   UNL A   1      31.992  27.301  23.448  1.00  0.00     0.142 C 
ATOM      9  C   UNL A   1      31.536  26.659  22.123  1.00  0.00     0.048 C 
BRANCH   8  10
ATOM     10  C   UNL A   1      33.522  27.623  23.461  1.00  0.00     0.037 C 
ATOM     11  C   UNL A   1      34.080  28.316  22.221  1.00  0.00     0.007 C 
ENDBRANCH   8  10
BRANCH   8  12
ATOM     12  N   UNL A   1      31.701  26.432  24.614  1.00  0.00    -0.207 N 
ATOM     13  N   UNL A   1      30.753  26.818  25.506  1.00  0.00    -0.044 NA
ATOM     14  C   UNL A   1      32.387  25.363  25.162  1.00  0.00     0.218 A 
ATOM     15  N   UNL A   1      30.813  25.949  26.503  1.00  0.00    -0.023 NA
ATOM     16  N   UNL A   1      31.827  25.052  26.312  1.00  0.00    -0.105 NA
BRANCH  14  17
ATOM     17  C   UNL A   1      33.534  24.697  24.642  1.00  0.00     0.172 A 
ATOM     18  C   UNL A   1      33.631  23.852  23.546  1.00  0.00     0.054 A 
ATOM     19  O   UNL A   1      34.761  24.758  25.250  1.00  0.00    -0.461 OA
ATOM     20  C   UNL A   1      34.941  23.314  23.545  1.00  0.00     0.043 A 
ATOM     21  C   UNL A   1      35.599  23.925  24.585  1.00  0.00     0.196 A 
ENDBRANCH  14  17
ENDBRANCH   8  12
ENDBRANCH   5   8
ENDBRANCH   3   4
ENDBRANCH   2   3
ENDBRANCH   1   2
BRANCH   1  22
ATOM     22  C   UNL A   1      33.084  32.552  27.395  1.00  0.00     0.116 C 
BRANCH  22  23
ATOM     23  N   UNL A   1      32.733  33.924  27.731  1.00  0.00    -0.352 N 
ATOM     24  C   UNL A   1      33.264  34.740  28.698  1.00  0.00     0.251 C 
ATOM     25  H   UNL A   1      32.013  34.322  27.190  1.00  0.00     0.163 HD
ATOM     26  O   UNL A   1      32.739  35.826  28.932  1.00  0.00    -0.269 OA
BRANCH  24  27
ATOM     27  C   UNL A   1      34.440  34.291  29.473  1.00  0.00     0.039 A 
ATOM     28  C   UNL A   1      34.231  33.597  30.665  1.00  0.00     0.014 A 
ATOM     29  C   UNL A   1      35.741  34.531  29.017  1.00  0.00     0.014 A 
ATOM     30  C   UNL A   1      35.326  33.095  31.367  1.00  0.00     0.010 A 
ATOM     31  C   UNL A   1      36.823  33.949  29.668  1.00  0.00     0.010 A 
ATOM     32  C   UNL A   1      36.628  33.232  30.855  1.00  0.00    -0.014 A 
BRANCH  32  33
ATOM     33  C   UNL A   1      37.781  32.615  31.561  1.00  0.00     0.031 A 
ATOM     34  C   UNL A   1      38.253  33.159  32.882  1.00  0.00     0.074 A 
ATOM     35  C   UNL A   1      38.410  31.566  30.994  1.00  0.00     0.049 A 
ATOM     36  N   UNL A   1      39.210  32.718  33.658  1.00  0.00    -0.248 NA
ATOM     37  C   UNL A   1      37.584  34.368  33.389  1.00  0.00     0.031 C 
ATOM     38  C   UNL A   1      38.096  31.001  29.679  1.00  0.00     0.029 A 
ATOM     39  N   UNL A   1      39.439  30.782  31.452  1.00  0.00    -0.354 N 
ATOM     40  C   UNL A   1      39.248  33.585  34.744  1.00  0.00     0.074 A 
ATOM     41  C   UNL A   1      38.273  34.622  34.492  1.00  0.00     0.031 C 
ATOM     42  C   UNL A   1      38.886  29.940  29.454  1.00  0.00     0.029 A 
ATOM     43  C   UNL A   1      39.784  29.766  30.590  1.00  0.00     0.049 A 
ATOM     44  H   UNL A   1      39.888  30.932  32.314  1.00  0.00     0.167 HD
ATOM     45  C   UNL A   1      40.000  33.502  35.868  1.00  0.00     0.037 A 
ATOM     46  C   UNL A   1      40.717  28.803  30.704  1.00  0.00     0.037 A 
ATOM     47  C   UNL A   1      40.966  32.463  36.115  1.00  0.00     0.049 A 
ATOM     48  C   UNL A   1      41.533  28.728  31.965  1.00  0.00     0.074 A 
ATOM     49  C   UNL A   1      41.755  32.269  37.235  1.00  0.00     0.029 A 
ATOM     50  N   UNL A   1      41.277  31.442  35.228  1.00  0.00    -0.354 N 
ATOM     51  N   UNL A   1      41.502  29.514  33.017  1.00  0.00    -0.248 NA
ATOM     52  C   UNL A   1      42.498  27.625  32.066  1.00  0.00     0.031 C 
ATOM     53  C   UNL A   1      42.576  31.158  37.007  1.00  0.00     0.029 A 
ATOM     54  C   UNL A   1      42.258  30.625  35.769  1.00  0.00     0.049 A 
ATOM     55  H   UNL A   1      40.862  31.316  34.344  1.00  0.00     0.167 HD
ATOM     56  C   UNL A   1      42.432  28.991  33.909  1.00  0.00     0.074 A 
ATOM     57  C   UNL A   1      42.981  27.803  33.287  1.00  0.00     0.031 C 
ATOM     58  C   UNL A   1      42.803  29.453  35.130  1.00  0.00     0.037 A 
BRANCH  45  59
ATOM     59  C   UNL A   1      39.791  34.553  36.927  1.00  0.00     0.058 A 
ATOM     60  C   UNL A   1      38.947  34.326  38.028  1.00  0.00     0.135 A 
ATOM     61  C   UNL A   1      40.471  35.780  36.870  1.00  0.00     0.135 A 
ATOM     62  F   UNL A   1      38.256  33.179  38.125  1.00  0.00    -0.206 F 
ATOM     63  C   UNL A   1      38.770  35.283  39.020  1.00  0.00     0.059 A 
ATOM     64  C   UNL A   1      40.332  36.741  37.868  1.00  0.00     0.059 A 
ATOM     65  F   UNL A   1      41.287  36.053  35.840  1.00  0.00    -0.206 F 
ATOM     66  C   UNL A   1      39.471  36.487  38.934  1.00  0.00     0.060 A 
BRANCH  66  67
ATOM     67  S   UNL A   1      39.244  37.708  40.245  1.00  0.00     0.124 S 
ATOM     68  O   UNL A   1      38.204  38.559  39.674  1.00  0.00    -0.237 OA
ATOM     69  O   UNL A   1      38.834  36.878  41.374  1.00  0.00    -0.237 OA
ATOM     70  O   UNL A   1      40.561  38.324  40.367  1.00  0.00    -0.744 OA
ENDBRANCH  66  67
ENDBRANCH  45  59
BRANCH  46  71
ATOM     71  C   UNL A   1      40.917  27.824  29.601  1.00  0.00     0.058 A 
ATOM     72  C   UNL A   1      40.021  26.766  29.389  1.00  0.00     0.135 A 
ATOM     73  C   UNL A   1      42.014  27.933  28.730  1.00  0.00     0.135 A 
ATOM     74  F   UNL A   1      38.957  26.617  30.194  1.00  0.00    -0.206 F 
ATOM     75  C   UNL A   1      40.218  25.835  28.375  1.00  0.00     0.059 A 
ATOM     76  C   UNL A   1      42.214  27.033  27.689  1.00  0.00     0.059 A 
ATOM     77  F   UNL A   1      42.890  28.939  28.874  1.00  0.00    -0.206 F 
ATOM     78  C   UNL A   1      41.318  25.978  27.528  1.00  0.00     0.060 A 
BRANCH  78  79
ATOM     79  S   UNL A   1      41.547  24.785  26.192  1.00  0.00     0.124 S 
ATOM     80  O   UNL A   1      42.781  24.123  26.598  1.00  0.00    -0.237 OA
ATOM     81  O   UNL A   1      40.330  23.984  26.286  1.00  0.00    -0.237 OA
ATOM     82  O   UNL A   1      41.643  25.627  25.003  1.00  0.00    -0.744 OA
ENDBRANCH  78  79
ENDBRANCH  46  71
BRANCH  58  83
ATOM     83  C   UNL A   1      43.839  28.655  35.875  1.00  0.00     0.058 A 
ATOM     84  C   UNL A   1      43.487  27.590  36.720  1.00  0.00     0.135 A 
ATOM     85  C   UNL A   1      45.204  28.956  35.738  1.00  0.00     0.135 A 
ATOM     86  F   UNL A   1      42.196  27.261  36.888  1.00  0.00    -0.206 F 
ATOM     87  C   UNL A   1      44.444  26.889  37.444  1.00  0.00     0.059 A 
ATOM     88  C   UNL A   1      46.182  28.244  36.425  1.00  0.00     0.059 A 
ATOM     89  F   UNL A   1      45.601  29.952  34.930  1.00  0.00    -0.206 F 
ATOM     90  C   UNL A   1      45.790  27.227  37.294  1.00  0.00     0.060 A 
BRANCH  90  91
ATOM     91  S   UNL A   1      47.022  26.319  38.252  1.00  0.00     0.124 S 
ATOM     92  O   UNL A   1      47.961  25.916  37.211  1.00  0.00    -0.237 OA
ATOM     93  O   UNL A   1      47.504  27.335  39.183  1.00  0.00    -0.237 OA
ATOM     94  O   UNL A   1      46.252  25.237  38.857  1.00  0.00    -0.744 OA
ENDBRANCH  90  91
ENDBRANCH  58  83
ENDBRANCH  32  33
ENDBRANCH  24  27
ENDBRANCH  22  23
ENDBRANCH   1  22
TORSDOF 17
ENDMDL
