MODEL 1
REMARK VINA RESULT:     -11.0      0.000      0.000
REMARK SMILES Cc1c(NC(=S)NC(=O)CSc2ccc(Cl)cc2)cccc1C(=O)NCCCCNC(=O)c1ccc(-c2c3nc(c(-c4c(F)cc(S(=O)(=O)[O-])cc4F)c4ccc([nH]4)c(-c4c(F)cc(S(=O)(=O)[O-])cc4F)c4nc(c(-c5c(F)cc(S(=O)(=O)[O-])cc5F)c5ccc2[nH]5)C=C4)C=C3)cc1
REMARK SMILES IDX 26 1 25 2 23 3 24 4 22 6 1 7 2 8 3 9 19 10 21 11 20 12 4 13
REMARK SMILES IDX 5 15 6 16 7 17 8 18 9 20 10 21 11 22 12 23 13 24 18 25 14 26
REMARK SMILES IDX 17 27 15 28 16 29 27 30 28 31 29 32 30 33 31 34 32 36 33 37
REMARK SMILES IDX 34 38 98 39 35 40 97 41 36 42 37 43 38 44 91 45 39 46 96 47
REMARK SMILES IDX 90 48 92 49 40 50 95 51 89 52 88 53 41 55 75 56 54 57 74 58
REMARK SMILES IDX 55 59 58 60 73 61 93 62 56 63 57 64 72 66 94 67 59 68 42 69
REMARK SMILES IDX 43 70 52 71 44 72 45 73 51 74 53 75 46 76 47 77 48 78 49 79
REMARK SMILES IDX 50 80 76 81 77 82 86 83 78 84 79 85 85 86 87 87 80 88 81 89
REMARK SMILES IDX 82 90 83 91 84 92 60 93 61 94 70 95 62 96 63 97 69 98 71 99
REMARK SMILES IDX 64 100 65 101 66 102 67 103 68 104
REMARK H PARENT 25 5 4 14 7 19 30 35 92 54 58 65
REMARK Flexibility Score: inf
ROOT
ATOM      1  C   UNL A   1      35.581  31.036  28.010  1.00  0.00     0.116 C 
ENDROOT
BRANCH   1   2
ATOM      2  N   UNL A   1      34.926  29.763  27.791  1.00  0.00    -0.352 N 
ATOM      3  C   UNL A   1      33.857  29.263  27.108  1.00  0.00     0.251 C 
ATOM      4  O   UNL A   1      33.748  28.033  27.248  1.00  0.00    -0.269 OA
ATOM      5  H   UNL A   1      35.390  29.046  28.282  1.00  0.00     0.163 HD
BRANCH   3   6
ATOM      6  C   UNL A   1      32.816  29.945  26.241  1.00  0.00     0.044 A 
ATOM      7  C   UNL A   1      33.191  28.926  23.914  1.00  0.00     0.047 C 
ATOM      8  C   UNL A   1      32.406  29.733  24.900  1.00  0.00    -0.015 A 
ATOM      9  C   UNL A   1      31.178  30.313  24.446  1.00  0.00     0.044 A 
ATOM     10  C   UNL A   1      30.555  31.316  25.184  1.00  0.00     0.026 A 
ATOM     11  C   UNL A   1      32.075  30.901  26.988  1.00  0.00     0.014 A 
ATOM     12  C   UNL A   1      31.002  31.613  26.459  1.00  0.00     0.003 A 
BRANCH   9  13
ATOM     13  N   UNL A   1      30.604  29.852  23.242  1.00  0.00    -0.332 N 
ATOM     14  H   UNL A   1      31.225  29.902  22.480  1.00  0.00     0.169 HD
BRANCH  13  15
ATOM     15  C   UNL A   1      29.406  29.362  22.903  1.00  0.00     0.177 C 
ATOM     16  S   UNL A   1      28.458  30.300  21.883  1.00  0.00    -0.040 S 
BRANCH  15  17
ATOM     17  N   UNL A   1      28.899  28.152  23.266  1.00  0.00    -0.302 N 
ATOM     18  C   UNL A   1      29.271  26.856  23.582  1.00  0.00     0.236 C 
ATOM     19  H   UNL A   1      27.920  28.223  23.325  1.00  0.00     0.172 HD
ATOM     20  O   UNL A   1      28.369  26.141  24.046  1.00  0.00    -0.274 OA
BRANCH  18  21
ATOM     21  C   UNL A   1      30.661  26.280  23.426  1.00  0.00     0.175 C 
BRANCH  21  22
ATOM     22  S   UNL A   1      30.763  24.476  23.541  1.00  0.00    -0.116 SA
BRANCH  22  23
ATOM     23  C   UNL A   1      32.456  24.329  24.046  1.00  0.00     0.008 A 
ATOM     24  C   UNL A   1      33.079  25.327  24.801  1.00  0.00     0.016 A 
ATOM     25  C   UNL A   1      33.156  23.172  23.700  1.00  0.00     0.016 A 
ATOM     26  C   UNL A   1      34.399  25.154  25.224  1.00  0.00     0.021 A 
ATOM     27  C   UNL A   1      34.472  23.000  24.123  1.00  0.00     0.021 A 
ATOM     28  C   UNL A   1      35.087  23.989  24.888  1.00  0.00     0.041 A 
ATOM     29  Cl  UNL A   1      36.704  23.759  25.427  1.00  0.00    -0.084 Cl
ENDBRANCH  22  23
ENDBRANCH  21  22
ENDBRANCH  18  21
ENDBRANCH  15  17
ENDBRANCH  13  15
ENDBRANCH   9  13
ENDBRANCH   3   6
ENDBRANCH   1   2
BRANCH   1  30
ATOM     30  C   UNL A   1      35.064  31.784  29.247  1.00  0.00     0.023 C 
BRANCH  30  31
ATOM     31  C   UNL A   1      34.267  33.049  28.959  1.00  0.00     0.023 C 
BRANCH  31  32
ATOM     32  C   UNL A   1      34.684  34.216  29.836  1.00  0.00     0.116 C 
BRANCH  32  33
ATOM     33  N   UNL A   1      33.646  34.793  30.671  1.00  0.00    -0.352 N 
ATOM     34  C   UNL A   1      33.461  34.568  32.028  1.00  0.00     0.251 C 
ATOM     35  H   UNL A   1      33.011  35.405  30.231  1.00  0.00     0.163 HD
ATOM     36  O   UNL A   1      32.373  34.727  32.572  1.00  0.00    -0.269 OA
BRANCH  34  37
ATOM     37  C   UNL A   1      34.673  34.288  32.833  1.00  0.00     0.039 A 
ATOM     38  C   UNL A   1      35.655  35.287  32.874  1.00  0.00     0.014 A 
ATOM     39  C   UNL A   1      34.975  32.982  33.197  1.00  0.00     0.014 A 
ATOM     40  C   UNL A   1      36.989  34.931  33.061  1.00  0.00     0.010 A 
ATOM     41  C   UNL A   1      36.302  32.613  33.229  1.00  0.00     0.010 A 
ATOM     42  C   UNL A   1      37.314  33.580  33.124  1.00  0.00    -0.014 A 
BRANCH  42  43
ATOM     43  C   UNL A   1      38.668  33.044  33.054  1.00  0.00     0.031 A 
ATOM     44  C   UNL A   1      38.910  31.823  32.252  1.00  0.00     0.074 A 
ATOM     45  C   UNL A   1      39.701  33.750  33.563  1.00  0.00     0.049 A 
ATOM     46  N   UNL A   1      39.998  31.133  32.258  1.00  0.00    -0.248 NA
ATOM     47  C   UNL A   1      37.881  31.241  31.398  1.00  0.00     0.031 C 
ATOM     48  C   UNL A   1      41.117  33.599  33.240  1.00  0.00     0.029 A 
ATOM     49  N   UNL A   1      39.687  34.640  34.638  1.00  0.00    -0.354 N 
ATOM     50  C   UNL A   1      39.934  30.223  31.222  1.00  0.00     0.074 A 
ATOM     51  C   UNL A   1      38.563  30.273  30.785  1.00  0.00     0.031 C 
ATOM     52  C   UNL A   1      41.851  34.159  34.214  1.00  0.00     0.029 A 
ATOM     53  C   UNL A   1      40.939  34.541  35.277  1.00  0.00     0.049 A 
ATOM     54  H   UNL A   1      38.942  35.227  34.899  1.00  0.00     0.167 HD
ATOM     55  C   UNL A   1      41.093  29.648  30.785  1.00  0.00     0.037 A 
ATOM     56  C   UNL A   1      41.026  34.077  36.562  1.00  0.00     0.037 A 
ATOM     57  C   UNL A   1      42.180  29.931  31.730  1.00  0.00     0.049 A 
ATOM     58  C   UNL A   1      41.756  32.757  36.690  1.00  0.00     0.074 A 
ATOM     59  C   UNL A   1      43.223  30.842  31.727  1.00  0.00     0.029 A 
ATOM     60  N   UNL A   1      42.093  29.441  33.033  1.00  0.00    -0.354 N 
ATOM     61  N   UNL A   1      42.035  31.974  35.682  1.00  0.00    -0.248 NA
ATOM     62  C   UNL A   1      42.228  32.210  37.960  1.00  0.00     0.031 C 
ATOM     63  C   UNL A   1      43.691  30.977  33.062  1.00  0.00     0.029 A 
ATOM     64  C   UNL A   1      42.958  30.123  33.869  1.00  0.00     0.049 A 
ATOM     65  H   UNL A   1      41.498  28.710  33.318  1.00  0.00     0.167 HD
ATOM     66  C   UNL A   1      42.659  30.841  36.133  1.00  0.00     0.074 A 
ATOM     67  C   UNL A   1      42.784  31.050  37.564  1.00  0.00     0.031 C 
ATOM     68  C   UNL A   1      43.011  29.819  35.294  1.00  0.00     0.037 A 
BRANCH  55  69
ATOM     69  C   UNL A   1      41.316  29.089  29.379  1.00  0.00     0.058 A 
ATOM     70  C   UNL A   1      40.716  27.866  28.995  1.00  0.00     0.135 A 
ATOM     71  C   UNL A   1      42.177  29.626  28.400  1.00  0.00     0.135 A 
ATOM     72  F   UNL A   1      39.800  27.264  29.767  1.00  0.00    -0.206 F 
ATOM     73  C   UNL A   1      41.030  27.191  27.808  1.00  0.00     0.059 A 
ATOM     74  C   UNL A   1      42.532  28.959  27.223  1.00  0.00     0.059 A 
ATOM     75  F   UNL A   1      42.699  30.849  28.496  1.00  0.00    -0.206 F 
ATOM     76  C   UNL A   1      41.968  27.730  26.940  1.00  0.00     0.060 A 
BRANCH  76  77
ATOM     77  S   UNL A   1      42.422  26.832  25.447  1.00  0.00     0.124 S 
ATOM     78  O   UNL A   1      42.639  27.916  24.494  1.00  0.00    -0.237 OA
ATOM     79  O   UNL A   1      43.614  26.109  25.874  1.00  0.00    -0.237 OA
ATOM     80  O   UNL A   1      41.251  25.999  25.179  1.00  0.00    -0.744 OA
ENDBRANCH  76  77
ENDBRANCH  55  69
BRANCH  56  81
ATOM     81  C   UNL A   1      39.899  34.553  37.415  1.00  0.00     0.058 A 
ATOM     82  C   UNL A   1      38.876  33.623  37.689  1.00  0.00     0.135 A 
ATOM     83  C   UNL A   1      40.067  35.616  38.314  1.00  0.00     0.135 A 
ATOM     84  F   UNL A   1      38.654  32.602  36.845  1.00  0.00    -0.206 F 
ATOM     85  C   UNL A   1      38.195  33.623  38.901  1.00  0.00     0.059 A 
ATOM     86  C   UNL A   1      39.383  35.642  39.533  1.00  0.00     0.059 A 
ATOM     87  F   UNL A   1      41.016  36.538  38.100  1.00  0.00    -0.206 F 
ATOM     88  C   UNL A   1      38.521  34.590  39.848  1.00  0.00     0.060 A 
BRANCH  88  89
ATOM     89  S   UNL A   1      37.971  34.314  41.551  1.00  0.00     0.124 S 
ATOM     90  O   UNL A   1      36.690  33.645  41.355  1.00  0.00    -0.237 OA
ATOM     91  O   UNL A   1      39.051  33.473  42.068  1.00  0.00    -0.237 OA
ATOM     92  O   UNL A   1      37.900  35.662  42.100  1.00  0.00    -0.744 OA
ENDBRANCH  88  89
ENDBRANCH  56  81
BRANCH  68  93
ATOM     93  C   UNL A   1      43.513  28.462  35.730  1.00  0.00     0.058 A 
ATOM     94  C   UNL A   1      42.690  27.337  35.910  1.00  0.00     0.135 A 
ATOM     95  C   UNL A   1      44.905  28.223  35.841  1.00  0.00     0.135 A 
ATOM     96  F   UNL A   1      41.364  27.407  35.724  1.00  0.00    -0.206 F 
ATOM     97  C   UNL A   1      43.202  26.082  36.245  1.00  0.00     0.059 A 
ATOM     98  C   UNL A   1      45.440  26.967  36.117  1.00  0.00     0.059 A 
ATOM     99  F   UNL A   1      45.799  29.209  35.671  1.00  0.00    -0.206 F 
ATOM    100  C   UNL A   1      44.579  25.906  36.347  1.00  0.00     0.060 A 
BRANCH 100 101
ATOM    101  S   UNL A   1      45.253  24.277  36.721  1.00  0.00     0.124 S 
ATOM    102  O   UNL A   1      45.063  24.209  38.167  1.00  0.00    -0.237 OA
ATOM    103  O   UNL A   1      44.409  23.385  35.931  1.00  0.00    -0.237 OA
ATOM    104  O   UNL A   1      46.637  24.379  36.268  1.00  0.00    -0.744 OA
ENDBRANCH 100 101
ENDBRANCH  68  93
ENDBRANCH  42  43
ENDBRANCH  34  37
ENDBRANCH  32  33
ENDBRANCH  31  32
ENDBRANCH  30  31
ENDBRANCH   1  30
TORSDOF 20
ENDMDL
MODEL 2
REMARK VINA RESULT:     -11.0      4.955     11.484
REMARK SMILES Cc1c(NC(=S)NC(=O)CSc2ccc(Cl)cc2)cccc1C(=O)NCCCCNC(=O)c1ccc(-c2c3nc(c(-c4c(F)cc(S(=O)(=O)[O-])cc4F)c4ccc([nH]4)c(-c4c(F)cc(S(=O)(=O)[O-])cc4F)c4nc(c(-c5c(F)cc(S(=O)(=O)[O-])cc5F)c5ccc2[nH]5)C=C4)C=C3)cc1
REMARK SMILES IDX 26 1 25 2 23 3 24 4 22 6 1 7 2 8 3 9 19 10 21 11 20 12 4 13
REMARK SMILES IDX 5 15 6 16 7 17 8 18 9 20 10 21 11 22 12 23 13 24 18 25 14 26
REMARK SMILES IDX 17 27 15 28 16 29 27 30 28 31 29 32 30 33 31 34 32 36 33 37
REMARK SMILES IDX 34 38 98 39 35 40 97 41 36 42 37 43 38 44 91 45 39 46 96 47
REMARK SMILES IDX 90 48 92 49 40 50 95 51 89 52 88 53 41 55 75 56 54 57 74 58
REMARK SMILES IDX 55 59 58 60 73 61 93 62 56 63 57 64 72 66 94 67 59 68 42 69
REMARK SMILES IDX 43 70 52 71 44 72 45 73 51 74 53 75 46 76 47 77 48 78 49 79
REMARK SMILES IDX 50 80 76 81 77 82 86 83 78 84 79 85 85 86 87 87 80 88 81 89
REMARK SMILES IDX 82 90 83 91 84 92 60 93 61 94 70 95 62 96 63 97 69 98 71 99
REMARK SMILES IDX 64 100 65 101 66 102 67 103 68 104
REMARK H PARENT 25 5 4 14 7 19 30 35 92 54 58 65
REMARK Flexibility Score: inf
ROOT
ATOM      1  C   UNL A   1      37.896  23.106  26.348  1.00  0.00     0.116 C 
ENDROOT
BRANCH   1   2
ATOM      2  N   UNL A   1      37.463  21.800  25.894  1.00  0.00    -0.352 N 
ATOM      3  C   UNL A   1      36.479  21.255  25.124  1.00  0.00     0.251 C 
ATOM      4  O   UNL A   1      36.587  20.021  25.034  1.00  0.00    -0.269 OA
ATOM      5  H   UNL A   1      38.056  21.097  26.246  1.00  0.00     0.163 HD
BRANCH   3   6
ATOM      6  C   UNL A   1      35.312  21.893  24.393  1.00  0.00     0.044 A 
ATOM      7  C   UNL A   1      33.262  20.641  25.301  1.00  0.00     0.047 C 
ATOM      8  C   UNL A   1      33.908  21.755  24.538  1.00  0.00    -0.015 A 
ATOM      9  C   UNL A   1      33.046  22.722  23.928  1.00  0.00     0.044 A 
ATOM     10  C   UNL A   1      33.534  23.593  22.958  1.00  0.00     0.026 A 
ATOM     11  C   UNL A   1      35.762  22.876  23.471  1.00  0.00     0.014 A 
ATOM     12  C   UNL A   1      34.896  23.673  22.727  1.00  0.00     0.003 A 
BRANCH   9  13
ATOM     13  N   UNL A   1      31.693  22.784  24.327  1.00  0.00    -0.332 N 
ATOM     14  H   UNL A   1      31.135  22.103  23.888  1.00  0.00     0.169 HD
BRANCH  13  15
ATOM     15  C   UNL A   1      30.999  23.561  25.167  1.00  0.00     0.177 C 
ATOM     16  S   UNL A   1      31.249  23.325  26.810  1.00  0.00    -0.040 S 
BRANCH  15  17
ATOM     17  N   UNL A   1      30.144  24.561  24.817  1.00  0.00    -0.302 N 
ATOM     18  C   UNL A   1      29.955  25.568  23.886  1.00  0.00     0.236 C 
ATOM     19  H   UNL A   1      29.393  24.572  25.452  1.00  0.00     0.172 HD
ATOM     20  O   UNL A   1      28.843  26.119  23.914  1.00  0.00    -0.274 OA
BRANCH  18  21
ATOM     21  C   UNL A   1      30.972  26.012  22.857  1.00  0.00     0.175 C 
BRANCH  21  22
ATOM     22  S   UNL A   1      31.027  27.797  22.551  1.00  0.00    -0.116 SA
BRANCH  22  23
ATOM     23  C   UNL A   1      32.016  28.282  23.940  1.00  0.00     0.008 A 
ATOM     24  C   UNL A   1      31.646  29.354  24.758  1.00  0.00     0.016 A 
ATOM     25  C   UNL A   1      33.169  27.549  24.224  1.00  0.00     0.016 A 
ATOM     26  C   UNL A   1      32.423  29.676  25.873  1.00  0.00     0.021 A 
ATOM     27  C   UNL A   1      33.943  27.870  25.337  1.00  0.00     0.021 A 
ATOM     28  C   UNL A   1      33.565  28.929  26.160  1.00  0.00     0.041 A 
ATOM     29  Cl  UNL A   1      34.512  29.305  27.546  1.00  0.00    -0.084 Cl
ENDBRANCH  22  23
ENDBRANCH  21  22
ENDBRANCH  18  21
ENDBRANCH  15  17
ENDBRANCH  13  15
ENDBRANCH   9  13
ENDBRANCH   3   6
ENDBRANCH   1   2
BRANCH   1  30
ATOM     30  C   UNL A   1      39.350  23.130  26.840  1.00  0.00     0.023 C 
BRANCH  30  31
ATOM     31  C   UNL A   1      40.028  21.771  26.940  1.00  0.00     0.023 C 
BRANCH  31  32
ATOM     32  C   UNL A   1      41.016  21.527  25.813  1.00  0.00     0.116 C 
BRANCH  32  33
ATOM     33  N   UNL A   1      42.396  21.303  26.208  1.00  0.00    -0.352 N 
ATOM     34  C   UNL A   1      43.320  22.278  26.559  1.00  0.00     0.251 C 
ATOM     35  H   UNL A   1      42.706  20.368  26.229  1.00  0.00     0.163 HD
ATOM     36  O   UNL A   1      44.529  22.090  26.472  1.00  0.00    -0.269 OA
BRANCH  34  37
ATOM     37  C   UNL A   1      42.792  23.502  27.205  1.00  0.00     0.039 A 
ATOM     38  C   UNL A   1      42.690  24.650  26.408  1.00  0.00     0.014 A 
ATOM     39  C   UNL A   1      42.769  23.598  28.591  1.00  0.00     0.014 A 
ATOM     40  C   UNL A   1      42.794  25.908  26.998  1.00  0.00     0.010 A 
ATOM     41  C   UNL A   1      43.025  24.828  29.155  1.00  0.00     0.010 A 
ATOM     42  C   UNL A   1      43.074  25.982  28.358  1.00  0.00    -0.014 A 
BRANCH  42  43
ATOM     43  C   UNL A   1      43.468  27.197  29.063  1.00  0.00     0.031 A 
ATOM     44  C   UNL A   1      42.409  28.086  29.593  1.00  0.00     0.074 A 
ATOM     45  C   UNL A   1      44.765  27.406  29.375  1.00  0.00     0.049 A 
ATOM     46  N   UNL A   1      42.599  29.274  30.056  1.00  0.00    -0.248 NA
ATOM     47  C   UNL A   1      41.001  27.705  29.585  1.00  0.00     0.031 C 
ATOM     48  C   UNL A   1      45.291  28.308  30.397  1.00  0.00     0.029 A 
ATOM     49  N   UNL A   1      45.896  26.970  28.686  1.00  0.00    -0.354 N 
ATOM     50  C   UNL A   1      41.432  29.686  30.668  1.00  0.00     0.074 A 
ATOM     51  C   UNL A   1      40.451  28.713  30.262  1.00  0.00     0.031 C 
ATOM     52  C   UNL A   1      46.585  28.554  30.139  1.00  0.00     0.029 A 
ATOM     53  C   UNL A   1      46.891  27.954  28.852  1.00  0.00     0.049 A 
ATOM     54  H   UNL A   1      45.983  26.132  28.179  1.00  0.00     0.167 HD
ATOM     55  C   UNL A   1      41.489  30.727  31.550  1.00  0.00     0.037 A 
ATOM     56  C   UNL A   1      47.359  28.656  27.775  1.00  0.00     0.037 A 
ATOM     57  C   UNL A   1      42.795  31.391  31.456  1.00  0.00     0.049 A 
ATOM     58  C   UNL A   1      47.025  30.132  27.811  1.00  0.00     0.074 A 
ATOM     59  C   UNL A   1      43.943  31.334  32.228  1.00  0.00     0.029 A 
ATOM     60  N   UNL A   1      43.159  32.012  30.262  1.00  0.00    -0.354 N 
ATOM     61  N   UNL A   1      46.145  30.664  28.617  1.00  0.00    -0.248 NA
ATOM     62  C   UNL A   1      47.649  31.128  26.943  1.00  0.00     0.031 C 
ATOM     63  C   UNL A   1      45.023  31.823  31.445  1.00  0.00     0.029 A 
ATOM     64  C   UNL A   1      44.526  32.212  30.213  1.00  0.00     0.049 A 
ATOM     65  H   UNL A   1      42.529  32.270  29.551  1.00  0.00     0.167 HD
ATOM     66  C   UNL A   1      46.044  32.009  28.373  1.00  0.00     0.074 A 
ATOM     67  C   UNL A   1      47.029  32.255  27.336  1.00  0.00     0.031 C 
ATOM     68  C   UNL A   1      45.150  32.804  29.035  1.00  0.00     0.037 A 
BRANCH  55  69
ATOM     69  C   UNL A   1      40.498  30.962  32.690  1.00  0.00     0.058 A 
ATOM     70  C   UNL A   1      39.922  32.241  32.881  1.00  0.00     0.135 A 
ATOM     71  C   UNL A   1      40.147  30.032  33.691  1.00  0.00     0.135 A 
ATOM     72  F   UNL A   1      40.077  33.219  31.978  1.00  0.00    -0.206 F 
ATOM     73  C   UNL A   1      39.170  32.589  34.011  1.00  0.00     0.059 A 
ATOM     74  C   UNL A   1      39.425  30.359  34.842  1.00  0.00     0.059 A 
ATOM     75  F   UNL A   1      40.442  28.735  33.598  1.00  0.00    -0.206 F 
ATOM     76  C   UNL A   1      38.953  31.648  35.007  1.00  0.00     0.060 A 
BRANCH  76  77
ATOM     77  S   UNL A   1      38.044  32.111  36.491  1.00  0.00     0.124 S 
ATOM     78  O   UNL A   1      37.755  30.811  37.088  1.00  0.00    -0.237 OA
ATOM     79  O   UNL A   1      39.013  32.939  37.199  1.00  0.00    -0.237 OA
ATOM     80  O   UNL A   1      36.880  32.823  35.968  1.00  0.00    -0.744 OA
ENDBRANCH  76  77
ENDBRANCH  55  69
BRANCH  56  81
ATOM     81  C   UNL A   1      47.486  27.806  26.555  1.00  0.00     0.058 A 
ATOM     82  C   UNL A   1      46.501  27.972  25.562  1.00  0.00     0.135 A 
ATOM     83  C   UNL A   1      48.727  27.288  26.158  1.00  0.00     0.135 A 
ATOM     84  F   UNL A   1      45.285  28.438  25.894  1.00  0.00    -0.206 F 
ATOM     85  C   UNL A   1      46.796  27.835  24.211  1.00  0.00     0.059 A 
ATOM     86  C   UNL A   1      49.041  27.131  24.804  1.00  0.00     0.059 A 
ATOM     87  F   UNL A   1      49.700  27.098  27.060  1.00  0.00    -0.206 F 
ATOM     88  C   UNL A   1      48.096  27.496  23.844  1.00  0.00     0.060 A 
BRANCH  88  89
ATOM     89  S   UNL A   1      48.575  27.760  22.118  1.00  0.00     0.124 S 
ATOM     90  O   UNL A   1      49.866  28.424  22.257  1.00  0.00    -0.237 OA
ATOM     91  O   UNL A   1      48.624  26.385  21.620  1.00  0.00    -0.237 OA
ATOM     92  O   UNL A   1      47.495  28.586  21.595  1.00  0.00    -0.744 OA
ENDBRANCH  88  89
ENDBRANCH  56  81
BRANCH  68  93
ATOM     93  C   UNL A   1      44.834  34.241  28.690  1.00  0.00     0.058 A 
ATOM     94  C   UNL A   1      45.269  35.346  29.441  1.00  0.00     0.135 A 
ATOM     95  C   UNL A   1      44.180  34.551  27.472  1.00  0.00     0.135 A 
ATOM     96  F   UNL A   1      45.994  35.188  30.557  1.00  0.00    -0.206 F 
ATOM     97  C   UNL A   1      45.016  36.663  29.050  1.00  0.00     0.059 A 
ATOM     98  C   UNL A   1      43.968  35.856  27.035  1.00  0.00     0.059 A 
ATOM     99  F   UNL A   1      43.734  33.586  26.654  1.00  0.00    -0.206 F 
ATOM    100  C   UNL A   1      44.364  36.909  27.845  1.00  0.00     0.060 A 
BRANCH 100 101
ATOM    101  S   UNL A   1      44.082  38.604  27.302  1.00  0.00     0.124 S 
ATOM    102  O   UNL A   1      44.085  39.320  28.574  1.00  0.00    -0.237 OA
ATOM    103  O   UNL A   1      45.226  38.862  26.431  1.00  0.00    -0.237 OA
ATOM    104  O   UNL A   1      42.794  38.525  26.621  1.00  0.00    -0.744 OA
ENDBRANCH 100 101
ENDBRANCH  68  93
ENDBRANCH  42  43
ENDBRANCH  34  37
ENDBRANCH  32  33
ENDBRANCH  31  32
ENDBRANCH  30  31
ENDBRANCH   1  30
TORSDOF 20
ENDMDL
MODEL 3
REMARK VINA RESULT:     -10.9      5.221     10.532
REMARK SMILES Cc1c(NC(=S)NC(=O)CSc2ccc(Cl)cc2)cccc1C(=O)NCCCCNC(=O)c1ccc(-c2c3nc(c(-c4c(F)cc(S(=O)(=O)[O-])cc4F)c4ccc([nH]4)c(-c4c(F)cc(S(=O)(=O)[O-])cc4F)c4nc(c(-c5c(F)cc(S(=O)(=O)[O-])cc5F)c5ccc2[nH]5)C=C4)C=C3)cc1
REMARK SMILES IDX 26 1 25 2 23 3 24 4 22 6 1 7 2 8 3 9 19 10 21 11 20 12 4 13
REMARK SMILES IDX 5 15 6 16 7 17 8 18 9 20 10 21 11 22 12 23 13 24 18 25 14 26
REMARK SMILES IDX 17 27 15 28 16 29 27 30 28 31 29 32 30 33 31 34 32 36 33 37
REMARK SMILES IDX 34 38 98 39 35 40 97 41 36 42 37 43 38 44 91 45 39 46 96 47
REMARK SMILES IDX 90 48 92 49 40 50 95 51 89 52 88 53 41 55 75 56 54 57 74 58
REMARK SMILES IDX 55 59 58 60 73 61 93 62 56 63 57 64 72 66 94 67 59 68 42 69
REMARK SMILES IDX 43 70 52 71 44 72 45 73 51 74 53 75 46 76 47 77 48 78 49 79
REMARK SMILES IDX 50 80 76 81 77 82 86 83 78 84 79 85 85 86 87 87 80 88 81 89
REMARK SMILES IDX 82 90 83 91 84 92 60 93 61 94 70 95 62 96 63 97 69 98 71 99
REMARK SMILES IDX 64 100 65 101 66 102 67 103 68 104
REMARK H PARENT 25 5 4 14 7 19 30 35 92 54 58 65
REMARK Flexibility Score: inf
ROOT
ATOM      1  C   UNL A   1      36.172  23.676  25.875  1.00  0.00     0.116 C 
ENDROOT
BRANCH   1   2
ATOM      2  N   UNL A   1      35.746  22.315  25.623  1.00  0.00    -0.352 N 
ATOM      3  C   UNL A   1      34.633  21.649  25.203  1.00  0.00     0.251 C 
ATOM      4  O   UNL A   1      34.820  20.423  25.135  1.00  0.00    -0.269 OA
ATOM      5  H   UNL A   1      36.477  21.682  25.812  1.00  0.00     0.163 HD
BRANCH   3   6
ATOM      6  C   UNL A   1      33.251  22.150  24.826  1.00  0.00     0.044 A 
ATOM      7  C   UNL A   1      32.280  22.997  27.048  1.00  0.00     0.047 C 
ATOM      8  C   UNL A   1      32.263  22.858  25.558  1.00  0.00    -0.015 A 
ATOM      9  C   UNL A   1      31.184  23.480  24.851  1.00  0.00     0.044 A 
ATOM     10  C   UNL A   1      30.921  23.145  23.526  1.00  0.00     0.026 A 
ATOM     11  C   UNL A   1      32.985  21.931  23.448  1.00  0.00     0.014 A 
ATOM     12  C   UNL A   1      31.822  22.368  22.819  1.00  0.00     0.003 A 
BRANCH   9  13
ATOM     13  N   UNL A   1      30.393  24.442  25.515  1.00  0.00    -0.332 N 
ATOM     14  H   UNL A   1      29.653  24.040  26.025  1.00  0.00     0.169 HD
BRANCH  13  15
ATOM     15  C   UNL A   1      30.421  25.777  25.606  1.00  0.00     0.177 C 
ATOM     16  S   UNL A   1      29.869  26.646  24.281  1.00  0.00    -0.040 S 
BRANCH  15  17
ATOM     17  N   UNL A   1      30.810  26.500  26.692  1.00  0.00    -0.302 N 
ATOM     18  C   UNL A   1      31.404  27.695  27.061  1.00  0.00     0.236 C 
ATOM     19  H   UNL A   1      30.591  25.992  27.506  1.00  0.00     0.172 HD
ATOM     20  O   UNL A   1      31.360  27.962  28.272  1.00  0.00    -0.274 OA
BRANCH  18  21
ATOM     21  C   UNL A   1      32.061  28.675  26.114  1.00  0.00     0.175 C 
BRANCH  21  22
ATOM     22  S   UNL A   1      33.804  28.342  25.750  1.00  0.00    -0.116 SA
BRANCH  22  23
ATOM     23  C   UNL A   1      33.601  27.451  24.232  1.00  0.00     0.008 A 
ATOM     24  C   UNL A   1      33.901  26.088  24.142  1.00  0.00     0.016 A 
ATOM     25  C   UNL A   1      33.104  28.134  23.120  1.00  0.00     0.016 A 
ATOM     26  C   UNL A   1      33.682  25.408  22.942  1.00  0.00     0.021 A 
ATOM     27  C   UNL A   1      32.884  27.454  21.924  1.00  0.00     0.021 A 
ATOM     28  C   UNL A   1      33.169  26.092  21.841  1.00  0.00     0.041 A 
ATOM     29  Cl  UNL A   1      32.872  25.254  20.369  1.00  0.00    -0.084 Cl
ENDBRANCH  22  23
ENDBRANCH  21  22
ENDBRANCH  18  21
ENDBRANCH  15  17
ENDBRANCH  13  15
ENDBRANCH   9  13
ENDBRANCH   3   6
ENDBRANCH   1   2
BRANCH   1  30
ATOM     30  C   UNL A   1      37.686  23.810  26.094  1.00  0.00     0.023 C 
BRANCH  30  31
ATOM     31  C   UNL A   1      38.470  22.506  26.055  1.00  0.00     0.023 C 
BRANCH  31  32
ATOM     32  C   UNL A   1      39.871  22.648  26.621  1.00  0.00     0.116 C 
BRANCH  32  33
ATOM     33  N   UNL A   1      40.953  22.148  25.790  1.00  0.00    -0.352 N 
ATOM     34  C   UNL A   1      42.219  22.701  25.667  1.00  0.00     0.251 C 
ATOM     35  H   UNL A   1      40.768  21.336  25.263  1.00  0.00     0.163 HD
ATOM     36  O   UNL A   1      42.921  22.507  24.679  1.00  0.00    -0.269 OA
BRANCH  34  37
ATOM     37  C   UNL A   1      42.764  23.402  26.853  1.00  0.00     0.039 A 
ATOM     38  C   UNL A   1      41.990  23.373  28.021  1.00  0.00     0.014 A 
ATOM     39  C   UNL A   1      43.778  24.339  26.697  1.00  0.00     0.014 A 
ATOM     40  C   UNL A   1      42.083  24.424  28.932  1.00  0.00     0.010 A 
ATOM     41  C   UNL A   1      43.760  25.449  27.514  1.00  0.00     0.010 A 
ATOM     42  C   UNL A   1      42.888  25.511  28.612  1.00  0.00    -0.014 A 
BRANCH  42  43
ATOM     43  C   UNL A   1      42.888  26.785  29.322  1.00  0.00     0.031 A 
ATOM     44  C   UNL A   1      41.891  27.812  28.941  1.00  0.00     0.074 A 
ATOM     45  C   UNL A   1      43.663  26.949  30.416  1.00  0.00     0.049 A 
ATOM     46  N   UNL A   1      41.898  29.038  29.338  1.00  0.00    -0.248 NA
ATOM     47  C   UNL A   1      40.808  27.531  28.006  1.00  0.00     0.031 C 
ATOM     48  C   UNL A   1      43.505  27.950  31.467  1.00  0.00     0.029 A 
ATOM     49  N   UNL A   1      44.886  26.342  30.702  1.00  0.00    -0.354 N 
ATOM     50  C   UNL A   1      40.698  29.613  28.973  1.00  0.00     0.074 A 
ATOM     51  C   UNL A   1      40.104  28.662  28.070  1.00  0.00     0.031 C 
ATOM     52  C   UNL A   1      44.661  28.068  32.138  1.00  0.00     0.029 A 
ATOM     53  C   UNL A   1      45.651  27.269  31.437  1.00  0.00     0.049 A 
ATOM     54  H   UNL A   1      45.162  25.435  30.439  1.00  0.00     0.167 HD
ATOM     55  C   UNL A   1      40.308  30.764  29.596  1.00  0.00     0.037 A 
ATOM     56  C   UNL A   1      46.812  27.774  30.920  1.00  0.00     0.037 A 
ATOM     57  C   UNL A   1      41.426  31.317  30.370  1.00  0.00     0.049 A 
ATOM     58  C   UNL A   1      46.761  29.259  30.631  1.00  0.00     0.074 A 
ATOM     59  C   UNL A   1      41.747  31.293  31.717  1.00  0.00     0.029 A 
ATOM     60  N   UNL A   1      42.577  31.733  29.702  1.00  0.00    -0.354 N 
ATOM     61  N   UNL A   1      45.660  29.961  30.596  1.00  0.00    -0.248 NA
ATOM     62  C   UNL A   1      47.942  30.075  30.357  1.00  0.00     0.031 C 
ATOM     63  C   UNL A   1      43.131  31.590  31.843  1.00  0.00     0.029 A 
ATOM     64  C   UNL A   1      43.642  31.830  30.579  1.00  0.00     0.049 A 
ATOM     65  H   UNL A   1      42.625  31.928  28.738  1.00  0.00     0.167 HD
ATOM     66  C   UNL A   1      45.946  31.260  30.267  1.00  0.00     0.074 A 
ATOM     67  C   UNL A   1      47.393  31.287  30.157  1.00  0.00     0.031 C 
ATOM     68  C   UNL A   1      44.969  32.202  30.100  1.00  0.00     0.037 A 
BRANCH  55  69
ATOM     69  C   UNL A   1      38.859  31.229  29.748  1.00  0.00     0.058 A 
ATOM     70  C   UNL A   1      38.530  32.597  29.595  1.00  0.00     0.135 A 
ATOM     71  C   UNL A   1      37.768  30.428  30.145  1.00  0.00     0.135 A 
ATOM     72  F   UNL A   1      39.424  33.483  29.136  1.00  0.00    -0.206 F 
ATOM     73  C   UNL A   1      37.274  33.129  29.915  1.00  0.00     0.059 A 
ATOM     74  C   UNL A   1      36.515  30.937  30.500  1.00  0.00     0.059 A 
ATOM     75  F   UNL A   1      37.829  29.096  30.173  1.00  0.00    -0.206 F 
ATOM     76  C   UNL A   1      36.278  32.294  30.400  1.00  0.00     0.060 A 
BRANCH  76  77
ATOM     77  S   UNL A   1      34.685  32.987  30.874  1.00  0.00     0.124 S 
ATOM     78  O   UNL A   1      33.875  32.726  29.689  1.00  0.00    -0.237 OA
ATOM     79  O   UNL A   1      34.351  32.206  32.060  1.00  0.00    -0.237 OA
ATOM     80  O   UNL A   1      34.984  34.396  31.120  1.00  0.00    -0.744 OA
ENDBRANCH  76  77
ENDBRANCH  55  69
BRANCH  56  81
ATOM     81  C   UNL A   1      47.589  26.751  30.162  1.00  0.00     0.058 A 
ATOM     82  C   UNL A   1      47.527  26.822  28.756  1.00  0.00     0.135 A 
ATOM     83  C   UNL A   1      48.703  26.117  30.731  1.00  0.00     0.135 A 
ATOM     84  F   UNL A   1      46.469  27.393  28.159  1.00  0.00    -0.206 F 
ATOM     85  C   UNL A   1      48.612  26.474  27.960  1.00  0.00     0.059 A 
ATOM     86  C   UNL A   1      49.800  25.748  29.947  1.00  0.00     0.059 A 
ATOM     87  F   UNL A   1      48.812  26.009  32.063  1.00  0.00    -0.206 F 
ATOM     88  C   UNL A   1      49.774  26.019  28.577  1.00  0.00     0.060 A 
BRANCH  88  89
ATOM     89  S   UNL A   1      51.295  26.003  27.596  1.00  0.00     0.124 S 
ATOM     90  O   UNL A   1      51.109  27.158  26.725  1.00  0.00    -0.237 OA
ATOM     91  O   UNL A   1      52.311  26.155  28.637  1.00  0.00    -0.237 OA
ATOM     92  O   UNL A   1      51.252  24.704  26.936  1.00  0.00    -0.744 OA
ENDBRANCH  88  89
ENDBRANCH  56  81
BRANCH  68  93
ATOM     93  C   UNL A   1      45.178  33.592  29.546  1.00  0.00     0.058 A 
ATOM     94  C   UNL A   1      45.038  33.929  28.189  1.00  0.00     0.135 A 
ATOM     95  C   UNL A   1      45.394  34.682  30.425  1.00  0.00     0.135 A 
ATOM     96  F   UNL A   1      44.723  33.004  27.270  1.00  0.00    -0.206 F 
ATOM     97  C   UNL A   1      45.170  35.240  27.726  1.00  0.00     0.059 A 
ATOM     98  C   UNL A   1      45.472  36.003  29.992  1.00  0.00     0.059 A 
ATOM     99  F   UNL A   1      45.524  34.497  31.747  1.00  0.00    -0.206 F 
ATOM    100  C   UNL A   1      45.388  36.271  28.635  1.00  0.00     0.060 A 
BRANCH 100 101
ATOM    101  S   UNL A   1      45.503  37.974  28.055  1.00  0.00     0.124 S 
ATOM    102  O   UNL A   1      44.244  38.119  27.330  1.00  0.00    -0.237 OA
ATOM    103  O   UNL A   1      45.606  38.735  29.297  1.00  0.00    -0.237 OA
ATOM    104  O   UNL A   1      46.710  37.964  27.235  1.00  0.00    -0.744 OA
ENDBRANCH 100 101
ENDBRANCH  68  93
ENDBRANCH  42  43
ENDBRANCH  34  37
ENDBRANCH  32  33
ENDBRANCH  31  32
ENDBRANCH  30  31
ENDBRANCH   1  30
TORSDOF 20
ENDMDL
