MODEL 1
REMARK VINA RESULT:     -10.6      0.000      0.000
REMARK SMILES CC[C@](C)(NC(=O)NC[C@@H](C)[NH+](C)C)C(=O)NCCCCNC(=O)c1ccc(-c2c3nc(c(-c4c(F)cc(S(=O)(=O)[O-])cc4F)c4ccc([nH]4)c(-c4c(F)cc(S(=O)(=O)[O-])cc4F)c4nc(c(-c5c(F)cc(S(=O)(=O)[O-])cc5F)c5ccc2[nH]5)C=C4)C=C3)cc1
REMARK SMILES IDX 19 1 18 2 17 3 15 4 16 5 3 7 4 8 2 9 1 10 5 11 6 12 7 14
REMARK SMILES IDX 8 15 9 17 10 18 11 19 12 20 13 21 14 22 20 24 21 25 22 26
REMARK SMILES IDX 23 27 24 29 25 30 26 31 90 32 27 33 89 34 28 35 29 36 30 37
REMARK SMILES IDX 83 38 31 39 88 40 82 41 84 42 32 43 87 44 81 45 80 46 33 48
REMARK SMILES IDX 67 49 46 50 66 51 47 52 50 53 65 54 85 55 48 56 49 57 64 59
REMARK SMILES IDX 86 60 51 61 34 62 35 63 44 64 36 65 37 66 43 67 45 68 38 69
REMARK SMILES IDX 39 70 40 71 41 72 42 73 68 74 69 75 78 76 70 77 71 78 77 79
REMARK SMILES IDX 79 80 72 81 73 82 74 83 75 84 76 85 52 86 53 87 62 88 54 89
REMARK SMILES IDX 55 90 61 91 63 92 56 93 57 94 58 95 59 96 60 97
REMARK H PARENT 17 6 5 13 8 16 12 23 22 28 84 47 50 58
REMARK Flexibility Score: inf
ROOT
ATOM      1  C   UNL A   1      34.589  29.240  27.111  1.00  0.00     0.023 C 
ENDROOT
BRANCH   1   2
ATOM      2  C   UNL A   1      33.433  28.484  26.445  1.00  0.00     0.116 C 
BRANCH   2   3
ATOM      3  N   UNL A   1      33.678  27.187  25.833  1.00  0.00    -0.354 N 
ATOM      4  C   UNL A   1      33.566  26.732  24.545  1.00  0.00     0.245 C 
ATOM      5  O   UNL A   1      34.308  25.798  24.216  1.00  0.00    -0.272 OA
ATOM      6  H   UNL A   1      33.984  26.502  26.469  1.00  0.00     0.163 HD
BRANCH   4   7
ATOM      7  C   UNL A   1      32.708  27.443  23.476  1.00  0.00     0.117 C 
ATOM      8  C   UNL A   1      32.994  28.954  23.338  1.00  0.00     0.045 C 
BRANCH   7   9
ATOM      9  C   UNL A   1      31.217  27.309  23.942  1.00  0.00     0.035 C 
ATOM     10  C   UNL A   1      30.206  28.090  23.094  1.00  0.00     0.007 C 
ENDBRANCH   7   9
BRANCH   7  11
ATOM     11  N   UNL A   1      32.894  26.813  22.160  1.00  0.00    -0.324 N 
ATOM     12  C   UNL A   1      32.665  25.596  21.652  1.00  0.00     0.315 C 
ATOM     13  H   UNL A   1      33.280  27.432  21.498  1.00  0.00     0.166 HD
ATOM     14  O   UNL A   1      33.140  25.377  20.531  1.00  0.00    -0.249 OA
ATOM     15  N   UNL A   1      31.932  24.622  22.200  1.00  0.00    -0.332 N 
ATOM     16  H   UNL A   1      31.788  23.888  21.561  1.00  0.00     0.165 HD
BRANCH  15  17
ATOM     17  C   UNL A   1      31.281  24.335  23.485  1.00  0.00     0.182 C 
BRANCH  17  18
ATOM     18  C   UNL A   1      32.047  23.333  24.412  1.00  0.00     0.200 C 
ATOM     19  C   UNL A   1      31.109  22.648  25.413  1.00  0.00     0.077 C 
BRANCH  18  20
ATOM     20  N   UNL A   1      32.895  22.395  23.652  1.00  0.00    -0.336 N 
ATOM     21  C   UNL A   1      34.275  22.305  24.114  1.00  0.00     0.332 C 
ATOM     22  C   UNL A   1      32.329  21.072  23.432  1.00  0.00     0.332 C 
ATOM     23  H   UNL A   1      32.916  22.844  22.737  1.00  0.00     0.347 HD
ENDBRANCH  18  20
ENDBRANCH  17  18
ENDBRANCH  15  17
ENDBRANCH   7  11
ENDBRANCH   4   7
ENDBRANCH   2   3
ENDBRANCH   1   2
BRANCH   1  24
ATOM     24  C   UNL A   1      34.409  30.699  27.533  1.00  0.00     0.023 C 
BRANCH  24  25
ATOM     25  C   UNL A   1      35.586  31.345  28.247  1.00  0.00     0.116 C 
BRANCH  25  26
ATOM     26  N   UNL A   1      35.494  31.180  29.686  1.00  0.00    -0.352 N 
ATOM     27  C   UNL A   1      36.364  30.555  30.543  1.00  0.00     0.251 C 
ATOM     28  H   UNL A   1      34.694  31.571  30.106  1.00  0.00     0.163 HD
ATOM     29  O   UNL A   1      36.009  30.325  31.699  1.00  0.00    -0.269 OA
BRANCH  27  30
ATOM     30  C   UNL A   1      37.714  30.145  30.090  1.00  0.00     0.039 A 
ATOM     31  C   UNL A   1      38.680  29.838  31.054  1.00  0.00     0.014 A 
ATOM     32  C   UNL A   1      38.053  30.117  28.733  1.00  0.00     0.014 A 
ATOM     33  C   UNL A   1      39.971  29.473  30.659  1.00  0.00     0.010 A 
ATOM     34  C   UNL A   1      39.326  29.700  28.339  1.00  0.00     0.010 A 
ATOM     35  C   UNL A   1      40.302  29.386  29.298  1.00  0.00    -0.014 A 
BRANCH  35  36
ATOM     36  C   UNL A   1      41.669  28.991  28.867  1.00  0.00     0.031 A 
ATOM     37  C   UNL A   1      42.773  30.014  28.810  1.00  0.00     0.074 A 
ATOM     38  C   UNL A   1      41.911  27.720  28.488  1.00  0.00     0.049 A 
ATOM     39  N   UNL A   1      44.011  29.872  28.413  1.00  0.00    -0.248 NA
ATOM     40  C   UNL A   1      42.432  31.381  29.236  1.00  0.00     0.031 C 
ATOM     41  C   UNL A   1      40.919  26.643  28.462  1.00  0.00     0.029 A 
ATOM     42  N   UNL A   1      43.064  27.121  28.042  1.00  0.00    -0.354 N 
ATOM     43  C   UNL A   1      44.596  31.129  28.532  1.00  0.00     0.074 A 
ATOM     44  C   UNL A   1      43.562  32.031  28.992  1.00  0.00     0.031 C 
ATOM     45  C   UNL A   1      41.509  25.514  28.035  1.00  0.00     0.029 A 
ATOM     46  C   UNL A   1      42.909  25.792  27.728  1.00  0.00     0.049 A 
ATOM     47  H   UNL A   1      43.920  27.599  27.956  1.00  0.00     0.167 HD
ATOM     48  C   UNL A   1      45.881  31.493  28.301  1.00  0.00     0.037 A 
ATOM     49  C   UNL A   1      43.792  24.898  27.241  1.00  0.00     0.037 A 
ATOM     50  C   UNL A   1      46.913  30.589  27.865  1.00  0.00     0.049 A 
ATOM     51  C   UNL A   1      45.213  25.324  26.994  1.00  0.00     0.074 A 
ATOM     52  C   UNL A   1      48.254  30.854  27.648  1.00  0.00     0.029 A 
ATOM     53  N   UNL A   1      46.721  29.244  27.580  1.00  0.00    -0.354 N 
ATOM     54  N   UNL A   1      45.759  26.505  27.162  1.00  0.00    -0.248 NA
ATOM     55  C   UNL A   1      46.141  24.297  26.499  1.00  0.00     0.031 C 
ATOM     56  C   UNL A   1      48.866  29.679  27.197  1.00  0.00     0.029 A 
ATOM     57  C   UNL A   1      47.915  28.671  27.175  1.00  0.00     0.049 A 
ATOM     58  H   UNL A   1      45.863  28.768  27.655  1.00  0.00     0.167 HD
ATOM     59  C   UNL A   1      47.099  26.358  26.817  1.00  0.00     0.074 A 
ATOM     60  C   UNL A   1      47.283  24.970  26.442  1.00  0.00     0.031 C 
ATOM     61  C   UNL A   1      48.086  27.287  26.810  1.00  0.00     0.037 A 
BRANCH  48  62
ATOM     62  C   UNL A   1      46.246  32.936  28.523  1.00  0.00     0.058 A 
ATOM     63  C   UNL A   1      46.619  33.413  29.791  1.00  0.00     0.135 A 
ATOM     64  C   UNL A   1      46.257  33.845  27.453  1.00  0.00     0.135 A 
ATOM     65  F   UNL A   1      46.612  32.590  30.851  1.00  0.00    -0.206 F 
ATOM     66  C   UNL A   1      46.960  34.746  29.995  1.00  0.00     0.059 A 
ATOM     67  C   UNL A   1      46.622  35.178  27.630  1.00  0.00     0.059 A 
ATOM     68  F   UNL A   1      45.911  33.443  26.221  1.00  0.00    -0.206 F 
ATOM     69  C   UNL A   1      46.957  35.621  28.909  1.00  0.00     0.060 A 
BRANCH  69  70
ATOM     70  S   UNL A   1      47.402  37.349  29.186  1.00  0.00     0.124 S 
ATOM     71  O   UNL A   1      48.115  37.262  30.460  1.00  0.00    -0.237 OA
ATOM     72  O   UNL A   1      48.232  37.647  28.020  1.00  0.00    -0.237 OA
ATOM     73  O   UNL A   1      46.119  38.031  29.230  1.00  0.00    -0.744 OA
ENDBRANCH  69  70
ENDBRANCH  48  62
BRANCH  49  74
ATOM     74  C   UNL A   1      43.358  23.502  26.971  1.00  0.00     0.058 A 
ATOM     75  C   UNL A   1      43.158  22.590  28.018  1.00  0.00     0.135 A 
ATOM     76  C   UNL A   1      43.120  23.056  25.661  1.00  0.00     0.135 A 
ATOM     77  F   UNL A   1      43.378  22.967  29.286  1.00  0.00    -0.206 F 
ATOM     78  C   UNL A   1      42.752  21.282  27.776  1.00  0.00     0.059 A 
ATOM     79  C   UNL A   1      42.692  21.760  25.396  1.00  0.00     0.059 A 
ATOM     80  F   UNL A   1      43.282  23.895  24.625  1.00  0.00    -0.206 F 
ATOM     81  C   UNL A   1      42.519  20.876  26.461  1.00  0.00     0.060 A 
BRANCH  81  82
ATOM     82  S   UNL A   1      41.943  19.191  26.161  1.00  0.00     0.124 S 
ATOM     83  O   UNL A   1      42.736  18.812  24.998  1.00  0.00    -0.237 OA
ATOM     84  O   UNL A   1      42.285  18.523  27.413  1.00  0.00    -0.237 OA
ATOM     85  O   UNL A   1      40.513  19.364  25.923  1.00  0.00    -0.744 OA
ENDBRANCH  81  82
ENDBRANCH  49  74
BRANCH  61  86
ATOM     86  C   UNL A   1      49.463  26.831  26.414  1.00  0.00     0.058 A 
ATOM     87  C   UNL A   1      50.338  26.241  27.339  1.00  0.00     0.135 A 
ATOM     88  C   UNL A   1      49.892  26.938  25.081  1.00  0.00     0.135 A 
ATOM     89  F   UNL A   1      49.979  26.120  28.627  1.00  0.00    -0.206 F 
ATOM     90  C   UNL A   1      51.599  25.794  26.960  1.00  0.00     0.059 A 
ATOM     91  C   UNL A   1      51.139  26.475  24.675  1.00  0.00     0.059 A 
ATOM     92  F   UNL A   1      49.089  27.487  24.155  1.00  0.00    -0.206 F 
ATOM     93  C   UNL A   1      51.991  25.913  25.626  1.00  0.00     0.060 A 
BRANCH  93  94
ATOM     94  S   UNL A   1      53.617  25.296  25.140  1.00  0.00     0.124 S 
ATOM     95  O   UNL A   1      53.470  23.865  25.374  1.00  0.00    -0.237 OA
ATOM     96  O   UNL A   1      53.702  25.705  23.741  1.00  0.00    -0.237 OA
ATOM     97  O   UNL A   1      54.527  25.992  26.045  1.00  0.00    -0.744 OA
ENDBRANCH  93  94
ENDBRANCH  61  86
ENDBRANCH  35  36
ENDBRANCH  27  30
ENDBRANCH  25  26
ENDBRANCH  24  25
ENDBRANCH   1  24
TORSDOF 19
ENDMDL
MODEL 2
REMARK VINA RESULT:     -10.6      0.954      1.874
REMARK SMILES CC[C@](C)(NC(=O)NC[C@@H](C)[NH+](C)C)C(=O)NCCCCNC(=O)c1ccc(-c2c3nc(c(-c4c(F)cc(S(=O)(=O)[O-])cc4F)c4ccc([nH]4)c(-c4c(F)cc(S(=O)(=O)[O-])cc4F)c4nc(c(-c5c(F)cc(S(=O)(=O)[O-])cc5F)c5ccc2[nH]5)C=C4)C=C3)cc1
REMARK SMILES IDX 19 1 18 2 17 3 15 4 16 5 3 7 4 8 2 9 1 10 5 11 6 12 7 14
REMARK SMILES IDX 8 15 9 17 10 18 11 19 12 20 13 21 14 22 20 24 21 25 22 26
REMARK SMILES IDX 23 27 24 29 25 30 26 31 90 32 27 33 89 34 28 35 29 36 30 37
REMARK SMILES IDX 83 38 31 39 88 40 82 41 84 42 32 43 87 44 81 45 80 46 33 48
REMARK SMILES IDX 67 49 46 50 66 51 47 52 50 53 65 54 85 55 48 56 49 57 64 59
REMARK SMILES IDX 86 60 51 61 34 62 35 63 44 64 36 65 37 66 43 67 45 68 38 69
REMARK SMILES IDX 39 70 40 71 41 72 42 73 68 74 69 75 78 76 70 77 71 78 77 79
REMARK SMILES IDX 79 80 72 81 73 82 74 83 75 84 76 85 52 86 53 87 62 88 54 89
REMARK SMILES IDX 55 90 61 91 63 92 56 93 57 94 58 95 59 96 60 97
REMARK H PARENT 17 6 5 13 8 16 12 23 22 28 84 47 50 58
REMARK Flexibility Score: inf
ROOT
ATOM      1  C   UNL A   1      33.434  30.348  26.839  1.00  0.00     0.023 C 
ENDROOT
BRANCH   1   2
ATOM      2  C   UNL A   1      32.843  29.747  25.557  1.00  0.00     0.116 C 
BRANCH   2   3
ATOM      3  N   UNL A   1      33.730  29.218  24.533  1.00  0.00    -0.354 N 
ATOM      4  C   UNL A   1      33.499  28.620  23.323  1.00  0.00     0.245 C 
ATOM      5  O   UNL A   1      34.376  28.748  22.459  1.00  0.00    -0.272 OA
ATOM      6  H   UNL A   1      34.685  29.308  24.755  1.00  0.00     0.163 HD
BRANCH   4   7
ATOM      7  C   UNL A   1      32.147  27.971  22.952  1.00  0.00     0.117 C 
ATOM      8  C   UNL A   1      31.024  28.984  22.646  1.00  0.00     0.045 C 
BRANCH   7   9
ATOM      9  C   UNL A   1      31.687  27.155  24.209  1.00  0.00     0.035 C 
ATOM     10  C   UNL A   1      30.168  27.067  24.397  1.00  0.00     0.007 C 
ENDBRANCH   7   9
BRANCH   7  11
ATOM     11  N   UNL A   1      32.301  27.083  21.790  1.00  0.00    -0.324 N 
ATOM     12  C   UNL A   1      33.031  25.993  21.521  1.00  0.00     0.315 C 
ATOM     13  H   UNL A   1      31.735  27.355  21.031  1.00  0.00     0.166 HD
ATOM     14  O   UNL A   1      33.040  25.623  20.340  1.00  0.00    -0.249 OA
ATOM     15  N   UNL A   1      33.696  25.235  22.398  1.00  0.00    -0.332 N 
ATOM     16  H   UNL A   1      34.019  24.408  21.974  1.00  0.00     0.165 HD
BRANCH  15  17
ATOM     17  C   UNL A   1      34.082  25.285  23.814  1.00  0.00     0.182 C 
BRANCH  17  18
ATOM     18  C   UNL A   1      33.810  23.976  24.627  1.00  0.00     0.200 C 
ATOM     19  C   UNL A   1      34.017  22.719  23.775  1.00  0.00     0.077 C 
BRANCH  18  20
ATOM     20  N   UNL A   1      34.533  23.949  25.913  1.00  0.00    -0.336 N 
ATOM     21  C   UNL A   1      33.935  23.097  26.934  1.00  0.00     0.332 C 
ATOM     22  C   UNL A   1      35.969  23.731  25.824  1.00  0.00     0.332 C 
ATOM     23  H   UNL A   1      34.416  24.914  26.226  1.00  0.00     0.347 HD
ENDBRANCH  18  20
ENDBRANCH  17  18
ENDBRANCH  15  17
ENDBRANCH   7  11
ENDBRANCH   4   7
ENDBRANCH   2   3
ENDBRANCH   1   2
BRANCH   1  24
ATOM     24  C   UNL A   1      34.744  29.803  27.408  1.00  0.00     0.023 C 
BRANCH  24  25
ATOM     25  C   UNL A   1      35.654  30.811  28.092  1.00  0.00     0.116 C 
BRANCH  25  26
ATOM     26  N   UNL A   1      35.555  30.727  29.537  1.00  0.00    -0.352 N 
ATOM     27  C   UNL A   1      36.449  30.204  30.437  1.00  0.00     0.251 C 
ATOM     28  H   UNL A   1      34.730  31.097  29.927  1.00  0.00     0.163 HD
ATOM     29  O   UNL A   1      36.094  30.024  31.602  1.00  0.00    -0.269 OA
BRANCH  27  30
ATOM     30  C   UNL A   1      37.824  29.843  30.021  1.00  0.00     0.039 A 
ATOM     31  C   UNL A   1      38.110  29.752  28.655  1.00  0.00     0.014 A 
ATOM     32  C   UNL A   1      38.816  29.540  30.960  1.00  0.00     0.014 A 
ATOM     33  C   UNL A   1      39.392  29.389  28.231  1.00  0.00     0.010 A 
ATOM     34  C   UNL A   1      40.109  29.231  30.535  1.00  0.00     0.010 A 
ATOM     35  C   UNL A   1      40.408  29.139  29.166  1.00  0.00    -0.014 A 
BRANCH  35  36
ATOM     36  C   UNL A   1      41.777  28.760  28.726  1.00  0.00     0.031 A 
ATOM     37  C   UNL A   1      42.861  29.802  28.638  1.00  0.00     0.074 A 
ATOM     38  C   UNL A   1      42.036  27.488  28.366  1.00  0.00     0.049 A 
ATOM     39  N   UNL A   1      44.097  29.675  28.229  1.00  0.00    -0.248 NA
ATOM     40  C   UNL A   1      42.502  31.170  29.045  1.00  0.00     0.031 C 
ATOM     41  C   UNL A   1      41.064  26.394  28.370  1.00  0.00     0.029 A 
ATOM     42  N   UNL A   1      43.194  26.902  27.917  1.00  0.00    -0.354 N 
ATOM     43  C   UNL A   1      44.661  30.943  28.320  1.00  0.00     0.074 A 
ATOM     44  C   UNL A   1      43.617  31.835  28.776  1.00  0.00     0.031 C 
ATOM     45  C   UNL A   1      41.668  25.268  27.956  1.00  0.00     0.029 A 
ATOM     46  C   UNL A   1      43.060  25.564  27.628  1.00  0.00     0.049 A 
ATOM     47  H   UNL A   1      44.041  27.393  27.813  1.00  0.00     0.167 HD
ATOM     48  C   UNL A   1      45.937  31.326  28.067  1.00  0.00     0.037 A 
ATOM     49  C   UNL A   1      43.952  24.677  27.146  1.00  0.00     0.037 A 
ATOM     50  C   UNL A   1      46.979  30.433  27.634  1.00  0.00     0.049 A 
ATOM     51  C   UNL A   1      45.363  25.125  26.874  1.00  0.00     0.074 A 
ATOM     52  C   UNL A   1      48.313  30.718  27.397  1.00  0.00     0.029 A 
ATOM     53  N   UNL A   1      46.808  29.080  27.375  1.00  0.00    -0.354 N 
ATOM     54  N   UNL A   1      45.890  26.318  27.016  1.00  0.00    -0.248 NA
ATOM     55  C   UNL A   1      46.304  24.105  26.387  1.00  0.00     0.031 C 
ATOM     56  C   UNL A   1      48.940  29.545  26.958  1.00  0.00     0.029 A 
ATOM     57  C   UNL A   1      48.007  28.521  26.966  1.00  0.00     0.049 A 
ATOM     58  H   UNL A   1      45.960  28.591  27.468  1.00  0.00     0.167 HD
ATOM     59  C   UNL A   1      47.228  26.188  26.657  1.00  0.00     0.074 A 
ATOM     60  C   UNL A   1      47.432  24.797  26.304  1.00  0.00     0.031 C 
ATOM     61  C   UNL A   1      48.198  27.134  26.623  1.00  0.00     0.037 A 
BRANCH  48  62
ATOM     62  C   UNL A   1      46.278  32.779  28.260  1.00  0.00     0.058 A 
ATOM     63  C   UNL A   1      46.143  33.710  27.217  1.00  0.00     0.135 A 
ATOM     64  C   UNL A   1      46.711  33.254  29.508  1.00  0.00     0.135 A 
ATOM     65  F   UNL A   1      45.746  33.308  25.999  1.00  0.00    -0.206 F 
ATOM     66  C   UNL A   1      46.454  35.054  27.397  1.00  0.00     0.059 A 
ATOM     67  C   UNL A   1      47.001  34.600  29.718  1.00  0.00     0.059 A 
ATOM     68  F   UNL A   1      46.855  32.408  30.540  1.00  0.00    -0.206 F 
ATOM     69  C   UNL A   1      46.884  35.489  28.650  1.00  0.00     0.060 A 
BRANCH  69  70
ATOM     70  S   UNL A   1      47.285  37.235  28.871  1.00  0.00     0.124 S 
ATOM     71  O   UNL A   1      48.741  37.185  28.990  1.00  0.00    -0.237 OA
ATOM     72  O   UNL A   1      46.774  37.831  27.637  1.00  0.00    -0.237 OA
ATOM     73  O   UNL A   1      46.568  37.601  30.083  1.00  0.00    -0.744 OA
ENDBRANCH  69  70
ENDBRANCH  48  62
BRANCH  49  74
ATOM     74  C   UNL A   1      43.540  23.270  26.905  1.00  0.00     0.058 A 
ATOM     75  C   UNL A   1      43.332  22.384  27.972  1.00  0.00     0.135 A 
ATOM     76  C   UNL A   1      43.332  22.787  25.603  1.00  0.00     0.135 A 
ATOM     77  F   UNL A   1      43.525  22.797  29.234  1.00  0.00    -0.206 F 
ATOM     78  C   UNL A   1      42.947  21.064  27.758  1.00  0.00     0.059 A 
ATOM     79  C   UNL A   1      42.924  21.479  25.365  1.00  0.00     0.059 A 
ATOM     80  F   UNL A   1      43.503  23.600  24.549  1.00  0.00    -0.206 F 
ATOM     81  C   UNL A   1      42.742  20.622  26.450  1.00  0.00     0.060 A 
BRANCH  81  82
ATOM     82  S   UNL A   1      42.192  18.922  26.184  1.00  0.00     0.124 S 
ATOM     83  O   UNL A   1      40.819  19.124  25.738  1.00  0.00    -0.237 OA
ATOM     84  O   UNL A   1      43.131  18.451  25.171  1.00  0.00    -0.237 OA
ATOM     85  O   UNL A   1      42.346  18.311  27.501  1.00  0.00    -0.744 OA
ENDBRANCH  81  82
ENDBRANCH  49  74
BRANCH  61  86
ATOM     86  C   UNL A   1      49.579  26.696  26.218  1.00  0.00     0.058 A 
ATOM     87  C   UNL A   1      50.010  26.758  24.885  1.00  0.00     0.135 A 
ATOM     88  C   UNL A   1      50.498  26.258  27.186  1.00  0.00     0.135 A 
ATOM     89  F   UNL A   1      49.169  27.164  23.920  1.00  0.00    -0.206 F 
ATOM     90  C   UNL A   1      51.298  26.380  24.521  1.00  0.00     0.059 A 
ATOM     91  C   UNL A   1      51.799  25.898  26.848  1.00  0.00     0.059 A 
ATOM     92  F   UNL A   1      50.138  26.188  28.478  1.00  0.00    -0.206 F 
ATOM     93  C   UNL A   1      52.187  25.953  25.509  1.00  0.00     0.060 A 
BRANCH  93  94
ATOM     94  S   UNL A   1      53.867  25.499  25.029  1.00  0.00     0.124 S 
ATOM     95  O   UNL A   1      54.647  26.054  26.129  1.00  0.00    -0.237 OA
ATOM     96  O   UNL A   1      53.794  24.043  24.975  1.00  0.00    -0.237 OA
ATOM     97  O   UNL A   1      54.040  26.159  23.738  1.00  0.00    -0.744 OA
ENDBRANCH  93  94
ENDBRANCH  61  86
ENDBRANCH  35  36
ENDBRANCH  27  30
ENDBRANCH  25  26
ENDBRANCH  24  25
ENDBRANCH   1  24
TORSDOF 19
ENDMDL
MODEL 3
REMARK VINA RESULT:     -10.5      1.201      2.327
REMARK SMILES CC[C@](C)(NC(=O)NC[C@@H](C)[NH+](C)C)C(=O)NCCCCNC(=O)c1ccc(-c2c3nc(c(-c4c(F)cc(S(=O)(=O)[O-])cc4F)c4ccc([nH]4)c(-c4c(F)cc(S(=O)(=O)[O-])cc4F)c4nc(c(-c5c(F)cc(S(=O)(=O)[O-])cc5F)c5ccc2[nH]5)C=C4)C=C3)cc1
REMARK SMILES IDX 19 1 18 2 17 3 15 4 16 5 3 7 4 8 2 9 1 10 5 11 6 12 7 14
REMARK SMILES IDX 8 15 9 17 10 18 11 19 12 20 13 21 14 22 20 24 21 25 22 26
REMARK SMILES IDX 23 27 24 29 25 30 26 31 90 32 27 33 89 34 28 35 29 36 30 37
REMARK SMILES IDX 83 38 31 39 88 40 82 41 84 42 32 43 87 44 81 45 80 46 33 48
REMARK SMILES IDX 67 49 46 50 66 51 47 52 50 53 65 54 85 55 48 56 49 57 64 59
REMARK SMILES IDX 86 60 51 61 34 62 35 63 44 64 36 65 37 66 43 67 45 68 38 69
REMARK SMILES IDX 39 70 40 71 41 72 42 73 68 74 69 75 78 76 70 77 71 78 77 79
REMARK SMILES IDX 79 80 72 81 73 82 74 83 75 84 76 85 52 86 53 87 62 88 54 89
REMARK SMILES IDX 55 90 61 91 63 92 56 93 57 94 58 95 59 96 60 97
REMARK H PARENT 17 6 5 13 8 16 12 23 22 28 84 47 50 58
REMARK Flexibility Score: inf
ROOT
ATOM      1  C   UNL A   1      34.361  28.611  26.304  1.00  0.00     0.023 C 
ENDROOT
BRANCH   1   2
ATOM      2  C   UNL A   1      33.215  27.611  26.100  1.00  0.00     0.116 C 
BRANCH   2   3
ATOM      3  N   UNL A   1      32.625  27.450  24.781  1.00  0.00    -0.354 N 
ATOM      4  C   UNL A   1      32.021  26.391  24.156  1.00  0.00     0.245 C 
ATOM      5  O   UNL A   1      31.174  26.659  23.294  1.00  0.00    -0.272 OA
ATOM      6  H   UNL A   1      32.667  28.264  24.228  1.00  0.00     0.163 HD
BRANCH   4   7
ATOM      7  C   UNL A   1      32.220  24.927  24.606  1.00  0.00     0.117 C 
ATOM      8  C   UNL A   1      33.683  24.561  24.934  1.00  0.00     0.045 C 
BRANCH   7   9
ATOM      9  C   UNL A   1      31.793  24.028  23.394  1.00  0.00     0.035 C 
ATOM     10  C   UNL A   1      32.904  23.757  22.372  1.00  0.00     0.007 C 
ENDBRANCH   7   9
BRANCH   7  11
ATOM     11  N   UNL A   1      31.391  24.630  25.784  1.00  0.00    -0.324 N 
ATOM     12  C   UNL A   1      30.929  23.513  26.359  1.00  0.00     0.315 C 
ATOM     13  H   UNL A   1      31.109  25.445  26.260  1.00  0.00     0.166 HD
ATOM     14  O   UNL A   1      30.082  23.670  27.247  1.00  0.00    -0.249 OA
ATOM     15  N   UNL A   1      31.327  22.261  26.116  1.00  0.00    -0.332 N 
ATOM     16  H   UNL A   1      30.949  21.637  26.777  1.00  0.00     0.165 HD
BRANCH  15  17
ATOM     17  C   UNL A   1      32.167  21.550  25.144  1.00  0.00     0.182 C 
BRANCH  17  18
ATOM     18  C   UNL A   1      32.966  20.332  25.717  1.00  0.00     0.200 C 
ATOM     19  C   UNL A   1      32.926  19.125  24.773  1.00  0.00     0.077 C 
BRANCH  18  20
ATOM     20  N   UNL A   1      34.327  20.703  26.150  1.00  0.00    -0.336 N 
ATOM     21  C   UNL A   1      35.240  21.055  25.069  1.00  0.00     0.332 C 
ATOM     22  C   UNL A   1      34.400  21.673  27.233  1.00  0.00     0.332 C 
ATOM     23  H   UNL A   1      34.657  19.821  26.543  1.00  0.00     0.347 HD
ENDBRANCH  18  20
ENDBRANCH  17  18
ENDBRANCH  15  17
ENDBRANCH   7  11
ENDBRANCH   4   7
ENDBRANCH   2   3
ENDBRANCH   1   2
BRANCH   1  24
ATOM     24  C   UNL A   1      34.724  29.085  27.712  1.00  0.00     0.023 C 
BRANCH  24  25
ATOM     25  C   UNL A   1      35.253  30.505  27.830  1.00  0.00     0.116 C 
BRANCH  25  26
ATOM     26  N   UNL A   1      35.279  30.953  29.210  1.00  0.00    -0.352 N 
ATOM     27  C   UNL A   1      36.274  30.821  30.145  1.00  0.00     0.251 C 
ATOM     28  H   UNL A   1      34.467  31.419  29.519  1.00  0.00     0.163 HD
ATOM     29  O   UNL A   1      36.028  31.070  31.325  1.00  0.00    -0.269 OA
BRANCH  27  30
ATOM     30  C   UNL A   1      37.630  30.370  29.754  1.00  0.00     0.039 A 
ATOM     31  C   UNL A   1      38.583  30.160  30.756  1.00  0.00     0.014 A 
ATOM     32  C   UNL A   1      37.988  30.210  28.411  1.00  0.00     0.014 A 
ATOM     33  C   UNL A   1      39.879  29.759  30.416  1.00  0.00     0.010 A 
ATOM     34  C   UNL A   1      39.266  29.757  28.077  1.00  0.00     0.010 A 
ATOM     35  C   UNL A   1      40.229  29.540  29.075  1.00  0.00    -0.014 A 
BRANCH  35  36
ATOM     36  C   UNL A   1      41.602  29.106  28.704  1.00  0.00     0.031 A 
ATOM     37  C   UNL A   1      42.729  30.104  28.664  1.00  0.00     0.074 A 
ATOM     38  C   UNL A   1      41.829  27.822  28.363  1.00  0.00     0.049 A 
ATOM     39  N   UNL A   1      43.977  29.927  28.317  1.00  0.00    -0.248 NA
ATOM     40  C   UNL A   1      42.403  31.488  29.046  1.00  0.00     0.031 C 
ATOM     41  C   UNL A   1      40.816  26.766  28.325  1.00  0.00     0.029 A 
ATOM     42  N   UNL A   1      42.984  27.189  27.974  1.00  0.00    -0.354 N 
ATOM     43  C   UNL A   1      44.585  31.174  28.429  1.00  0.00     0.074 A 
ATOM     44  C   UNL A   1      43.555  32.108  28.830  1.00  0.00     0.031 C 
ATOM     45  C   UNL A   1      41.395  25.615  27.945  1.00  0.00     0.029 A 
ATOM     46  C   UNL A   1      42.812  25.856  27.685  1.00  0.00     0.049 A 
ATOM     47  H   UNL A   1      43.853  27.646  27.909  1.00  0.00     0.167 HD
ATOM     48  C   UNL A   1      45.885  31.505  28.237  1.00  0.00     0.037 A 
ATOM     49  C   UNL A   1      43.692  24.932  27.250  1.00  0.00     0.037 A 
ATOM     50  C   UNL A   1      46.912  30.570  27.860  1.00  0.00     0.049 A 
ATOM     51  C   UNL A   1      45.130  25.323  27.046  1.00  0.00     0.074 A 
ATOM     52  C   UNL A   1      48.266  30.802  27.686  1.00  0.00     0.029 A 
ATOM     53  N   UNL A   1      46.702  29.223  27.599  1.00  0.00    -0.354 N 
ATOM     54  N   UNL A   1      45.695  26.496  27.208  1.00  0.00    -0.248 NA
ATOM     55  C   UNL A   1      46.053  24.265  26.610  1.00  0.00     0.031 C 
ATOM     56  C   UNL A   1      48.867  29.603  27.285  1.00  0.00     0.029 A 
ATOM     57  C   UNL A   1      47.897  28.615  27.251  1.00  0.00     0.049 A 
ATOM     58  H   UNL A   1      45.831  28.767  27.653  1.00  0.00     0.167 HD
ATOM     59  C   UNL A   1      47.043  26.312  26.915  1.00  0.00     0.074 A 
ATOM     60  C   UNL A   1      47.210  24.913  26.579  1.00  0.00     0.031 C 
ATOM     61  C   UNL A   1      48.050  27.220  26.924  1.00  0.00     0.037 A 
BRANCH  48  62
ATOM     62  C   UNL A   1      46.273  32.945  28.440  1.00  0.00     0.058 A 
ATOM     63  C   UNL A   1      46.231  33.873  27.386  1.00  0.00     0.135 A 
ATOM     64  C   UNL A   1      46.656  33.413  29.707  1.00  0.00     0.135 A 
ATOM     65  F   UNL A   1      45.885  33.477  26.150  1.00  0.00    -0.206 F 
ATOM     66  C   UNL A   1      46.585  35.205  27.574  1.00  0.00     0.059 A 
ATOM     67  C   UNL A   1      46.988  34.747  29.924  1.00  0.00     0.059 A 
ATOM     68  F   UNL A   1      46.712  32.570  30.750  1.00  0.00    -0.206 F 
ATOM     69  C   UNL A   1      46.964  35.633  28.847  1.00  0.00     0.060 A 
BRANCH  69  70
ATOM     70  S   UNL A   1      47.420  37.363  29.079  1.00  0.00     0.124 S 
ATOM     71  O   UNL A   1      46.381  38.043  28.306  1.00  0.00    -0.237 OA
ATOM     72  O   UNL A   1      47.328  37.518  30.530  1.00  0.00    -0.237 OA
ATOM     73  O   UNL A   1      48.764  37.441  28.528  1.00  0.00    -0.744 OA
ENDBRANCH  69  70
ENDBRANCH  48  62
BRANCH  49  74
ATOM     74  C   UNL A   1      43.238  23.540  26.996  1.00  0.00     0.058 A 
ATOM     75  C   UNL A   1      42.975  23.091  25.694  1.00  0.00     0.135 A 
ATOM     76  C   UNL A   1      43.073  22.626  28.049  1.00  0.00     0.135 A 
ATOM     77  F   UNL A   1      43.112  23.929  24.655  1.00  0.00    -0.206 F 
ATOM     78  C   UNL A   1      42.550  21.790  25.444  1.00  0.00     0.059 A 
ATOM     79  C   UNL A   1      42.671  21.314  27.822  1.00  0.00     0.059 A 
ATOM     80  F   UNL A   1      43.327  23.003  29.312  1.00  0.00    -0.206 F 
ATOM     81  C   UNL A   1      42.403  20.907  26.516  1.00  0.00     0.060 A 
BRANCH  81  82
ATOM     82  S   UNL A   1      41.900  19.206  26.177  1.00  0.00     0.124 S 
ATOM     83  O   UNL A   1      42.282  18.535  27.414  1.00  0.00    -0.237 OA
ATOM     84  O   UNL A   1      40.467  19.351  25.945  1.00  0.00    -0.237 OA
ATOM     85  O   UNL A   1      42.686  18.854  24.998  1.00  0.00    -0.744 OA
ENDBRANCH  81  82
ENDBRANCH  49  74
BRANCH  61  86
ATOM     86  C   UNL A   1      49.431  26.726  26.590  1.00  0.00     0.058 A 
ATOM     87  C   UNL A   1      50.288  26.213  27.574  1.00  0.00     0.135 A 
ATOM     88  C   UNL A   1      49.880  26.717  25.258  1.00  0.00     0.135 A 
ATOM     89  F   UNL A   1      49.909  26.204  28.862  1.00  0.00    -0.206 F 
ATOM     90  C   UNL A   1      51.552  25.730  27.255  1.00  0.00     0.059 A 
ATOM     91  C   UNL A   1      51.130  26.216  24.913  1.00  0.00     0.059 A 
ATOM     92  F   UNL A   1      49.094  27.189  24.277  1.00  0.00    -0.206 F 
ATOM     93  C   UNL A   1      51.965  25.733  25.921  1.00  0.00     0.060 A 
BRANCH  93  94
ATOM     94  S   UNL A   1      53.594  25.070  25.514  1.00  0.00     0.124 S 
ATOM     95  O   UNL A   1      54.325  25.305  26.754  1.00  0.00    -0.237 OA
ATOM     96  O   UNL A   1      53.297  23.675  25.208  1.00  0.00    -0.237 OA
ATOM     97  O   UNL A   1      54.014  25.879  24.374  1.00  0.00    -0.744 OA
ENDBRANCH  93  94
ENDBRANCH  61  86
ENDBRANCH  35  36
ENDBRANCH  27  30
ENDBRANCH  25  26
ENDBRANCH  24  25
ENDBRANCH   1  24
TORSDOF 19
ENDMDL
