MODEL 1
REMARK VINA RESULT:     -12.1      0.000      0.000
REMARK SMILES C=CC[C@@H](Cc1ccc(C)cc1)C(=O)NCCCCNC(=O)c1ccc(-c2c3nc(c(-c4c(F)cc(S(=O)(=O)[O-])cc4F)c4ccc([nH]4)c(-c4c(F)cc(S(=O)(=O)[O-])cc4F)c4nc(c(-c5c(F)cc(S(=O)(=O)[O-])cc5F)c5ccc2[nH]5)C=C4)C=C3)cc1
REMARK SMILES IDX 18 1 17 2 16 3 15 4 13 5 14 6 4 8 3 9 2 10 1 11 5 12 6 13
REMARK SMILES IDX 7 14 12 15 8 16 11 17 9 18 10 19 19 20 20 21 21 22 22 24
REMARK SMILES IDX 23 25 24 26 88 27 25 28 87 29 26 30 27 31 28 32 81 33 29 34
REMARK SMILES IDX 86 35 80 36 82 37 30 38 85 39 79 40 78 41 31 43 65 44 44 45
REMARK SMILES IDX 64 46 45 47 48 48 63 49 83 50 46 51 47 52 62 54 84 55 49 56
REMARK SMILES IDX 32 57 33 58 42 59 34 60 35 61 41 62 43 63 36 64 37 65 38 66
REMARK SMILES IDX 39 67 40 68 66 69 67 70 76 71 68 72 69 73 75 74 77 75 70 76
REMARK SMILES IDX 71 77 72 78 73 79 74 80 50 81 51 82 60 83 52 84 53 85 59 86
REMARK SMILES IDX 61 87 54 88 55 89 56 90 57 91 58 92
REMARK H PARENT 15 7 20 23 82 42 48 53
REMARK Flexibility Score: inf
ROOT
ATOM      1  C   UNL A   1      33.969  29.313  27.346  1.00  0.00     0.023 C 
ENDROOT
BRANCH   1   2
ATOM      2  C   UNL A   1      32.684  30.099  27.105  1.00  0.00     0.023 C 
BRANCH   2   3
ATOM      3  C   UNL A   1      31.655  29.422  26.190  1.00  0.00     0.116 C 
BRANCH   3   4
ATOM      4  N   UNL A   1      31.964  29.636  24.781  1.00  0.00    -0.356 N 
ATOM      5  C   UNL A   1      32.408  28.792  23.814  1.00  0.00     0.223 C 
ATOM      6  O   UNL A   1      32.790  29.299  22.753  1.00  0.00    -0.275 OA
ATOM      7  H   UNL A   1      31.824  30.561  24.476  1.00  0.00     0.163 HD
BRANCH   5   8
ATOM      8  C   UNL A   1      32.443  27.273  23.984  1.00  0.00     0.086 C 
BRANCH   8   9
ATOM      9  C   UNL A   1      31.887  26.573  22.731  1.00  0.00     0.040 C 
BRANCH   9  10
ATOM     10  C   UNL A   1      32.932  26.024  21.799  1.00  0.00    -0.034 C 
ATOM     11  C   UNL A   1      32.669  25.491  20.599  1.00  0.00     0.004 C 
ENDBRANCH   9  10
ENDBRANCH   8   9
BRANCH   8  12
ATOM     12  C   UNL A   1      33.816  26.769  24.477  1.00  0.00     0.049 C 
BRANCH  12  13
ATOM     13  C   UNL A   1      33.845  25.467  25.260  1.00  0.00    -0.047 A 
ATOM     14  C   UNL A   1      32.707  25.088  25.989  1.00  0.00     0.004 A 
ATOM     15  C   UNL A   1      34.977  24.644  25.338  1.00  0.00     0.004 A 
ATOM     16  C   UNL A   1      32.691  23.909  26.743  1.00  0.00     0.004 A 
ATOM     17  C   UNL A   1      34.960  23.460  26.081  1.00  0.00     0.004 A 
ATOM     18  C   UNL A   1      33.817  23.081  26.789  1.00  0.00    -0.051 A 
ATOM     19  C   UNL A   1      33.795  21.815  27.591  1.00  0.00     0.044 C 
ENDBRANCH  12  13
ENDBRANCH   8  12
ENDBRANCH   5   8
ENDBRANCH   3   4
ENDBRANCH   2   3
ENDBRANCH   1   2
BRANCH   1  20
ATOM     20  C   UNL A   1      35.227  29.949  26.777  1.00  0.00     0.116 C 
BRANCH  20  21
ATOM     21  N   UNL A   1      35.951  30.848  27.670  1.00  0.00    -0.352 N 
ATOM     22  C   UNL A   1      36.969  30.557  28.572  1.00  0.00     0.251 C 
ATOM     23  H   UNL A   1      35.682  31.794  27.627  1.00  0.00     0.163 HD
ATOM     24  O   UNL A   1      37.351  31.353  29.426  1.00  0.00    -0.269 OA
BRANCH  22  25
ATOM     25  C   UNL A   1      37.764  29.330  28.355  1.00  0.00     0.039 A 
ATOM     26  C   UNL A   1      37.892  28.486  29.470  1.00  0.00     0.014 A 
ATOM     27  C   UNL A   1      38.683  29.295  27.318  1.00  0.00     0.014 A 
ATOM     28  C   UNL A   1      39.102  27.855  29.684  1.00  0.00     0.010 A 
ATOM     29  C   UNL A   1      39.940  28.848  27.617  1.00  0.00     0.010 A 
ATOM     30  C   UNL A   1      40.143  28.167  28.816  1.00  0.00    -0.014 A 
BRANCH  30  31
ATOM     31  C   UNL A   1      41.482  27.668  28.984  1.00  0.00     0.031 A 
ATOM     32  C   UNL A   1      41.664  26.285  28.533  1.00  0.00     0.074 A 
ATOM     33  C   UNL A   1      42.432  28.489  29.473  1.00  0.00     0.049 A 
ATOM     34  N   UNL A   1      42.409  25.421  29.112  1.00  0.00    -0.248 NA
ATOM     35  C   UNL A   1      40.894  25.725  27.418  1.00  0.00     0.031 C 
ATOM     36  C   UNL A   1      43.860  28.243  29.611  1.00  0.00     0.029 A 
ATOM     37  N   UNL A   1      42.213  29.686  30.168  1.00  0.00    -0.354 N 
ATOM     38  C   UNL A   1      42.487  24.340  28.260  1.00  0.00     0.074 A 
ATOM     39  C   UNL A   1      41.418  24.504  27.313  1.00  0.00     0.031 C 
ATOM     40  C   UNL A   1      44.332  29.040  30.587  1.00  0.00     0.029 A 
ATOM     41  C   UNL A   1      43.196  29.743  31.170  1.00  0.00     0.049 A 
ATOM     42  H   UNL A   1      41.511  30.354  29.990  1.00  0.00     0.167 HD
ATOM     43  C   UNL A   1      43.590  23.547  28.316  1.00  0.00     0.037 A 
ATOM     44  C   UNL A   1      42.811  29.648  32.475  1.00  0.00     0.037 A 
ATOM     45  C   UNL A   1      44.488  24.053  29.351  1.00  0.00     0.049 A 
ATOM     46  C   UNL A   1      43.286  28.360  33.110  1.00  0.00     0.074 A 
ATOM     47  C   UNL A   1      45.542  24.952  29.289  1.00  0.00     0.029 A 
ATOM     48  N   UNL A   1      44.070  24.033  30.679  1.00  0.00    -0.354 N 
ATOM     49  N   UNL A   1      43.508  27.253  32.447  1.00  0.00    -0.248 NA
ATOM     50  C   UNL A   1      43.678  28.257  34.512  1.00  0.00     0.031 C 
ATOM     51  C   UNL A   1      45.711  25.523  30.576  1.00  0.00     0.029 A 
ATOM     52  C   UNL A   1      44.766  24.968  31.424  1.00  0.00     0.049 A 
ATOM     53  H   UNL A   1      43.375  23.436  31.037  1.00  0.00     0.167 HD
ATOM     54  C   UNL A   1      44.103  26.329  33.276  1.00  0.00     0.074 A 
ATOM     55  C   UNL A   1      44.182  27.011  34.557  1.00  0.00     0.031 C 
ATOM     56  C   UNL A   1      44.533  25.098  32.855  1.00  0.00     0.037 A 
BRANCH  43  57
ATOM     57  C   UNL A   1      43.981  22.605  27.204  1.00  0.00     0.058 A 
ATOM     58  C   UNL A   1      43.167  21.500  26.887  1.00  0.00     0.135 A 
ATOM     59  C   UNL A   1      45.158  22.718  26.434  1.00  0.00     0.135 A 
ATOM     60  F   UNL A   1      41.996  21.291  27.504  1.00  0.00    -0.206 F 
ATOM     61  C   UNL A   1      43.515  20.549  25.929  1.00  0.00     0.059 A 
ATOM     62  C   UNL A   1      45.556  21.751  25.502  1.00  0.00     0.059 A 
ATOM     63  F   UNL A   1      45.949  23.797  26.527  1.00  0.00    -0.206 F 
ATOM     64  C   UNL A   1      44.721  20.672  25.251  1.00  0.00     0.060 A 
BRANCH  64  65
ATOM     65  S   UNL A   1      45.141  19.427  24.017  1.00  0.00     0.124 S 
ATOM     66  O   UNL A   1      44.480  18.236  24.542  1.00  0.00    -0.237 OA
ATOM     67  O   UNL A   1      44.558  19.997  22.807  1.00  0.00    -0.237 OA
ATOM     68  O   UNL A   1      46.601  19.392  24.053  1.00  0.00    -0.744 OA
ENDBRANCH  64  65
ENDBRANCH  43  57
BRANCH  44  69
ATOM     69  C   UNL A   1      41.619  30.496  32.794  1.00  0.00     0.058 A 
ATOM     70  C   UNL A   1      40.410  29.807  33.018  1.00  0.00     0.135 A 
ATOM     71  C   UNL A   1      41.704  31.796  33.319  1.00  0.00     0.135 A 
ATOM     72  F   UNL A   1      40.258  28.557  32.551  1.00  0.00    -0.206 F 
ATOM     73  C   UNL A   1      39.391  30.320  33.818  1.00  0.00     0.059 A 
ATOM     74  C   UNL A   1      40.696  32.328  34.149  1.00  0.00     0.059 A 
ATOM     75  F   UNL A   1      42.807  32.529  33.114  1.00  0.00    -0.206 F 
ATOM     76  C   UNL A   1      39.557  31.563  34.420  1.00  0.00     0.060 A 
BRANCH  76  77
ATOM     77  S   UNL A   1      38.338  32.090  35.660  1.00  0.00     0.124 S 
ATOM     78  O   UNL A   1      37.103  32.114  34.876  1.00  0.00    -0.237 OA
ATOM     79  O   UNL A   1      38.419  31.031  36.666  1.00  0.00    -0.237 OA
ATOM     80  O   UNL A   1      38.848  33.370  36.113  1.00  0.00    -0.744 OA
ENDBRANCH  76  77
ENDBRANCH  44  69
BRANCH  56  81
ATOM     81  C   UNL A   1      44.894  23.907  33.729  1.00  0.00     0.058 A 
ATOM     82  C   UNL A   1      44.028  22.838  34.009  1.00  0.00     0.135 A 
ATOM     83  C   UNL A   1      46.229  23.727  34.192  1.00  0.00     0.135 A 
ATOM     84  F   UNL A   1      42.773  22.806  33.541  1.00  0.00    -0.206 F 
ATOM     85  C   UNL A   1      44.427  21.721  34.744  1.00  0.00     0.059 A 
ATOM     86  C   UNL A   1      46.669  22.584  34.849  1.00  0.00     0.059 A 
ATOM     87  F   UNL A   1      47.180  24.655  34.007  1.00  0.00    -0.206 F 
ATOM     88  C   UNL A   1      45.750  21.598  35.153  1.00  0.00     0.060 A 
BRANCH  88  89
ATOM     89  S   UNL A   1      46.272  20.129  36.050  1.00  0.00     0.124 S 
ATOM     90  O   UNL A   1      45.931  20.494  37.421  1.00  0.00    -0.237 OA
ATOM     91  O   UNL A   1      45.448  19.084  35.450  1.00  0.00    -0.237 OA
ATOM     92  O   UNL A   1      47.699  20.040  35.754  1.00  0.00    -0.744 OA
ENDBRANCH  88  89
ENDBRANCH  56  81
ENDBRANCH  30  31
ENDBRANCH  22  25
ENDBRANCH  20  21
ENDBRANCH   1  20
TORSDOF 18
ENDMDL
MODEL 2
REMARK VINA RESULT:     -12.1      5.000     11.629
REMARK SMILES C=CC[C@@H](Cc1ccc(C)cc1)C(=O)NCCCCNC(=O)c1ccc(-c2c3nc(c(-c4c(F)cc(S(=O)(=O)[O-])cc4F)c4ccc([nH]4)c(-c4c(F)cc(S(=O)(=O)[O-])cc4F)c4nc(c(-c5c(F)cc(S(=O)(=O)[O-])cc5F)c5ccc2[nH]5)C=C4)C=C3)cc1
REMARK SMILES IDX 18 1 17 2 16 3 15 4 13 5 14 6 4 8 3 9 2 10 1 11 5 12 6 13
REMARK SMILES IDX 7 14 12 15 8 16 11 17 9 18 10 19 19 20 20 21 21 22 22 24
REMARK SMILES IDX 23 25 24 26 88 27 25 28 87 29 26 30 27 31 28 32 81 33 29 34
REMARK SMILES IDX 86 35 80 36 82 37 30 38 85 39 79 40 78 41 31 43 65 44 44 45
REMARK SMILES IDX 64 46 45 47 48 48 63 49 83 50 46 51 47 52 62 54 84 55 49 56
REMARK SMILES IDX 32 57 33 58 42 59 34 60 35 61 41 62 43 63 36 64 37 65 38 66
REMARK SMILES IDX 39 67 40 68 66 69 67 70 76 71 68 72 69 73 75 74 77 75 70 76
REMARK SMILES IDX 71 77 72 78 73 79 74 80 50 81 51 82 60 83 52 84 53 85 59 86
REMARK SMILES IDX 61 87 54 88 55 89 56 90 57 91 58 92
REMARK H PARENT 15 7 20 23 82 42 48 53
REMARK Flexibility Score: inf
ROOT
ATOM      1  C   UNL A   1      37.724  22.343  25.689  1.00  0.00     0.023 C 
ENDROOT
BRANCH   1   2
ATOM      2  C   UNL A   1      36.209  22.174  25.771  1.00  0.00     0.023 C 
BRANCH   2   3
ATOM      3  C   UNL A   1      35.434  23.391  26.292  1.00  0.00     0.116 C 
BRANCH   3   4
ATOM      4  N   UNL A   1      34.108  23.021  26.772  1.00  0.00    -0.356 N 
ATOM      5  C   UNL A   1      32.898  23.626  26.647  1.00  0.00     0.223 C 
ATOM      6  O   UNL A   1      31.974  23.193  27.344  1.00  0.00    -0.275 OA
ATOM      7  H   UNL A   1      34.086  22.177  27.278  1.00  0.00     0.163 HD
BRANCH   5   8
ATOM      8  C   UNL A   1      32.644  24.793  25.691  1.00  0.00     0.086 C 
BRANCH   8   9
ATOM      9  C   UNL A   1      32.268  24.276  24.291  1.00  0.00     0.040 C 
BRANCH   9  10
ATOM     10  C   UNL A   1      33.154  24.767  23.179  1.00  0.00    -0.034 C 
ATOM     11  C   UNL A   1      33.410  26.057  22.930  1.00  0.00     0.004 C 
ENDBRANCH   9  10
ENDBRANCH   8   9
BRANCH   8  12
ATOM     12  C   UNL A   1      31.692  25.848  26.293  1.00  0.00     0.049 C 
BRANCH  12  13
ATOM     13  C   UNL A   1      32.263  27.227  26.580  1.00  0.00    -0.047 A 
ATOM     14  C   UNL A   1      33.636  27.446  26.384  1.00  0.00     0.004 A 
ATOM     15  C   UNL A   1      31.496  28.285  27.086  1.00  0.00     0.004 A 
ATOM     16  C   UNL A   1      34.214  28.692  26.654  1.00  0.00     0.004 A 
ATOM     17  C   UNL A   1      32.069  29.533  27.346  1.00  0.00     0.004 A 
ATOM     18  C   UNL A   1      33.432  29.749  27.131  1.00  0.00    -0.051 A 
ATOM     19  C   UNL A   1      34.053  31.083  27.412  1.00  0.00     0.044 C 
ENDBRANCH  12  13
ENDBRANCH   8  12
ENDBRANCH   5   8
ENDBRANCH   3   4
ENDBRANCH   2   3
ENDBRANCH   1   2
BRANCH   1  20
ATOM     20  C   UNL A   1      38.257  23.635  26.289  1.00  0.00     0.116 C 
BRANCH  20  21
ATOM     21  N   UNL A   1      39.453  23.511  27.117  1.00  0.00    -0.352 N 
ATOM     22  C   UNL A   1      40.229  24.510  27.694  1.00  0.00     0.251 C 
ATOM     23  H   UNL A   1      39.752  22.590  27.292  1.00  0.00     0.163 HD
ATOM     24  O   UNL A   1      41.333  24.297  28.186  1.00  0.00    -0.269 OA
BRANCH  22  25
ATOM     25  C   UNL A   1      39.609  25.834  27.916  1.00  0.00     0.039 A 
ATOM     26  C   UNL A   1      40.119  26.882  27.134  1.00  0.00     0.014 A 
ATOM     27  C   UNL A   1      38.961  26.084  29.117  1.00  0.00     0.014 A 
ATOM     28  C   UNL A   1      40.262  28.128  27.711  1.00  0.00     0.010 A 
ATOM     29  C   UNL A   1      39.281  27.244  29.764  1.00  0.00     0.010 A 
ATOM     30  C   UNL A   1      39.962  28.239  29.064  1.00  0.00    -0.014 A 
BRANCH  30  31
ATOM     31  C   UNL A   1      40.167  29.447  29.818  1.00  0.00     0.031 A 
ATOM     32  C   UNL A   1      39.081  30.423  29.685  1.00  0.00     0.074 A 
ATOM     33  C   UNL A   1      41.264  29.561  30.592  1.00  0.00     0.049 A 
ATOM     34  N   UNL A   1      39.244  31.692  29.632  1.00  0.00    -0.248 NA
ATOM     35  C   UNL A   1      37.690  30.013  29.474  1.00  0.00     0.031 C 
ATOM     36  C   UNL A   1      41.611  30.624  31.523  1.00  0.00     0.029 A 
ATOM     37  N   UNL A   1      42.425  28.781  30.501  1.00  0.00    -0.354 N 
ATOM     38  C   UNL A   1      37.988  32.250  29.741  1.00  0.00     0.074 A 
ATOM     39  C   UNL A   1      37.058  31.186  29.480  1.00  0.00     0.031 C 
ATOM     40  C   UNL A   1      42.949  30.640  31.665  1.00  0.00     0.029 A 
ATOM     41  C   UNL A   1      43.501  29.650  30.748  1.00  0.00     0.049 A 
ATOM     42  H   UNL A   1      42.477  27.817  30.302  1.00  0.00     0.167 HD
ATOM     43  C   UNL A   1      37.876  33.500  30.265  1.00  0.00     0.037 A 
ATOM     44  C   UNL A   1      44.366  29.932  29.731  1.00  0.00     0.037 A 
ATOM     45  C   UNL A   1      39.209  33.999  30.594  1.00  0.00     0.049 A 
ATOM     46  C   UNL A   1      44.261  31.374  29.286  1.00  0.00     0.074 A 
ATOM     47  C   UNL A   1      39.946  33.931  31.767  1.00  0.00     0.029 A 
ATOM     48  N   UNL A   1      40.125  34.214  29.568  1.00  0.00    -0.354 N 
ATOM     49  N   UNL A   1      43.176  32.099  29.396  1.00  0.00    -0.248 NA
ATOM     50  C   UNL A   1      45.403  32.149  28.811  1.00  0.00     0.031 C 
ATOM     51  C   UNL A   1      41.320  34.040  31.429  1.00  0.00     0.029 A 
ATOM     52  C   UNL A   1      41.419  34.180  30.055  1.00  0.00     0.049 A 
ATOM     53  H   UNL A   1      39.884  34.368  28.627  1.00  0.00     0.167 HD
ATOM     54  C   UNL A   1      43.460  33.407  29.075  1.00  0.00     0.074 A 
ATOM     55  C   UNL A   1      44.868  33.379  28.714  1.00  0.00     0.031 C 
ATOM     56  C   UNL A   1      42.550  34.427  29.172  1.00  0.00     0.037 A 
BRANCH  43  57
ATOM     57  C   UNL A   1      36.579  34.053  30.801  1.00  0.00     0.058 A 
ATOM     58  C   UNL A   1      35.515  34.348  29.926  1.00  0.00     0.135 A 
ATOM     59  C   UNL A   1      36.331  34.340  32.160  1.00  0.00     0.135 A 
ATOM     60  F   UNL A   1      35.590  34.085  28.615  1.00  0.00    -0.206 F 
ATOM     61  C   UNL A   1      34.324  34.937  30.350  1.00  0.00     0.059 A 
ATOM     62  C   UNL A   1      35.166  34.977  32.604  1.00  0.00     0.059 A 
ATOM     63  F   UNL A   1      37.197  33.975  33.117  1.00  0.00    -0.206 F 
ATOM     64  C   UNL A   1      34.162  35.264  31.690  1.00  0.00     0.060 A 
BRANCH  64  65
ATOM     65  S   UNL A   1      32.611  36.022  32.206  1.00  0.00     0.124 S 
ATOM     66  O   UNL A   1      33.048  36.935  33.258  1.00  0.00    -0.237 OA
ATOM     67  O   UNL A   1      32.158  36.649  30.969  1.00  0.00    -0.237 OA
ATOM     68  O   UNL A   1      31.813  34.888  32.663  1.00  0.00    -0.744 OA
ENDBRANCH  64  65
ENDBRANCH  43  57
BRANCH  44  69
ATOM     69  C   UNL A   1      44.778  28.715  28.963  1.00  0.00     0.058 A 
ATOM     70  C   UNL A   1      44.294  28.622  27.643  1.00  0.00     0.135 A 
ATOM     71  C   UNL A   1      45.915  27.947  29.268  1.00  0.00     0.135 A 
ATOM     72  F   UNL A   1      43.214  29.332  27.276  1.00  0.00    -0.206 F 
ATOM     73  C   UNL A   1      44.961  27.911  26.647  1.00  0.00     0.059 A 
ATOM     74  C   UNL A   1      46.619  27.239  28.273  1.00  0.00     0.059 A 
ATOM     75  F   UNL A   1      46.411  27.953  30.512  1.00  0.00    -0.206 F 
ATOM     76  C   UNL A   1      46.150  27.257  26.956  1.00  0.00     0.060 A 
BRANCH  76  77
ATOM     77  S   UNL A   1      47.132  26.565  25.593  1.00  0.00     0.124 S 
ATOM     78  O   UNL A   1      47.193  25.149  25.956  1.00  0.00    -0.237 OA
ATOM     79  O   UNL A   1      46.320  26.875  24.416  1.00  0.00    -0.237 OA
ATOM     80  O   UNL A   1      48.375  27.309  25.660  1.00  0.00    -0.744 OA
ENDBRANCH  76  77
ENDBRANCH  44  69
BRANCH  56  81
ATOM     81  C   UNL A   1      42.657  35.810  28.549  1.00  0.00     0.058 A 
ATOM     82  C   UNL A   1      42.245  36.126  27.245  1.00  0.00     0.135 A 
ATOM     83  C   UNL A   1      43.043  36.931  29.339  1.00  0.00     0.135 A 
ATOM     84  F   UNL A   1      41.745  35.198  26.419  1.00  0.00    -0.206 F 
ATOM     85  C   UNL A   1      42.278  37.427  26.741  1.00  0.00     0.059 A 
ATOM     86  C   UNL A   1      43.000  38.244  28.884  1.00  0.00     0.059 A 
ATOM     87  F   UNL A   1      43.464  36.802  30.605  1.00  0.00    -0.206 F 
ATOM     88  C   UNL A   1      42.649  38.481  27.569  1.00  0.00     0.060 A 
BRANCH  88  89
ATOM     89  S   UNL A   1      42.635  40.162  26.931  1.00  0.00     0.124 S 
ATOM     90  O   UNL A   1      43.065  40.917  28.102  1.00  0.00    -0.237 OA
ATOM     91  O   UNL A   1      43.598  40.091  25.835  1.00  0.00    -0.237 OA
ATOM     92  O   UNL A   1      41.247  40.359  26.524  1.00  0.00    -0.744 OA
ENDBRANCH  88  89
ENDBRANCH  56  81
ENDBRANCH  30  31
ENDBRANCH  22  25
ENDBRANCH  20  21
ENDBRANCH   1  20
TORSDOF 18
ENDMDL
MODEL 3
REMARK VINA RESULT:     -12.0      3.307      5.734
REMARK SMILES C=CC[C@@H](Cc1ccc(C)cc1)C(=O)NCCCCNC(=O)c1ccc(-c2c3nc(c(-c4c(F)cc(S(=O)(=O)[O-])cc4F)c4ccc([nH]4)c(-c4c(F)cc(S(=O)(=O)[O-])cc4F)c4nc(c(-c5c(F)cc(S(=O)(=O)[O-])cc5F)c5ccc2[nH]5)C=C4)C=C3)cc1
REMARK SMILES IDX 18 1 17 2 16 3 15 4 13 5 14 6 4 8 3 9 2 10 1 11 5 12 6 13
REMARK SMILES IDX 7 14 12 15 8 16 11 17 9 18 10 19 19 20 20 21 21 22 22 24
REMARK SMILES IDX 23 25 24 26 88 27 25 28 87 29 26 30 27 31 28 32 81 33 29 34
REMARK SMILES IDX 86 35 80 36 82 37 30 38 85 39 79 40 78 41 31 43 65 44 44 45
REMARK SMILES IDX 64 46 45 47 48 48 63 49 83 50 46 51 47 52 62 54 84 55 49 56
REMARK SMILES IDX 32 57 33 58 42 59 34 60 35 61 41 62 43 63 36 64 37 65 38 66
REMARK SMILES IDX 39 67 40 68 66 69 67 70 76 71 68 72 69 73 75 74 77 75 70 76
REMARK SMILES IDX 71 77 72 78 73 79 74 80 50 81 51 82 60 83 52 84 53 85 59 86
REMARK SMILES IDX 61 87 54 88 55 89 56 90 57 91 58 92
REMARK H PARENT 15 7 20 23 82 42 48 53
REMARK Flexibility Score: inf
ROOT
ATOM      1  C   UNL A   1      39.082  32.876  31.301  1.00  0.00     0.023 C 
ENDROOT
BRANCH   1   2
ATOM      2  C   UNL A   1      40.363  33.672  31.065  1.00  0.00     0.023 C 
BRANCH   2   3
ATOM      3  C   UNL A   1      41.302  33.110  29.989  1.00  0.00     0.116 C 
BRANCH   3   4
ATOM      4  N   UNL A   1      42.700  33.201  30.392  1.00  0.00    -0.356 N 
ATOM      5  C   UNL A   1      43.853  32.934  29.726  1.00  0.00     0.223 C 
ATOM      6  O   UNL A   1      44.895  32.895  30.391  1.00  0.00    -0.275 OA
ATOM      7  H   UNL A   1      42.832  33.514  31.316  1.00  0.00     0.163 HD
BRANCH   5   8
ATOM      8  C   UNL A   1      43.908  32.692  28.217  1.00  0.00     0.086 C 
BRANCH   8   9
ATOM      9  C   UNL A   1      43.861  34.026  27.450  1.00  0.00     0.040 C 
BRANCH   9  10
ATOM     10  C   UNL A   1      43.953  33.898  25.955  1.00  0.00    -0.034 C 
ATOM     11  C   UNL A   1      44.956  34.385  25.215  1.00  0.00     0.004 C 
ENDBRANCH   9  10
ENDBRANCH   8   9
BRANCH   8  12
ATOM     12  C   UNL A   1      45.048  31.731  27.816  1.00  0.00     0.049 C 
BRANCH  12  13
ATOM     13  C   UNL A   1      44.657  30.393  27.211  1.00  0.00    -0.047 A 
ATOM     14  C   UNL A   1      45.651  29.421  27.016  1.00  0.00     0.004 A 
ATOM     15  C   UNL A   1      43.356  30.096  26.784  1.00  0.00     0.004 A 
ATOM     16  C   UNL A   1      45.345  28.181  26.443  1.00  0.00     0.004 A 
ATOM     17  C   UNL A   1      43.046  28.854  26.221  1.00  0.00     0.004 A 
ATOM     18  C   UNL A   1      44.037  27.885  26.048  1.00  0.00    -0.051 A 
ATOM     19  C   UNL A   1      43.712  26.553  25.441  1.00  0.00     0.044 C 
ENDBRANCH  12  13
ENDBRANCH   8  12
ENDBRANCH   5   8
ENDBRANCH   3   4
ENDBRANCH   2   3
ENDBRANCH   1   2
BRANCH   1  20
ATOM     20  C   UNL A   1      38.837  31.748  30.313  1.00  0.00     0.116 C 
BRANCH  20  21
ATOM     21  N   UNL A   1      37.445  31.510  29.943  1.00  0.00    -0.352 N 
ATOM     22  C   UNL A   1      36.918  30.576  29.059  1.00  0.00     0.251 C 
ATOM     23  H   UNL A   1      36.786  32.094  30.384  1.00  0.00     0.163 HD
ATOM     24  O   UNL A   1      35.757  30.613  28.662  1.00  0.00    -0.269 OA
BRANCH  22  25
ATOM     25  C   UNL A   1      37.721  29.372  28.755  1.00  0.00     0.039 A 
ATOM     26  C   UNL A   1      37.856  28.452  29.805  1.00  0.00     0.014 A 
ATOM     27  C   UNL A   1      38.641  29.418  27.718  1.00  0.00     0.014 A 
ATOM     28  C   UNL A   1      39.070  27.816  29.975  1.00  0.00     0.010 A 
ATOM     29  C   UNL A   1      39.900  28.960  27.985  1.00  0.00     0.010 A 
ATOM     30  C   UNL A   1      40.108  28.196  29.131  1.00  0.00    -0.014 A 
BRANCH  30  31
ATOM     31  C   UNL A   1      41.451  27.696  29.264  1.00  0.00     0.031 A 
ATOM     32  C   UNL A   1      41.627  26.325  28.775  1.00  0.00     0.074 A 
ATOM     33  C   UNL A   1      42.408  28.505  29.757  1.00  0.00     0.049 A 
ATOM     34  N   UNL A   1      42.384  25.448  29.320  1.00  0.00    -0.248 NA
ATOM     35  C   UNL A   1      40.839  25.791  27.660  1.00  0.00     0.031 C 
ATOM     36  C   UNL A   1      43.838  28.259  29.864  1.00  0.00     0.029 A 
ATOM     37  N   UNL A   1      42.199  29.685  30.485  1.00  0.00    -0.354 N 
ATOM     38  C   UNL A   1      42.448  24.389  28.440  1.00  0.00     0.074 A 
ATOM     39  C   UNL A   1      41.363  24.574  27.516  1.00  0.00     0.031 C 
ATOM     40  C   UNL A   1      44.326  29.032  30.852  1.00  0.00     0.029 A 
ATOM     41  C   UNL A   1      43.199  29.719  31.471  1.00  0.00     0.049 A 
ATOM     42  H   UNL A   1      41.493  30.356  30.336  1.00  0.00     0.167 HD
ATOM     43  C   UNL A   1      43.553  23.597  28.456  1.00  0.00     0.037 A 
ATOM     44  C   UNL A   1      42.837  29.590  32.780  1.00  0.00     0.037 A 
ATOM     45  C   UNL A   1      44.468  24.078  29.489  1.00  0.00     0.049 A 
ATOM     46  C   UNL A   1      43.325  28.287  33.374  1.00  0.00     0.074 A 
ATOM     47  C   UNL A   1      45.520  24.980  29.430  1.00  0.00     0.029 A 
ATOM     48  N   UNL A   1      44.073  24.024  30.822  1.00  0.00    -0.354 N 
ATOM     49  N   UNL A   1      43.537  27.198  32.680  1.00  0.00    -0.248 NA
ATOM     50  C   UNL A   1      43.741  28.150  34.766  1.00  0.00     0.031 C 
ATOM     51  C   UNL A   1      45.709  25.519  30.728  1.00  0.00     0.029 A 
ATOM     52  C   UNL A   1      44.781  24.941  31.578  1.00  0.00     0.049 A 
ATOM     53  H   UNL A   1      43.385  23.417  31.178  1.00  0.00     0.167 HD
ATOM     54  C   UNL A   1      44.148  26.254  33.475  1.00  0.00     0.074 A 
ATOM     55  C   UNL A   1      44.248  26.905  34.771  1.00  0.00     0.031 C 
ATOM     56  C   UNL A   1      44.572  25.035  33.016  1.00  0.00     0.037 A 
BRANCH  43  57
ATOM     57  C   UNL A   1      43.927  22.683  27.315  1.00  0.00     0.058 A 
ATOM     58  C   UNL A   1      43.175  21.519  27.059  1.00  0.00     0.135 A 
ATOM     59  C   UNL A   1      45.028  22.882  26.456  1.00  0.00     0.135 A 
ATOM     60  F   UNL A   1      42.074  21.225  27.764  1.00  0.00    -0.206 F 
ATOM     61  C   UNL A   1      43.518  20.595  26.074  1.00  0.00     0.059 A 
ATOM     62  C   UNL A   1      45.424  21.945  25.494  1.00  0.00     0.059 A 
ATOM     63  F   UNL A   1      45.741  24.018  26.491  1.00  0.00    -0.206 F 
ATOM     64  C   UNL A   1      44.655  20.806  25.304  1.00  0.00     0.060 A 
BRANCH  64  65
ATOM     65  S   UNL A   1      45.070  19.593  24.038  1.00  0.00     0.124 S 
ATOM     66  O   UNL A   1      46.526  19.532  24.134  1.00  0.00    -0.237 OA
ATOM     67  O   UNL A   1      44.353  18.413  24.507  1.00  0.00    -0.237 OA
ATOM     68  O   UNL A   1      44.555  20.192  22.810  1.00  0.00    -0.744 OA
ENDBRANCH  64  65
ENDBRANCH  43  57
BRANCH  44  69
ATOM     69  C   UNL A   1      41.650  30.427  33.140  1.00  0.00     0.058 A 
ATOM     70  C   UNL A   1      40.438  29.734  33.335  1.00  0.00     0.135 A 
ATOM     71  C   UNL A   1      41.741  31.702  33.725  1.00  0.00     0.135 A 
ATOM     72  F   UNL A   1      40.279  28.508  32.810  1.00  0.00    -0.206 F 
ATOM     73  C   UNL A   1      39.423  30.214  34.160  1.00  0.00     0.059 A 
ATOM     74  C   UNL A   1      40.738  32.198  34.582  1.00  0.00     0.059 A 
ATOM     75  F   UNL A   1      42.847  32.438  33.552  1.00  0.00    -0.206 F 
ATOM     76  C   UNL A   1      39.595  31.427  34.819  1.00  0.00     0.060 A 
BRANCH  76  77
ATOM     77  S   UNL A   1      38.381  31.900  36.085  1.00  0.00     0.124 S 
ATOM     78  O   UNL A   1      38.258  30.666  36.860  1.00  0.00    -0.237 OA
ATOM     79  O   UNL A   1      39.044  33.008  36.774  1.00  0.00    -0.237 OA
ATOM     80  O   UNL A   1      37.223  32.301  35.309  1.00  0.00    -0.744 OA
ENDBRANCH  76  77
ENDBRANCH  44  69
BRANCH  56  81
ATOM     81  C   UNL A   1      44.950  23.823  33.854  1.00  0.00     0.058 A 
ATOM     82  C   UNL A   1      44.060  22.798  34.210  1.00  0.00     0.135 A 
ATOM     83  C   UNL A   1      46.311  23.575  34.194  1.00  0.00     0.135 A 
ATOM     84  F   UNL A   1      42.769  22.831  33.857  1.00  0.00    -0.206 F 
ATOM     85  C   UNL A   1      44.467  21.658  34.906  1.00  0.00     0.059 A 
ATOM     86  C   UNL A   1      46.749  22.408  34.809  1.00  0.00     0.059 A 
ATOM     87  F   UNL A   1      47.286  24.455  33.925  1.00  0.00    -0.206 F 
ATOM     88  C   UNL A   1      45.814  21.468  35.194  1.00  0.00     0.060 A 
BRANCH  88  89
ATOM     89  S   UNL A   1      46.339  19.971  36.040  1.00  0.00     0.124 S 
ATOM     90  O   UNL A   1      47.791  20.090  35.960  1.00  0.00    -0.237 OA
ATOM     91  O   UNL A   1      45.763  20.141  37.371  1.00  0.00    -0.237 OA
ATOM     92  O   UNL A   1      45.746  18.903  35.240  1.00  0.00    -0.744 OA
ENDBRANCH  88  89
ENDBRANCH  56  81
ENDBRANCH  30  31
ENDBRANCH  22  25
ENDBRANCH  20  21
ENDBRANCH   1  20
TORSDOF 18
ENDMDL
