MODEL 1
REMARK VINA RESULT:     -10.5      0.000      0.000
REMARK SMILES COC(=O)C[C@H](NC(=O)N(C)C[C@@H]1CCC[N@H+]1C)C(=O)NCCCCNC(=O)c1ccc(-c2c3nc(c(-c4c(F)cc(S(=O)(=O)[O-])cc4F)c4ccc([nH]4)c(-c4c(F)cc(S(=O)(=O)[O-])cc4F)c4nc(c(-c5c(F)cc(S(=O)(=O)[O-])cc5F)c5ccc2[nH]5)C=C4)C=C3)cc1
REMARK SMILES IDX 23 1 22 2 21 3 19 4 20 5 6 7 5 8 3 9 4 10 2 11 1 12 7 13
REMARK SMILES IDX 8 14 9 16 10 17 11 18 12 19 13 20 14 21 17 22 15 23 16 24
REMARK SMILES IDX 18 25 24 27 25 28 26 29 27 30 28 32 29 33 30 34 94 35 31 36
REMARK SMILES IDX 93 37 32 38 33 39 34 40 87 41 35 42 92 43 86 44 88 45 36 46
REMARK SMILES IDX 91 47 85 48 84 49 37 51 71 52 50 53 70 54 51 55 54 56 69 57
REMARK SMILES IDX 89 58 52 59 53 60 68 62 90 63 55 64 38 65 39 66 48 67 40 68
REMARK SMILES IDX 41 69 47 70 49 71 42 72 43 73 44 74 45 75 46 76 72 77 73 78
REMARK SMILES IDX 82 79 74 80 75 81 81 82 83 83 76 84 77 85 78 86 79 87 80 88
REMARK SMILES IDX 56 89 57 90 66 91 58 92 59 93 65 94 67 95 60 96 61 97 62 98
REMARK SMILES IDX 63 99 64 100
REMARK H PARENT 21 6 7 15 17 26 26 31 88 50 54 61
REMARK Flexibility Score: inf
ROOT
ATOM      1  C   UNL A   1      31.354  27.295  26.535  1.00  0.00     0.023 C 
ENDROOT
BRANCH   1   2
ATOM      2  C   UNL A   1      31.763  25.897  26.088  1.00  0.00     0.116 C 
BRANCH   2   3
ATOM      3  N   UNL A   1      30.783  25.271  25.214  1.00  0.00    -0.354 N 
ATOM      4  C   UNL A   1      30.740  25.198  23.851  1.00  0.00     0.243 C 
ATOM      5  O   UNL A   1      29.907  24.446  23.336  1.00  0.00    -0.273 OA
ATOM      6  H   UNL A   1      30.035  24.831  25.677  1.00  0.00     0.163 HD
BRANCH   4   7
ATOM      7  C   UNL A   1      31.786  25.906  22.973  1.00  0.00     0.184 C 
BRANCH   7   8
ATOM      8  C   UNL A   1      31.091  27.078  22.269  1.00  0.00     0.157 C 
BRANCH   8   9
ATOM      9  C   UNL A   1      31.585  28.406  22.749  1.00  0.00     0.308 C 
ATOM     10  O   UNL A   1      32.705  28.577  23.218  1.00  0.00    -0.252 OA
BRANCH   9  11
ATOM     11  O   UNL A   1      30.626  29.359  22.631  1.00  0.00    -0.469 OA
ATOM     12  C   UNL A   1      29.297  28.844  22.712  1.00  0.00     0.282 C 
ENDBRANCH   9  11
ENDBRANCH   8   9
ENDBRANCH   7   8
BRANCH   7  13
ATOM     13  N   UNL A   1      32.419  24.937  22.077  1.00  0.00    -0.326 N 
ATOM     14  C   UNL A   1      33.299  23.933  22.238  1.00  0.00     0.318 C 
ATOM     15  H   UNL A   1      32.135  25.045  21.140  1.00  0.00     0.166 HD
ATOM     16  O   UNL A   1      33.443  23.224  21.236  1.00  0.00    -0.249 OA
BRANCH  14  17
ATOM     17  N   UNL A   1      33.926  23.650  23.419  1.00  0.00    -0.322 N 
ATOM     18  C   UNL A   1      35.173  24.184  23.943  1.00  0.00     0.149 C 
BRANCH  17  19
ATOM     19  C   UNL A   1      33.237  22.692  24.306  1.00  0.00     0.185 C 
BRANCH  19  20
ATOM     20  C   UNL A   1      33.584  21.226  23.963  1.00  0.00     0.203 C 
ATOM     21  C   UNL A   1      32.341  20.399  23.618  1.00  0.00     0.073 C 
ATOM     22  N   UNL A   1      34.166  20.444  25.072  1.00  0.00    -0.333 N 
ATOM     23  C   UNL A   1      32.690  18.967  24.007  1.00  0.00     0.068 C 
ATOM     24  C   UNL A   1      34.077  19.049  24.620  1.00  0.00     0.262 C 
ATOM     25  C   UNL A   1      35.553  20.811  25.349  1.00  0.00     0.333 C 
ATOM     26  H   UNL A   1      33.669  20.614  25.946  1.00  0.00     0.348 HD
ENDBRANCH  19  20
ENDBRANCH  17  19
ENDBRANCH  14  17
ENDBRANCH   7  13
ENDBRANCH   4   7
ENDBRANCH   2   3
ENDBRANCH   1   2
BRANCH   1  27
ATOM     27  C   UNL A   1      32.181  27.870  27.683  1.00  0.00     0.023 C 
BRANCH  27  28
ATOM     28  C   UNL A   1      33.450  28.604  27.264  1.00  0.00     0.116 C 
BRANCH  28  29
ATOM     29  N   UNL A   1      33.441  30.016  27.623  1.00  0.00    -0.352 N 
ATOM     30  C   UNL A   1      34.449  30.771  28.178  1.00  0.00     0.251 C 
ATOM     31  H   UNL A   1      32.599  30.495  27.444  1.00  0.00     0.163 HD
ATOM     32  O   UNL A   1      34.237  31.925  28.532  1.00  0.00    -0.269 OA
BRANCH  30  33
ATOM     33  C   UNL A   1      35.779  30.160  28.376  1.00  0.00     0.039 A 
ATOM     34  C   UNL A   1      36.683  30.141  27.310  1.00  0.00     0.014 A 
ATOM     35  C   UNL A   1      36.150  29.661  29.627  1.00  0.00     0.014 A 
ATOM     36  C   UNL A   1      37.991  29.699  27.525  1.00  0.00     0.010 A 
ATOM     37  C   UNL A   1      37.471  29.296  29.856  1.00  0.00     0.010 A 
ATOM     38  C   UNL A   1      38.408  29.318  28.810  1.00  0.00    -0.014 A 
BRANCH  38  39
ATOM     39  C   UNL A   1      39.820  28.951  29.096  1.00  0.00     0.031 A 
ATOM     40  C   UNL A   1      40.777  29.994  29.602  1.00  0.00     0.074 A 
ATOM     41  C   UNL A   1      40.262  27.712  28.802  1.00  0.00     0.049 A 
ATOM     42  N   UNL A   1      42.070  29.910  29.787  1.00  0.00    -0.248 NA
ATOM     43  C   UNL A   1      40.212  31.318  29.906  1.00  0.00     0.031 C 
ATOM     44  C   UNL A   1      39.442  26.628  28.256  1.00  0.00     0.029 A 
ATOM     45  N   UNL A   1      41.517  27.163  28.895  1.00  0.00    -0.354 N 
ATOM     46  C   UNL A   1      42.474  31.172  30.204  1.00  0.00     0.074 A 
ATOM     47  C   UNL A   1      41.300  32.016  30.198  1.00  0.00     0.031 C 
ATOM     48  C   UNL A   1      40.213  25.546  28.066  1.00  0.00     0.029 A 
ATOM     49  C   UNL A   1      41.589  25.870  28.431  1.00  0.00     0.049 A 
ATOM     50  H   UNL A   1      42.292  27.649  29.258  1.00  0.00     0.167 HD
ATOM     51  C   UNL A   1      43.710  31.584  30.576  1.00  0.00     0.037 A 
ATOM     52  C   UNL A   1      42.645  25.043  28.293  1.00  0.00     0.037 A 
ATOM     53  C   UNL A   1      44.867  30.729  30.601  1.00  0.00     0.049 A 
ATOM     54  C   UNL A   1      44.009  25.517  28.716  1.00  0.00     0.074 A 
ATOM     55  C   UNL A   1      46.147  31.028  31.035  1.00  0.00     0.029 A 
ATOM     56  N   UNL A   1      44.891  29.411  30.167  1.00  0.00    -0.354 N 
ATOM     57  N   UNL A   1      44.362  26.690  29.186  1.00  0.00    -0.248 NA
ATOM     58  C   UNL A   1      45.117  24.560  28.597  1.00  0.00     0.031 C 
ATOM     59  C   UNL A   1      46.957  29.911  30.810  1.00  0.00     0.029 A 
ATOM     60  C   UNL A   1      46.170  28.893  30.293  1.00  0.00     0.049 A 
ATOM     61  H   UNL A   1      44.113  28.917  29.819  1.00  0.00     0.167 HD
ATOM     62  C   UNL A   1      45.726  26.604  29.443  1.00  0.00     0.074 A 
ATOM     63  C   UNL A   1      46.133  25.262  29.083  1.00  0.00     0.031 C 
ATOM     64  C   UNL A   1      46.561  27.550  29.938  1.00  0.00     0.037 A 
BRANCH  51  65
ATOM     65  C   UNL A   1      43.873  33.027  30.972  1.00  0.00     0.058 A 
ATOM     66  C   UNL A   1      43.678  33.460  32.295  1.00  0.00     0.135 A 
ATOM     67  C   UNL A   1      44.243  33.989  30.019  1.00  0.00     0.135 A 
ATOM     68  F   UNL A   1      43.312  32.586  33.245  1.00  0.00    -0.206 F 
ATOM     69  C   UNL A   1      43.799  34.800  32.647  1.00  0.00     0.059 A 
ATOM     70  C   UNL A   1      44.402  35.330  30.356  1.00  0.00     0.059 A 
ATOM     71  F   UNL A   1      44.445  33.631  28.740  1.00  0.00    -0.206 F 
ATOM     72  C   UNL A   1      44.157  35.728  31.668  1.00  0.00     0.060 A 
BRANCH  72  73
ATOM     73  S   UNL A   1      44.289  37.466  32.137  1.00  0.00     0.124 S 
ATOM     74  O   UNL A   1      45.710  37.573  32.454  1.00  0.00    -0.237 OA
ATOM     75  O   UNL A   1      43.858  38.152  30.924  1.00  0.00    -0.237 OA
ATOM     76  O   UNL A   1      43.383  37.582  33.275  1.00  0.00    -0.744 OA
ENDBRANCH  72  73
ENDBRANCH  51  65
BRANCH  52  77
ATOM     77  C   UNL A   1      42.443  23.681  27.730  1.00  0.00     0.058 A 
ATOM     78  C   UNL A   1      42.442  23.461  26.344  1.00  0.00     0.135 A 
ATOM     79  C   UNL A   1      42.293  22.565  28.568  1.00  0.00     0.135 A 
ATOM     80  F   UNL A   1      42.575  24.497  25.501  1.00  0.00    -0.206 F 
ATOM     81  C   UNL A   1      42.295  22.186  25.808  1.00  0.00     0.059 A 
ATOM     82  C   UNL A   1      42.169  21.276  28.056  1.00  0.00     0.059 A 
ATOM     83  F   UNL A   1      42.303  22.718  29.901  1.00  0.00    -0.206 F 
ATOM     84  C   UNL A   1      42.167  21.098  26.674  1.00  0.00     0.060 A 
BRANCH  84  85
ATOM     85  S   UNL A   1      42.051  19.439  25.968  1.00  0.00     0.124 S 
ATOM     86  O   UNL A   1      42.902  19.560  24.790  1.00  0.00    -0.237 OA
ATOM     87  O   UNL A   1      42.571  18.610  27.051  1.00  0.00    -0.237 OA
ATOM     88  O   UNL A   1      40.623  19.287  25.703  1.00  0.00    -0.744 OA
ENDBRANCH  84  85
ENDBRANCH  52  77
BRANCH  64  89
ATOM     89  C   UNL A   1      48.000  27.172  30.157  1.00  0.00     0.058 A 
ATOM     90  C   UNL A   1      48.988  27.431  29.197  1.00  0.00     0.135 A 
ATOM     91  C   UNL A   1      48.407  26.630  31.389  1.00  0.00     0.135 A 
ATOM     92  F   UNL A   1      48.652  27.939  28.000  1.00  0.00    -0.206 F 
ATOM     93  C   UNL A   1      50.331  27.162  29.446  1.00  0.00     0.059 A 
ATOM     94  C   UNL A   1      49.747  26.380  31.670  1.00  0.00     0.059 A 
ATOM     95  F   UNL A   1      47.502  26.370  32.345  1.00  0.00    -0.206 F 
ATOM     96  C   UNL A   1      50.702  26.646  30.690  1.00  0.00     0.060 A 
BRANCH  96  97
ATOM     97  S   UNL A   1      52.454  26.371  31.025  1.00  0.00     0.124 S 
ATOM     98  O   UNL A   1      52.806  27.578  31.766  1.00  0.00    -0.237 OA
ATOM     99  O   UNL A   1      52.432  25.134  31.800  1.00  0.00    -0.237 OA
ATOM    100  O   UNL A   1      53.042  26.259  29.694  1.00  0.00    -0.744 OA
ENDBRANCH  96  97
ENDBRANCH  64  89
ENDBRANCH  38  39
ENDBRANCH  30  33
ENDBRANCH  28  29
ENDBRANCH  27  28
ENDBRANCH   1  27
TORSDOF 21
ENDMDL
MODEL 2
REMARK VINA RESULT:     -10.3      1.280      2.400
REMARK SMILES COC(=O)C[C@H](NC(=O)N(C)C[C@@H]1CCC[N@H+]1C)C(=O)NCCCCNC(=O)c1ccc(-c2c3nc(c(-c4c(F)cc(S(=O)(=O)[O-])cc4F)c4ccc([nH]4)c(-c4c(F)cc(S(=O)(=O)[O-])cc4F)c4nc(c(-c5c(F)cc(S(=O)(=O)[O-])cc5F)c5ccc2[nH]5)C=C4)C=C3)cc1
REMARK SMILES IDX 23 1 22 2 21 3 19 4 20 5 6 7 5 8 3 9 4 10 2 11 1 12 7 13
REMARK SMILES IDX 8 14 9 16 10 17 11 18 12 19 13 20 14 21 17 22 15 23 16 24
REMARK SMILES IDX 18 25 24 27 25 28 26 29 27 30 28 32 29 33 30 34 94 35 31 36
REMARK SMILES IDX 93 37 32 38 33 39 34 40 87 41 35 42 92 43 86 44 88 45 36 46
REMARK SMILES IDX 91 47 85 48 84 49 37 51 71 52 50 53 70 54 51 55 54 56 69 57
REMARK SMILES IDX 89 58 52 59 53 60 68 62 90 63 55 64 38 65 39 66 48 67 40 68
REMARK SMILES IDX 41 69 47 70 49 71 42 72 43 73 44 74 45 75 46 76 72 77 73 78
REMARK SMILES IDX 82 79 74 80 75 81 81 82 83 83 76 84 77 85 78 86 79 87 80 88
REMARK SMILES IDX 56 89 57 90 66 91 58 92 59 93 65 94 67 95 60 96 61 97 62 98
REMARK SMILES IDX 63 99 64 100
REMARK H PARENT 21 6 7 15 17 26 26 31 88 50 54 61
REMARK Flexibility Score: inf
ROOT
ATOM      1  C   UNL A   1      32.189  27.393  25.411  1.00  0.00     0.023 C 
ENDROOT
BRANCH   1   2
ATOM      2  C   UNL A   1      33.491  26.717  24.999  1.00  0.00     0.116 C 
BRANCH   2   3
ATOM      3  N   UNL A   1      33.592  26.507  23.563  1.00  0.00    -0.354 N 
ATOM      4  C   UNL A   1      33.836  25.364  22.856  1.00  0.00     0.243 C 
ATOM      5  O   UNL A   1      33.685  25.397  21.631  1.00  0.00    -0.273 OA
ATOM      6  H   UNL A   1      33.464  27.314  23.016  1.00  0.00     0.163 HD
BRANCH   4   7
ATOM      7  C   UNL A   1      34.144  24.032  23.560  1.00  0.00     0.184 C 
BRANCH   7   8
ATOM      8  C   UNL A   1      35.666  23.853  23.580  1.00  0.00     0.157 C 
BRANCH   8   9
ATOM      9  C   UNL A   1      36.154  23.256  24.862  1.00  0.00     0.308 C 
ATOM     10  O   UNL A   1      35.642  23.491  25.950  1.00  0.00    -0.252 OA
BRANCH   9  11
ATOM     11  O   UNL A   1      37.241  22.470  24.656  1.00  0.00    -0.469 OA
ATOM     12  C   UNL A   1      37.987  22.204  25.844  1.00  0.00     0.282 C 
ENDBRANCH   9  11
ENDBRANCH   8   9
ENDBRANCH   7   8
BRANCH   7  13
ATOM     13  N   UNL A   1      33.404  22.947  22.912  1.00  0.00    -0.326 N 
ATOM     14  C   UNL A   1      32.620  21.944  23.347  1.00  0.00     0.318 C 
ATOM     15  H   UNL A   1      33.504  22.951  21.933  1.00  0.00     0.166 HD
ATOM     16  O   UNL A   1      32.029  21.340  22.445  1.00  0.00    -0.249 OA
BRANCH  14  17
ATOM     17  N   UNL A   1      32.413  21.655  24.666  1.00  0.00    -0.322 N 
ATOM     18  C   UNL A   1      31.318  22.066  25.530  1.00  0.00     0.149 C 
BRANCH  17  19
ATOM     19  C   UNL A   1      33.418  20.785  25.306  1.00  0.00     0.185 C 
BRANCH  19  20
ATOM     20  C   UNL A   1      33.665  19.489  24.500  1.00  0.00     0.203 C 
ATOM     21  C   UNL A   1      32.470  18.532  24.557  1.00  0.00     0.073 C 
ATOM     22  N   UNL A   1      34.757  18.635  25.006  1.00  0.00    -0.333 N 
ATOM     23  C   UNL A   1      33.063  17.137  24.389  1.00  0.00     0.068 C 
ATOM     24  C   UNL A   1      34.565  17.351  24.319  1.00  0.00     0.262 C 
ATOM     25  C   UNL A   1      36.080  19.185  24.716  1.00  0.00     0.333 C 
ATOM     26  H   UNL A   1      34.723  18.554  26.023  1.00  0.00     0.348 HD
ENDBRANCH  19  20
ENDBRANCH  17  19
ENDBRANCH  14  17
ENDBRANCH   7  13
ENDBRANCH   4   7
ENDBRANCH   2   3
ENDBRANCH   1   2
BRANCH   1  27
ATOM     27  C   UNL A   1      32.224  28.074  26.778  1.00  0.00     0.023 C 
BRANCH  27  28
ATOM     28  C   UNL A   1      33.585  28.618  27.197  1.00  0.00     0.116 C 
BRANCH  28  29
ATOM     29  N   UNL A   1      33.529  29.990  27.682  1.00  0.00    -0.352 N 
ATOM     30  C   UNL A   1      34.505  30.717  28.325  1.00  0.00     0.251 C 
ATOM     31  H   UNL A   1      32.678  30.462  27.530  1.00  0.00     0.163 HD
ATOM     32  O   UNL A   1      34.254  31.828  28.778  1.00  0.00    -0.269 OA
BRANCH  30  33
ATOM     33  C   UNL A   1      35.848  30.126  28.494  1.00  0.00     0.039 A 
ATOM     34  C   UNL A   1      36.742  30.153  27.421  1.00  0.00     0.014 A 
ATOM     35  C   UNL A   1      36.239  29.601  29.728  1.00  0.00     0.014 A 
ATOM     36  C   UNL A   1      38.059  29.730  27.612  1.00  0.00     0.010 A 
ATOM     37  C   UNL A   1      37.569  29.255  29.936  1.00  0.00     0.010 A 
ATOM     38  C   UNL A   1      38.495  29.322  28.883  1.00  0.00    -0.014 A 
BRANCH  38  39
ATOM     39  C   UNL A   1      39.916  28.973  29.146  1.00  0.00     0.031 A 
ATOM     40  C   UNL A   1      40.868  30.029  29.637  1.00  0.00     0.074 A 
ATOM     41  C   UNL A   1      40.370  27.741  28.844  1.00  0.00     0.049 A 
ATOM     42  N   UNL A   1      42.164  29.962  29.801  1.00  0.00    -0.248 NA
ATOM     43  C   UNL A   1      40.290  31.346  29.950  1.00  0.00     0.031 C 
ATOM     44  C   UNL A   1      39.556  26.646  28.311  1.00  0.00     0.029 A 
ATOM     45  N   UNL A   1      41.634  27.209  28.917  1.00  0.00    -0.354 N 
ATOM     46  C   UNL A   1      42.558  31.230  30.212  1.00  0.00     0.074 A 
ATOM     47  C   UNL A   1      41.373  32.058  30.225  1.00  0.00     0.031 C 
ATOM     48  C   UNL A   1      40.339  25.574  28.108  1.00  0.00     0.029 A 
ATOM     49  C   UNL A   1      41.716  25.916  28.452  1.00  0.00     0.049 A 
ATOM     50  H   UNL A   1      42.408  27.704  29.268  1.00  0.00     0.167 HD
ATOM     51  C   UNL A   1      43.794  31.658  30.564  1.00  0.00     0.037 A 
ATOM     52  C   UNL A   1      42.781  25.104  28.297  1.00  0.00     0.037 A 
ATOM     53  C   UNL A   1      44.963  30.818  30.571  1.00  0.00     0.049 A 
ATOM     54  C   UNL A   1      44.144  25.596  28.698  1.00  0.00     0.074 A 
ATOM     55  C   UNL A   1      46.246  31.135  30.984  1.00  0.00     0.029 A 
ATOM     56  N   UNL A   1      44.998  29.501  30.136  1.00  0.00    -0.354 N 
ATOM     57  N   UNL A   1      44.489  26.774  29.163  1.00  0.00    -0.248 NA
ATOM     58  C   UNL A   1      45.263  24.653  28.561  1.00  0.00     0.031 C 
ATOM     59  C   UNL A   1      47.067  30.028  30.746  1.00  0.00     0.029 A 
ATOM     60  C   UNL A   1      46.285  29.000  30.242  1.00  0.00     0.049 A 
ATOM     61  H   UNL A   1      44.221  28.997  29.800  1.00  0.00     0.167 HD
ATOM     62  C   UNL A   1      45.858  26.705  29.398  1.00  0.00     0.074 A 
ATOM     63  C   UNL A   1      46.278  25.369  29.031  1.00  0.00     0.031 C 
ATOM     64  C   UNL A   1      46.688  27.663  29.880  1.00  0.00     0.037 A 
BRANCH  51  65
ATOM     65  C   UNL A   1      43.945  33.103  30.959  1.00  0.00     0.058 A 
ATOM     66  C   UNL A   1      43.687  33.546  32.267  1.00  0.00     0.135 A 
ATOM     67  C   UNL A   1      44.367  34.056  30.018  1.00  0.00     0.135 A 
ATOM     68  F   UNL A   1      43.269  32.680  33.204  1.00  0.00    -0.206 F 
ATOM     69  C   UNL A   1      43.796  34.888  32.616  1.00  0.00     0.059 A 
ATOM     70  C   UNL A   1      44.515  35.399  30.353  1.00  0.00     0.059 A 
ATOM     71  F   UNL A   1      44.630  33.689  28.754  1.00  0.00    -0.206 F 
ATOM     72  C   UNL A   1      44.207  35.808  31.649  1.00  0.00     0.060 A 
BRANCH  72  73
ATOM     73  S   UNL A   1      44.324  37.548  32.113  1.00  0.00     0.124 S 
ATOM     74  O   UNL A   1      43.448  37.597  33.280  1.00  0.00    -0.237 OA
ATOM     75  O   UNL A   1      45.749  37.705  32.384  1.00  0.00    -0.237 OA
ATOM     76  O   UNL A   1      43.833  38.250  30.931  1.00  0.00    -0.744 OA
ENDBRANCH  72  73
ENDBRANCH  51  65
BRANCH  52  77
ATOM     77  C   UNL A   1      42.588  23.739  27.736  1.00  0.00     0.058 A 
ATOM     78  C   UNL A   1      42.500  23.529  26.352  1.00  0.00     0.135 A 
ATOM     79  C   UNL A   1      42.533  22.613  28.572  1.00  0.00     0.135 A 
ATOM     80  F   UNL A   1      42.540  24.574  25.511  1.00  0.00    -0.206 F 
ATOM     81  C   UNL A   1      42.360  22.253  25.816  1.00  0.00     0.059 A 
ATOM     82  C   UNL A   1      42.420  21.325  28.059  1.00  0.00     0.059 A 
ATOM     83  F   UNL A   1      42.630  22.758  29.903  1.00  0.00    -0.206 F 
ATOM     84  C   UNL A   1      42.329  21.155  26.678  1.00  0.00     0.060 A 
BRANCH  84  85
ATOM     85  S   UNL A   1      42.223  19.498  25.967  1.00  0.00     0.124 S 
ATOM     86  O   UNL A   1      40.814  19.426  25.598  1.00  0.00    -0.237 OA
ATOM     87  O   UNL A   1      43.172  19.579  24.861  1.00  0.00    -0.237 OA
ATOM     88  O   UNL A   1      42.632  18.633  27.071  1.00  0.00    -0.744 OA
ENDBRANCH  84  85
ENDBRANCH  52  77
BRANCH  64  89
ATOM     89  C   UNL A   1      48.136  27.303  30.076  1.00  0.00     0.058 A 
ATOM     90  C   UNL A   1      49.121  27.666  29.146  1.00  0.00     0.135 A 
ATOM     91  C   UNL A   1      48.551  26.673  31.262  1.00  0.00     0.135 A 
ATOM     92  F   UNL A   1      48.777  28.262  27.994  1.00  0.00    -0.206 F 
ATOM     93  C   UNL A   1      50.469  27.410  29.381  1.00  0.00     0.059 A 
ATOM     94  C   UNL A   1      49.896  26.433  31.529  1.00  0.00     0.059 A 
ATOM     95  F   UNL A   1      47.649  26.312  32.187  1.00  0.00    -0.206 F 
ATOM     96  C   UNL A   1      50.847  26.803  30.580  1.00  0.00     0.060 A 
BRANCH  96  97
ATOM     97  S   UNL A   1      52.605  26.545  30.903  1.00  0.00     0.124 S 
ATOM     98  O   UNL A   1      53.092  26.147  29.586  1.00  0.00    -0.237 OA
ATOM     99  O   UNL A   1      53.033  27.862  31.365  1.00  0.00    -0.237 OA
ATOM    100  O   UNL A   1      52.615  25.497  31.919  1.00  0.00    -0.744 OA
ENDBRANCH  96  97
ENDBRANCH  64  89
ENDBRANCH  38  39
ENDBRANCH  30  33
ENDBRANCH  28  29
ENDBRANCH  27  28
ENDBRANCH   1  27
TORSDOF 21
ENDMDL
MODEL 3
REMARK VINA RESULT:     -10.0      2.894      3.584
REMARK SMILES COC(=O)C[C@H](NC(=O)N(C)C[C@@H]1CCC[N@H+]1C)C(=O)NCCCCNC(=O)c1ccc(-c2c3nc(c(-c4c(F)cc(S(=O)(=O)[O-])cc4F)c4ccc([nH]4)c(-c4c(F)cc(S(=O)(=O)[O-])cc4F)c4nc(c(-c5c(F)cc(S(=O)(=O)[O-])cc5F)c5ccc2[nH]5)C=C4)C=C3)cc1
REMARK SMILES IDX 23 1 22 2 21 3 19 4 20 5 6 7 5 8 3 9 4 10 2 11 1 12 7 13
REMARK SMILES IDX 8 14 9 16 10 17 11 18 12 19 13 20 14 21 17 22 15 23 16 24
REMARK SMILES IDX 18 25 24 27 25 28 26 29 27 30 28 32 29 33 30 34 94 35 31 36
REMARK SMILES IDX 93 37 32 38 33 39 34 40 87 41 35 42 92 43 86 44 88 45 36 46
REMARK SMILES IDX 91 47 85 48 84 49 37 51 71 52 50 53 70 54 51 55 54 56 69 57
REMARK SMILES IDX 89 58 52 59 53 60 68 62 90 63 55 64 38 65 39 66 48 67 40 68
REMARK SMILES IDX 41 69 47 70 49 71 42 72 43 73 44 74 45 75 46 76 72 77 73 78
REMARK SMILES IDX 82 79 74 80 75 81 81 82 83 83 76 84 77 85 78 86 79 87 80 88
REMARK SMILES IDX 56 89 57 90 66 91 58 92 59 93 65 94 67 95 60 96 61 97 62 98
REMARK SMILES IDX 63 99 64 100
REMARK H PARENT 21 6 7 15 17 26 26 31 88 50 54 61
REMARK Flexibility Score: inf
ROOT
ATOM      1  C   UNL A   1      31.400  27.795  27.040  1.00  0.00     0.023 C 
ENDROOT
BRANCH   1   2
ATOM      2  C   UNL A   1      31.165  26.473  26.320  1.00  0.00     0.116 C 
BRANCH   2   3
ATOM      3  N   UNL A   1      30.054  26.527  25.383  1.00  0.00    -0.354 N 
ATOM      4  C   UNL A   1      30.009  26.983  24.096  1.00  0.00     0.243 C 
ATOM      5  O   UNL A   1      28.995  26.749  23.433  1.00  0.00    -0.273 OA
ATOM      6  H   UNL A   1      29.201  26.179  25.730  1.00  0.00     0.163 HD
BRANCH   4   7
ATOM      7  C   UNL A   1      31.232  27.637  23.431  1.00  0.00     0.184 C 
BRANCH   7   8
ATOM      8  C   UNL A   1      31.050  29.157  23.508  1.00  0.00     0.157 C 
BRANCH   8   9
ATOM      9  C   UNL A   1      29.898  29.636  22.680  1.00  0.00     0.308 C 
ATOM     10  O   UNL A   1      29.795  29.413  21.480  1.00  0.00    -0.252 OA
BRANCH   9  11
ATOM     11  O   UNL A   1      29.030  30.367  23.424  1.00  0.00    -0.469 OA
ATOM     12  C   UNL A   1      27.870  30.783  22.702  1.00  0.00     0.282 C 
ENDBRANCH   9  11
ENDBRANCH   8   9
ENDBRANCH   7   8
BRANCH   7  13
ATOM     13  N   UNL A   1      31.403  27.105  22.078  1.00  0.00    -0.326 N 
ATOM     14  C   UNL A   1      31.901  25.965  21.564  1.00  0.00     0.318 C 
ATOM     15  H   UNL A   1      31.081  27.723  21.383  1.00  0.00     0.166 HD
ATOM     16  O   UNL A   1      31.693  25.826  20.354  1.00  0.00    -0.249 OA
BRANCH  14  17
ATOM     17  N   UNL A   1      32.509  24.995  22.310  1.00  0.00    -0.322 N 
ATOM     18  C   UNL A   1      33.922  24.819  22.603  1.00  0.00     0.149 C 
BRANCH  17  19
ATOM     19  C   UNL A   1      31.615  23.997  22.931  1.00  0.00     0.185 C 
BRANCH  19  20
ATOM     20  C   UNL A   1      32.374  22.718  23.352  1.00  0.00     0.203 C 
ATOM     21  C   UNL A   1      32.107  21.545  22.403  1.00  0.00     0.073 C 
ATOM     22  N   UNL A   1      31.968  22.149  24.653  1.00  0.00    -0.333 N 
ATOM     23  C   UNL A   1      32.274  20.292  23.256  1.00  0.00     0.068 C 
ATOM     24  C   UNL A   1      32.551  20.801  24.660  1.00  0.00     0.262 C 
ATOM     25  C   UNL A   1      32.460  22.933  25.785  1.00  0.00     0.333 C 
ATOM     26  H   UNL A   1      30.953  22.147  24.756  1.00  0.00     0.348 HD
ENDBRANCH  19  20
ENDBRANCH  17  19
ENDBRANCH  14  17
ENDBRANCH   7  13
ENDBRANCH   4   7
ENDBRANCH   2   3
ENDBRANCH   1   2
BRANCH   1  27
ATOM     27  C   UNL A   1      32.841  28.037  27.484  1.00  0.00     0.023 C 
BRANCH  27  28
ATOM     28  C   UNL A   1      33.727  28.737  26.459  1.00  0.00     0.116 C 
BRANCH  28  29
ATOM     29  N   UNL A   1      33.743  30.186  26.609  1.00  0.00    -0.352 N 
ATOM     30  C   UNL A   1      34.636  30.970  27.303  1.00  0.00     0.251 C 
ATOM     31  H   UNL A   1      33.018  30.669  26.151  1.00  0.00     0.163 HD
ATOM     32  O   UNL A   1      34.437  32.173  27.430  1.00  0.00    -0.269 OA
BRANCH  30  33
ATOM     33  C   UNL A   1      35.817  30.337  27.924  1.00  0.00     0.039 A 
ATOM     34  C   UNL A   1      37.046  30.396  27.262  1.00  0.00     0.014 A 
ATOM     35  C   UNL A   1      35.720  29.741  29.184  1.00  0.00     0.014 A 
ATOM     36  C   UNL A   1      38.196  29.930  27.904  1.00  0.00     0.010 A 
ATOM     37  C   UNL A   1      36.876  29.352  29.851  1.00  0.00     0.010 A 
ATOM     38  C   UNL A   1      38.127  29.448  29.221  1.00  0.00    -0.014 A 
BRANCH  38  39
ATOM     39  C   UNL A   1      39.347  29.052  29.972  1.00  0.00     0.031 A 
ATOM     40  C   UNL A   1      39.777  29.844  31.175  1.00  0.00     0.074 A 
ATOM     41  C   UNL A   1      40.120  28.049  29.511  1.00  0.00     0.049 A 
ATOM     42  N   UNL A   1      40.871  29.742  31.885  1.00  0.00    -0.248 NA
ATOM     43  C   UNL A   1      38.872  30.917  31.618  1.00  0.00     0.031 C 
ATOM     44  C   UNL A   1      39.839  27.240  28.322  1.00  0.00     0.029 A 
ATOM     45  N   UNL A   1      41.317  27.556  29.970  1.00  0.00    -0.354 N 
ATOM     46  C   UNL A   1      40.798  30.750  32.839  1.00  0.00     0.074 A 
ATOM     47  C   UNL A   1      39.576  31.482  32.587  1.00  0.00     0.031 C 
ATOM     48  C   UNL A   1      40.830  26.352  28.149  1.00  0.00     0.029 A 
ATOM     49  C   UNL A   1      41.841  26.556  29.183  1.00  0.00     0.049 A 
ATOM     50  H   UNL A   1      41.759  27.886  30.785  1.00  0.00     0.167 HD
ATOM     51  C   UNL A   1      41.662  31.026  33.844  1.00  0.00     0.037 A 
ATOM     52  C   UNL A   1      43.011  25.893  29.268  1.00  0.00     0.037 A 
ATOM     53  C   UNL A   1      42.863  30.276  34.100  1.00  0.00     0.049 A 
ATOM     54  C   UNL A   1      43.956  26.211  30.394  1.00  0.00     0.074 A 
ATOM     55  C   UNL A   1      43.766  30.427  35.139  1.00  0.00     0.029 A 
ATOM     56  N   UNL A   1      43.337  29.241  33.307  1.00  0.00    -0.354 N 
ATOM     57  N   UNL A   1      43.834  27.114  31.339  1.00  0.00    -0.248 NA
ATOM     58  C   UNL A   1      45.192  25.422  30.475  1.00  0.00     0.031 C 
ATOM     59  C   UNL A   1      44.813  29.522  34.942  1.00  0.00     0.029 A 
ATOM     60  C   UNL A   1      44.534  28.764  33.815  1.00  0.00     0.049 A 
ATOM     61  H   UNL A   1      42.888  28.896  32.501  1.00  0.00     0.167 HD
ATOM     62  C   UNL A   1      44.963  26.984  32.139  1.00  0.00     0.074 A 
ATOM     63  C   UNL A   1      45.754  25.912  31.573  1.00  0.00     0.031 C 
ATOM     64  C   UNL A   1      45.309  27.687  33.246  1.00  0.00     0.037 A 
BRANCH  51  65
ATOM     65  C   UNL A   1      41.344  32.199  34.733  1.00  0.00     0.058 A 
ATOM     66  C   UNL A   1      40.556  32.062  35.889  1.00  0.00     0.135 A 
ATOM     67  C   UNL A   1      41.846  33.476  34.433  1.00  0.00     0.135 A 
ATOM     68  F   UNL A   1      40.040  30.868  36.218  1.00  0.00    -0.206 F 
ATOM     69  C   UNL A   1      40.239  33.156  36.687  1.00  0.00     0.059 A 
ATOM     70  C   UNL A   1      41.569  34.578  35.236  1.00  0.00     0.059 A 
ATOM     71  F   UNL A   1      42.606  33.665  33.343  1.00  0.00    -0.206 F 
ATOM     72  C   UNL A   1      40.747  34.412  36.349  1.00  0.00     0.060 A 
BRANCH  72  73
ATOM     73  S   UNL A   1      40.309  35.824  37.384  1.00  0.00     0.124 S 
ATOM     74  O   UNL A   1      41.599  36.152  37.985  1.00  0.00    -0.237 OA
ATOM     75  O   UNL A   1      39.804  36.784  36.408  1.00  0.00    -0.237 OA
ATOM     76  O   UNL A   1      39.311  35.280  38.299  1.00  0.00    -0.744 OA
ENDBRANCH  72  73
ENDBRANCH  51  65
BRANCH  52  77
ATOM     77  C   UNL A   1      43.345  24.859  28.251  1.00  0.00     0.058 A 
ATOM     78  C   UNL A   1      42.968  23.519  28.427  1.00  0.00     0.135 A 
ATOM     79  C   UNL A   1      44.008  25.200  27.061  1.00  0.00     0.135 A 
ATOM     80  F   UNL A   1      42.338  23.142  29.549  1.00  0.00    -0.206 F 
ATOM     81  C   UNL A   1      43.239  22.553  27.463  1.00  0.00     0.059 A 
ATOM     82  C   UNL A   1      44.269  24.257  26.072  1.00  0.00     0.059 A 
ATOM     83  F   UNL A   1      44.376  26.471  26.837  1.00  0.00    -0.206 F 
ATOM     84  C   UNL A   1      43.884  22.933  26.284  1.00  0.00     0.060 A 
BRANCH  84  85
ATOM     85  S   UNL A   1      44.164  21.686  25.009  1.00  0.00     0.124 S 
ATOM     86  O   UNL A   1      43.130  20.707  25.323  1.00  0.00    -0.237 OA
ATOM     87  O   UNL A   1      43.968  22.453  23.783  1.00  0.00    -0.237 OA
ATOM     88  O   UNL A   1      45.537  21.255  25.258  1.00  0.00    -0.744 OA
ENDBRANCH  84  85
ENDBRANCH  52  77
BRANCH  64  89
ATOM     89  C   UNL A   1      46.582  27.308  33.950  1.00  0.00     0.058 A 
ATOM     90  C   UNL A   1      47.801  27.941  33.669  1.00  0.00     0.135 A 
ATOM     91  C   UNL A   1      46.557  26.363  34.991  1.00  0.00     0.135 A 
ATOM     92  F   UNL A   1      47.881  28.844  32.678  1.00  0.00    -0.206 F 
ATOM     93  C   UNL A   1      48.955  27.648  34.390  1.00  0.00     0.059 A 
ATOM     94  C   UNL A   1      47.692  26.076  35.744  1.00  0.00     0.059 A 
ATOM     95  F   UNL A   1      45.415  25.734  35.306  1.00  0.00    -0.206 F 
ATOM     96  C   UNL A   1      48.888  26.722  35.433  1.00  0.00     0.060 A 
BRANCH  96  97
ATOM     97  S   UNL A   1      50.374  26.406  36.407  1.00  0.00     0.124 S 
ATOM     98  O   UNL A   1      50.228  24.988  36.719  1.00  0.00    -0.237 OA
ATOM     99  O   UNL A   1      51.440  26.743  35.467  1.00  0.00    -0.237 OA
ATOM    100  O   UNL A   1      50.238  27.315  37.541  1.00  0.00    -0.744 OA
ENDBRANCH  96  97
ENDBRANCH  64  89
ENDBRANCH  38  39
ENDBRANCH  30  33
ENDBRANCH  28  29
ENDBRANCH  27  28
ENDBRANCH   1  27
TORSDOF 21
ENDMDL
