MODEL 1
REMARK VINA RESULT:     -10.8      0.000      0.000
REMARK SMILES CC(=O)[C@@H]1CCCC[N@H+]1CC(C)(C)C(=O)NCCCCNC(=O)c1ccc(-c2c3nc(c(-c4c(F)cc(S(=O)(=O)[O-])cc4F)c4ccc([nH]4)c(-c4c(F)cc(S(=O)(=O)[O-])cc4F)c4nc(c(-c5c(F)cc(S(=O)(=O)[O-])cc5F)c5ccc2[nH]5)C=C4)C=C3)cc1
REMARK SMILES IDX 18 1 17 2 16 3 14 4 15 5 11 7 12 8 13 9 10 10 9 11 4 12 5 13
REMARK SMILES IDX 6 14 8 15 7 17 2 18 1 19 3 20 19 21 20 22 21 23 22 24 23 26
REMARK SMILES IDX 24 27 25 28 89 29 26 30 88 31 27 32 28 33 29 34 82 35 30 36
REMARK SMILES IDX 87 37 81 38 83 39 31 40 86 41 80 42 79 43 32 45 66 46 45 47
REMARK SMILES IDX 65 48 46 49 49 50 64 51 84 52 47 53 48 54 63 56 85 57 50 58
REMARK SMILES IDX 33 59 34 60 43 61 35 62 36 63 42 64 44 65 37 66 38 67 39 68
REMARK SMILES IDX 40 69 41 70 67 71 68 72 77 73 69 74 70 75 76 76 78 77 71 78
REMARK SMILES IDX 72 79 73 80 74 81 75 82 51 83 52 84 61 85 53 86 54 87 60 88
REMARK SMILES IDX 62 89 55 90 56 91 57 92 58 93 59 94
REMARK H PARENT 16 6 9 16 21 25 83 44 49 55
REMARK Flexibility Score: inf
ROOT
ATOM      1  C   UNL A   1      32.251  28.906  24.901  1.00  0.00     0.023 C 
ENDROOT
BRANCH   1   2
ATOM      2  C   UNL A   1      31.669  27.625  24.312  1.00  0.00     0.116 C 
BRANCH   2   3
ATOM      3  N   UNL A   1      32.475  27.125  23.216  1.00  0.00    -0.355 N 
ATOM      4  C   UNL A   1      33.120  25.946  23.010  1.00  0.00     0.231 C 
ATOM      5  O   UNL A   1      33.907  25.941  22.060  1.00  0.00    -0.274 OA
ATOM      6  H   UNL A   1      32.576  27.766  22.475  1.00  0.00     0.163 HD
BRANCH   4   7
ATOM      7  C   UNL A   1      32.946  24.720  23.933  1.00  0.00     0.092 C 
ATOM      8  C   UNL A   1      31.473  24.362  24.158  1.00  0.00     0.027 C 
ATOM      9  C   UNL A   1      33.609  25.093  25.281  1.00  0.00     0.027 C 
BRANCH   7  10
ATOM     10  C   UNL A   1      33.754  23.471  23.382  1.00  0.00     0.279 C 
BRANCH  10  11
ATOM     11  N   UNL A   1      34.807  22.758  24.142  1.00  0.00    -0.325 N 
ATOM     12  C   UNL A   1      34.554  21.361  24.551  1.00  0.00     0.251 C 
ATOM     13  C   UNL A   1      35.743  20.713  25.302  1.00  0.00     0.074 C 
ATOM     14  C   UNL A   1      37.080  20.952  24.621  1.00  0.00     0.012 C 
ATOM     15  C   UNL A   1      36.141  23.009  23.587  1.00  0.00     0.262 C 
ATOM     16  H   UNL A   1      34.766  23.196  25.063  1.00  0.00     0.348 HD
ATOM     17  C   UNL A   1      37.273  22.445  24.437  1.00  0.00     0.062 C 
BRANCH  12  18
ATOM     18  C   UNL A   1      33.340  21.275  25.511  1.00  0.00     0.186 C 
ATOM     19  C   UNL A   1      33.543  21.709  26.942  1.00  0.00     0.094 C 
ATOM     20  O   UNL A   1      32.231  20.862  25.160  1.00  0.00    -0.293 OA
ENDBRANCH  12  18
ENDBRANCH  10  11
ENDBRANCH   7  10
ENDBRANCH   4   7
ENDBRANCH   2   3
ENDBRANCH   1   2
BRANCH   1  21
ATOM     21  C   UNL A   1      33.628  28.755  25.543  1.00  0.00     0.023 C 
BRANCH  21  22
ATOM     22  C   UNL A   1      33.632  28.751  27.068  1.00  0.00     0.116 C 
BRANCH  22  23
ATOM     23  N   UNL A   1      33.641  30.092  27.637  1.00  0.00    -0.352 N 
ATOM     24  C   UNL A   1      34.635  30.734  28.343  1.00  0.00     0.251 C 
ATOM     25  H   UNL A   1      32.820  30.615  27.496  1.00  0.00     0.163 HD
ATOM     26  O   UNL A   1      34.425  31.811  28.871  1.00  0.00    -0.269 OA
BRANCH  24  27
ATOM     27  C   UNL A   1      35.950  30.071  28.477  1.00  0.00     0.039 A 
ATOM     28  C   UNL A   1      36.841  30.116  27.403  1.00  0.00     0.014 A 
ATOM     29  C   UNL A   1      36.319  29.481  29.688  1.00  0.00     0.014 A 
ATOM     30  C   UNL A   1      38.149  29.660  27.581  1.00  0.00     0.010 A 
ATOM     31  C   UNL A   1      37.638  29.091  29.883  1.00  0.00     0.010 A 
ATOM     32  C   UNL A   1      38.570  29.200  28.839  1.00  0.00    -0.014 A 
BRANCH  32  33
ATOM     33  C   UNL A   1      39.994  28.883  29.110  1.00  0.00     0.031 A 
ATOM     34  C   UNL A   1      40.917  29.947  29.631  1.00  0.00     0.074 A 
ATOM     35  C   UNL A   1      40.473  27.666  28.783  1.00  0.00     0.049 A 
ATOM     36  N   UNL A   1      42.212  29.900  29.807  1.00  0.00    -0.248 NA
ATOM     37  C   UNL A   1      40.310  31.242  29.972  1.00  0.00     0.031 C 
ATOM     38  C   UNL A   1      39.683  26.568  28.218  1.00  0.00     0.029 A 
ATOM     39  N   UNL A   1      41.744  27.154  28.856  1.00  0.00    -0.354 N 
ATOM     40  C   UNL A   1      42.577  31.160  30.261  1.00  0.00     0.074 A 
ATOM     41  C   UNL A   1      41.373  31.963  30.295  1.00  0.00     0.031 C 
ATOM     42  C   UNL A   1      40.483  25.512  28.007  1.00  0.00     0.029 A 
ATOM     43  C   UNL A   1      41.849  25.868  28.379  1.00  0.00     0.049 A 
ATOM     44  H   UNL A   1      42.509  27.658  29.215  1.00  0.00     0.167 HD
ATOM     45  C   UNL A   1      43.802  31.600  30.634  1.00  0.00     0.037 A 
ATOM     46  C   UNL A   1      42.926  25.071  28.239  1.00  0.00     0.037 A 
ATOM     47  C   UNL A   1      44.990  30.787  30.623  1.00  0.00     0.049 A 
ATOM     48  C   UNL A   1      44.277  25.587  28.649  1.00  0.00     0.074 A 
ATOM     49  C   UNL A   1      46.261  31.114  31.061  1.00  0.00     0.029 A 
ATOM     50  N   UNL A   1      45.054  29.486  30.145  1.00  0.00    -0.354 N 
ATOM     51  N   UNL A   1      44.593  26.759  29.145  1.00  0.00    -0.248 NA
ATOM     52  C   UNL A   1      45.418  24.677  28.476  1.00  0.00     0.031 C 
ATOM     53  C   UNL A   1      47.103  30.026  30.810  1.00  0.00     0.029 A 
ATOM     54  C   UNL A   1      46.349  29.007  30.250  1.00  0.00     0.049 A 
ATOM     55  H   UNL A   1      44.291  28.979  29.784  1.00  0.00     0.167 HD
ATOM     56  C   UNL A   1      45.967  26.725  29.351  1.00  0.00     0.074 A 
ATOM     57  C   UNL A   1      46.419  25.411  28.944  1.00  0.00     0.031 C 
ATOM     58  C   UNL A   1      46.782  27.698  29.829  1.00  0.00     0.037 A 
BRANCH  45  59
ATOM     59  C   UNL A   1      43.917  33.027  31.092  1.00  0.00     0.058 A 
ATOM     60  C   UNL A   1      44.140  34.074  30.184  1.00  0.00     0.135 A 
ATOM     61  C   UNL A   1      43.771  33.355  32.449  1.00  0.00     0.135 A 
ATOM     62  F   UNL A   1      44.303  33.811  28.877  1.00  0.00    -0.206 F 
ATOM     63  C   UNL A   1      44.244  35.394  30.608  1.00  0.00     0.059 A 
ATOM     64  C   UNL A   1      43.848  34.672  32.893  1.00  0.00     0.059 A 
ATOM     65  F   UNL A   1      43.559  32.392  33.360  1.00  0.00    -0.206 F 
ATOM     66  C   UNL A   1      44.098  35.683  31.965  1.00  0.00     0.060 A 
BRANCH  66  67
ATOM     67  S   UNL A   1      44.234  37.402  32.500  1.00  0.00     0.124 S 
ATOM     68  O   UNL A   1      43.999  38.115  31.247  1.00  0.00    -0.237 OA
ATOM     69  O   UNL A   1      43.174  37.505  33.496  1.00  0.00    -0.237 OA
ATOM     70  O   UNL A   1      45.594  37.488  33.024  1.00  0.00    -0.744 OA
ENDBRANCH  66  67
ENDBRANCH  45  59
BRANCH  46  71
ATOM     71  C   UNL A   1      42.768  23.701  27.684  1.00  0.00     0.058 A 
ATOM     72  C   UNL A   1      42.503  22.612  28.526  1.00  0.00     0.135 A 
ATOM     73  C   UNL A   1      42.859  23.457  26.305  1.00  0.00     0.135 A 
ATOM     74  F   UNL A   1      42.415  22.796  29.852  1.00  0.00    -0.206 F 
ATOM     75  C   UNL A   1      42.340  21.325  28.023  1.00  0.00     0.059 A 
ATOM     76  C   UNL A   1      42.680  22.183  25.776  1.00  0.00     0.059 A 
ATOM     77  F   UNL A   1      43.096  24.470  25.458  1.00  0.00    -0.206 F 
ATOM     78  C   UNL A   1      42.428  21.121  26.645  1.00  0.00     0.060 A 
BRANCH  78  79
ATOM     79  S   UNL A   1      42.155  19.458  25.994  1.00  0.00     0.124 S 
ATOM     80  O   UNL A   1      40.706  19.443  25.828  1.00  0.00    -0.237 OA
ATOM     81  O   UNL A   1      42.939  19.477  24.763  1.00  0.00    -0.237 OA
ATOM     82  O   UNL A   1      42.680  18.597  27.049  1.00  0.00    -0.744 OA
ENDBRANCH  78  79
ENDBRANCH  46  71
BRANCH  58  83
ATOM     83  C   UNL A   1      48.245  27.377  29.938  1.00  0.00     0.058 A 
ATOM     84  C   UNL A   1      49.135  27.676  28.896  1.00  0.00     0.135 A 
ATOM     85  C   UNL A   1      48.770  26.820  31.115  1.00  0.00     0.135 A 
ATOM     86  F   UNL A   1      48.679  28.200  27.748  1.00  0.00    -0.206 F 
ATOM     87  C   UNL A   1      50.497  27.421  29.010  1.00  0.00     0.059 A 
ATOM     88  C   UNL A   1      50.133  26.577  31.260  1.00  0.00     0.059 A 
ATOM     89  F   UNL A   1      47.960  26.523  32.143  1.00  0.00    -0.206 F 
ATOM     90  C   UNL A   1      50.987  26.874  30.199  1.00  0.00     0.060 A 
BRANCH  90  91
ATOM     91  S   UNL A   1      52.763  26.590  30.353  1.00  0.00     0.124 S 
ATOM     92  O   UNL A   1      52.803  25.499  31.322  1.00  0.00    -0.237 OA
ATOM     93  O   UNL A   1      53.145  26.239  28.988  1.00  0.00    -0.237 OA
ATOM     94  O   UNL A   1      53.271  27.873  30.829  1.00  0.00    -0.744 OA
ENDBRANCH  90  91
ENDBRANCH  58  83
ENDBRANCH  32  33
ENDBRANCH  24  27
ENDBRANCH  22  23
ENDBRANCH  21  22
ENDBRANCH   1  21
TORSDOF 17
ENDMDL
MODEL 2
REMARK VINA RESULT:     -10.7      0.886      1.820
REMARK SMILES CC(=O)[C@@H]1CCCC[N@H+]1CC(C)(C)C(=O)NCCCCNC(=O)c1ccc(-c2c3nc(c(-c4c(F)cc(S(=O)(=O)[O-])cc4F)c4ccc([nH]4)c(-c4c(F)cc(S(=O)(=O)[O-])cc4F)c4nc(c(-c5c(F)cc(S(=O)(=O)[O-])cc5F)c5ccc2[nH]5)C=C4)C=C3)cc1
REMARK SMILES IDX 18 1 17 2 16 3 14 4 15 5 11 7 12 8 13 9 10 10 9 11 4 12 5 13
REMARK SMILES IDX 6 14 8 15 7 17 2 18 1 19 3 20 19 21 20 22 21 23 22 24 23 26
REMARK SMILES IDX 24 27 25 28 89 29 26 30 88 31 27 32 28 33 29 34 82 35 30 36
REMARK SMILES IDX 87 37 81 38 83 39 31 40 86 41 80 42 79 43 32 45 66 46 45 47
REMARK SMILES IDX 65 48 46 49 49 50 64 51 84 52 47 53 48 54 63 56 85 57 50 58
REMARK SMILES IDX 33 59 34 60 43 61 35 62 36 63 42 64 44 65 37 66 38 67 39 68
REMARK SMILES IDX 40 69 41 70 67 71 68 72 77 73 69 74 70 75 76 76 78 77 71 78
REMARK SMILES IDX 72 79 73 80 74 81 75 82 51 83 52 84 61 85 53 86 54 87 60 88
REMARK SMILES IDX 62 89 55 90 56 91 57 92 58 93 59 94
REMARK H PARENT 16 6 9 16 21 25 83 44 49 55
REMARK Flexibility Score: inf
ROOT
ATOM      1  C   UNL A   1      31.277  27.919  26.142  1.00  0.00     0.023 C 
ENDROOT
BRANCH   1   2
ATOM      2  C   UNL A   1      30.656  26.541  25.939  1.00  0.00     0.116 C 
BRANCH   2   3
ATOM      3  N   UNL A   1      31.524  25.486  26.423  1.00  0.00    -0.355 N 
ATOM      4  C   UNL A   1      32.173  24.468  25.797  1.00  0.00     0.231 C 
ATOM      5  O   UNL A   1      32.646  23.612  26.548  1.00  0.00    -0.274 OA
ATOM      6  H   UNL A   1      31.674  25.512  27.396  1.00  0.00     0.163 HD
BRANCH   4   7
ATOM      7  C   UNL A   1      32.252  24.340  24.260  1.00  0.00     0.092 C 
ATOM      8  C   UNL A   1      32.774  25.617  23.592  1.00  0.00     0.027 C 
ATOM      9  C   UNL A   1      30.813  24.042  23.773  1.00  0.00     0.027 C 
BRANCH   7  10
ATOM     10  C   UNL A   1      33.123  23.084  23.836  1.00  0.00     0.279 C 
BRANCH  10  11
ATOM     11  N   UNL A   1      34.398  22.696  24.484  1.00  0.00    -0.325 N 
ATOM     12  C   UNL A   1      34.730  21.259  24.582  1.00  0.00     0.251 C 
ATOM     13  C   UNL A   1      36.103  20.987  25.241  1.00  0.00     0.074 C 
ATOM     14  C   UNL A   1      37.213  21.867  24.692  1.00  0.00     0.012 C 
ATOM     15  C   UNL A   1      35.505  23.560  24.062  1.00  0.00     0.262 C 
ATOM     16  H   UNL A   1      34.221  22.879  25.472  1.00  0.00     0.348 HD
ATOM     17  C   UNL A   1      36.798  23.319  24.832  1.00  0.00     0.062 C 
BRANCH  12  18
ATOM     18  C   UNL A   1      33.683  20.506  25.440  1.00  0.00     0.186 C 
ATOM     19  C   UNL A   1      32.725  19.581  24.731  1.00  0.00     0.094 C 
ATOM     20  O   UNL A   1      33.594  20.638  26.665  1.00  0.00    -0.293 OA
ENDBRANCH  12  18
ENDBRANCH  10  11
ENDBRANCH   7  10
ENDBRANCH   4   7
ENDBRANCH   2   3
ENDBRANCH   1   2
BRANCH   1  21
ATOM     21  C   UNL A   1      32.025  28.103  27.460  1.00  0.00     0.023 C 
BRANCH  21  22
ATOM     22  C   UNL A   1      33.423  28.697  27.330  1.00  0.00     0.116 C 
BRANCH  22  23
ATOM     23  N   UNL A   1      33.482  30.097  27.729  1.00  0.00    -0.352 N 
ATOM     24  C   UNL A   1      34.520  30.798  28.306  1.00  0.00     0.251 C 
ATOM     25  H   UNL A   1      32.664  30.618  27.562  1.00  0.00     0.163 HD
ATOM     26  O   UNL A   1      34.352  31.935  28.707  1.00  0.00    -0.269 OA
BRANCH  24  27
ATOM     27  C   UNL A   1      35.828  30.126  28.460  1.00  0.00     0.039 A 
ATOM     28  C   UNL A   1      36.720  30.131  27.387  1.00  0.00     0.014 A 
ATOM     29  C   UNL A   1      36.190  29.569  29.688  1.00  0.00     0.014 A 
ATOM     30  C   UNL A   1      38.023  29.668  27.579  1.00  0.00     0.010 A 
ATOM     31  C   UNL A   1      37.505  29.172  29.896  1.00  0.00     0.010 A 
ATOM     32  C   UNL A   1      38.439  29.241  28.850  1.00  0.00    -0.014 A 
BRANCH  32  33
ATOM     33  C   UNL A   1      39.860  28.918  29.131  1.00  0.00     0.031 A 
ATOM     34  C   UNL A   1      40.783  29.978  29.659  1.00  0.00     0.074 A 
ATOM     35  C   UNL A   1      40.336  27.699  28.808  1.00  0.00     0.049 A 
ATOM     36  N   UNL A   1      42.077  29.927  29.844  1.00  0.00    -0.248 NA
ATOM     37  C   UNL A   1      40.178  31.276  29.997  1.00  0.00     0.031 C 
ATOM     38  C   UNL A   1      39.546  26.605  28.237  1.00  0.00     0.029 A 
ATOM     39  N   UNL A   1      41.605  27.182  28.890  1.00  0.00    -0.354 N 
ATOM     40  C   UNL A   1      42.443  31.185  30.302  1.00  0.00     0.074 A 
ATOM     41  C   UNL A   1      41.242  31.993  30.327  1.00  0.00     0.031 C 
ATOM     42  C   UNL A   1      40.344  25.546  28.031  1.00  0.00     0.029 A 
ATOM     43  C   UNL A   1      41.708  25.896  28.414  1.00  0.00     0.049 A 
ATOM     44  H   UNL A   1      42.369  27.684  29.255  1.00  0.00     0.167 HD
ATOM     45  C   UNL A   1      43.667  31.621  30.684  1.00  0.00     0.037 A 
ATOM     46  C   UNL A   1      42.783  25.095  28.281  1.00  0.00     0.037 A 
ATOM     47  C   UNL A   1      44.851  30.802  30.681  1.00  0.00     0.049 A 
ATOM     48  C   UNL A   1      44.133  25.606  28.701  1.00  0.00     0.074 A 
ATOM     49  C   UNL A   1      46.121  31.125  31.128  1.00  0.00     0.029 A 
ATOM     50  N   UNL A   1      44.914  29.502  30.204  1.00  0.00    -0.354 N 
ATOM     51  N   UNL A   1      44.450  26.777  29.200  1.00  0.00    -0.248 NA
ATOM     52  C   UNL A   1      45.271  24.691  28.537  1.00  0.00     0.031 C 
ATOM     53  C   UNL A   1      46.960  30.033  30.884  1.00  0.00     0.029 A 
ATOM     54  C   UNL A   1      46.207  29.018  30.318  1.00  0.00     0.049 A 
ATOM     55  H   UNL A   1      44.152  28.998  29.837  1.00  0.00     0.167 HD
ATOM     56  C   UNL A   1      45.822  26.737  29.416  1.00  0.00     0.074 A 
ATOM     57  C   UNL A   1      46.272  25.421  29.012  1.00  0.00     0.031 C 
ATOM     58  C   UNL A   1      46.637  27.706  29.900  1.00  0.00     0.037 A 
BRANCH  45  59
ATOM     59  C   UNL A   1      43.784  33.047  31.143  1.00  0.00     0.058 A 
ATOM     60  C   UNL A   1      43.641  33.396  32.495  1.00  0.00     0.135 A 
ATOM     61  C   UNL A   1      44.073  34.071  30.228  1.00  0.00     0.135 A 
ATOM     62  F   UNL A   1      43.347  32.456  33.408  1.00  0.00    -0.206 F 
ATOM     63  C   UNL A   1      43.752  34.715  32.921  1.00  0.00     0.059 A 
ATOM     64  C   UNL A   1      44.212  35.394  30.635  1.00  0.00     0.059 A 
ATOM     65  F   UNL A   1      44.218  33.791  28.923  1.00  0.00    -0.206 F 
ATOM     66  C   UNL A   1      44.035  35.708  31.982  1.00  0.00     0.060 A 
BRANCH  66  67
ATOM     67  S   UNL A   1      44.177  37.415  32.550  1.00  0.00     0.124 S 
ATOM     68  O   UNL A   1      43.111  37.480  33.546  1.00  0.00    -0.237 OA
ATOM     69  O   UNL A   1      45.538  37.460  33.075  1.00  0.00    -0.237 OA
ATOM     70  O   UNL A   1      43.950  38.197  31.338  1.00  0.00    -0.744 OA
ENDBRANCH  66  67
ENDBRANCH  45  59
BRANCH  46  71
ATOM     71  C   UNL A   1      42.624  23.726  27.725  1.00  0.00     0.058 A 
ATOM     72  C   UNL A   1      42.650  23.505  26.341  1.00  0.00     0.135 A 
ATOM     73  C   UNL A   1      42.462  22.612  28.564  1.00  0.00     0.135 A 
ATOM     74  F   UNL A   1      42.794  24.540  25.500  1.00  0.00    -0.206 F 
ATOM     75  C   UNL A   1      42.514  22.229  25.805  1.00  0.00     0.059 A 
ATOM     76  C   UNL A   1      42.345  21.323  28.052  1.00  0.00     0.059 A 
ATOM     77  F   UNL A   1      42.447  22.771  29.896  1.00  0.00    -0.206 F 
ATOM     78  C   UNL A   1      42.365  21.143  26.669  1.00  0.00     0.060 A 
BRANCH  78  79
ATOM     79  S   UNL A   1      42.251  19.483  25.966  1.00  0.00     0.124 S 
ATOM     80  O   UNL A   1      43.141  19.590  24.817  1.00  0.00    -0.237 OA
ATOM     81  O   UNL A   1      42.725  18.650  27.066  1.00  0.00    -0.237 OA
ATOM     82  O   UNL A   1      40.831  19.349  25.656  1.00  0.00    -0.744 OA
ENDBRANCH  78  79
ENDBRANCH  46  71
BRANCH  58  83
ATOM     83  C   UNL A   1      48.098  27.380  30.020  1.00  0.00     0.058 A 
ATOM     84  C   UNL A   1      48.995  27.663  28.979  1.00  0.00     0.135 A 
ATOM     85  C   UNL A   1      48.615  26.834  31.205  1.00  0.00     0.135 A 
ATOM     86  F   UNL A   1      48.547  28.175  27.822  1.00  0.00    -0.206 F 
ATOM     87  C   UNL A   1      50.355  27.402  29.103  1.00  0.00     0.059 A 
ATOM     88  C   UNL A   1      49.976  26.586  31.360  1.00  0.00     0.059 A 
ATOM     89  F   UNL A   1      47.798  26.553  32.233  1.00  0.00    -0.206 F 
ATOM     90  C   UNL A   1      50.836  26.866  30.299  1.00  0.00     0.060 A 
BRANCH  90  91
ATOM     91  S   UNL A   1      52.610  26.576  30.466  1.00  0.00     0.124 S 
ATOM     92  O   UNL A   1      53.060  27.833  31.056  1.00  0.00    -0.237 OA
ATOM     93  O   UNL A   1      52.657  25.411  31.346  1.00  0.00    -0.237 OA
ATOM     94  O   UNL A   1      53.045  26.333  29.094  1.00  0.00    -0.744 OA
ENDBRANCH  90  91
ENDBRANCH  58  83
ENDBRANCH  32  33
ENDBRANCH  24  27
ENDBRANCH  22  23
ENDBRANCH  21  22
ENDBRANCH   1  21
TORSDOF 17
ENDMDL
MODEL 3
REMARK VINA RESULT:     -10.4      1.336      1.952
REMARK SMILES CC(=O)[C@@H]1CCCC[N@H+]1CC(C)(C)C(=O)NCCCCNC(=O)c1ccc(-c2c3nc(c(-c4c(F)cc(S(=O)(=O)[O-])cc4F)c4ccc([nH]4)c(-c4c(F)cc(S(=O)(=O)[O-])cc4F)c4nc(c(-c5c(F)cc(S(=O)(=O)[O-])cc5F)c5ccc2[nH]5)C=C4)C=C3)cc1
REMARK SMILES IDX 18 1 17 2 16 3 14 4 15 5 11 7 12 8 13 9 10 10 9 11 4 12 5 13
REMARK SMILES IDX 6 14 8 15 7 17 2 18 1 19 3 20 19 21 20 22 21 23 22 24 23 26
REMARK SMILES IDX 24 27 25 28 89 29 26 30 88 31 27 32 28 33 29 34 82 35 30 36
REMARK SMILES IDX 87 37 81 38 83 39 31 40 86 41 80 42 79 43 32 45 66 46 45 47
REMARK SMILES IDX 65 48 46 49 49 50 64 51 84 52 47 53 48 54 63 56 85 57 50 58
REMARK SMILES IDX 33 59 34 60 43 61 35 62 36 63 42 64 44 65 37 66 38 67 39 68
REMARK SMILES IDX 40 69 41 70 67 71 68 72 77 73 69 74 70 75 76 76 78 77 71 78
REMARK SMILES IDX 72 79 73 80 74 81 75 82 51 83 52 84 61 85 53 86 54 87 60 88
REMARK SMILES IDX 62 89 55 90 56 91 57 92 58 93 59 94
REMARK H PARENT 16 6 9 16 21 25 83 44 49 55
REMARK Flexibility Score: inf
ROOT
ATOM      1  C   UNL A   1      31.624  29.060  25.734  1.00  0.00     0.023 C 
ENDROOT
BRANCH   1   2
ATOM      2  C   UNL A   1      31.017  27.757  25.222  1.00  0.00     0.116 C 
BRANCH   2   3
ATOM      3  N   UNL A   1      30.618  27.861  23.833  1.00  0.00    -0.355 N 
ATOM      4  C   UNL A   1      30.998  27.190  22.713  1.00  0.00     0.231 C 
ATOM      5  O   UNL A   1      30.622  27.693  21.652  1.00  0.00    -0.274 OA
ATOM      6  H   UNL A   1      29.937  28.553  23.668  1.00  0.00     0.163 HD
BRANCH   4   7
ATOM      7  C   UNL A   1      31.898  25.935  22.749  1.00  0.00     0.092 C 
ATOM      8  C   UNL A   1      33.250  26.204  23.419  1.00  0.00     0.027 C 
ATOM      9  C   UNL A   1      32.116  25.513  21.276  1.00  0.00     0.027 C 
BRANCH   7  10
ATOM     10  C   UNL A   1      31.154  24.719  23.445  1.00  0.00     0.279 C 
BRANCH  10  11
ATOM     11  N   UNL A   1      31.833  23.503  23.948  1.00  0.00    -0.325 N 
ATOM     12  C   UNL A   1      31.493  23.016  25.301  1.00  0.00     0.251 C 
ATOM     13  C   UNL A   1      32.239  21.718  25.694  1.00  0.00     0.074 C 
ATOM     14  C   UNL A   1      32.211  20.660  24.604  1.00  0.00     0.012 C 
ATOM     15  C   UNL A   1      31.917  22.463  22.917  1.00  0.00     0.262 C 
ATOM     16  H   UNL A   1      32.782  23.829  24.138  1.00  0.00     0.348 HD
ATOM     17  C   UNL A   1      32.763  21.263  23.327  1.00  0.00     0.062 C 
BRANCH  12  18
ATOM     18  C   UNL A   1      31.861  24.067  26.378  1.00  0.00     0.186 C 
ATOM     19  C   UNL A   1      33.300  24.510  26.467  1.00  0.00     0.094 C 
ATOM     20  O   UNL A   1      31.036  24.544  27.164  1.00  0.00    -0.293 OA
ENDBRANCH  12  18
ENDBRANCH  10  11
ENDBRANCH   7  10
ENDBRANCH   4   7
ENDBRANCH   2   3
ENDBRANCH   1   2
BRANCH   1  21
ATOM     21  C   UNL A   1      33.145  29.055  25.867  1.00  0.00     0.023 C 
BRANCH  21  22
ATOM     22  C   UNL A   1      33.667  28.988  27.299  1.00  0.00     0.116 C 
BRANCH  22  23
ATOM     23  N   UNL A   1      33.693  30.289  27.953  1.00  0.00    -0.352 N 
ATOM     24  C   UNL A   1      34.703  30.881  28.680  1.00  0.00     0.251 C 
ATOM     25  H   UNL A   1      32.871  30.823  27.862  1.00  0.00     0.163 HD
ATOM     26  O   UNL A   1      34.507  31.923  29.280  1.00  0.00    -0.269 OA
BRANCH  24  27
ATOM     27  C   UNL A   1      36.017  30.207  28.744  1.00  0.00     0.039 A 
ATOM     28  C   UNL A   1      36.805  30.153  27.593  1.00  0.00     0.014 A 
ATOM     29  C   UNL A   1      36.490  29.707  29.960  1.00  0.00     0.014 A 
ATOM     30  C   UNL A   1      38.118  29.689  27.686  1.00  0.00     0.010 A 
ATOM     31  C   UNL A   1      37.817  29.310  30.063  1.00  0.00     0.010 A 
ATOM     32  C   UNL A   1      38.650  29.320  28.933  1.00  0.00    -0.014 A 
BRANCH  32  33
ATOM     33  C   UNL A   1      40.089  29.000  29.096  1.00  0.00     0.031 A 
ATOM     34  C   UNL A   1      41.057  30.069  29.514  1.00  0.00     0.074 A 
ATOM     35  C   UNL A   1      40.534  27.771  28.762  1.00  0.00     0.049 A 
ATOM     36  N   UNL A   1      42.362  30.017  29.587  1.00  0.00    -0.248 NA
ATOM     37  C   UNL A   1      40.486  31.377  29.871  1.00  0.00     0.031 C 
ATOM     38  C   UNL A   1      39.696  26.666  28.290  1.00  0.00     0.029 A 
ATOM     39  N   UNL A   1      41.804  27.252  28.745  1.00  0.00    -0.354 N 
ATOM     40  C   UNL A   1      42.768  31.285  29.979  1.00  0.00     0.074 A 
ATOM     41  C   UNL A   1      41.575  32.097  30.090  1.00  0.00     0.031 C 
ATOM     42  C   UNL A   1      40.471  25.599  28.041  1.00  0.00     0.029 A 
ATOM     43  C   UNL A   1      41.863  25.954  28.294  1.00  0.00     0.049 A 
ATOM     44  H   UNL A   1      42.598  27.760  29.029  1.00  0.00     0.167 HD
ATOM     45  C   UNL A   1      44.022  31.726  30.241  1.00  0.00     0.037 A 
ATOM     46  C   UNL A   1      42.922  25.147  28.087  1.00  0.00     0.037 A 
ATOM     47  C   UNL A   1      45.200  30.904  30.155  1.00  0.00     0.049 A 
ATOM     48  C   UNL A   1      44.304  25.663  28.375  1.00  0.00     0.074 A 
ATOM     49  C   UNL A   1      46.504  31.233  30.481  1.00  0.00     0.029 A 
ATOM     50  N   UNL A   1      45.219  29.592  29.706  1.00  0.00    -0.354 N 
ATOM     51  N   UNL A   1      44.665  26.845  28.815  1.00  0.00    -0.248 NA
ATOM     52  C   UNL A   1      45.422  24.740  28.133  1.00  0.00     0.031 C 
ATOM     53  C   UNL A   1      47.317  30.132  30.191  1.00  0.00     0.029 A 
ATOM     54  C   UNL A   1      46.516  29.106  29.718  1.00  0.00     0.049 A 
ATOM     55  H   UNL A   1      44.427  29.081  29.420  1.00  0.00     0.167 HD
ATOM     56  C   UNL A   1      46.051  26.806  28.910  1.00  0.00     0.074 A 
ATOM     57  C   UNL A   1      46.462  25.479  28.500  1.00  0.00     0.031 C 
ATOM     58  C   UNL A   1      46.907  27.784  29.297  1.00  0.00     0.037 A 
BRANCH  45  59
ATOM     59  C   UNL A   1      44.180  33.162  30.653  1.00  0.00     0.058 A 
ATOM     60  C   UNL A   1      44.335  34.185  29.704  1.00  0.00     0.135 A 
ATOM     61  C   UNL A   1      44.147  33.525  32.008  1.00  0.00     0.135 A 
ATOM     62  F   UNL A   1      44.390  33.890  28.395  1.00  0.00    -0.206 F 
ATOM     63  C   UNL A   1      44.479  35.514  30.085  1.00  0.00     0.059 A 
ATOM     64  C   UNL A   1      44.265  34.851  32.412  1.00  0.00     0.059 A 
ATOM     65  F   UNL A   1      44.004  32.585  32.957  1.00  0.00    -0.206 F 
ATOM     66  C   UNL A   1      44.445  35.837  31.442  1.00  0.00     0.060 A 
BRANCH  66  67
ATOM     67  S   UNL A   1      44.633  37.568  31.921  1.00  0.00     0.124 S 
ATOM     68  O   UNL A   1      46.054  37.625  32.252  1.00  0.00    -0.237 OA
ATOM     69  O   UNL A   1      44.235  38.274  30.708  1.00  0.00    -0.237 OA
ATOM     70  O   UNL A   1      43.721  37.708  33.052  1.00  0.00    -0.744 OA
ENDBRANCH  66  67
ENDBRANCH  45  59
BRANCH  46  71
ATOM     71  C   UNL A   1      42.712  23.765  27.581  1.00  0.00     0.058 A 
ATOM     72  C   UNL A   1      42.717  23.495  26.205  1.00  0.00     0.135 A 
ATOM     73  C   UNL A   1      42.524  22.687  28.460  1.00  0.00     0.135 A 
ATOM     74  F   UNL A   1      42.885  24.495  25.327  1.00  0.00    -0.206 F 
ATOM     75  C   UNL A   1      42.534  22.206  25.716  1.00  0.00     0.059 A 
ATOM     76  C   UNL A   1      42.360  21.385  27.995  1.00  0.00     0.059 A 
ATOM     77  F   UNL A   1      42.527  22.892  29.786  1.00  0.00    -0.206 F 
ATOM     78  C   UNL A   1      42.360  21.157  26.619  1.00  0.00     0.060 A 
BRANCH  78  79
ATOM     79  S   UNL A   1      42.184  19.478  25.976  1.00  0.00     0.124 S 
ATOM     80  O   UNL A   1      42.646  18.681  27.107  1.00  0.00    -0.237 OA
ATOM     81  O   UNL A   1      40.755  19.407  25.686  1.00  0.00    -0.237 OA
ATOM     82  O   UNL A   1      43.053  19.477  24.804  1.00  0.00    -0.744 OA
ENDBRANCH  78  79
ENDBRANCH  46  71
BRANCH  58  83
ATOM     83  C   UNL A   1      48.372  27.455  29.296  1.00  0.00     0.058 A 
ATOM     84  C   UNL A   1      49.210  27.868  28.249  1.00  0.00     0.135 A 
ATOM     85  C   UNL A   1      48.954  26.773  30.376  1.00  0.00     0.135 A 
ATOM     86  F   UNL A   1      48.699  28.514  27.190  1.00  0.00    -0.206 F 
ATOM     87  C   UNL A   1      50.575  27.604  28.266  1.00  0.00     0.059 A 
ATOM     88  C   UNL A   1      50.321  26.518  30.425  1.00  0.00     0.059 A 
ATOM     89  F   UNL A   1      48.195  26.364  31.405  1.00  0.00    -0.206 F 
ATOM     90  C   UNL A   1      51.121  26.930  29.360  1.00  0.00     0.060 A 
BRANCH  90  91
ATOM     91  S   UNL A   1      52.902  26.634  29.393  1.00  0.00     0.124 S 
ATOM     92  O   UNL A   1      53.091  25.846  28.180  1.00  0.00    -0.237 OA
ATOM     93  O   UNL A   1      53.447  27.989  29.360  1.00  0.00    -0.237 OA
ATOM     94  O   UNL A   1      53.103  25.916  30.648  1.00  0.00    -0.744 OA
ENDBRANCH  90  91
ENDBRANCH  58  83
ENDBRANCH  32  33
ENDBRANCH  24  27
ENDBRANCH  22  23
ENDBRANCH  21  22
ENDBRANCH   1  21
TORSDOF 17
ENDMDL
