MODEL 1
REMARK VINA RESULT:     -13.0      0.000      0.000
REMARK SMILES Cc1ccc(C(=O)N2CCC3(CCC(=O)N(CC(=O)NCCCCNC(=O)c4ccc(-c5c6nc(c(-c7c(F)cc(S(=O)(=O)[O-])cc7F)c7ccc([nH]7)c(-c7c(F)cc(S(=O)(=O)[O-])cc7F)c7nc(c(-c8c(F)cc(S(=O)(=O)[O-])cc8F)c8ccc5[nH]8)C=C7)C=C6)cc4)C3)CC2)cc1O
REMARK SMILES IDX 22 1 21 2 20 3 18 4 19 5 17 7 16 8 6 9 7 10 8 11 9 12 96 13
REMARK SMILES IDX 10 14 95 15 11 16 12 17 94 18 13 19 14 20 15 21 5 22 1 23
REMARK SMILES IDX 2 24 3 25 98 26 4 27 97 28 99 29 23 31 24 32 25 33 26 34
REMARK SMILES IDX 27 36 28 37 29 38 93 39 30 40 92 41 31 42 32 43 33 44 86 45
REMARK SMILES IDX 34 46 91 47 85 48 87 49 35 50 90 51 84 52 83 53 36 55 70 56
REMARK SMILES IDX 49 57 69 58 50 59 53 60 68 61 88 62 51 63 52 64 67 66 89 67
REMARK SMILES IDX 54 68 37 69 38 70 47 71 39 72 40 73 46 74 48 75 41 76 42 77
REMARK SMILES IDX 43 78 44 79 45 80 71 81 72 82 81 83 73 84 74 85 80 86 82 87
REMARK SMILES IDX 75 88 76 89 77 90 78 91 79 92 55 93 56 94 65 95 57 96 58 97
REMARK SMILES IDX 64 98 66 99 59 100 60 101 61 102 62 103 63 104
REMARK H PARENT 20 6 99 30 25 35 87 54 53 65
REMARK Flexibility Score: inf
ROOT
ATOM      1  C   UNL A   1      39.935  21.985  26.306  1.00  0.00     0.023 C 
ENDROOT
BRANCH   1   2
ATOM      2  C   UNL A   1      38.522  22.558  26.294  1.00  0.00     0.116 C 
BRANCH   2   3
ATOM      3  N   UNL A   1      37.999  22.688  24.956  1.00  0.00    -0.355 N 
ATOM      4  C   UNL A   1      37.024  21.966  24.332  1.00  0.00     0.239 C 
ATOM      5  O   UNL A   1      36.581  22.419  23.273  1.00  0.00    -0.273 OA
ATOM      6  H   UNL A   1      38.406  23.401  24.414  1.00  0.00     0.163 HD
BRANCH   4   7
ATOM      7  C   UNL A   1      36.357  20.767  25.021  1.00  0.00     0.219 C 
BRANCH   7   8
ATOM      8  N   UNL A   1      34.940  20.862  25.399  1.00  0.00    -0.333 N 
ATOM      9  C   UNL A   1      32.155  26.514  24.388  1.00  0.00     0.253 C 
ATOM     10  O   UNL A   1      31.945  26.819  23.213  1.00  0.00    -0.269 OA
ATOM     11  N   UNL A   1      32.129  25.189  24.815  1.00  0.00    -0.339 N 
ATOM     12  C   UNL A   1      32.350  24.147  23.824  1.00  0.00     0.120 C 
ATOM     13  C   UNL A   1      31.730  24.707  26.133  1.00  0.00     0.120 C 
ATOM     14  C   UNL A   1      33.481  23.246  24.307  1.00  0.00     0.030 C 
ATOM     15  C   UNL A   1      32.762  23.728  26.700  1.00  0.00     0.030 C 
ATOM     16  C   UNL A   1      33.201  22.622  25.700  1.00  0.00    -0.008 C 
ATOM     17  C   UNL A   1      32.148  21.499  25.651  1.00  0.00     0.019 C 
ATOM     18  C   UNL A   1      34.486  21.965  26.230  1.00  0.00     0.127 C 
ATOM     19  C   UNL A   1      32.588  20.305  24.813  1.00  0.00     0.101 C 
ATOM     20  C   UNL A   1      34.065  19.944  24.846  1.00  0.00     0.223 C 
ATOM     21  O   UNL A   1      34.454  18.923  24.280  1.00  0.00    -0.275 OA
BRANCH   9  22
ATOM     22  C   UNL A   1      32.570  27.607  25.316  1.00  0.00     0.043 A 
ATOM     23  C   UNL A   1      34.058  31.059  27.463  1.00  0.00     0.048 C 
ATOM     24  C   UNL A   1      33.503  29.868  26.739  1.00  0.00    -0.009 A 
ATOM     25  C   UNL A   1      34.208  28.657  26.772  1.00  0.00     0.008 A 
ATOM     26  C   UNL A   1      32.331  29.928  25.976  1.00  0.00     0.119 A 
ATOM     27  C   UNL A   1      33.759  27.548  26.050  1.00  0.00     0.014 A 
ATOM     28  C   UNL A   1      31.859  28.812  25.284  1.00  0.00     0.060 A 
BRANCH  26  29
ATOM     29  O   UNL A   1      31.607  31.077  25.830  1.00  0.00    -0.508 OA
ATOM     30  H   UNL A   1      31.853  31.848  26.302  1.00  0.00     0.293 HD
ENDBRANCH  26  29
ENDBRANCH   9  22
ENDBRANCH   7   8
ENDBRANCH   4   7
ENDBRANCH   2   3
ENDBRANCH   1   2
BRANCH   1  31
ATOM     31  C   UNL A   1      40.663  22.091  27.649  1.00  0.00     0.023 C 
BRANCH  31  32
ATOM     32  C   UNL A   1      41.824  23.080  27.699  1.00  0.00     0.116 C 
BRANCH  32  33
ATOM     33  N   UNL A   1      42.115  23.692  26.411  1.00  0.00    -0.352 N 
ATOM     34  C   UNL A   1      42.071  25.020  26.058  1.00  0.00     0.251 C 
ATOM     35  H   UNL A   1      42.381  23.070  25.695  1.00  0.00     0.163 HD
ATOM     36  O   UNL A   1      42.256  25.345  24.888  1.00  0.00    -0.269 OA
BRANCH  34  37
ATOM     37  C   UNL A   1      41.759  26.045  27.079  1.00  0.00     0.039 A 
ATOM     38  C   UNL A   1      40.692  25.819  27.951  1.00  0.00     0.014 A 
ATOM     39  C   UNL A   1      42.524  27.209  27.190  1.00  0.00     0.014 A 
ATOM     40  C   UNL A   1      40.436  26.726  28.982  1.00  0.00     0.010 A 
ATOM     41  C   UNL A   1      42.305  28.082  28.253  1.00  0.00     0.010 A 
ATOM     42  C   UNL A   1      41.265  27.846  29.164  1.00  0.00    -0.014 A 
BRANCH  42  43
ATOM     43  C   UNL A   1      41.077  28.759  30.319  1.00  0.00     0.031 A 
ATOM     44  C   UNL A   1      41.922  28.612  31.554  1.00  0.00     0.074 A 
ATOM     45  C   UNL A   1      40.084  29.668  30.287  1.00  0.00     0.049 A 
ATOM     46  N   UNL A   1      41.861  29.276  32.678  1.00  0.00    -0.248 NA
ATOM     47  C   UNL A   1      42.951  27.561  31.529  1.00  0.00     0.031 C 
ATOM     48  C   UNL A   1      39.148  29.860  29.176  1.00  0.00     0.029 A 
ATOM     49  N   UNL A   1      39.681  30.589  31.221  1.00  0.00    -0.354 N 
ATOM     50  C   UNL A   1      42.823  28.711  33.506  1.00  0.00     0.074 A 
ATOM     51  C   UNL A   1      43.430  27.625  32.764  1.00  0.00     0.031 C 
ATOM     52  C   UNL A   1      38.289  30.843  29.489  1.00  0.00     0.029 A 
ATOM     53  C   UNL A   1      38.594  31.333  30.830  1.00  0.00     0.049 A 
ATOM     54  H   UNL A   1      40.128  30.706  32.090  1.00  0.00     0.167 HD
ATOM     55  C   UNL A   1      43.182  29.074  34.761  1.00  0.00     0.037 A 
ATOM     56  C   UNL A   1      37.914  32.299  31.477  1.00  0.00     0.037 A 
ATOM     57  C   UNL A   1      42.599  30.177  35.480  1.00  0.00     0.049 A 
ATOM     58  C   UNL A   1      38.359  32.720  32.849  1.00  0.00     0.074 A 
ATOM     59  C   UNL A   1      42.958  30.683  36.717  1.00  0.00     0.029 A 
ATOM     60  N   UNL A   1      41.532  30.941  35.031  1.00  0.00    -0.354 N 
ATOM     61  N   UNL A   1      39.333  32.234  33.581  1.00  0.00    -0.248 NA
ATOM     62  C   UNL A   1      37.623  33.825  33.478  1.00  0.00     0.031 C 
ATOM     63  C   UNL A   1      42.087  31.733  37.030  1.00  0.00     0.029 A 
ATOM     64  C   UNL A   1      41.206  31.903  35.973  1.00  0.00     0.049 A 
ATOM     65  H   UNL A   1      41.074  30.818  34.168  1.00  0.00     0.167 HD
ATOM     66  C   UNL A   1      39.336  32.983  34.753  1.00  0.00     0.074 A 
ATOM     67  C   UNL A   1      38.276  33.963  34.625  1.00  0.00     0.031 C 
ATOM     68  C   UNL A   1      40.144  32.868  35.835  1.00  0.00     0.037 A 
BRANCH  55  69
ATOM     69  C   UNL A   1      44.256  28.266  35.431  1.00  0.00     0.058 A 
ATOM     70  C   UNL A   1      45.613  28.608  35.319  1.00  0.00     0.135 A 
ATOM     71  C   UNL A   1      43.926  27.138  36.201  1.00  0.00     0.135 A 
ATOM     72  F   UNL A   1      45.984  29.669  34.585  1.00  0.00    -0.206 F 
ATOM     73  C   UNL A   1      46.609  27.838  35.912  1.00  0.00     0.059 A 
ATOM     74  C   UNL A   1      44.903  26.367  36.822  1.00  0.00     0.059 A 
ATOM     75  F   UNL A   1      42.643  26.768  36.342  1.00  0.00    -0.206 F 
ATOM     76  C   UNL A   1      46.244  26.713  36.653  1.00  0.00     0.060 A 
BRANCH  76  77
ATOM     77  S   UNL A   1      47.546  25.707  37.396  1.00  0.00     0.124 S 
ATOM     78  O   UNL A   1      48.252  26.700  38.202  1.00  0.00    -0.237 OA
ATOM     79  O   UNL A   1      46.788  24.709  38.143  1.00  0.00    -0.237 OA
ATOM     80  O   UNL A   1      48.280  25.198  36.242  1.00  0.00    -0.744 OA
ENDBRANCH  76  77
ENDBRANCH  55  69
BRANCH  56  81
ATOM     81  C   UNL A   1      36.759  32.951  30.809  1.00  0.00     0.058 A 
ATOM     82  C   UNL A   1      35.444  32.608  31.151  1.00  0.00     0.135 A 
ATOM     83  C   UNL A   1      36.947  33.965  29.857  1.00  0.00     0.135 A 
ATOM     84  F   UNL A   1      35.217  31.640  32.052  1.00  0.00    -0.206 F 
ATOM     85  C   UNL A   1      34.352  33.248  30.576  1.00  0.00     0.059 A 
ATOM     86  C   UNL A   1      35.871  34.633  29.282  1.00  0.00     0.059 A 
ATOM     87  F   UNL A   1      38.189  34.339  29.510  1.00  0.00    -0.206 F 
ATOM     88  C   UNL A   1      34.577  34.266  29.647  1.00  0.00     0.060 A 
BRANCH  88  89
ATOM     89  S   UNL A   1      33.155  35.155  28.974  1.00  0.00     0.124 S 
ATOM     90  O   UNL A   1      32.599  34.167  28.057  1.00  0.00    -0.237 OA
ATOM     91  O   UNL A   1      32.367  35.429  30.172  1.00  0.00    -0.237 OA
ATOM     92  O   UNL A   1      33.760  36.327  28.350  1.00  0.00    -0.744 OA
ENDBRANCH  88  89
ENDBRANCH  56  81
BRANCH  68  93
ATOM     93  C   UNL A   1      39.923  33.833  36.964  1.00  0.00     0.058 A 
ATOM     94  C   UNL A   1      40.573  35.077  37.002  1.00  0.00     0.135 A 
ATOM     95  C   UNL A   1      39.018  33.532  37.992  1.00  0.00     0.135 A 
ATOM     96  F   UNL A   1      41.454  35.409  36.045  1.00  0.00    -0.206 F 
ATOM     97  C   UNL A   1      40.348  35.982  38.034  1.00  0.00     0.059 A 
ATOM     98  C   UNL A   1      38.761  34.431  39.024  1.00  0.00     0.059 A 
ATOM     99  F   UNL A   1      38.364  32.359  37.996  1.00  0.00    -0.206 F 
ATOM    100  C   UNL A   1      39.439  35.649  39.042  1.00  0.00     0.060 A 
BRANCH 100 101
ATOM    101  S   UNL A   1      39.127  36.843  40.360  1.00  0.00     0.124 S 
ATOM    102  O   UNL A   1      38.328  36.050  41.289  1.00  0.00    -0.237 OA
ATOM    103  O   UNL A   1      40.475  37.177  40.809  1.00  0.00    -0.237 OA
ATOM    104  O   UNL A   1      38.416  37.920  39.679  1.00  0.00    -0.744 OA
ENDBRANCH 100 101
ENDBRANCH  68  93
ENDBRANCH  42  43
ENDBRANCH  34  37
ENDBRANCH  32  33
ENDBRANCH  31  32
ENDBRANCH   1  31
TORSDOF 17
ENDMDL
MODEL 2
REMARK VINA RESULT:     -12.8      2.367      9.001
REMARK SMILES Cc1ccc(C(=O)N2CCC3(CCC(=O)N(CC(=O)NCCCCNC(=O)c4ccc(-c5c6nc(c(-c7c(F)cc(S(=O)(=O)[O-])cc7F)c7ccc([nH]7)c(-c7c(F)cc(S(=O)(=O)[O-])cc7F)c7nc(c(-c8c(F)cc(S(=O)(=O)[O-])cc8F)c8ccc5[nH]8)C=C7)C=C6)cc4)C3)CC2)cc1O
REMARK SMILES IDX 22 1 21 2 20 3 18 4 19 5 17 7 16 8 6 9 7 10 8 11 9 12 96 13
REMARK SMILES IDX 10 14 95 15 11 16 12 17 94 18 13 19 14 20 15 21 5 22 1 23
REMARK SMILES IDX 2 24 3 25 98 26 4 27 97 28 99 29 23 31 24 32 25 33 26 34
REMARK SMILES IDX 27 36 28 37 29 38 93 39 30 40 92 41 31 42 32 43 33 44 86 45
REMARK SMILES IDX 34 46 91 47 85 48 87 49 35 50 90 51 84 52 83 53 36 55 70 56
REMARK SMILES IDX 49 57 69 58 50 59 53 60 68 61 88 62 51 63 52 64 67 66 89 67
REMARK SMILES IDX 54 68 37 69 38 70 47 71 39 72 40 73 46 74 48 75 41 76 42 77
REMARK SMILES IDX 43 78 44 79 45 80 71 81 72 82 81 83 73 84 74 85 80 86 82 87
REMARK SMILES IDX 75 88 76 89 77 90 78 91 79 92 55 93 56 94 65 95 57 96 58 97
REMARK SMILES IDX 64 98 66 99 59 100 60 101 61 102 62 103 63 104
REMARK H PARENT 20 6 99 30 25 35 87 54 53 65
REMARK Flexibility Score: inf
ROOT
ATOM      1  C   UNL A   1      34.836  30.838  28.023  1.00  0.00     0.023 C 
ENDROOT
BRANCH   1   2
ATOM      2  C   UNL A   1      34.555  29.569  27.225  1.00  0.00     0.116 C 
BRANCH   2   3
ATOM      3  N   UNL A   1      33.334  28.923  27.642  1.00  0.00    -0.355 N 
ATOM      4  C   UNL A   1      32.124  28.870  27.016  1.00  0.00     0.239 C 
ATOM      5  O   UNL A   1      31.303  28.056  27.448  1.00  0.00    -0.273 OA
ATOM      6  H   UNL A   1      33.383  28.452  28.505  1.00  0.00     0.163 HD
BRANCH   4   7
ATOM      7  C   UNL A   1      31.872  29.628  25.704  1.00  0.00     0.219 C 
BRANCH   7   8
ATOM      8  N   UNL A   1      31.794  28.869  24.448  1.00  0.00    -0.333 N 
ATOM      9  C   UNL A   1      32.612  22.559  24.945  1.00  0.00     0.253 C 
ATOM     10  O   UNL A   1      31.697  21.928  25.477  1.00  0.00    -0.269 OA
ATOM     11  N   UNL A   1      32.370  23.714  24.206  1.00  0.00    -0.339 N 
ATOM     12  C   UNL A   1      31.140  24.447  24.466  1.00  0.00     0.120 C 
ATOM     13  C   UNL A   1      33.137  24.190  23.059  1.00  0.00     0.120 C 
ATOM     14  C   UNL A   1      31.492  25.900  24.764  1.00  0.00     0.030 C 
ATOM     15  C   UNL A   1      33.494  25.671  23.209  1.00  0.00     0.030 C 
ATOM     16  C   UNL A   1      32.296  26.573  23.619  1.00  0.00    -0.008 C 
ATOM     17  C   UNL A   1      31.426  26.896  22.390  1.00  0.00     0.019 C 
ATOM     18  C   UNL A   1      32.844  27.923  24.108  1.00  0.00     0.127 C 
ATOM     19  C   UNL A   1      30.325  27.907  22.687  1.00  0.00     0.101 C 
ATOM     20  C   UNL A   1      30.648  29.007  23.685  1.00  0.00     0.223 C 
ATOM     21  O   UNL A   1      29.837  29.913  23.875  1.00  0.00    -0.275 OA
BRANCH   9  22
ATOM     22  C   UNL A   1      34.008  22.116  25.233  1.00  0.00     0.043 A 
ATOM     23  C   UNL A   1      38.229  21.200  25.530  1.00  0.00     0.048 C 
ATOM     24  C   UNL A   1      36.765  21.526  25.470  1.00  0.00    -0.009 A 
ATOM     25  C   UNL A   1      35.887  20.619  24.862  1.00  0.00     0.008 A 
ATOM     26  C   UNL A   1      36.241  22.733  25.948  1.00  0.00     0.119 A 
ATOM     27  C   UNL A   1      34.529  20.922  24.724  1.00  0.00     0.014 A 
ATOM     28  C   UNL A   1      34.880  23.022  25.847  1.00  0.00     0.060 A 
BRANCH  26  29
ATOM     29  O   UNL A   1      37.024  23.706  26.501  1.00  0.00    -0.508 OA
ATOM     30  H   UNL A   1      37.086  24.546  26.090  1.00  0.00     0.293 HD
ENDBRANCH  26  29
ENDBRANCH   9  22
ENDBRANCH   7   8
ENDBRANCH   4   7
ENDBRANCH   2   3
ENDBRANCH   1   2
BRANCH   1  31
ATOM     31  C   UNL A   1      34.346  32.133  27.369  1.00  0.00     0.023 C 
BRANCH  31  32
ATOM     32  C   UNL A   1      32.936  32.577  27.749  1.00  0.00     0.116 C 
BRANCH  32  33
ATOM     33  N   UNL A   1      32.803  34.020  27.883  1.00  0.00    -0.352 N 
ATOM     34  C   UNL A   1      33.498  34.877  28.702  1.00  0.00     0.251 C 
ATOM     35  H   UNL A   1      32.122  34.439  27.308  1.00  0.00     0.163 HD
ATOM     36  O   UNL A   1      33.180  36.062  28.751  1.00  0.00    -0.269 OA
BRANCH  34  37
ATOM     37  C   UNL A   1      34.595  34.361  29.550  1.00  0.00     0.039 A 
ATOM     38  C   UNL A   1      34.271  33.666  30.717  1.00  0.00     0.014 A 
ATOM     39  C   UNL A   1      35.933  34.543  29.188  1.00  0.00     0.014 A 
ATOM     40  C   UNL A   1      35.286  33.088  31.484  1.00  0.00     0.010 A 
ATOM     41  C   UNL A   1      36.939  33.918  29.922  1.00  0.00     0.010 A 
ATOM     42  C   UNL A   1      36.625  33.177  31.071  1.00  0.00    -0.014 A 
BRANCH  42  43
ATOM     43  C   UNL A   1      37.704  32.477  31.812  1.00  0.00     0.031 A 
ATOM     44  C   UNL A   1      38.178  32.995  33.141  1.00  0.00     0.074 A 
ATOM     45  C   UNL A   1      38.317  31.421  31.243  1.00  0.00     0.049 A 
ATOM     46  N   UNL A   1      39.145  32.551  33.901  1.00  0.00    -0.248 NA
ATOM     47  C   UNL A   1      37.492  34.183  33.670  1.00  0.00     0.031 C 
ATOM     48  C   UNL A   1      37.998  30.867  29.924  1.00  0.00     0.029 A 
ATOM     49  N   UNL A   1      39.349  30.635  31.691  1.00  0.00    -0.354 N 
ATOM     50  C   UNL A   1      39.203  33.418  34.986  1.00  0.00     0.074 A 
ATOM     51  C   UNL A   1      38.195  34.434  34.766  1.00  0.00     0.031 C 
ATOM     52  C   UNL A   1      38.811  29.827  29.676  1.00  0.00     0.029 A 
ATOM     53  C   UNL A   1      39.723  29.655  30.803  1.00  0.00     0.049 A 
ATOM     54  H   UNL A   1      39.781  30.761  32.566  1.00  0.00     0.167 HD
ATOM     55  C   UNL A   1      40.008  33.362  36.074  1.00  0.00     0.037 A 
ATOM     56  C   UNL A   1      40.693  28.725  30.882  1.00  0.00     0.037 A 
ATOM     57  C   UNL A   1      40.985  32.330  36.304  1.00  0.00     0.049 A 
ATOM     58  C   UNL A   1      41.543  28.651  32.118  1.00  0.00     0.074 A 
ATOM     59  C   UNL A   1      41.782  32.132  37.418  1.00  0.00     0.029 A 
ATOM     60  N   UNL A   1      41.301  31.323  35.403  1.00  0.00    -0.354 N 
ATOM     61  N   UNL A   1      41.522  29.424  33.177  1.00  0.00    -0.248 NA
ATOM     62  C   UNL A   1      42.540  27.573  32.176  1.00  0.00     0.031 C 
ATOM     63  C   UNL A   1      42.605  31.025  37.176  1.00  0.00     0.029 A 
ATOM     64  C   UNL A   1      42.296  30.513  35.926  1.00  0.00     0.049 A 
ATOM     65  H   UNL A   1      40.881  31.202  34.521  1.00  0.00     0.167 HD
ATOM     66  C   UNL A   1      42.492  28.919  34.035  1.00  0.00     0.074 A 
ATOM     67  C   UNL A   1      43.072  27.765  33.377  1.00  0.00     0.031 C 
ATOM     68  C   UNL A   1      42.867  29.371  35.257  1.00  0.00     0.037 A 
BRANCH  55  69
ATOM     69  C   UNL A   1      39.862  34.454  37.095  1.00  0.00     0.058 A 
ATOM     70  C   UNL A   1      39.065  34.289  38.239  1.00  0.00     0.135 A 
ATOM     71  C   UNL A   1      40.531  35.678  36.934  1.00  0.00     0.135 A 
ATOM     72  F   UNL A   1      38.393  33.144  38.436  1.00  0.00    -0.206 F 
ATOM     73  C   UNL A   1      38.903  35.313  39.167  1.00  0.00     0.059 A 
ATOM     74  C   UNL A   1      40.403  36.708  37.860  1.00  0.00     0.059 A 
ATOM     75  F   UNL A   1      41.308  35.886  35.859  1.00  0.00    -0.206 F 
ATOM     76  C   UNL A   1      39.569  36.524  38.963  1.00  0.00     0.060 A 
BRANCH  76  77
ATOM     77  S   UNL A   1      39.331  37.854  40.159  1.00  0.00     0.124 S 
ATOM     78  O   UNL A   1      39.080  37.099  41.383  1.00  0.00    -0.237 OA
ATOM     79  O   UNL A   1      40.605  38.564  40.102  1.00  0.00    -0.237 OA
ATOM     80  O   UNL A   1      38.185  38.586  39.627  1.00  0.00    -0.744 OA
ENDBRANCH  76  77
ENDBRANCH  55  69
BRANCH  56  81
ATOM     81  C   UNL A   1      40.882  27.771  29.759  1.00  0.00     0.058 A 
ATOM     82  C   UNL A   1      39.950  26.753  29.516  1.00  0.00     0.135 A 
ATOM     83  C   UNL A   1      41.967  27.893  28.877  1.00  0.00     0.135 A 
ATOM     84  F   UNL A   1      38.901  26.596  30.338  1.00  0.00    -0.206 F 
ATOM     85  C   UNL A   1      40.083  25.888  28.436  1.00  0.00     0.059 A 
ATOM     86  C   UNL A   1      42.111  27.052  27.778  1.00  0.00     0.059 A 
ATOM     87  F   UNL A   1      42.876  28.864  29.059  1.00  0.00    -0.206 F 
ATOM     88  C   UNL A   1      41.164  26.051  27.568  1.00  0.00     0.060 A 
BRANCH  88  89
ATOM     89  S   UNL A   1      41.278  24.981  26.116  1.00  0.00     0.124 S 
ATOM     90  O   UNL A   1      41.415  25.958  25.042  1.00  0.00    -0.237 OA
ATOM     91  O   UNL A   1      42.465  24.186  26.411  1.00  0.00    -0.237 OA
ATOM     92  O   UNL A   1      40.018  24.245  26.144  1.00  0.00    -0.744 OA
ENDBRANCH  88  89
ENDBRANCH  56  81
BRANCH  68  93
ATOM     93  C   UNL A   1      43.948  28.610  35.969  1.00  0.00     0.058 A 
ATOM     94  C   UNL A   1      45.299  28.971  35.850  1.00  0.00     0.135 A 
ATOM     95  C   UNL A   1      43.627  27.538  36.816  1.00  0.00     0.135 A 
ATOM     96  F   UNL A   1      45.659  29.984  35.046  1.00  0.00    -0.206 F 
ATOM     97  C   UNL A   1      46.298  28.282  36.530  1.00  0.00     0.059 A 
ATOM     98  C   UNL A   1      44.607  26.848  37.524  1.00  0.00     0.059 A 
ATOM     99  F   UNL A   1      42.348  27.159  36.971  1.00  0.00    -0.206 F 
ATOM    100  C   UNL A   1      45.941  27.221  37.366  1.00  0.00     0.060 A 
BRANCH 100 101
ATOM    101  S   UNL A   1      47.240  26.353  38.272  1.00  0.00     0.124 S 
ATOM    102  O   UNL A   1      46.547  25.137  38.682  1.00  0.00    -0.237 OA
ATOM    103  O   UNL A   1      48.273  26.182  37.256  1.00  0.00    -0.237 OA
ATOM    104  O   UNL A   1      47.576  27.280  39.348  1.00  0.00    -0.744 OA
ENDBRANCH 100 101
ENDBRANCH  68  93
ENDBRANCH  42  43
ENDBRANCH  34  37
ENDBRANCH  32  33
ENDBRANCH  31  32
ENDBRANCH   1  31
TORSDOF 17
ENDMDL
MODEL 3
REMARK VINA RESULT:     -12.3      5.959      8.041
REMARK SMILES Cc1ccc(C(=O)N2CCC3(CCC(=O)N(CC(=O)NCCCCNC(=O)c4ccc(-c5c6nc(c(-c7c(F)cc(S(=O)(=O)[O-])cc7F)c7ccc([nH]7)c(-c7c(F)cc(S(=O)(=O)[O-])cc7F)c7nc(c(-c8c(F)cc(S(=O)(=O)[O-])cc8F)c8ccc5[nH]8)C=C7)C=C6)cc4)C3)CC2)cc1O
REMARK SMILES IDX 22 1 21 2 20 3 18 4 19 5 17 7 16 8 6 9 7 10 8 11 9 12 96 13
REMARK SMILES IDX 10 14 95 15 11 16 12 17 94 18 13 19 14 20 15 21 5 22 1 23
REMARK SMILES IDX 2 24 3 25 98 26 4 27 97 28 99 29 23 31 24 32 25 33 26 34
REMARK SMILES IDX 27 36 28 37 29 38 93 39 30 40 92 41 31 42 32 43 33 44 86 45
REMARK SMILES IDX 34 46 91 47 85 48 87 49 35 50 90 51 84 52 83 53 36 55 70 56
REMARK SMILES IDX 49 57 69 58 50 59 53 60 68 61 88 62 51 63 52 64 67 66 89 67
REMARK SMILES IDX 54 68 37 69 38 70 47 71 39 72 40 73 46 74 48 75 41 76 42 77
REMARK SMILES IDX 43 78 44 79 45 80 71 81 72 82 81 83 73 84 74 85 80 86 82 87
REMARK SMILES IDX 75 88 76 89 77 90 78 91 79 92 55 93 56 94 65 95 57 96 58 97
REMARK SMILES IDX 64 98 66 99 59 100 60 101 61 102 62 103 63 104
REMARK H PARENT 20 6 99 30 25 35 87 54 53 65
REMARK Flexibility Score: inf
ROOT
ATOM      1  C   UNL A   1      39.329  22.842  26.364  1.00  0.00     0.023 C 
ENDROOT
BRANCH   1   2
ATOM      2  C   UNL A   1      37.950  23.447  26.121  1.00  0.00     0.116 C 
BRANCH   2   3
ATOM      3  N   UNL A   1      37.576  23.406  24.727  1.00  0.00    -0.355 N 
ATOM      4  C   UNL A   1      36.735  22.550  24.080  1.00  0.00     0.239 C 
ATOM      5  O   UNL A   1      36.385  22.862  22.939  1.00  0.00    -0.273 OA
ATOM      6  H   UNL A   1      37.990  24.098  24.162  1.00  0.00     0.163 HD
BRANCH   4   7
ATOM      7  C   UNL A   1      36.083  21.369  24.813  1.00  0.00     0.219 C 
BRANCH   7   8
ATOM      8  N   UNL A   1      34.692  21.495  25.269  1.00  0.00    -0.333 N 
ATOM      9  C   UNL A   1      31.804  27.023  23.914  1.00  0.00     0.253 C 
ATOM     10  O   UNL A   1      31.519  27.217  22.732  1.00  0.00    -0.269 OA
ATOM     11  N   UNL A   1      31.816  25.744  24.463  1.00  0.00    -0.339 N 
ATOM     12  C   UNL A   1      31.983  24.614  23.562  1.00  0.00     0.120 C 
ATOM     13  C   UNL A   1      31.504  25.386  25.843  1.00  0.00     0.120 C 
ATOM     14  C   UNL A   1      33.149  23.765  24.054  1.00  0.00     0.030 C 
ATOM     15  C   UNL A   1      32.577  24.467  26.432  1.00  0.00     0.030 C 
ATOM     16  C   UNL A   1      32.961  23.272  25.514  1.00  0.00    -0.008 C 
ATOM     17  C   UNL A   1      31.916  22.148  25.636  1.00  0.00     0.019 C 
ATOM     18  C   UNL A   1      34.282  22.671  26.021  1.00  0.00     0.127 C 
ATOM     19  C   UNL A   1      32.312  20.882  24.886  1.00  0.00     0.101 C 
ATOM     20  C   UNL A   1      33.791  20.528  24.860  1.00  0.00     0.223 C 
ATOM     21  O   UNL A   1      34.153  19.460  24.368  1.00  0.00    -0.275 OA
BRANCH   9  22
ATOM     22  C   UNL A   1      32.268  28.199  24.708  1.00  0.00     0.043 A 
ATOM     23  C   UNL A   1      33.431  31.250  27.551  1.00  0.00     0.048 C 
ATOM     24  C   UNL A   1      33.066  30.198  26.545  1.00  0.00    -0.009 A 
ATOM     25  C   UNL A   1      31.833  30.280  25.885  1.00  0.00     0.008 A 
ATOM     26  C   UNL A   1      33.886  29.096  26.275  1.00  0.00     0.119 A 
ATOM     27  C   UNL A   1      31.429  29.280  24.996  1.00  0.00     0.014 A 
ATOM     28  C   UNL A   1      33.503  28.115  25.360  1.00  0.00     0.060 A 
BRANCH  26  29
ATOM     29  O   UNL A   1      35.077  28.893  26.912  1.00  0.00    -0.508 OA
ATOM     30  H   UNL A   1      35.471  28.042  26.910  1.00  0.00     0.293 HD
ENDBRANCH  26  29
ENDBRANCH   9  22
ENDBRANCH   7   8
ENDBRANCH   4   7
ENDBRANCH   2   3
ENDBRANCH   1   2
BRANCH   1  31
ATOM     31  C   UNL A   1      39.478  21.381  25.933  1.00  0.00     0.023 C 
BRANCH  31  32
ATOM     32  C   UNL A   1      40.331  20.503  26.844  1.00  0.00     0.116 C 
BRANCH  32  33
ATOM     33  N   UNL A   1      41.250  19.640  26.117  1.00  0.00    -0.352 N 
ATOM     34  C   UNL A   1      42.500  19.932  25.625  1.00  0.00     0.251 C 
ATOM     35  H   UNL A   1      40.933  18.722  25.956  1.00  0.00     0.163 HD
ATOM     36  O   UNL A   1      43.095  19.099  24.946  1.00  0.00    -0.269 OA
BRANCH  34  37
ATOM     37  C   UNL A   1      43.102  21.259  25.880  1.00  0.00     0.039 A 
ATOM     38  C   UNL A   1      43.116  22.199  24.847  1.00  0.00     0.014 A 
ATOM     39  C   UNL A   1      43.631  21.582  27.132  1.00  0.00     0.014 A 
ATOM     40  C   UNL A   1      43.594  23.488  25.090  1.00  0.00     0.010 A 
ATOM     41  C   UNL A   1      44.053  22.885  27.390  1.00  0.00     0.010 A 
ATOM     42  C   UNL A   1      44.031  23.853  26.374  1.00  0.00    -0.014 A 
BRANCH  42  43
ATOM     43  C   UNL A   1      44.436  25.248  26.679  1.00  0.00     0.031 A 
ATOM     44  C   UNL A   1      45.862  25.686  26.493  1.00  0.00     0.074 A 
ATOM     45  C   UNL A   1      43.534  26.097  27.207  1.00  0.00     0.049 A 
ATOM     46  N   UNL A   1      46.411  26.842  26.762  1.00  0.00    -0.248 NA
ATOM     47  C   UNL A   1      46.797  24.684  25.961  1.00  0.00     0.031 C 
ATOM     48  C   UNL A   1      42.137  25.770  27.503  1.00  0.00     0.029 A 
ATOM     49  N   UNL A   1      43.660  27.404  27.606  1.00  0.00    -0.354 N 
ATOM     50  C   UNL A   1      47.759  26.701  26.458  1.00  0.00     0.074 A 
ATOM     51  C   UNL A   1      47.951  25.336  26.016  1.00  0.00     0.031 C 
ATOM     52  C   UNL A   1      41.534  26.850  28.028  1.00  0.00     0.029 A 
ATOM     53  C   UNL A   1      42.505  27.936  28.128  1.00  0.00     0.049 A 
ATOM     54  H   UNL A   1      44.498  27.913  27.526  1.00  0.00     0.167 HD
ATOM     55  C   UNL A   1      48.744  27.630  26.522  1.00  0.00     0.037 A 
ATOM     56  C   UNL A   1      42.254  29.158  28.636  1.00  0.00     0.037 A 
ATOM     57  C   UNL A   1      48.542  28.996  26.929  1.00  0.00     0.049 A 
ATOM     58  C   UNL A   1      43.348  30.187  28.653  1.00  0.00     0.074 A 
ATOM     59  C   UNL A   1      49.455  30.036  26.938  1.00  0.00     0.029 A 
ATOM     60  N   UNL A   1      47.345  29.512  27.405  1.00  0.00    -0.354 N 
ATOM     61  N   UNL A   1      44.597  30.064  28.274  1.00  0.00    -0.248 NA
ATOM     62  C   UNL A   1      42.997  31.522  29.155  1.00  0.00     0.031 C 
ATOM     63  C   UNL A   1      48.819  31.173  27.449  1.00  0.00     0.029 A 
ATOM     64  C   UNL A   1      47.500  30.850  27.728  1.00  0.00     0.049 A 
ATOM     65  H   UNL A   1      46.508  29.002  27.498  1.00  0.00     0.167 HD
ATOM     66  C   UNL A   1      45.180  31.309  28.479  1.00  0.00     0.074 A 
ATOM     67  C   UNL A   1      44.143  32.175  29.001  1.00  0.00     0.031 C 
ATOM     68  C   UNL A   1      46.459  31.699  28.253  1.00  0.00     0.037 A 
BRANCH  55  69
ATOM     69  C   UNL A   1      50.130  27.191  26.143  1.00  0.00     0.058 A 
ATOM     70  C   UNL A   1      50.576  27.231  24.813  1.00  0.00     0.135 A 
ATOM     71  C   UNL A   1      51.026  26.730  27.121  1.00  0.00     0.135 A 
ATOM     72  F   UNL A   1      49.756  27.651  23.837  1.00  0.00    -0.206 F 
ATOM     73  C   UNL A   1      51.848  26.792  24.458  1.00  0.00     0.059 A 
ATOM     74  C   UNL A   1      52.311  26.307  26.793  1.00  0.00     0.059 A 
ATOM     75  F   UNL A   1      50.651  26.673  28.409  1.00  0.00    -0.206 F 
ATOM     76  C   UNL A   1      52.705  26.322  25.455  1.00  0.00     0.060 A 
BRANCH  76  77
ATOM     77  S   UNL A   1      54.343  25.730  24.980  1.00  0.00     0.124 S 
ATOM     78  O   UNL A   1      54.488  26.321  23.653  1.00  0.00    -0.237 OA
ATOM     79  O   UNL A   1      55.197  26.291  26.021  1.00  0.00    -0.237 OA
ATOM     80  O   UNL A   1      54.198  24.277  25.008  1.00  0.00    -0.744 OA
ENDBRANCH  76  77
ENDBRANCH  55  69
BRANCH  56  81
ATOM     81  C   UNL A   1      40.892  29.473  29.139  1.00  0.00     0.058 A 
ATOM     82  C   UNL A   1      39.819  29.637  28.252  1.00  0.00     0.135 A 
ATOM     83  C   UNL A   1      40.628  29.561  30.514  1.00  0.00     0.135 A 
ATOM     84  F   UNL A   1      40.027  29.567  26.928  1.00  0.00    -0.206 F 
ATOM     85  C   UNL A   1      38.528  29.876  28.709  1.00  0.00     0.059 A 
ATOM     86  C   UNL A   1      39.341  29.781  30.996  1.00  0.00     0.059 A 
ATOM     87  F   UNL A   1      41.620  29.394  31.401  1.00  0.00    -0.206 F 
ATOM     88  C   UNL A   1      38.298  29.939  30.084  1.00  0.00     0.060 A 
BRANCH  88  89
ATOM     89  S   UNL A   1      36.603  30.158  30.671  1.00  0.00     0.124 S 
ATOM     90  O   UNL A   1      36.630  29.419  31.928  1.00  0.00    -0.237 OA
ATOM     91  O   UNL A   1      36.502  31.610  30.785  1.00  0.00    -0.237 OA
ATOM     92  O   UNL A   1      35.802  29.565  29.605  1.00  0.00    -0.744 OA
ENDBRANCH  88  89
ENDBRANCH  56  81
BRANCH  68  93
ATOM     93  C   UNL A   1      46.807  33.127  28.559  1.00  0.00     0.058 A 
ATOM     94  C   UNL A   1      47.294  33.508  29.818  1.00  0.00     0.135 A 
ATOM     95  C   UNL A   1      46.696  34.116  27.570  1.00  0.00     0.135 A 
ATOM     96  F   UNL A   1      47.411  32.601  30.801  1.00  0.00    -0.206 F 
ATOM     97  C   UNL A   1      47.641  34.827  30.094  1.00  0.00     0.059 A 
ATOM     98  C   UNL A   1      47.057  35.437  27.815  1.00  0.00     0.059 A 
ATOM     99  F   UNL A   1      46.243  33.800  26.345  1.00  0.00    -0.206 F 
ATOM    100  C   UNL A   1      47.519  35.785  29.085  1.00  0.00     0.060 A 
BRANCH 100 101
ATOM    101  S   UNL A   1      48.003  37.488  29.439  1.00  0.00     0.124 S 
ATOM    102  O   UNL A   1      49.057  37.704  28.454  1.00  0.00    -0.237 OA
ATOM    103  O   UNL A   1      46.763  38.223  29.211  1.00  0.00    -0.237 OA
ATOM    104  O   UNL A   1      48.442  37.431  30.830  1.00  0.00    -0.744 OA
ENDBRANCH 100 101
ENDBRANCH  68  93
ENDBRANCH  42  43
ENDBRANCH  34  37
ENDBRANCH  32  33
ENDBRANCH  31  32
ENDBRANCH   1  31
TORSDOF 17
ENDMDL
