MODEL 1
REMARK VINA RESULT:     -12.5      0.000      0.000
REMARK SMILES CCc1ccnc(C(=O)c2[nH]c3ccc(OC(F)(F)F)cc3c2CC(=O)NCCCCNC(=O)c2ccc(-c3c4nc(c(-c5c(F)cc(S(=O)(=O)[O-])cc5F)c5ccc([nH]5)c(-c5c(F)cc(S(=O)(=O)[O-])cc5F)c5nc(c(-c6c(F)cc(S(=O)(=O)[O-])cc6F)c6ccc3[nH]6)C=C5)C=C4)cc2)c1
REMARK SMILES IDX 29 1 28 2 27 3 25 4 26 5 24 7 23 8 10 9 11 10 12 11 22 13
REMARK SMILES IDX 13 14 21 15 14 16 15 17 8 18 9 19 7 20 3 21 4 22 101 23 5 24
REMARK SMILES IDX 6 25 2 26 1 27 16 28 17 29 18 30 19 31 20 32 30 33 31 34
REMARK SMILES IDX 32 35 33 36 34 38 35 39 36 40 100 41 37 42 99 43 38 44 39 45
REMARK SMILES IDX 40 46 93 47 41 48 98 49 92 50 94 51 42 52 97 53 91 54 90 55
REMARK SMILES IDX 43 57 77 58 56 59 76 60 57 61 60 62 75 63 95 64 58 65 59 66
REMARK SMILES IDX 74 68 96 69 61 70 44 71 45 72 54 73 46 74 47 75 53 76 55 77
REMARK SMILES IDX 48 78 49 79 50 80 51 81 52 82 78 83 79 84 88 85 80 86 81 87
REMARK SMILES IDX 87 88 89 89 82 90 83 91 84 92 85 93 86 94 62 95 63 96 72 97
REMARK SMILES IDX 64 98 65 99 71 100 73 101 66 102 67 103 68 104 69 105 70 106
REMARK H PARENT 27 6 11 12 32 37 94 56 60 67
REMARK Flexibility Score: inf
ROOT
ATOM      1  C   UNL A   1      37.314  20.844  25.106  1.00  0.00     0.023 C 
ENDROOT
BRANCH   1   2
ATOM      2  C   UNL A   1      37.515  22.205  25.773  1.00  0.00     0.116 C 
BRANCH   2   3
ATOM      3  N   UNL A   1      36.333  22.683  26.459  1.00  0.00    -0.356 N 
ATOM      4  C   UNL A   1      35.243  23.334  25.956  1.00  0.00     0.224 C 
ATOM      5  O   UNL A   1      34.267  23.498  26.694  1.00  0.00    -0.275 OA
ATOM      6  H   UNL A   1      36.312  22.514  27.429  1.00  0.00     0.163 HD
BRANCH   4   7
ATOM      7  C   UNL A   1      35.172  23.730  24.489  1.00  0.00     0.138 C 
BRANCH   7   8
ATOM      8  C   UNL A   1      33.997  23.184  23.725  1.00  0.00    -0.002 A 
ATOM      9  C   UNL A   1      33.133  23.881  22.886  1.00  0.00     0.093 A 
ATOM     10  N   UNL A   1      32.273  22.962  22.327  1.00  0.00    -0.352 N 
ATOM     11  C   UNL A   1      32.496  21.709  22.843  1.00  0.00     0.046 A 
ATOM     12  H   UNL A   1      31.591  23.174  21.650  1.00  0.00     0.167 HD
ATOM     13  C   UNL A   1      33.554  21.818  23.739  1.00  0.00     0.008 A 
ATOM     14  C   UNL A   1      31.868  20.492  22.561  1.00  0.00     0.030 A 
ATOM     15  C   UNL A   1      33.994  20.650  24.396  1.00  0.00     0.057 A 
ATOM     16  C   UNL A   1      32.336  19.345  23.215  1.00  0.00     0.049 A 
ATOM     17  C   UNL A   1      33.390  19.413  24.124  1.00  0.00     0.130 A 
BRANCH   9  18
ATOM     18  C   UNL A   1      33.158  25.282  22.496  1.00  0.00     0.227 C 
ATOM     19  O   UNL A   1      33.915  25.672  21.613  1.00  0.00    -0.285 OA
BRANCH  18  20
ATOM     20  C   UNL A   1      32.209  26.243  23.170  1.00  0.00     0.113 A 
ATOM     21  C   UNL A   1      31.319  27.379  25.113  1.00  0.00    -0.044 A 
ATOM     22  C   UNL A   1      30.393  27.989  24.266  1.00  0.00     0.024 A 
ATOM     23  C   UNL A   1      32.260  26.510  24.538  1.00  0.00     0.036 A 
ATOM     24  C   UNL A   1      30.420  27.686  22.914  1.00  0.00     0.112 A 
ATOM     25  N   UNL A   1      31.291  26.823  22.357  1.00  0.00    -0.253 NA
BRANCH  21  26
ATOM     26  C   UNL A   1      31.377  27.620  26.603  1.00  0.00     0.032 C 
ATOM     27  C   UNL A   1      32.427  28.611  27.091  1.00  0.00     0.009 C 
ENDBRANCH  21  26
ENDBRANCH  18  20
ENDBRANCH   9  18
BRANCH  17  28
ATOM     28  O   UNL A   1      33.939  18.367  24.812  1.00  0.00    -0.406 OA
BRANCH  28  29
ATOM     29  C   UNL A   1      34.129  17.146  24.120  1.00  0.00     0.573 C 
ATOM     30  F   UNL A   1      33.027  16.368  24.198  1.00  0.00    -0.132 F 
ATOM     31  F   UNL A   1      34.442  17.357  22.825  1.00  0.00    -0.132 F 
ATOM     32  F   UNL A   1      35.152  16.476  24.697  1.00  0.00    -0.132 F 
ENDBRANCH  28  29
ENDBRANCH  17  28
ENDBRANCH   7   8
ENDBRANCH   4   7
ENDBRANCH   2   3
ENDBRANCH   1   2
BRANCH   1  33
ATOM     33  C   UNL A   1      38.567  19.974  24.990  1.00  0.00     0.023 C 
BRANCH  33  34
ATOM     34  C   UNL A   1      39.646  20.233  26.034  1.00  0.00     0.116 C 
BRANCH  34  35
ATOM     35  N   UNL A   1      40.633  19.168  26.122  1.00  0.00    -0.352 N 
ATOM     36  C   UNL A   1      41.994  19.274  26.294  1.00  0.00     0.251 C 
ATOM     37  H   UNL A   1      40.281  18.251  26.050  1.00  0.00     0.163 HD
ATOM     38  O   UNL A   1      42.700  18.275  26.254  1.00  0.00    -0.269 OA
BRANCH  36  39
ATOM     39  C   UNL A   1      42.601  20.611  26.482  1.00  0.00     0.039 A 
ATOM     40  C   UNL A   1      43.229  21.221  25.393  1.00  0.00     0.014 A 
ATOM     41  C   UNL A   1      42.523  21.268  27.713  1.00  0.00     0.014 A 
ATOM     42  C   UNL A   1      43.709  22.527  25.514  1.00  0.00     0.010 A 
ATOM     43  C   UNL A   1      42.963  22.585  27.820  1.00  0.00     0.010 A 
ATOM     44  C   UNL A   1      43.545  23.230  26.717  1.00  0.00    -0.014 A 
BRANCH  44  45
ATOM     45  C   UNL A   1      43.946  24.651  26.849  1.00  0.00     0.031 A 
ATOM     46  C   UNL A   1      45.381  25.047  26.657  1.00  0.00     0.074 A 
ATOM     47  C   UNL A   1      43.037  25.565  27.241  1.00  0.00     0.049 A 
ATOM     48  N   UNL A   1      45.960  26.194  26.892  1.00  0.00    -0.248 NA
ATOM     49  C   UNL A   1      46.290  24.003  26.155  1.00  0.00     0.031 C 
ATOM     50  C   UNL A   1      41.620  25.296  27.493  1.00  0.00     0.029 A 
ATOM     51  N   UNL A   1      43.178  26.900  27.519  1.00  0.00    -0.354 N 
ATOM     52  C   UNL A   1      47.305  26.005  26.607  1.00  0.00     0.074 A 
ATOM     53  C   UNL A   1      47.459  24.628  26.185  1.00  0.00     0.031 C 
ATOM     54  C   UNL A   1      41.021  26.434  27.886  1.00  0.00     0.029 A 
ATOM     55  C   UNL A   1      42.017  27.500  27.946  1.00  0.00     0.049 A 
ATOM     56  H   UNL A   1      44.030  27.384  27.423  1.00  0.00     0.167 HD
ATOM     57  C   UNL A   1      48.320  26.897  26.689  1.00  0.00     0.037 A 
ATOM     58  C   UNL A   1      41.784  28.761  28.355  1.00  0.00     0.037 A 
ATOM     59  C   UNL A   1      48.160  28.274  27.072  1.00  0.00     0.049 A 
ATOM     60  C   UNL A   1      42.917  29.747  28.391  1.00  0.00     0.074 A 
ATOM     61  C   UNL A   1      49.123  29.266  27.146  1.00  0.00     0.029 A 
ATOM     62  N   UNL A   1      46.955  28.857  27.434  1.00  0.00    -0.354 N 
ATOM     63  N   UNL A   1      44.182  29.555  28.103  1.00  0.00    -0.248 NA
ATOM     64  C   UNL A   1      42.593  31.118  28.808  1.00  0.00     0.031 C 
ATOM     65  C   UNL A   1      48.499  30.450  27.563  1.00  0.00     0.029 A 
ATOM     66  C   UNL A   1      47.147  30.196  27.730  1.00  0.00     0.049 A 
ATOM     67  H   UNL A   1      46.091  28.388  27.475  1.00  0.00     0.167 HD
ATOM     68  C   UNL A   1      44.803  30.783  28.292  1.00  0.00     0.074 A 
ATOM     69  C   UNL A   1      43.776  31.714  28.713  1.00  0.00     0.031 C 
ATOM     70  C   UNL A   1      46.109  31.109  28.132  1.00  0.00     0.037 A 
BRANCH  57  71
ATOM     71  C   UNL A   1      49.695  26.398  26.363  1.00  0.00     0.058 A 
ATOM     72  C   UNL A   1      50.219  26.492  25.065  1.00  0.00     0.135 A 
ATOM     73  C   UNL A   1      50.497  25.818  27.358  1.00  0.00     0.135 A 
ATOM     74  F   UNL A   1      49.482  27.023  24.077  1.00  0.00    -0.206 F 
ATOM     75  C   UNL A   1      51.483  26.001  24.757  1.00  0.00     0.059 A 
ATOM     76  C   UNL A   1      51.769  25.334  27.075  1.00  0.00     0.059 A 
ATOM     77  F   UNL A   1      50.037  25.701  28.615  1.00  0.00    -0.206 F 
ATOM     78  C   UNL A   1      52.247  25.412  25.767  1.00  0.00     0.060 A 
BRANCH  78  79
ATOM     79  S   UNL A   1      53.878  24.754  25.361  1.00  0.00     0.124 S 
ATOM     80  O   UNL A   1      53.554  23.374  25.016  1.00  0.00    -0.237 OA
ATOM     81  O   UNL A   1      54.299  25.601  24.249  1.00  0.00    -0.237 OA
ATOM     82  O   UNL A   1      54.629  24.934  26.599  1.00  0.00    -0.744 OA
ENDBRANCH  78  79
ENDBRANCH  57  71
BRANCH  58  83
ATOM     83  C   UNL A   1      40.413  29.164  28.751  1.00  0.00     0.058 A 
ATOM     84  C   UNL A   1      40.072  29.298  30.103  1.00  0.00     0.135 A 
ATOM     85  C   UNL A   1      39.433  29.455  27.790  1.00  0.00     0.135 A 
ATOM     86  F   UNL A   1      40.979  29.027  31.053  1.00  0.00    -0.206 F 
ATOM     87  C   UNL A   1      38.800  29.704  30.495  1.00  0.00     0.059 A 
ATOM     88  C   UNL A   1      38.158  29.875  28.157  1.00  0.00     0.059 A 
ATOM     89  F   UNL A   1      39.721  29.354  26.484  1.00  0.00    -0.206 F 
ATOM     90  C   UNL A   1      37.849  29.990  29.513  1.00  0.00     0.060 A 
BRANCH  90  91
ATOM     91  S   UNL A   1      36.219  30.581  30.021  1.00  0.00     0.124 S 
ATOM     92  O   UNL A   1      35.918  29.687  31.134  1.00  0.00    -0.237 OA
ATOM     93  O   UNL A   1      36.485  31.972  30.374  1.00  0.00    -0.237 OA
ATOM     94  O   UNL A   1      35.411  30.393  28.820  1.00  0.00    -0.744 OA
ENDBRANCH  90  91
ENDBRANCH  58  83
BRANCH  70  95
ATOM     95  C   UNL A   1      46.497  32.533  28.385  1.00  0.00     0.058 A 
ATOM     96  C   UNL A   1      46.424  33.499  27.370  1.00  0.00     0.135 A 
ATOM     97  C   UNL A   1      46.880  32.949  29.669  1.00  0.00     0.135 A 
ATOM     98  F   UNL A   1      46.068  33.145  26.126  1.00  0.00    -0.206 F 
ATOM     99  C   UNL A   1      46.722  34.834  27.621  1.00  0.00     0.059 A 
ATOM    100  C   UNL A   1      47.172  34.280  29.944  1.00  0.00     0.059 A 
ATOM    101  F   UNL A   1      46.961  32.059  30.671  1.00  0.00    -0.206 F 
ATOM    102  C   UNL A   1      47.095  35.216  28.911  1.00  0.00     0.060 A 
BRANCH 102 103
ATOM    103  S   UNL A   1      47.428  36.958  29.248  1.00  0.00     0.124 S 
ATOM    104  O   UNL A   1      46.455  37.246  30.296  1.00  0.00    -0.237 OA
ATOM    105  O   UNL A   1      48.826  36.941  29.670  1.00  0.00    -0.237 OA
ATOM    106  O   UNL A   1      47.179  37.602  27.962  1.00  0.00    -0.744 OA
ENDBRANCH 102 103
ENDBRANCH  70  95
ENDBRANCH  44  45
ENDBRANCH  36  39
ENDBRANCH  34  35
ENDBRANCH  33  34
ENDBRANCH   1  33
TORSDOF 20
ENDMDL
MODEL 2
REMARK VINA RESULT:     -12.5      6.002     10.389
REMARK SMILES CCc1ccnc(C(=O)c2[nH]c3ccc(OC(F)(F)F)cc3c2CC(=O)NCCCCNC(=O)c2ccc(-c3c4nc(c(-c5c(F)cc(S(=O)(=O)[O-])cc5F)c5ccc([nH]5)c(-c5c(F)cc(S(=O)(=O)[O-])cc5F)c5nc(c(-c6c(F)cc(S(=O)(=O)[O-])cc6F)c6ccc3[nH]6)C=C5)C=C4)cc2)c1
REMARK SMILES IDX 29 1 28 2 27 3 25 4 26 5 24 7 23 8 10 9 11 10 12 11 22 13
REMARK SMILES IDX 13 14 21 15 14 16 15 17 8 18 9 19 7 20 3 21 4 22 101 23 5 24
REMARK SMILES IDX 6 25 2 26 1 27 16 28 17 29 18 30 19 31 20 32 30 33 31 34
REMARK SMILES IDX 32 35 33 36 34 38 35 39 36 40 100 41 37 42 99 43 38 44 39 45
REMARK SMILES IDX 40 46 93 47 41 48 98 49 92 50 94 51 42 52 97 53 91 54 90 55
REMARK SMILES IDX 43 57 77 58 56 59 76 60 57 61 60 62 75 63 95 64 58 65 59 66
REMARK SMILES IDX 74 68 96 69 61 70 44 71 45 72 54 73 46 74 47 75 53 76 55 77
REMARK SMILES IDX 48 78 49 79 50 80 51 81 52 82 78 83 79 84 88 85 80 86 81 87
REMARK SMILES IDX 87 88 89 89 82 90 83 91 84 92 85 93 86 94 62 95 63 96 72 97
REMARK SMILES IDX 64 98 65 99 71 100 73 101 66 102 67 103 68 104 69 105 70 106
REMARK H PARENT 27 6 11 12 32 37 94 56 60 67
REMARK Flexibility Score: inf
ROOT
ATOM      1  C   UNL A   1      38.696  23.211  26.261  1.00  0.00     0.023 C 
ENDROOT
BRANCH   1   2
ATOM      2  C   UNL A   1      37.500  22.343  25.870  1.00  0.00     0.116 C 
BRANCH   2   3
ATOM      3  N   UNL A   1      36.286  22.692  26.578  1.00  0.00    -0.356 N 
ATOM      4  C   UNL A   1      35.196  23.387  26.138  1.00  0.00     0.224 C 
ATOM      5  O   UNL A   1      34.194  23.421  26.858  1.00  0.00    -0.275 OA
ATOM      6  H   UNL A   1      36.239  22.381  27.512  1.00  0.00     0.163 HD
BRANCH   4   7
ATOM      7  C   UNL A   1      35.161  23.992  24.743  1.00  0.00     0.138 C 
BRANCH   7   8
ATOM      8  C   UNL A   1      34.035  23.526  23.862  1.00  0.00    -0.002 A 
ATOM      9  C   UNL A   1      33.253  24.297  23.005  1.00  0.00     0.093 A 
ATOM     10  N   UNL A   1      32.417  23.437  22.328  1.00  0.00    -0.352 N 
ATOM     11  C   UNL A   1      32.571  22.150  22.780  1.00  0.00     0.046 A 
ATOM     12  H   UNL A   1      31.793  23.709  21.617  1.00  0.00     0.167 HD
ATOM     13  C   UNL A   1      33.561  22.175  23.757  1.00  0.00     0.008 A 
ATOM     14  C   UNL A   1      31.938  20.970  22.377  1.00  0.00     0.030 A 
ATOM     15  C   UNL A   1      33.922  20.957  24.371  1.00  0.00     0.057 A 
ATOM     16  C   UNL A   1      32.328  19.773  22.991  1.00  0.00     0.049 A 
ATOM     17  C   UNL A   1      33.312  19.757  23.979  1.00  0.00     0.130 A 
BRANCH   9  18
ATOM     18  C   UNL A   1      33.341  25.718  22.707  1.00  0.00     0.227 C 
ATOM     19  O   UNL A   1      33.763  26.103  21.622  1.00  0.00    -0.285 OA
BRANCH  18  20
ATOM     20  C   UNL A   1      32.866  26.710  23.740  1.00  0.00     0.113 A 
ATOM     21  C   UNL A   1      33.240  28.289  25.536  1.00  0.00    -0.044 A 
ATOM     22  C   UNL A   1      31.857  28.459  25.603  1.00  0.00     0.024 A 
ATOM     23  C   UNL A   1      33.747  27.413  24.562  1.00  0.00     0.036 A 
ATOM     24  C   UNL A   1      31.051  27.737  24.738  1.00  0.00     0.112 A 
ATOM     25  N   UNL A   1      31.522  26.865  23.827  1.00  0.00    -0.253 NA
BRANCH  21  26
ATOM     26  C   UNL A   1      34.217  29.008  26.436  1.00  0.00     0.032 C 
ATOM     27  C   UNL A   1      33.651  30.134  27.292  1.00  0.00     0.009 C 
ENDBRANCH  21  26
ENDBRANCH  18  20
ENDBRANCH   9  18
BRANCH  17  28
ATOM     28  O   UNL A   1      33.783  18.656  24.638  1.00  0.00    -0.406 OA
BRANCH  28  29
ATOM     29  C   UNL A   1      32.877  17.933  25.453  1.00  0.00     0.573 C 
ATOM     30  F   UNL A   1      32.538  18.645  26.550  1.00  0.00    -0.132 F 
ATOM     31  F   UNL A   1      31.762  17.597  24.771  1.00  0.00    -0.132 F 
ATOM     32  F   UNL A   1      33.479  16.795  25.865  1.00  0.00    -0.132 F 
ENDBRANCH  28  29
ENDBRANCH  17  28
ENDBRANCH   7   8
ENDBRANCH   4   7
ENDBRANCH   2   3
ENDBRANCH   1   2
BRANCH   1  33
ATOM     33  C   UNL A   1      39.903  22.458  26.823  1.00  0.00     0.023 C 
BRANCH  33  34
ATOM     34  C   UNL A   1      41.153  23.299  27.053  1.00  0.00     0.116 C 
BRANCH  34  35
ATOM     35  N   UNL A   1      41.414  24.251  25.985  1.00  0.00    -0.352 N 
ATOM     36  C   UNL A   1      41.496  25.623  26.061  1.00  0.00     0.251 C 
ATOM     37  H   UNL A   1      41.550  23.863  25.090  1.00  0.00     0.163 HD
ATOM     38  O   UNL A   1      41.631  26.290  25.045  1.00  0.00    -0.269 OA
BRANCH  36  39
ATOM     39  C   UNL A   1      41.373  26.285  27.379  1.00  0.00     0.039 A 
ATOM     40  C   UNL A   1      42.386  27.157  27.789  1.00  0.00     0.014 A 
ATOM     41  C   UNL A   1      40.254  26.071  28.189  1.00  0.00     0.014 A 
ATOM     42  C   UNL A   1      42.239  27.879  28.975  1.00  0.00     0.010 A 
ATOM     43  C   UNL A   1      40.089  26.825  29.348  1.00  0.00     0.010 A 
ATOM     44  C   UNL A   1      41.072  27.746  29.742  1.00  0.00    -0.014 A 
BRANCH  44  45
ATOM     45  C   UNL A   1      40.836  28.573  30.949  1.00  0.00     0.031 A 
ATOM     46  C   UNL A   1      39.763  29.623  30.940  1.00  0.00     0.074 A 
ATOM     47  C   UNL A   1      41.652  28.446  32.013  1.00  0.00     0.049 A 
ATOM     48  N   UNL A   1      39.514  30.555  31.822  1.00  0.00    -0.248 NA
ATOM     49  C   UNL A   1      38.869  29.642  29.772  1.00  0.00     0.031 C 
ATOM     50  C   UNL A   1      42.752  27.486  32.127  1.00  0.00     0.029 A 
ATOM     51  N   UNL A   1      41.697  29.146  33.191  1.00  0.00    -0.354 N 
ATOM     52  C   UNL A   1      38.462  31.296  31.301  1.00  0.00     0.074 A 
ATOM     53  C   UNL A   1      38.123  30.709  30.022  1.00  0.00     0.031 C 
ATOM     54  C   UNL A   1      43.362  27.655  33.313  1.00  0.00     0.029 A 
ATOM     55  C   UNL A   1      42.719  28.756  34.024  1.00  0.00     0.049 A 
ATOM     56  H   UNL A   1      41.060  29.861  33.419  1.00  0.00     0.167 HD
ATOM     57  C   UNL A   1      37.835  32.368  31.840  1.00  0.00     0.037 A 
ATOM     58  C   UNL A   1      43.104  29.242  35.220  1.00  0.00     0.037 A 
ATOM     59  C   UNL A   1      38.147  32.927  33.128  1.00  0.00     0.049 A 
ATOM     60  C   UNL A   1      42.363  30.402  35.820  1.00  0.00     0.074 A 
ATOM     61  C   UNL A   1      37.541  33.990  33.776  1.00  0.00     0.029 A 
ATOM     62  N   UNL A   1      39.147  32.462  33.968  1.00  0.00    -0.354 N 
ATOM     63  N   UNL A   1      41.359  31.082  35.320  1.00  0.00    -0.248 NA
ATOM     64  C   UNL A   1      42.804  30.861  37.144  1.00  0.00     0.031 C 
ATOM     65  C   UNL A   1      38.182  34.171  35.009  1.00  0.00     0.029 A 
ATOM     66  C   UNL A   1      39.174  33.211  35.132  1.00  0.00     0.049 A 
ATOM     67  H   UNL A   1      39.748  31.709  33.767  1.00  0.00     0.167 HD
ATOM     68  C   UNL A   1      41.041  32.041  36.273  1.00  0.00     0.074 A 
ATOM     69  C   UNL A   1      41.954  31.852  37.382  1.00  0.00     0.031 C 
ATOM     70  C   UNL A   1      40.080  32.996  36.230  1.00  0.00     0.037 A 
BRANCH  57  71
ATOM     71  C   UNL A   1      36.751  33.007  31.024  1.00  0.00     0.058 A 
ATOM     72  C   UNL A   1      37.049  33.852  29.945  1.00  0.00     0.135 A 
ATOM     73  C   UNL A   1      35.401  32.772  31.325  1.00  0.00     0.135 A 
ATOM     74  F   UNL A   1      38.327  34.120  29.631  1.00  0.00    -0.206 F 
ATOM     75  C   UNL A   1      36.044  34.469  29.208  1.00  0.00     0.059 A 
ATOM     76  C   UNL A   1      34.380  33.366  30.592  1.00  0.00     0.059 A 
ATOM     77  F   UNL A   1      35.065  31.974  32.352  1.00  0.00    -0.206 F 
ATOM     78  C   UNL A   1      34.711  34.228  29.547  1.00  0.00     0.060 A 
BRANCH  78  79
ATOM     79  S   UNL A   1      33.407  35.046  28.605  1.00  0.00     0.124 S 
ATOM     80  O   UNL A   1      32.925  33.951  27.769  1.00  0.00    -0.237 OA
ATOM     81  O   UNL A   1      32.489  35.495  29.648  1.00  0.00    -0.237 OA
ATOM     82  O   UNL A   1      34.117  36.110  27.902  1.00  0.00    -0.744 OA
ENDBRANCH  78  79
ENDBRANCH  57  71
BRANCH  58  83
ATOM     83  C   UNL A   1      44.245  28.618  35.933  1.00  0.00     0.058 A 
ATOM     84  C   UNL A   1      44.035  27.559  36.825  1.00  0.00     0.135 A 
ATOM     85  C   UNL A   1      45.564  29.042  35.711  1.00  0.00     0.135 A 
ATOM     86  F   UNL A   1      42.789  27.124  37.068  1.00  0.00    -0.206 F 
ATOM     87  C   UNL A   1      45.094  26.940  37.482  1.00  0.00     0.059 A 
ATOM     88  C   UNL A   1      46.641  28.431  36.345  1.00  0.00     0.059 A 
ATOM     89  F   UNL A   1      45.812  30.044  34.853  1.00  0.00    -0.206 F 
ATOM     90  C   UNL A   1      46.394  27.384  37.235  1.00  0.00     0.060 A 
BRANCH  90  91
ATOM     91  S   UNL A   1      47.774  26.536  38.036  1.00  0.00     0.124 S 
ATOM     92  O   UNL A   1      48.456  27.645  38.693  1.00  0.00    -0.237 OA
ATOM     93  O   UNL A   1      47.095  25.593  38.918  1.00  0.00    -0.237 OA
ATOM     94  O   UNL A   1      48.485  25.929  36.914  1.00  0.00    -0.744 OA
ENDBRANCH  90  91
ENDBRANCH  58  83
BRANCH  70  95
ATOM     95  C   UNL A   1      39.945  33.888  37.426  1.00  0.00     0.058 A 
ATOM     96  C   UNL A   1      40.598  35.128  37.486  1.00  0.00     0.135 A 
ATOM     97  C   UNL A   1      39.104  33.530  38.490  1.00  0.00     0.135 A 
ATOM     98  F   UNL A   1      41.418  35.509  36.494  1.00  0.00    -0.206 F 
ATOM     99  C   UNL A   1      40.422  35.986  38.567  1.00  0.00     0.059 A 
ATOM    100  C   UNL A   1      38.906  34.377  39.574  1.00  0.00     0.059 A 
ATOM    101  F   UNL A   1      38.457  32.354  38.473  1.00  0.00    -0.206 F 
ATOM    102  C   UNL A   1      39.573  35.602  39.606  1.00  0.00     0.060 A 
BRANCH 102 103
ATOM    103  S   UNL A   1      39.303  36.739  40.983  1.00  0.00     0.124 S 
ATOM    104  O   UNL A   1      38.407  35.964  41.833  1.00  0.00    -0.237 OA
ATOM    105  O   UNL A   1      40.652  36.940  41.502  1.00  0.00    -0.237 OA
ATOM    106  O   UNL A   1      38.708  37.908  40.340  1.00  0.00    -0.744 OA
ENDBRANCH 102 103
ENDBRANCH  70  95
ENDBRANCH  44  45
ENDBRANCH  36  39
ENDBRANCH  34  35
ENDBRANCH  33  34
ENDBRANCH   1  33
TORSDOF 20
ENDMDL
MODEL 3
REMARK VINA RESULT:     -12.0      5.598      7.500
REMARK SMILES CCc1ccnc(C(=O)c2[nH]c3ccc(OC(F)(F)F)cc3c2CC(=O)NCCCCNC(=O)c2ccc(-c3c4nc(c(-c5c(F)cc(S(=O)(=O)[O-])cc5F)c5ccc([nH]5)c(-c5c(F)cc(S(=O)(=O)[O-])cc5F)c5nc(c(-c6c(F)cc(S(=O)(=O)[O-])cc6F)c6ccc3[nH]6)C=C5)C=C4)cc2)c1
REMARK SMILES IDX 29 1 28 2 27 3 25 4 26 5 24 7 23 8 10 9 11 10 12 11 22 13
REMARK SMILES IDX 13 14 21 15 14 16 15 17 8 18 9 19 7 20 3 21 4 22 101 23 5 24
REMARK SMILES IDX 6 25 2 26 1 27 16 28 17 29 18 30 19 31 20 32 30 33 31 34
REMARK SMILES IDX 32 35 33 36 34 38 35 39 36 40 100 41 37 42 99 43 38 44 39 45
REMARK SMILES IDX 40 46 93 47 41 48 98 49 92 50 94 51 42 52 97 53 91 54 90 55
REMARK SMILES IDX 43 57 77 58 56 59 76 60 57 61 60 62 75 63 95 64 58 65 59 66
REMARK SMILES IDX 74 68 96 69 61 70 44 71 45 72 54 73 46 74 47 75 53 76 55 77
REMARK SMILES IDX 48 78 49 79 50 80 51 81 52 82 78 83 79 84 88 85 80 86 81 87
REMARK SMILES IDX 87 88 89 89 82 90 83 91 84 92 85 93 86 94 62 95 63 96 72 97
REMARK SMILES IDX 64 98 65 99 71 100 73 101 66 102 67 103 68 104 69 105 70 106
REMARK H PARENT 27 6 11 12 32 37 94 56 60 67
REMARK Flexibility Score: inf
ROOT
ATOM      1  C   UNL A   1      38.375  23.155  26.144  1.00  0.00     0.023 C 
ENDROOT
BRANCH   1   2
ATOM      2  C   UNL A   1      37.058  22.463  25.794  1.00  0.00     0.116 C 
BRANCH   2   3
ATOM      3  N   UNL A   1      35.911  23.050  26.454  1.00  0.00    -0.356 N 
ATOM      4  C   UNL A   1      34.899  23.803  25.928  1.00  0.00     0.224 C 
ATOM      5  O   UNL A   1      33.926  24.057  26.644  1.00  0.00    -0.275 OA
ATOM      6  H   UNL A   1      35.850  22.881  27.423  1.00  0.00     0.163 HD
BRANCH   4   7
ATOM      7  C   UNL A   1      34.902  24.206  24.462  1.00  0.00     0.138 C 
BRANCH   7   8
ATOM      8  C   UNL A   1      33.818  23.594  23.618  1.00  0.00    -0.002 A 
ATOM      9  C   UNL A   1      33.031  24.224  22.659  1.00  0.00     0.093 A 
ATOM     10  N   UNL A   1      32.245  23.258  22.072  1.00  0.00    -0.352 N 
ATOM     11  C   UNL A   1      32.436  22.040  22.678  1.00  0.00     0.046 A 
ATOM     12  H   UNL A   1      31.631  23.418  21.320  1.00  0.00     0.167 HD
ATOM     13  C   UNL A   1      33.398  22.222  23.666  1.00  0.00     0.008 A 
ATOM     14  C   UNL A   1      31.858  20.797  22.405  1.00  0.00     0.030 A 
ATOM     15  C   UNL A   1      33.788  21.101  24.429  1.00  0.00     0.057 A 
ATOM     16  C   UNL A   1      32.277  19.698  23.167  1.00  0.00     0.049 A 
ATOM     17  C   UNL A   1      33.234  19.839  24.171  1.00  0.00     0.130 A 
BRANCH   9  18
ATOM     18  C   UNL A   1      33.073  25.602  22.194  1.00  0.00     0.227 C 
ATOM     19  O   UNL A   1      33.736  25.910  21.210  1.00  0.00    -0.285 OA
BRANCH  18  20
ATOM     20  C   UNL A   1      32.254  26.642  22.921  1.00  0.00     0.113 A 
ATOM     21  C   UNL A   1      31.809  28.098  24.802  1.00  0.00    -0.044 A 
ATOM     22  C   UNL A   1      30.647  28.503  24.145  1.00  0.00     0.024 A 
ATOM     23  C   UNL A   1      32.638  27.167  24.155  1.00  0.00     0.036 A 
ATOM     24  C   UNL A   1      30.346  27.948  22.912  1.00  0.00     0.112 A 
ATOM     25  N   UNL A   1      31.111  27.024  22.299  1.00  0.00    -0.253 NA
BRANCH  21  26
ATOM     26  C   UNL A   1      32.233  28.621  26.154  1.00  0.00     0.032 C 
ATOM     27  C   UNL A   1      31.585  27.969  27.370  1.00  0.00     0.009 C 
ENDBRANCH  21  26
ENDBRANCH  18  20
ENDBRANCH   9  18
BRANCH  17  28
ATOM     28  O   UNL A   1      33.728  18.844  24.968  1.00  0.00    -0.406 OA
BRANCH  28  29
ATOM     29  C   UNL A   1      34.247  17.687  24.339  1.00  0.00     0.573 C 
ATOM     30  F   UNL A   1      34.039  17.726  23.004  1.00  0.00    -0.132 F 
ATOM     31  F   UNL A   1      35.565  17.541  24.586  1.00  0.00    -0.132 F 
ATOM     32  F   UNL A   1      33.604  16.602  24.828  1.00  0.00    -0.132 F 
ENDBRANCH  28  29
ENDBRANCH  17  28
ENDBRANCH   7   8
ENDBRANCH   4   7
ENDBRANCH   2   3
ENDBRANCH   1   2
BRANCH   1  33
ATOM     33  C   UNL A   1      39.528  22.227  26.527  1.00  0.00     0.023 C 
BRANCH  33  34
ATOM     34  C   UNL A   1      40.779  22.916  27.057  1.00  0.00     0.116 C 
BRANCH  34  35
ATOM     35  N   UNL A   1      41.650  23.419  26.007  1.00  0.00    -0.352 N 
ATOM     36  C   UNL A   1      42.156  24.689  25.848  1.00  0.00     0.251 C 
ATOM     37  H   UNL A   1      41.914  22.764  25.320  1.00  0.00     0.163 HD
ATOM     38  O   UNL A   1      42.805  24.974  24.851  1.00  0.00    -0.269 OA
BRANCH  36  39
ATOM     39  C   UNL A   1      41.867  25.719  26.872  1.00  0.00     0.039 A 
ATOM     40  C   UNL A   1      40.936  25.428  27.872  1.00  0.00     0.014 A 
ATOM     41  C   UNL A   1      42.532  26.948  26.860  1.00  0.00     0.014 A 
ATOM     42  C   UNL A   1      40.730  26.338  28.911  1.00  0.00     0.010 A 
ATOM     43  C   UNL A   1      42.359  27.835  27.920  1.00  0.00     0.010 A 
ATOM     44  C   UNL A   1      41.468  27.530  28.962  1.00  0.00    -0.014 A 
BRANCH  44  45
ATOM     45  C   UNL A   1      41.353  28.469  30.103  1.00  0.00     0.031 A 
ATOM     46  C   UNL A   1      42.254  28.317  31.294  1.00  0.00     0.074 A 
ATOM     47  C   UNL A   1      40.372  29.392  30.108  1.00  0.00     0.049 A 
ATOM     48  N   UNL A   1      42.201  28.919  32.452  1.00  0.00    -0.248 NA
ATOM     49  C   UNL A   1      43.346  27.337  31.172  1.00  0.00     0.031 C 
ATOM     50  C   UNL A   1      39.412  29.614  29.025  1.00  0.00     0.029 A 
ATOM     51  N   UNL A   1      40.006  30.299  31.070  1.00  0.00    -0.354 N 
ATOM     52  C   UNL A   1      43.223  28.368  33.212  1.00  0.00     0.074 A 
ATOM     53  C   UNL A   1      43.878  27.376  32.386  1.00  0.00     0.031 C 
ATOM     54  C   UNL A   1      38.568  30.597  29.382  1.00  0.00     0.029 A 
ATOM     55  C   UNL A   1      38.906  31.049  30.729  1.00  0.00     0.049 A 
ATOM     56  H   UNL A   1      40.485  30.402  31.923  1.00  0.00     0.167 HD
ATOM     57  C   UNL A   1      43.582  28.662  34.484  1.00  0.00     0.037 A 
ATOM     58  C   UNL A   1      38.235  31.984  31.428  1.00  0.00     0.037 A 
ATOM     59  C   UNL A   1      42.955  29.674  35.291  1.00  0.00     0.049 A 
ATOM     60  C   UNL A   1      38.683  32.328  32.820  1.00  0.00     0.074 A 
ATOM     61  C   UNL A   1      43.275  30.071  36.578  1.00  0.00     0.029 A 
ATOM     62  N   UNL A   1      41.885  30.456  34.884  1.00  0.00    -0.354 N 
ATOM     63  N   UNL A   1      39.662  31.807  33.520  1.00  0.00    -0.248 NA
ATOM     64  C   UNL A   1      37.936  33.383  33.518  1.00  0.00     0.031 C 
ATOM     65  C   UNL A   1      42.390  31.091  36.952  1.00  0.00     0.029 A 
ATOM     66  C   UNL A   1      41.533  31.338  35.892  1.00  0.00     0.049 A 
ATOM     67  H   UNL A   1      41.441  30.394  34.007  1.00  0.00     0.167 HD
ATOM     68  C   UNL A   1      39.657  32.479  34.735  1.00  0.00     0.074 A 
ATOM     69  C   UNL A   1      38.582  33.449  34.676  1.00  0.00     0.031 C 
ATOM     70  C   UNL A   1      40.470  32.305  35.806  1.00  0.00     0.037 A 
BRANCH  57  71
ATOM     71  C   UNL A   1      44.706  27.865  35.077  1.00  0.00     0.058 A 
ATOM     72  C   UNL A   1      46.040  28.277  34.952  1.00  0.00     0.135 A 
ATOM     73  C   UNL A   1      44.444  26.677  35.776  1.00  0.00     0.135 A 
ATOM     74  F   UNL A   1      46.340  29.398  34.276  1.00  0.00    -0.206 F 
ATOM     75  C   UNL A   1      47.084  27.522  35.475  1.00  0.00     0.059 A 
ATOM     76  C   UNL A   1      45.472  25.914  36.320  1.00  0.00     0.059 A 
ATOM     77  F   UNL A   1      43.183  26.239  35.918  1.00  0.00    -0.206 F 
ATOM     78  C   UNL A   1      46.790  26.335  36.148  1.00  0.00     0.060 A 
BRANCH  78  79
ATOM     79  S   UNL A   1      48.146  25.343  36.808  1.00  0.00     0.124 S 
ATOM     80  O   UNL A   1      49.207  25.628  35.846  1.00  0.00    -0.237 OA
ATOM     81  O   UNL A   1      48.337  25.905  38.142  1.00  0.00    -0.237 OA
ATOM     82  O   UNL A   1      47.615  23.984  36.775  1.00  0.00    -0.744 OA
ENDBRANCH  78  79
ENDBRANCH  57  71
BRANCH  58  83
ATOM     83  C   UNL A   1      37.074  32.670  30.812  1.00  0.00     0.058 A 
ATOM     84  C   UNL A   1      37.266  33.724  29.909  1.00  0.00     0.135 A 
ATOM     85  C   UNL A   1      35.759  32.265  31.085  1.00  0.00     0.135 A 
ATOM     86  F   UNL A   1      38.507  34.144  29.622  1.00  0.00    -0.206 F 
ATOM     87  C   UNL A   1      36.191  34.361  29.297  1.00  0.00     0.059 A 
ATOM     88  C   UNL A   1      34.668  32.878  30.476  1.00  0.00     0.059 A 
ATOM     89  F   UNL A   1      35.530  31.251  31.933  1.00  0.00    -0.206 F 
ATOM     90  C   UNL A   1      34.895  33.931  29.588  1.00  0.00     0.060 A 
BRANCH  90  91
ATOM     91  S   UNL A   1      33.504  34.714  28.742  1.00  0.00     0.124 S 
ATOM     92  O   UNL A   1      33.113  33.674  27.798  1.00  0.00    -0.237 OA
ATOM     93  O   UNL A   1      32.572  34.965  29.837  1.00  0.00    -0.237 OA
ATOM     94  O   UNL A   1      34.104  35.909  28.157  1.00  0.00    -0.744 OA
ENDBRANCH  90  91
ENDBRANCH  58  83
BRANCH  70  95
ATOM     95  C   UNL A   1      40.249  33.200  36.987  1.00  0.00     0.058 A 
ATOM     96  C   UNL A   1      39.259  32.917  37.940  1.00  0.00     0.135 A 
ATOM     97  C   UNL A   1      41.079  34.310  37.203  1.00  0.00     0.135 A 
ATOM     98  F   UNL A   1      38.439  31.869  37.770  1.00  0.00    -0.206 F 
ATOM     99  C   UNL A   1      39.096  33.710  39.071  1.00  0.00     0.059 A 
ATOM    100  C   UNL A   1      40.940  35.111  38.332  1.00  0.00     0.059 A 
ATOM    101  F   UNL A   1      42.041  34.616  36.319  1.00  0.00    -0.206 F 
ATOM    102  C   UNL A   1      39.942  34.805  39.258  1.00  0.00     0.060 A 
BRANCH 102 103
ATOM    103  S   UNL A   1      39.767  35.802  40.753  1.00  0.00     0.124 S 
ATOM    104  O   UNL A   1      40.345  34.923  41.763  1.00  0.00    -0.237 OA
ATOM    105  O   UNL A   1      40.543  36.997  40.434  1.00  0.00    -0.237 OA
ATOM    106  O   UNL A   1      38.325  36.011  40.849  1.00  0.00    -0.744 OA
ENDBRANCH 102 103
ENDBRANCH  70  95
ENDBRANCH  44  45
ENDBRANCH  36  39
ENDBRANCH  34  35
ENDBRANCH  33  34
ENDBRANCH   1  33
TORSDOF 20
ENDMDL
