MODEL 1
REMARK VINA RESULT:     -12.2      0.000      0.000
REMARK SMILES COc1cc(Cn2cc(C(=O)NCCCCNC(=O)c3ccc(-c4c5nc(c(-c6c(F)cc(S(=O)(=O)[O-])cc6F)c6ccc([nH]6)c(-c6c(F)cc(S(=O)(=O)[O-])cc6F)c6nc(c(-c7c(F)cc(S(=O)(=O)[O-])cc7F)c7ccc4[nH]7)C=C6)C=C5)cc3)c(=O)[nH]c2=O)ccn1
REMARK SMILES IDX 14 1 13 2 12 3 10 4 11 5 9 7 7 8 8 9 89 10 88 11 90 12 86 13
REMARK SMILES IDX 87 15 6 16 5 17 3 18 4 19 93 20 92 21 91 22 2 23 1 24 15 25
REMARK SMILES IDX 16 26 17 27 18 28 19 30 20 31 21 32 85 33 22 34 84 35 23 36
REMARK SMILES IDX 24 37 25 38 78 39 26 40 83 41 77 42 79 43 27 44 82 45 76 46
REMARK SMILES IDX 75 47 28 49 62 50 41 51 61 52 42 53 45 54 60 55 80 56 43 57
REMARK SMILES IDX 44 58 59 60 81 61 46 62 29 63 30 64 39 65 31 66 32 67 38 68
REMARK SMILES IDX 40 69 33 70 34 71 35 72 36 73 37 74 63 75 64 76 73 77 65 78
REMARK SMILES IDX 66 79 72 80 74 81 67 82 68 83 69 84 70 85 71 86 47 87 48 88
REMARK SMILES IDX 57 89 49 90 50 91 56 92 58 93 51 94 52 95 53 96 54 97 55 98
REMARK H PARENT 12 6 88 14 17 29 79 48 45 59
REMARK Flexibility Score: inf
ROOT
ATOM      1  C   UNL A   1      33.427  28.610  25.813  1.00  0.00     0.023 C 
ENDROOT
BRANCH   1   2
ATOM      2  C   UNL A   1      32.067  28.917  25.172  1.00  0.00     0.116 C 
BRANCH   2   3
ATOM      3  N   UNL A   1      31.104  27.884  25.509  1.00  0.00    -0.352 N 
ATOM      4  C   UNL A   1      30.694  26.757  24.854  1.00  0.00     0.258 C 
ATOM      5  O   UNL A   1      29.790  26.102  25.369  1.00  0.00    -0.269 OA
ATOM      6  H   UNL A   1      30.661  28.022  26.377  1.00  0.00     0.163 HD
BRANCH   4   7
ATOM      7  C   UNL A   1      31.306  26.316  23.569  1.00  0.00     0.121 A 
ATOM      8  N   UNL A   1      32.686  24.824  22.290  1.00  0.00    -0.295 N 
ATOM      9  C   UNL A   1      32.119  25.255  23.476  1.00  0.00     0.110 A 
ATOM     10  C   UNL A   1      32.572  25.560  21.122  1.00  0.00     0.328 A 
ATOM     11  N   UNL A   1      31.835  26.708  21.231  1.00  0.00    -0.273 N 
ATOM     12  O   UNL A   1      33.070  25.235  20.047  1.00  0.00    -0.248 OA
ATOM     13  C   UNL A   1      31.116  27.111  22.326  1.00  0.00     0.266 A 
ATOM     14  H   UNL A   1      31.821  27.303  20.447  1.00  0.00     0.175 HD
ATOM     15  O   UNL A   1      30.339  28.055  22.234  1.00  0.00    -0.268 OA
BRANCH   8  16
ATOM     16  C   UNL A   1      33.369  23.530  22.250  1.00  0.00     0.162 C 
BRANCH  16  17
ATOM     17  C   UNL A   1      34.306  23.356  23.425  1.00  0.00    -0.021 A 
ATOM     18  C   UNL A   1      35.509  21.976  24.959  1.00  0.00     0.213 A 
ATOM     19  C   UNL A   1      34.631  22.080  23.892  1.00  0.00     0.074 A 
ATOM     20  N   UNL A   1      36.029  23.024  25.628  1.00  0.00    -0.222 NA
ATOM     21  C   UNL A   1      35.679  24.246  25.186  1.00  0.00     0.115 A 
ATOM     22  C   UNL A   1      34.849  24.459  24.094  1.00  0.00     0.026 A 
BRANCH  18  23
ATOM     23  O   UNL A   1      35.891  20.726  25.380  1.00  0.00    -0.481 OA
ATOM     24  C   UNL A   1      37.267  20.544  25.048  1.00  0.00     0.280 C 
ENDBRANCH  18  23
ENDBRANCH  16  17
ENDBRANCH   8  16
ENDBRANCH   4   7
ENDBRANCH   2   3
ENDBRANCH   1   2
BRANCH   1  25
ATOM     25  C   UNL A   1      33.567  29.104  27.253  1.00  0.00     0.023 C 
BRANCH  25  26
ATOM     26  C   UNL A   1      35.005  29.369  27.680  1.00  0.00     0.116 C 
BRANCH  26  27
ATOM     27  N   UNL A   1      35.114  30.296  28.799  1.00  0.00    -0.352 N 
ATOM     28  C   UNL A   1      36.231  30.561  29.563  1.00  0.00     0.251 C 
ATOM     29  H   UNL A   1      34.296  30.791  29.036  1.00  0.00     0.163 HD
ATOM     30  O   UNL A   1      36.167  31.311  30.524  1.00  0.00    -0.269 OA
BRANCH  28  31
ATOM     31  C   UNL A   1      37.484  29.860  29.219  1.00  0.00     0.039 A 
ATOM     32  C   UNL A   1      38.309  29.368  30.233  1.00  0.00     0.014 A 
ATOM     33  C   UNL A   1      37.889  29.819  27.884  1.00  0.00     0.014 A 
ATOM     34  C   UNL A   1      39.607  28.980  29.927  1.00  0.00     0.010 A 
ATOM     35  C   UNL A   1      39.170  29.362  27.572  1.00  0.00     0.010 A 
ATOM     36  C   UNL A   1      40.056  28.987  28.596  1.00  0.00    -0.014 A 
BRANCH  36  37
ATOM     37  C   UNL A   1      41.458  28.615  28.289  1.00  0.00     0.031 A 
ATOM     38  C   UNL A   1      42.559  29.639  28.374  1.00  0.00     0.074 A 
ATOM     39  C   UNL A   1      41.743  27.339  27.971  1.00  0.00     0.049 A 
ATOM     40  N   UNL A   1      43.826  29.513  28.077  1.00  0.00    -0.248 NA
ATOM     41  C   UNL A   1      42.188  30.980  28.856  1.00  0.00     0.031 C 
ATOM     42  C   UNL A   1      40.764  26.251  27.893  1.00  0.00     0.029 A 
ATOM     43  N   UNL A   1      42.936  26.735  27.672  1.00  0.00    -0.354 N 
ATOM     44  C   UNL A   1      44.401  30.757  28.311  1.00  0.00     0.074 A 
ATOM     45  C   UNL A   1      43.339  31.631  28.765  1.00  0.00     0.031 C 
ATOM     46  C   UNL A   1      41.402  25.108  27.604  1.00  0.00     0.029 A 
ATOM     47  C   UNL A   1      42.820  25.391  27.412  1.00  0.00     0.049 A 
ATOM     48  H   UNL A   1      43.793  27.219  27.644  1.00  0.00     0.167 HD
ATOM     49  C   UNL A   1      45.694  31.131  28.165  1.00  0.00     0.037 A 
ATOM     50  C   UNL A   1      43.748  24.491  27.039  1.00  0.00     0.037 A 
ATOM     51  C   UNL A   1      46.746  30.250  27.729  1.00  0.00     0.049 A 
ATOM     52  C   UNL A   1      45.167  24.939  26.851  1.00  0.00     0.074 A 
ATOM     53  C   UNL A   1      48.086  30.538  27.525  1.00  0.00     0.029 A 
ATOM     54  N   UNL A   1      46.583  28.902  27.442  1.00  0.00    -0.354 N 
ATOM     55  N   UNL A   1      45.681  26.134  27.017  1.00  0.00    -0.248 NA
ATOM     56  C   UNL A   1      46.130  23.920  26.414  1.00  0.00     0.031 C 
ATOM     57  C   UNL A   1      48.726  29.371  27.092  1.00  0.00     0.029 A 
ATOM     58  C   UNL A   1      47.793  28.346  27.063  1.00  0.00     0.049 A 
ATOM     59  H   UNL A   1      45.731  28.412  27.500  1.00  0.00     0.167 HD
ATOM     60  C   UNL A   1      47.031  26.010  26.716  1.00  0.00     0.074 A 
ATOM     61  C   UNL A   1      47.256  24.620  26.371  1.00  0.00     0.031 C 
ATOM     62  C   UNL A   1      47.996  26.962  26.721  1.00  0.00     0.037 A 
BRANCH  49  63
ATOM     63  C   UNL A   1      46.047  32.563  28.460  1.00  0.00     0.058 A 
ATOM     64  C   UNL A   1      46.479  32.967  29.733  1.00  0.00     0.135 A 
ATOM     65  C   UNL A   1      46.001  33.534  27.446  1.00  0.00     0.135 A 
ATOM     66  F   UNL A   1      46.523  32.085  30.744  1.00  0.00    -0.206 F 
ATOM     67  C   UNL A   1      46.841  34.286  29.993  1.00  0.00     0.059 A 
ATOM     68  C   UNL A   1      46.377  34.853  27.678  1.00  0.00     0.059 A 
ATOM     69  F   UNL A   1      45.591  33.200  26.211  1.00  0.00    -0.206 F 
ATOM     70  C   UNL A   1      46.786  35.222  28.958  1.00  0.00     0.060 A 
BRANCH  70  71
ATOM     71  S   UNL A   1      47.266  36.927  29.309  1.00  0.00     0.124 S 
ATOM     72  O   UNL A   1      47.801  36.804  30.662  1.00  0.00    -0.237 OA
ATOM     73  O   UNL A   1      48.246  37.199  28.263  1.00  0.00    -0.237 OA
ATOM     74  O   UNL A   1      46.011  37.665  29.196  1.00  0.00    -0.744 OA
ENDBRANCH  70  71
ENDBRANCH  49  63
BRANCH  50  75
ATOM     75  C   UNL A   1      43.345  23.080  26.815  1.00  0.00     0.058 A 
ATOM     76  C   UNL A   1      43.272  22.550  25.521  1.00  0.00     0.135 A 
ATOM     77  C   UNL A   1      43.084  22.222  27.895  1.00  0.00     0.135 A 
ATOM     78  F   UNL A   1      43.509  23.336  24.460  1.00  0.00    -0.206 F 
ATOM     79  C   UNL A   1      42.957  21.213  25.301  1.00  0.00     0.059 A 
ATOM     80  C   UNL A   1      42.790  20.877  27.702  1.00  0.00     0.059 A 
ATOM     81  F   UNL A   1      43.158  22.681  29.154  1.00  0.00    -0.206 F 
ATOM     82  C   UNL A   1      42.725  20.383  26.399  1.00  0.00     0.060 A 
BRANCH  82  83
ATOM     83  S   UNL A   1      42.402  18.630  26.109  1.00  0.00     0.124 S 
ATOM     84  O   UNL A   1      40.988  18.649  25.751  1.00  0.00    -0.237 OA
ATOM     85  O   UNL A   1      43.332  18.321  25.026  1.00  0.00    -0.237 OA
ATOM     86  O   UNL A   1      42.722  18.014  27.393  1.00  0.00    -0.744 OA
ENDBRANCH  82  83
ENDBRANCH  50  75
BRANCH  62  87
ATOM     87  C   UNL A   1      49.387  26.520  26.367  1.00  0.00     0.058 A 
ATOM     88  C   UNL A   1      49.922  26.737  25.089  1.00  0.00     0.135 A 
ATOM     89  C   UNL A   1      50.197  25.891  27.325  1.00  0.00     0.135 A 
ATOM     90  F   UNL A   1      49.183  27.329  24.138  1.00  0.00    -0.206 F 
ATOM     91  C   UNL A   1      51.207  26.317  24.762  1.00  0.00     0.059 A 
ATOM     92  C   UNL A   1      51.492  25.481  27.026  1.00  0.00     0.059 A 
ATOM     93  F   UNL A   1      49.732  25.669  28.565  1.00  0.00    -0.206 F 
ATOM     94  C   UNL A   1      51.983  25.686  25.736  1.00  0.00     0.060 A 
BRANCH  94  95
ATOM     95  S   UNL A   1      53.651  25.150  25.304  1.00  0.00     0.124 S 
ATOM     96  O   UNL A   1      53.765  25.626  23.930  1.00  0.00    -0.237 OA
ATOM     97  O   UNL A   1      54.471  25.852  26.287  1.00  0.00    -0.237 OA
ATOM     98  O   UNL A   1      53.594  23.701  25.465  1.00  0.00    -0.744 OA
ENDBRANCH  94  95
ENDBRANCH  62  87
ENDBRANCH  36  37
ENDBRANCH  28  31
ENDBRANCH  26  27
ENDBRANCH  25  26
ENDBRANCH   1  25
TORSDOF 17
ENDMDL
MODEL 2
REMARK VINA RESULT:     -12.2      2.787      3.994
REMARK SMILES COc1cc(Cn2cc(C(=O)NCCCCNC(=O)c3ccc(-c4c5nc(c(-c6c(F)cc(S(=O)(=O)[O-])cc6F)c6ccc([nH]6)c(-c6c(F)cc(S(=O)(=O)[O-])cc6F)c6nc(c(-c7c(F)cc(S(=O)(=O)[O-])cc7F)c7ccc4[nH]7)C=C6)C=C5)cc3)c(=O)[nH]c2=O)ccn1
REMARK SMILES IDX 14 1 13 2 12 3 10 4 11 5 9 7 7 8 8 9 89 10 88 11 90 12 86 13
REMARK SMILES IDX 87 15 6 16 5 17 3 18 4 19 93 20 92 21 91 22 2 23 1 24 15 25
REMARK SMILES IDX 16 26 17 27 18 28 19 30 20 31 21 32 85 33 22 34 84 35 23 36
REMARK SMILES IDX 24 37 25 38 78 39 26 40 83 41 77 42 79 43 27 44 82 45 76 46
REMARK SMILES IDX 75 47 28 49 62 50 41 51 61 52 42 53 45 54 60 55 80 56 43 57
REMARK SMILES IDX 44 58 59 60 81 61 46 62 29 63 30 64 39 65 31 66 32 67 38 68
REMARK SMILES IDX 40 69 33 70 34 71 35 72 36 73 37 74 63 75 64 76 73 77 65 78
REMARK SMILES IDX 66 79 72 80 74 81 67 82 68 83 69 84 70 85 71 86 47 87 48 88
REMARK SMILES IDX 57 89 49 90 50 91 56 92 58 93 51 94 52 95 53 96 54 97 55 98
REMARK H PARENT 12 6 88 14 17 29 79 48 45 59
REMARK Flexibility Score: inf
ROOT
ATOM      1  C   UNL A   1      31.926  26.423  26.561  1.00  0.00     0.023 C 
ENDROOT
BRANCH   1   2
ATOM      2  C   UNL A   1      30.665  25.947  25.828  1.00  0.00     0.116 C 
BRANCH   2   3
ATOM      3  N   UNL A   1      30.065  24.826  26.531  1.00  0.00    -0.352 N 
ATOM      4  C   UNL A   1      30.474  23.537  26.729  1.00  0.00     0.258 C 
ATOM      5  O   UNL A   1      29.700  22.783  27.316  1.00  0.00    -0.269 OA
ATOM      6  H   UNL A   1      29.197  25.035  26.944  1.00  0.00     0.163 HD
BRANCH   4   7
ATOM      7  C   UNL A   1      31.801  23.042  26.266  1.00  0.00     0.121 A 
ATOM      8  N   UNL A   1      33.393  22.585  24.528  1.00  0.00    -0.295 N 
ATOM      9  C   UNL A   1      32.163  23.029  24.976  1.00  0.00     0.110 A 
ATOM     10  C   UNL A   1      34.297  21.971  25.380  1.00  0.00     0.328 A 
ATOM     11  N   UNL A   1      33.890  21.876  26.683  1.00  0.00    -0.273 N 
ATOM     12  O   UNL A   1      35.394  21.542  25.034  1.00  0.00    -0.248 OA
ATOM     13  C   UNL A   1      32.761  22.434  27.225  1.00  0.00     0.266 A 
ATOM     14  H   UNL A   1      34.463  21.356  27.291  1.00  0.00     0.175 HD
ATOM     15  O   UNL A   1      32.608  22.447  28.442  1.00  0.00    -0.268 OA
BRANCH   8  16
ATOM     16  C   UNL A   1      33.780  22.824  23.137  1.00  0.00     0.162 C 
BRANCH  16  17
ATOM     17  C   UNL A   1      33.478  24.243  22.709  1.00  0.00    -0.021 A 
ATOM     18  C   UNL A   1      33.588  26.604  23.056  1.00  0.00     0.213 A 
ATOM     19  C   UNL A   1      33.871  25.323  23.503  1.00  0.00     0.074 A 
ATOM     20  N   UNL A   1      32.896  26.888  21.934  1.00  0.00    -0.222 NA
ATOM     21  C   UNL A   1      32.495  25.835  21.199  1.00  0.00     0.115 A 
ATOM     22  C   UNL A   1      32.775  24.516  21.530  1.00  0.00     0.026 A 
BRANCH  18  23
ATOM     23  O   UNL A   1      34.033  27.674  23.791  1.00  0.00    -0.481 OA
ATOM     24  C   UNL A   1      33.122  28.756  23.604  1.00  0.00     0.280 C 
ENDBRANCH  18  23
ENDBRANCH  16  17
ENDBRANCH   8  16
ENDBRANCH   4   7
ENDBRANCH   2   3
ENDBRANCH   1   2
BRANCH   1  25
ATOM     25  C   UNL A   1      31.880  27.885  27.005  1.00  0.00     0.023 C 
BRANCH  25  26
ATOM     26  C   UNL A   1      33.244  28.474  27.340  1.00  0.00     0.116 C 
BRANCH  26  27
ATOM     27  N   UNL A   1      33.195  29.892  27.675  1.00  0.00    -0.352 N 
ATOM     28  C   UNL A   1      34.229  30.683  28.126  1.00  0.00     0.251 C 
ATOM     29  H   UNL A   1      32.322  30.335  27.566  1.00  0.00     0.163 HD
ATOM     30  O   UNL A   1      34.035  31.846  28.442  1.00  0.00    -0.269 OA
BRANCH  28  31
ATOM     31  C   UNL A   1      35.561  30.061  28.274  1.00  0.00     0.039 A 
ATOM     32  C   UNL A   1      35.969  29.574  29.518  1.00  0.00     0.014 A 
ATOM     33  C   UNL A   1      36.443  30.091  27.193  1.00  0.00     0.014 A 
ATOM     34  C   UNL A   1      37.308  29.266  29.723  1.00  0.00     0.010 A 
ATOM     35  C   UNL A   1      37.772  29.713  27.384  1.00  0.00     0.010 A 
ATOM     36  C   UNL A   1      38.225  29.346  28.662  1.00  0.00    -0.014 A 
BRANCH  36  37
ATOM     37  C   UNL A   1      39.659  29.059  28.906  1.00  0.00     0.031 A 
ATOM     38  C   UNL A   1      40.551  30.092  29.542  1.00  0.00     0.074 A 
ATOM     39  C   UNL A   1      40.148  27.845  28.588  1.00  0.00     0.049 A 
ATOM     40  N   UNL A   1      41.838  30.044  29.768  1.00  0.00    -0.248 NA
ATOM     41  C   UNL A   1      39.913  31.344  29.982  1.00  0.00     0.031 C 
ATOM     42  C   UNL A   1      39.371  26.752  28.001  1.00  0.00     0.029 A 
ATOM     43  N   UNL A   1      41.407  27.322  28.729  1.00  0.00    -0.354 N 
ATOM     44  C   UNL A   1      42.171  31.260  30.352  1.00  0.00     0.074 A 
ATOM     45  C   UNL A   1      40.951  32.034  30.436  1.00  0.00     0.031 C 
ATOM     46  C   UNL A   1      40.160  25.676  27.867  1.00  0.00     0.029 A 
ATOM     47  C   UNL A   1      41.510  26.023  28.295  1.00  0.00     0.049 A 
ATOM     48  H   UNL A   1      42.163  27.829  29.103  1.00  0.00     0.167 HD
ATOM     49  C   UNL A   1      43.383  31.687  30.783  1.00  0.00     0.037 A 
ATOM     50  C   UNL A   1      42.579  25.208  28.227  1.00  0.00     0.037 A 
ATOM     51  C   UNL A   1      44.589  30.902  30.710  1.00  0.00     0.049 A 
ATOM     52  C   UNL A   1      43.917  25.717  28.679  1.00  0.00     0.074 A 
ATOM     53  C   UNL A   1      45.872  31.254  31.097  1.00  0.00     0.029 A 
ATOM     54  N   UNL A   1      44.661  29.602  30.232  1.00  0.00    -0.354 N 
ATOM     55  N   UNL A   1      44.225  26.893  29.171  1.00  0.00    -0.248 NA
ATOM     56  C   UNL A   1      45.052  24.794  28.554  1.00  0.00     0.031 C 
ATOM     57  C   UNL A   1      46.722  30.174  30.829  1.00  0.00     0.029 A 
ATOM     58  C   UNL A   1      45.962  29.137  30.313  1.00  0.00     0.049 A 
ATOM     59  H   UNL A   1      43.898  29.085  29.887  1.00  0.00     0.167 HD
ATOM     60  C   UNL A   1      45.589  26.848  29.427  1.00  0.00     0.074 A 
ATOM     61  C   UNL A   1      46.043  25.525  29.048  1.00  0.00     0.031 C 
ATOM     62  C   UNL A   1      46.394  27.817  29.928  1.00  0.00     0.037 A 
BRANCH  49  63
ATOM     63  C   UNL A   1      43.474  33.075  31.354  1.00  0.00     0.058 A 
ATOM     64  C   UNL A   1      43.269  33.323  32.720  1.00  0.00     0.135 A 
ATOM     65  C   UNL A   1      43.820  34.163  30.535  1.00  0.00     0.135 A 
ATOM     66  F   UNL A   1      42.917  32.324  33.543  1.00  0.00    -0.206 F 
ATOM     67  C   UNL A   1      43.392  34.604  33.252  1.00  0.00     0.059 A 
ATOM     68  C   UNL A   1      43.968  35.447  31.049  1.00  0.00     0.059 A 
ATOM     69  F   UNL A   1      44.024  33.980  29.221  1.00  0.00    -0.206 F 
ATOM     70  C   UNL A   1      43.741  35.660  32.408  1.00  0.00     0.060 A 
BRANCH  70  71
ATOM     71  S   UNL A   1      43.904  37.313  33.116  1.00  0.00     0.124 S 
ATOM     72  O   UNL A   1      45.230  37.239  33.722  1.00  0.00    -0.237 OA
ATOM     73  O   UNL A   1      43.791  38.170  31.940  1.00  0.00    -0.237 OA
ATOM     74  O   UNL A   1      42.789  37.392  34.055  1.00  0.00    -0.744 OA
ENDBRANCH  70  71
ENDBRANCH  49  63
BRANCH  50  75
ATOM     75  C   UNL A   1      42.412  23.829  27.703  1.00  0.00     0.058 A 
ATOM     76  C   UNL A   1      42.369  23.585  26.325  1.00  0.00     0.135 A 
ATOM     77  C   UNL A   1      42.353  22.727  28.570  1.00  0.00     0.135 A 
ATOM     78  F   UNL A   1      42.418  24.609  25.460  1.00  0.00    -0.206 F 
ATOM     79  C   UNL A   1      42.276  22.292  25.820  1.00  0.00     0.059 A 
ATOM     80  C   UNL A   1      42.283  21.425  28.090  1.00  0.00     0.059 A 
ATOM     81  F   UNL A   1      42.408  22.912  29.899  1.00  0.00    -0.206 F 
ATOM     82  C   UNL A   1      42.241  21.218  26.711  1.00  0.00     0.060 A 
BRANCH  82  83
ATOM     83  S   UNL A   1      42.207  19.539  26.046  1.00  0.00     0.124 S 
ATOM     84  O   UNL A   1      42.686  18.764  27.185  1.00  0.00    -0.237 OA
ATOM     85  O   UNL A   1      40.798  19.372  25.705  1.00  0.00    -0.237 OA
ATOM     86  O   UNL A   1      43.114  19.615  24.905  1.00  0.00    -0.744 OA
ENDBRANCH  82  83
ENDBRANCH  50  75
BRANCH  62  87
ATOM     87  C   UNL A   1      47.842  27.468  30.116  1.00  0.00     0.058 A 
ATOM     88  C   UNL A   1      48.782  27.656  29.092  1.00  0.00     0.135 A 
ATOM     89  C   UNL A   1      48.295  26.956  31.342  1.00  0.00     0.135 A 
ATOM     90  F   UNL A   1      48.395  28.136  27.900  1.00  0.00    -0.206 F 
ATOM     91  C   UNL A   1      50.120  27.321  29.267  1.00  0.00     0.059 A 
ATOM     92  C   UNL A   1      49.632  26.633  31.546  1.00  0.00     0.059 A 
ATOM     93  F   UNL A   1      47.434  26.766  32.356  1.00  0.00    -0.206 F 
ATOM     94  C   UNL A   1      50.534  26.806  30.497  1.00  0.00     0.060 A 
BRANCH  94  95
ATOM     95  S   UNL A   1      52.274  26.379  30.717  1.00  0.00     0.124 S 
ATOM     96  O   UNL A   1      52.177  25.114  31.437  1.00  0.00    -0.237 OA
ATOM     97  O   UNL A   1      52.752  26.288  29.340  1.00  0.00    -0.237 OA
ATOM     98  O   UNL A   1      52.804  27.501  31.484  1.00  0.00    -0.744 OA
ENDBRANCH  94  95
ENDBRANCH  62  87
ENDBRANCH  36  37
ENDBRANCH  28  31
ENDBRANCH  26  27
ENDBRANCH  25  26
ENDBRANCH   1  25
TORSDOF 17
ENDMDL
MODEL 3
REMARK VINA RESULT:     -11.8      2.244      8.492
REMARK SMILES COc1cc(Cn2cc(C(=O)NCCCCNC(=O)c3ccc(-c4c5nc(c(-c6c(F)cc(S(=O)(=O)[O-])cc6F)c6ccc([nH]6)c(-c6c(F)cc(S(=O)(=O)[O-])cc6F)c6nc(c(-c7c(F)cc(S(=O)(=O)[O-])cc7F)c7ccc4[nH]7)C=C6)C=C5)cc3)c(=O)[nH]c2=O)ccn1
REMARK SMILES IDX 14 1 13 2 12 3 10 4 11 5 9 7 7 8 8 9 89 10 88 11 90 12 86 13
REMARK SMILES IDX 87 15 6 16 5 17 3 18 4 19 93 20 92 21 91 22 2 23 1 24 15 25
REMARK SMILES IDX 16 26 17 27 18 28 19 30 20 31 21 32 85 33 22 34 84 35 23 36
REMARK SMILES IDX 24 37 25 38 78 39 26 40 83 41 77 42 79 43 27 44 82 45 76 46
REMARK SMILES IDX 75 47 28 49 62 50 41 51 61 52 42 53 45 54 60 55 80 56 43 57
REMARK SMILES IDX 44 58 59 60 81 61 46 62 29 63 30 64 39 65 31 66 32 67 38 68
REMARK SMILES IDX 40 69 33 70 34 71 35 72 36 73 37 74 63 75 64 76 73 77 65 78
REMARK SMILES IDX 66 79 72 80 74 81 67 82 68 83 69 84 70 85 71 86 47 87 48 88
REMARK SMILES IDX 57 89 49 90 50 91 56 92 58 93 51 94 52 95 53 96 54 97 55 98
REMARK H PARENT 12 6 88 14 17 29 79 48 45 59
REMARK Flexibility Score: inf
ROOT
ATOM      1  C   UNL A   1      37.365  22.072  25.456  1.00  0.00     0.023 C 
ENDROOT
BRANCH   1   2
ATOM      2  C   UNL A   1      35.871  21.800  25.239  1.00  0.00     0.116 C 
BRANCH   2   3
ATOM      3  N   UNL A   1      35.426  22.388  23.988  1.00  0.00    -0.352 N 
ATOM      4  C   UNL A   1      34.243  22.953  23.604  1.00  0.00     0.258 C 
ATOM      5  O   UNL A   1      34.139  23.304  22.430  1.00  0.00    -0.269 OA
ATOM      6  H   UNL A   1      36.109  22.378  23.280  1.00  0.00     0.163 HD
BRANCH   4   7
ATOM      7  C   UNL A   1      33.110  23.150  24.552  1.00  0.00     0.121 A 
ATOM      8  N   UNL A   1      31.764  24.542  25.972  1.00  0.00    -0.295 N 
ATOM      9  C   UNL A   1      32.818  24.337  25.101  1.00  0.00     0.110 A 
ATOM     10  C   UNL A   1      31.015  23.485  26.466  1.00  0.00     0.328 A 
ATOM     11  N   UNL A   1      31.378  22.251  25.999  1.00  0.00    -0.273 N 
ATOM     12  O   UNL A   1      30.082  23.606  27.255  1.00  0.00    -0.248 OA
ATOM     13  C   UNL A   1      32.301  21.993  25.018  1.00  0.00     0.266 A 
ATOM     14  H   UNL A   1      30.935  21.473  26.407  1.00  0.00     0.175 HD
ATOM     15  O   UNL A   1      32.395  20.863  24.549  1.00  0.00    -0.268 OA
BRANCH   8  16
ATOM     16  C   UNL A   1      31.386  25.909  26.334  1.00  0.00     0.162 C 
BRANCH  16  17
ATOM     17  C   UNL A   1      31.667  26.882  25.211  1.00  0.00    -0.021 A 
ATOM     18  C   UNL A   1      31.072  27.929  23.148  1.00  0.00     0.213 A 
ATOM     19  C   UNL A   1      30.777  27.009  24.141  1.00  0.00     0.074 A 
ATOM     20  N   UNL A   1      32.196  28.671  23.101  1.00  0.00    -0.222 NA
ATOM     21  C   UNL A   1      33.059  28.512  24.122  1.00  0.00     0.115 A 
ATOM     22  C   UNL A   1      32.832  27.657  25.192  1.00  0.00     0.026 A 
BRANCH  18  23
ATOM     23  O   UNL A   1      30.170  28.115  22.131  1.00  0.00    -0.481 OA
ATOM     24  C   UNL A   1      29.727  29.470  22.167  1.00  0.00     0.280 C 
ENDBRANCH  18  23
ENDBRANCH  16  17
ENDBRANCH   8  16
ENDBRANCH   4   7
ENDBRANCH   2   3
ENDBRANCH   1   2
BRANCH   1  25
ATOM     25  C   UNL A   1      38.262  20.851  25.253  1.00  0.00     0.023 C 
BRANCH  25  26
ATOM     26  C   UNL A   1      39.515  20.851  26.118  1.00  0.00     0.116 C 
BRANCH  26  27
ATOM     27  N   UNL A   1      40.280  19.614  26.029  1.00  0.00    -0.352 N 
ATOM     28  C   UNL A   1      41.644  19.460  26.148  1.00  0.00     0.251 C 
ATOM     29  H   UNL A   1      39.761  18.793  25.865  1.00  0.00     0.163 HD
ATOM     30  O   UNL A   1      42.169  18.371  25.977  1.00  0.00    -0.269 OA
BRANCH  28  31
ATOM     31  C   UNL A   1      42.453  20.666  26.422  1.00  0.00     0.039 A 
ATOM     32  C   UNL A   1      42.550  21.159  27.725  1.00  0.00     0.014 A 
ATOM     33  C   UNL A   1      43.000  21.369  25.348  1.00  0.00     0.014 A 
ATOM     34  C   UNL A   1      43.055  22.436  27.933  1.00  0.00     0.010 A 
ATOM     35  C   UNL A   1      43.571  22.623  25.571  1.00  0.00     0.010 A 
ATOM     36  C   UNL A   1      43.557  23.187  26.857  1.00  0.00    -0.014 A 
BRANCH  36  37
ATOM     37  C   UNL A   1      44.049  24.566  27.088  1.00  0.00     0.031 A 
ATOM     38  C   UNL A   1      43.110  25.649  27.546  1.00  0.00     0.074 A 
ATOM     39  C   UNL A   1      45.359  24.831  26.920  1.00  0.00     0.049 A 
ATOM     40  N   UNL A   1      43.347  26.922  27.731  1.00  0.00    -0.248 NA
ATOM     41  C   UNL A   1      41.722  25.251  27.834  1.00  0.00     0.031 C 
ATOM     42  C   UNL A   1      46.371  23.853  26.514  1.00  0.00     0.029 A 
ATOM     43  N   UNL A   1      46.066  25.993  27.086  1.00  0.00    -0.354 N 
ATOM     44  C   UNL A   1      42.140  27.483  28.134  1.00  0.00     0.074 A 
ATOM     45  C   UNL A   1      41.166  26.412  28.154  1.00  0.00     0.031 C 
ATOM     46  C   UNL A   1      47.572  24.447  26.499  1.00  0.00     0.029 A 
ATOM     47  C   UNL A   1      47.408  25.858  26.828  1.00  0.00     0.049 A 
ATOM     48  H   UNL A   1      45.651  26.842  27.361  1.00  0.00     0.167 HD
ATOM     49  C   UNL A   1      41.873  28.770  28.459  1.00  0.00     0.037 A 
ATOM     50  C   UNL A   1      48.394  26.773  26.834  1.00  0.00     0.037 A 
ATOM     51  C   UNL A   1      42.854  29.825  28.452  1.00  0.00     0.049 A 
ATOM     52  C   UNL A   1      48.066  28.200  27.165  1.00  0.00     0.074 A 
ATOM     53  C   UNL A   1      42.679  31.168  28.742  1.00  0.00     0.029 A 
ATOM     54  N   UNL A   1      44.198  29.656  28.152  1.00  0.00    -0.354 N 
ATOM     55  N   UNL A   1      46.907  28.723  27.483  1.00  0.00    -0.248 NA
ATOM     56  C   UNL A   1      49.177  29.160  27.128  1.00  0.00     0.031 C 
ATOM     57  C   UNL A   1      43.912  31.814  28.594  1.00  0.00     0.029 A 
ATOM     58  C   UNL A   1      44.863  30.867  28.249  1.00  0.00     0.049 A 
ATOM     59  H   UNL A   1      44.618  28.801  27.906  1.00  0.00     0.167 HD
ATOM     60  C   UNL A   1      47.149  30.074  27.695  1.00  0.00     0.074 A 
ATOM     61  C   UNL A   1      48.567  30.283  27.483  1.00  0.00     0.031 C 
ATOM     62  C   UNL A   1      46.275  31.054  28.032  1.00  0.00     0.037 A 
BRANCH  49  63
ATOM     63  C   UNL A   1      40.460  29.120  28.834  1.00  0.00     0.058 A 
ATOM     64  C   UNL A   1      40.059  29.228  30.175  1.00  0.00     0.135 A 
ATOM     65  C   UNL A   1      39.506  29.399  27.841  1.00  0.00     0.135 A 
ATOM     66  F   UNL A   1      40.924  28.953  31.163  1.00  0.00    -0.206 F 
ATOM     67  C   UNL A   1      38.759  29.589  30.518  1.00  0.00     0.059 A 
ATOM     68  C   UNL A   1      38.207  29.781  28.161  1.00  0.00     0.059 A 
ATOM     69  F   UNL A   1      39.837  29.307  26.543  1.00  0.00    -0.206 F 
ATOM     70  C   UNL A   1      37.840  29.862  29.503  1.00  0.00     0.060 A 
BRANCH  70  71
ATOM     71  S   UNL A   1      36.159  30.337  29.965  1.00  0.00     0.124 S 
ATOM     72  O   UNL A   1      35.388  29.785  28.856  1.00  0.00    -0.237 OA
ATOM     73  O   UNL A   1      35.988  29.671  31.252  1.00  0.00    -0.237 OA
ATOM     74  O   UNL A   1      36.222  31.795  30.021  1.00  0.00    -0.744 OA
ENDBRANCH  70  71
ENDBRANCH  49  63
BRANCH  50  75
ATOM     75  C   UNL A   1      49.780  26.354  26.508  1.00  0.00     0.058 A 
ATOM     76  C   UNL A   1      50.650  25.908  27.511  1.00  0.00     0.135 A 
ATOM     77  C   UNL A   1      50.239  26.335  25.182  1.00  0.00     0.135 A 
ATOM     78  F   UNL A   1      50.256  25.913  28.793  1.00  0.00    -0.206 F 
ATOM     79  C   UNL A   1      51.930  25.453  27.211  1.00  0.00     0.059 A 
ATOM     80  C   UNL A   1      51.504  25.863  24.854  1.00  0.00     0.059 A 
ATOM     81  F   UNL A   1      49.433  26.738  24.186  1.00  0.00    -0.206 F 
ATOM     82  C   UNL A   1      52.345  25.428  25.878  1.00  0.00     0.060 A 
BRANCH  82  83
ATOM     83  S   UNL A   1      53.975  24.755  25.489  1.00  0.00     0.124 S 
ATOM     84  O   UNL A   1      54.403  25.634  24.407  1.00  0.00    -0.237 OA
ATOM     85  O   UNL A   1      54.682  24.909  26.757  1.00  0.00    -0.237 OA
ATOM     86  O   UNL A   1      53.685  23.377  25.108  1.00  0.00    -0.744 OA
ENDBRANCH  82  83
ENDBRANCH  50  75
BRANCH  62  87
ATOM     87  C   UNL A   1      46.838  32.434  28.215  1.00  0.00     0.058 A 
ATOM     88  C   UNL A   1      46.801  33.384  27.184  1.00  0.00     0.135 A 
ATOM     89  C   UNL A   1      47.403  32.812  29.442  1.00  0.00     0.135 A 
ATOM     90  F   UNL A   1      46.276  33.067  25.990  1.00  0.00    -0.206 F 
ATOM     91  C   UNL A   1      47.333  34.657  27.354  1.00  0.00     0.059 A 
ATOM     92  C   UNL A   1      47.923  34.086  29.641  1.00  0.00     0.059 A 
ATOM     93  F   UNL A   1      47.454  31.940  30.462  1.00  0.00    -0.206 F 
ATOM     94  C   UNL A   1      47.896  34.998  28.586  1.00  0.00     0.060 A 
BRANCH  94  95
ATOM     95  S   UNL A   1      48.580  36.655  28.799  1.00  0.00     0.124 S 
ATOM     96  O   UNL A   1      49.966  36.454  28.392  1.00  0.00    -0.237 OA
ATOM     97  O   UNL A   1      47.762  37.452  27.891  1.00  0.00    -0.237 OA
ATOM     98  O   UNL A   1      48.375  36.926  30.218  1.00  0.00    -0.744 OA
ENDBRANCH  94  95
ENDBRANCH  62  87
ENDBRANCH  36  37
ENDBRANCH  28  31
ENDBRANCH  26  27
ENDBRANCH  25  26
ENDBRANCH   1  25
TORSDOF 17
ENDMDL
