MODEL 1
REMARK VINA RESULT:     -12.5      0.000      0.000
REMARK SMILES COc1ccc(-c2ccc(CCC(=O)NCCCCNC(=O)c3ccc(-c4c5nc(c(-c6c(F)cc(S(=O)(=O)[O-])cc6F)c6ccc([nH]6)c(-c6c(F)cc(S(=O)(=O)[O-])cc6F)c6nc(c(-c7c(F)cc(S(=O)(=O)[O-])cc7F)c7ccc4[nH]7)C=C6)C=C5)cc3)n2-c2ccc(C(C)=O)cc2)cc1
REMARK SMILES IDX 17 1 16 2 15 3 13 4 14 5 12 7 11 8 10 9 7 10 8 11 89 12 9 13
REMARK SMILES IDX 6 14 3 15 4 16 100 17 5 18 99 19 2 20 1 21 90 22 91 23 98 24
REMARK SMILES IDX 92 25 97 26 93 27 94 28 95 29 96 30 18 31 19 32 20 33 21 34
REMARK SMILES IDX 22 36 23 37 24 38 88 39 25 40 87 41 26 42 27 43 28 44 81 45
REMARK SMILES IDX 29 46 86 47 80 48 82 49 30 50 85 51 79 52 78 53 31 55 65 56
REMARK SMILES IDX 44 57 64 58 45 59 48 60 63 61 83 62 46 63 47 64 62 66 84 67
REMARK SMILES IDX 49 68 32 69 33 70 42 71 34 72 35 73 41 74 43 75 36 76 37 77
REMARK SMILES IDX 38 78 39 79 40 80 66 81 67 82 76 83 68 84 69 85 75 86 77 87
REMARK SMILES IDX 70 88 71 89 72 90 73 91 74 92 50 93 51 94 60 95 52 96 53 97
REMARK SMILES IDX 59 98 61 99 54 100 55 101 56 102 57 103 58 104
REMARK H PARENT 15 6 20 35 82 54 48 65
REMARK Flexibility Score: inf
ROOT
ATOM      1  C   UNL A   1      31.801  29.123  25.829  1.00  0.00     0.023 C 
ENDROOT
BRANCH   1   2
ATOM      2  C   UNL A   1      31.411  29.229  24.357  1.00  0.00     0.116 C 
BRANCH   2   3
ATOM      3  N   UNL A   1      32.602  29.355  23.537  1.00  0.00    -0.356 N 
ATOM      4  C   UNL A   1      33.163  28.443  22.692  1.00  0.00     0.220 C 
ATOM      5  O   UNL A   1      34.321  28.626  22.307  1.00  0.00    -0.275 OA
ATOM      6  H   UNL A   1      33.071  30.218  23.598  1.00  0.00     0.163 HD
BRANCH   4   7
ATOM      7  C   UNL A   1      32.370  27.244  22.208  1.00  0.00     0.106 C 
BRANCH   7   8
ATOM      8  C   UNL A   1      33.178  25.946  22.214  1.00  0.00     0.064 C 
BRANCH   8   9
ATOM      9  C   UNL A   1      32.447  24.775  22.819  1.00  0.00     0.024 A 
ATOM     10  C   UNL A   1      32.073  22.631  23.429  1.00  0.00     0.053 A 
ATOM     11  C   UNL A   1      30.867  23.319  23.470  1.00  0.00     0.029 A 
ATOM     12  N   UNL A   1      33.062  23.601  23.258  1.00  0.00    -0.314 N 
ATOM     13  C   UNL A   1      31.105  24.663  23.120  1.00  0.00     0.024 A 
BRANCH  10  14
ATOM     14  C   UNL A   1      32.267  21.239  23.837  1.00  0.00    -0.001 A 
ATOM     15  C   UNL A   1      32.940  18.585  24.488  1.00  0.00     0.118 A 
ATOM     16  C   UNL A   1      32.571  18.924  23.186  1.00  0.00     0.047 A 
ATOM     17  C   UNL A   1      32.969  19.575  25.471  1.00  0.00     0.047 A 
ATOM     18  C   UNL A   1      32.229  20.237  22.863  1.00  0.00     0.014 A 
ATOM     19  C   UNL A   1      32.636  20.901  25.145  1.00  0.00     0.014 A 
BRANCH  15  20
ATOM     20  O   UNL A   1      33.303  17.276  24.648  1.00  0.00    -0.497 OA
ATOM     21  C   UNL A   1      33.781  16.605  23.489  1.00  0.00     0.278 C 
ENDBRANCH  15  20
ENDBRANCH  10  14
BRANCH  12  22
ATOM     22  C   UNL A   1      34.349  23.552  23.850  1.00  0.00     0.046 A 
ATOM     23  C   UNL A   1      34.449  24.014  25.168  1.00  0.00     0.027 A 
ATOM     24  C   UNL A   1      35.441  22.964  23.221  1.00  0.00     0.027 A 
ATOM     25  C   UNL A   1      35.642  23.891  25.869  1.00  0.00     0.014 A 
ATOM     26  C   UNL A   1      36.651  22.867  23.924  1.00  0.00     0.014 A 
ATOM     27  C   UNL A   1      36.757  23.314  25.256  1.00  0.00     0.017 A 
BRANCH  27  28
ATOM     28  C   UNL A   1      38.058  23.138  25.972  1.00  0.00     0.159 C 
ATOM     29  C   UNL A   1      38.792  21.817  25.939  1.00  0.00     0.093 C 
ATOM     30  O   UNL A   1      38.545  24.090  26.582  1.00  0.00    -0.295 OA
ENDBRANCH  27  28
ENDBRANCH  12  22
ENDBRANCH   8   9
ENDBRANCH   7   8
ENDBRANCH   4   7
ENDBRANCH   2   3
ENDBRANCH   1   2
BRANCH   1  31
ATOM     31  C   UNL A   1      32.762  27.999  26.206  1.00  0.00     0.023 C 
BRANCH  31  32
ATOM     32  C   UNL A   1      34.006  28.498  26.925  1.00  0.00     0.116 C 
BRANCH  32  33
ATOM     33  N   UNL A   1      33.830  29.849  27.451  1.00  0.00    -0.352 N 
ATOM     34  C   UNL A   1      34.679  30.556  28.275  1.00  0.00     0.251 C 
ATOM     35  H   UNL A   1      33.004  30.311  27.183  1.00  0.00     0.163 HD
ATOM     36  O   UNL A   1      34.313  31.567  28.840  1.00  0.00    -0.269 OA
BRANCH  34  37
ATOM     37  C   UNL A   1      36.040  30.029  28.486  1.00  0.00     0.039 A 
ATOM     38  C   UNL A   1      36.961  30.122  27.442  1.00  0.00     0.014 A 
ATOM     39  C   UNL A   1      36.401  29.504  29.732  1.00  0.00     0.014 A 
ATOM     40  C   UNL A   1      38.289  29.786  27.683  1.00  0.00     0.010 A 
ATOM     41  C   UNL A   1      37.731  29.199  29.984  1.00  0.00     0.010 A 
ATOM     42  C   UNL A   1      38.677  29.375  28.968  1.00  0.00    -0.014 A 
BRANCH  42  43
ATOM     43  C   UNL A   1      40.122  29.330  29.290  1.00  0.00     0.031 A 
ATOM     44  C   UNL A   1      40.579  30.613  30.004  1.00  0.00     0.074 A 
ATOM     45  C   UNL A   1      40.812  28.215  28.902  1.00  0.00     0.049 A 
ATOM     46  N   UNL A   1      41.718  31.231  29.949  1.00  0.00    -0.248 NA
ATOM     47  C   UNL A   1      39.598  31.391  30.811  1.00  0.00     0.031 C 
ATOM     48  C   UNL A   1      40.189  27.051  28.242  1.00  0.00     0.029 A 
ATOM     49  N   UNL A   1      42.134  27.814  28.974  1.00  0.00    -0.354 N 
ATOM     50  C   UNL A   1      41.669  32.308  30.865  1.00  0.00     0.074 A 
ATOM     51  C   UNL A   1      40.295  32.450  31.235  1.00  0.00     0.031 C 
ATOM     52  C   UNL A   1      41.117  26.132  27.909  1.00  0.00     0.029 A 
ATOM     53  C   UNL A   1      42.430  26.583  28.324  1.00  0.00     0.049 A 
ATOM     54  H   UNL A   1      42.821  28.341  29.441  1.00  0.00     0.167 HD
ATOM     55  C   UNL A   1      42.794  32.893  31.382  1.00  0.00     0.037 A 
ATOM     56  C   UNL A   1      43.643  25.985  28.094  1.00  0.00     0.037 A 
ATOM     57  C   UNL A   1      43.941  32.220  30.867  1.00  0.00     0.049 A 
ATOM     58  C   UNL A   1      44.628  26.768  28.856  1.00  0.00     0.074 A 
ATOM     59  C   UNL A   1      44.491  32.158  29.615  1.00  0.00     0.029 A 
ATOM     60  N   UNL A   1      44.426  31.185  31.634  1.00  0.00    -0.354 N 
ATOM     61  N   UNL A   1      44.730  26.771  30.151  1.00  0.00    -0.248 NA
ATOM     62  C   UNL A   1      45.513  27.690  28.131  1.00  0.00     0.031 C 
ATOM     63  C   UNL A   1      44.897  30.814  29.516  1.00  0.00     0.029 A 
ATOM     64  C   UNL A   1      44.823  30.199  30.773  1.00  0.00     0.049 A 
ATOM     65  H   UNL A   1      44.478  31.160  32.617  1.00  0.00     0.167 HD
ATOM     66  C   UNL A   1      45.416  27.938  30.386  1.00  0.00     0.074 A 
ATOM     67  C   UNL A   1      46.128  28.257  29.167  1.00  0.00     0.031 C 
ATOM     68  C   UNL A   1      44.889  28.837  31.256  1.00  0.00     0.037 A 
BRANCH  55  69
ATOM     69  C   UNL A   1      43.047  33.825  32.545  1.00  0.00     0.058 A 
ATOM     70  C   UNL A   1      42.872  33.299  33.854  1.00  0.00     0.135 A 
ATOM     71  C   UNL A   1      43.081  35.221  32.447  1.00  0.00     0.135 A 
ATOM     72  F   UNL A   1      42.907  31.974  34.074  1.00  0.00    -0.206 F 
ATOM     73  C   UNL A   1      42.567  34.096  34.951  1.00  0.00     0.059 A 
ATOM     74  C   UNL A   1      42.828  36.046  33.549  1.00  0.00     0.059 A 
ATOM     75  F   UNL A   1      43.280  35.831  31.271  1.00  0.00    -0.206 F 
ATOM     76  C   UNL A   1      42.506  35.472  34.778  1.00  0.00     0.060 A 
BRANCH  76  77
ATOM     77  S   UNL A   1      41.956  36.484  36.167  1.00  0.00     0.124 S 
ATOM     78  O   UNL A   1      43.026  37.470  36.256  1.00  0.00    -0.237 OA
ATOM     79  O   UNL A   1      40.669  36.987  35.692  1.00  0.00    -0.237 OA
ATOM     80  O   UNL A   1      41.878  35.528  37.266  1.00  0.00    -0.744 OA
ENDBRANCH  76  77
ENDBRANCH  55  69
BRANCH  56  81
ATOM     81  C   UNL A   1      44.201  24.883  27.206  1.00  0.00     0.058 A 
ATOM     82  C   UNL A   1      45.067  23.856  27.601  1.00  0.00     0.135 A 
ATOM     83  C   UNL A   1      43.704  24.735  25.877  1.00  0.00     0.135 A 
ATOM     84  F   UNL A   1      45.761  23.928  28.740  1.00  0.00    -0.206 F 
ATOM     85  C   UNL A   1      45.258  22.693  26.834  1.00  0.00     0.059 A 
ATOM     86  C   UNL A   1      43.831  23.572  25.122  1.00  0.00     0.059 A 
ATOM     87  F   UNL A   1      43.026  25.713  25.261  1.00  0.00    -0.206 F 
ATOM     88  C   UNL A   1      44.577  22.530  25.631  1.00  0.00     0.060 A 
BRANCH  88  89
ATOM     89  S   UNL A   1      44.548  20.928  24.800  1.00  0.00     0.124 S 
ATOM     90  O   UNL A   1      43.304  20.350  25.294  1.00  0.00    -0.237 OA
ATOM     91  O   UNL A   1      44.560  21.309  23.390  1.00  0.00    -0.237 OA
ATOM     92  O   UNL A   1      45.774  20.287  25.271  1.00  0.00    -0.744 OA
ENDBRANCH  88  89
ENDBRANCH  56  81
BRANCH  68  93
ATOM     93  C   UNL A   1      44.092  28.229  32.397  1.00  0.00     0.058 A 
ATOM     94  C   UNL A   1      44.734  27.377  33.316  1.00  0.00     0.135 A 
ATOM     95  C   UNL A   1      42.706  28.384  32.576  1.00  0.00     0.135 A 
ATOM     96  F   UNL A   1      46.060  27.183  33.232  1.00  0.00    -0.206 F 
ATOM     97  C   UNL A   1      44.045  26.713  34.334  1.00  0.00     0.059 A 
ATOM     98  C   UNL A   1      41.992  27.738  33.594  1.00  0.00     0.059 A 
ATOM     99  F   UNL A   1      42.000  29.164  31.756  1.00  0.00    -0.206 F 
ATOM    100  C   UNL A   1      42.671  26.899  34.469  1.00  0.00     0.060 A 
BRANCH 100 101
ATOM    101  S   UNL A   1      41.803  26.053  35.811  1.00  0.00     0.124 S 
ATOM    102  O   UNL A   1      42.683  24.922  36.090  1.00  0.00    -0.237 OA
ATOM    103  O   UNL A   1      41.754  27.083  36.844  1.00  0.00    -0.237 OA
ATOM    104  O   UNL A   1      40.513  25.701  35.221  1.00  0.00    -0.744 OA
ENDBRANCH 100 101
ENDBRANCH  68  93
ENDBRANCH  42  43
ENDBRANCH  34  37
ENDBRANCH  32  33
ENDBRANCH  31  32
ENDBRANCH   1  31
TORSDOF 20
ENDMDL
MODEL 2
REMARK VINA RESULT:     -12.5      3.089      9.115
REMARK SMILES COc1ccc(-c2ccc(CCC(=O)NCCCCNC(=O)c3ccc(-c4c5nc(c(-c6c(F)cc(S(=O)(=O)[O-])cc6F)c6ccc([nH]6)c(-c6c(F)cc(S(=O)(=O)[O-])cc6F)c6nc(c(-c7c(F)cc(S(=O)(=O)[O-])cc7F)c7ccc4[nH]7)C=C6)C=C5)cc3)n2-c2ccc(C(C)=O)cc2)cc1
REMARK SMILES IDX 17 1 16 2 15 3 13 4 14 5 12 7 11 8 10 9 7 10 8 11 89 12 9 13
REMARK SMILES IDX 6 14 3 15 4 16 100 17 5 18 99 19 2 20 1 21 90 22 91 23 98 24
REMARK SMILES IDX 92 25 97 26 93 27 94 28 95 29 96 30 18 31 19 32 20 33 21 34
REMARK SMILES IDX 22 36 23 37 24 38 88 39 25 40 87 41 26 42 27 43 28 44 81 45
REMARK SMILES IDX 29 46 86 47 80 48 82 49 30 50 85 51 79 52 78 53 31 55 65 56
REMARK SMILES IDX 44 57 64 58 45 59 48 60 63 61 83 62 46 63 47 64 62 66 84 67
REMARK SMILES IDX 49 68 32 69 33 70 42 71 34 72 35 73 41 74 43 75 36 76 37 77
REMARK SMILES IDX 38 78 39 79 40 80 66 81 67 82 76 83 68 84 69 85 75 86 77 87
REMARK SMILES IDX 70 88 71 89 72 90 73 91 74 92 50 93 51 94 60 95 52 96 53 97
REMARK SMILES IDX 59 98 61 99 54 100 55 101 56 102 57 103 58 104
REMARK H PARENT 15 6 20 35 82 54 48 65
REMARK Flexibility Score: inf
ROOT
ATOM      1  C   UNL A   1      31.696  30.378  25.670  1.00  0.00     0.023 C 
ENDROOT
BRANCH   1   2
ATOM      2  C   UNL A   1      31.534  29.238  24.669  1.00  0.00     0.116 C 
BRANCH   2   3
ATOM      3  N   UNL A   1      32.512  29.369  23.605  1.00  0.00    -0.356 N 
ATOM      4  C   UNL A   1      33.538  28.535  23.274  1.00  0.00     0.220 C 
ATOM      5  O   UNL A   1      34.428  28.955  22.530  1.00  0.00    -0.275 OA
ATOM      6  H   UNL A   1      32.423  30.173  23.043  1.00  0.00     0.163 HD
BRANCH   4   7
ATOM      7  C   UNL A   1      33.571  27.106  23.784  1.00  0.00     0.106 C 
BRANCH   7   8
ATOM      8  C   UNL A   1      33.199  26.078  22.716  1.00  0.00     0.064 C 
BRANCH   8   9
ATOM      9  C   UNL A   1      32.464  24.878  23.255  1.00  0.00     0.024 A 
ATOM     10  C   UNL A   1      32.055  22.699  23.696  1.00  0.00     0.053 A 
ATOM     11  C   UNL A   1      30.874  23.412  23.859  1.00  0.00     0.029 A 
ATOM     12  N   UNL A   1      33.063  23.653  23.558  1.00  0.00    -0.314 N 
ATOM     13  C   UNL A   1      31.135  24.774  23.613  1.00  0.00     0.024 A 
BRANCH  10  14
ATOM     14  C   UNL A   1      32.226  21.271  23.971  1.00  0.00    -0.001 A 
ATOM     15  C   UNL A   1      32.861  18.561  24.385  1.00  0.00     0.118 A 
ATOM     16  C   UNL A   1      32.552  19.031  23.107  1.00  0.00     0.047 A 
ATOM     17  C   UNL A   1      32.848  19.449  25.461  1.00  0.00     0.047 A 
ATOM     18  C   UNL A   1      32.230  20.371  22.901  1.00  0.00     0.014 A 
ATOM     19  C   UNL A   1      32.533  20.803  25.255  1.00  0.00     0.014 A 
BRANCH  15  20
ATOM     20  O   UNL A   1      33.213  17.240  24.429  1.00  0.00    -0.497 OA
ATOM     21  C   UNL A   1      34.015  16.761  23.357  1.00  0.00     0.278 C 
ENDBRANCH  15  20
ENDBRANCH  10  14
BRANCH  12  22
ATOM     22  C   UNL A   1      34.376  23.519  24.076  1.00  0.00     0.046 A 
ATOM     23  C   UNL A   1      34.527  23.713  25.455  1.00  0.00     0.027 A 
ATOM     24  C   UNL A   1      35.448  23.094  23.299  1.00  0.00     0.027 A 
ATOM     25  C   UNL A   1      35.752  23.482  26.069  1.00  0.00     0.014 A 
ATOM     26  C   UNL A   1      36.689  22.889  23.919  1.00  0.00     0.014 A 
ATOM     27  C   UNL A   1      36.847  23.065  25.308  1.00  0.00     0.017 A 
BRANCH  27  28
ATOM     28  C   UNL A   1      38.181  22.782  25.922  1.00  0.00     0.159 C 
ATOM     29  C   UNL A   1      39.013  23.892  26.522  1.00  0.00     0.093 C 
ATOM     30  O   UNL A   1      38.598  21.624  25.953  1.00  0.00    -0.295 OA
ENDBRANCH  27  28
ENDBRANCH  12  22
ENDBRANCH   8   9
ENDBRANCH   7   8
ENDBRANCH   4   7
ENDBRANCH   2   3
ENDBRANCH   1   2
BRANCH   1  31
ATOM     31  C   UNL A   1      32.419  30.049  26.973  1.00  0.00     0.023 C 
BRANCH  31  32
ATOM     32  C   UNL A   1      33.415  31.123  27.387  1.00  0.00     0.116 C 
BRANCH  32  33
ATOM     33  N   UNL A   1      32.832  32.460  27.332  1.00  0.00    -0.352 N 
ATOM     34  C   UNL A   1      33.121  33.546  28.131  1.00  0.00     0.251 C 
ATOM     35  H   UNL A   1      32.150  32.605  26.638  1.00  0.00     0.163 HD
ATOM     36  O   UNL A   1      32.402  34.524  28.151  1.00  0.00    -0.269 OA
BRANCH  34  37
ATOM     37  C   UNL A   1      34.313  33.472  28.997  1.00  0.00     0.039 A 
ATOM     38  C   UNL A   1      34.239  32.724  30.173  1.00  0.00     0.014 A 
ATOM     39  C   UNL A   1      35.503  34.096  28.604  1.00  0.00     0.014 A 
ATOM     40  C   UNL A   1      35.399  32.507  30.907  1.00  0.00     0.010 A 
ATOM     41  C   UNL A   1      36.667  33.854  29.318  1.00  0.00     0.010 A 
ATOM     42  C   UNL A   1      36.618  33.031  30.448  1.00  0.00    -0.014 A 
BRANCH  42  43
ATOM     43  C   UNL A   1      37.875  32.534  31.054  1.00  0.00     0.031 A 
ATOM     44  C   UNL A   1      38.398  31.287  30.319  1.00  0.00     0.074 A 
ATOM     45  C   UNL A   1      38.353  33.211  32.141  1.00  0.00     0.049 A 
ATOM     46  N   UNL A   1      39.042  30.262  30.784  1.00  0.00    -0.248 NA
ATOM     47  C   UNL A   1      38.063  31.091  28.881  1.00  0.00     0.031 C 
ATOM     48  C   UNL A   1      37.721  34.423  32.697  1.00  0.00     0.029 A 
ATOM     49  N   UNL A   1      39.433  33.051  32.991  1.00  0.00    -0.354 N 
ATOM     50  C   UNL A   1      39.381  29.433  29.688  1.00  0.00     0.074 A 
ATOM     51  C   UNL A   1      38.614  29.911  28.580  1.00  0.00     0.031 C 
ATOM     52  C   UNL A   1      38.364  34.835  33.809  1.00  0.00     0.029 A 
ATOM     53  C   UNL A   1      39.480  33.955  34.089  1.00  0.00     0.049 A 
ATOM     54  H   UNL A   1      40.120  32.361  32.847  1.00  0.00     0.167 HD
ATOM     55  C   UNL A   1      40.402  28.522  29.736  1.00  0.00     0.037 A 
ATOM     56  C   UNL A   1      40.324  33.975  35.169  1.00  0.00     0.037 A 
ATOM     57  C   UNL A   1      41.026  28.598  31.016  1.00  0.00     0.049 A 
ATOM     58  C   UNL A   1      41.365  32.975  34.886  1.00  0.00     0.074 A 
ATOM     59  C   UNL A   1      40.601  28.259  32.273  1.00  0.00     0.029 A 
ATOM     60  N   UNL A   1      42.108  29.444  31.109  1.00  0.00    -0.354 N 
ATOM     61  N   UNL A   1      42.298  33.110  33.991  1.00  0.00    -0.248 NA
ATOM     62  C   UNL A   1      41.316  31.683  35.585  1.00  0.00     0.031 C 
ATOM     63  C   UNL A   1      41.117  29.297  33.070  1.00  0.00     0.029 A 
ATOM     64  C   UNL A   1      42.034  30.057  32.330  1.00  0.00     0.049 A 
ATOM     65  H   UNL A   1      42.803  29.582  30.427  1.00  0.00     0.167 HD
ATOM     66  C   UNL A   1      42.691  31.810  33.783  1.00  0.00     0.074 A 
ATOM     67  C   UNL A   1      42.320  31.066  34.968  1.00  0.00     0.031 C 
ATOM     68  C   UNL A   1      42.697  31.329  32.513  1.00  0.00     0.037 A 
BRANCH  55  69
ATOM     69  C   UNL A   1      41.153  27.738  28.685  1.00  0.00     0.058 A 
ATOM     70  C   UNL A   1      40.974  26.328  28.670  1.00  0.00     0.135 A 
ATOM     71  C   UNL A   1      42.262  28.221  27.980  1.00  0.00     0.135 A 
ATOM     72  F   UNL A   1      39.898  25.763  29.245  1.00  0.00    -0.206 F 
ATOM     73  C   UNL A   1      41.924  25.454  28.154  1.00  0.00     0.059 A 
ATOM     74  C   UNL A   1      43.206  27.360  27.408  1.00  0.00     0.059 A 
ATOM     75  F   UNL A   1      42.512  29.533  27.891  1.00  0.00    -0.206 F 
ATOM     76  C   UNL A   1      43.061  25.982  27.559  1.00  0.00     0.060 A 
BRANCH  76  77
ATOM     77  S   UNL A   1      44.359  24.842  27.036  1.00  0.00     0.124 S 
ATOM     78  O   UNL A   1      43.883  24.437  25.719  1.00  0.00    -0.237 OA
ATOM     79  O   UNL A   1      45.543  25.697  27.045  1.00  0.00    -0.237 OA
ATOM     80  O   UNL A   1      44.333  23.811  28.067  1.00  0.00    -0.744 OA
ENDBRANCH  76  77
ENDBRANCH  55  69
BRANCH  56  81
ATOM     81  C   UNL A   1      40.372  34.624  36.544  1.00  0.00     0.058 A 
ATOM     82  C   UNL A   1      41.098  35.768  36.898  1.00  0.00     0.135 A 
ATOM     83  C   UNL A   1      39.491  34.164  37.567  1.00  0.00     0.135 A 
ATOM     84  F   UNL A   1      42.093  36.228  36.135  1.00  0.00    -0.206 F 
ATOM     85  C   UNL A   1      40.825  36.503  38.066  1.00  0.00     0.059 A 
ATOM     86  C   UNL A   1      39.163  34.901  38.703  1.00  0.00     0.059 A 
ATOM     87  F   UNL A   1      38.869  32.980  37.487  1.00  0.00    -0.206 F 
ATOM     88  C   UNL A   1      39.806  36.100  38.923  1.00  0.00     0.060 A 
BRANCH  88  89
ATOM     89  S   UNL A   1      39.223  37.192  40.236  1.00  0.00     0.124 S 
ATOM     90  O   UNL A   1      38.557  38.248  39.484  1.00  0.00    -0.237 OA
ATOM     91  O   UNL A   1      38.351  36.311  41.009  1.00  0.00    -0.237 OA
ATOM     92  O   UNL A   1      40.456  37.581  40.917  1.00  0.00    -0.744 OA
ENDBRANCH  88  89
ENDBRANCH  56  81
BRANCH  68  93
ATOM     93  C   UNL A   1      43.018  32.358  31.442  1.00  0.00     0.058 A 
ATOM     94  C   UNL A   1      44.283  32.975  31.429  1.00  0.00     0.135 A 
ATOM     95  C   UNL A   1      42.104  32.823  30.481  1.00  0.00     0.135 A 
ATOM     96  F   UNL A   1      45.226  32.583  32.302  1.00  0.00    -0.206 F 
ATOM     97  C   UNL A   1      44.615  33.994  30.531  1.00  0.00     0.059 A 
ATOM     98  C   UNL A   1      42.412  33.835  29.563  1.00  0.00     0.059 A 
ATOM     99  F   UNL A   1      40.873  32.311  30.411  1.00  0.00    -0.206 F 
ATOM    100  C   UNL A   1      43.672  34.420  29.597  1.00  0.00     0.060 A 
BRANCH 100 101
ATOM    101  S   UNL A   1      44.131  35.718  28.426  1.00  0.00     0.124 S 
ATOM    102  O   UNL A   1      43.076  35.622  27.422  1.00  0.00    -0.237 OA
ATOM    103  O   UNL A   1      44.097  36.914  29.263  1.00  0.00    -0.237 OA
ATOM    104  O   UNL A   1      45.459  35.317  27.967  1.00  0.00    -0.744 OA
ENDBRANCH 100 101
ENDBRANCH  68  93
ENDBRANCH  42  43
ENDBRANCH  34  37
ENDBRANCH  32  33
ENDBRANCH  31  32
ENDBRANCH   1  31
TORSDOF 20
ENDMDL
MODEL 3
REMARK VINA RESULT:     -11.9      2.928      8.730
REMARK SMILES COc1ccc(-c2ccc(CCC(=O)NCCCCNC(=O)c3ccc(-c4c5nc(c(-c6c(F)cc(S(=O)(=O)[O-])cc6F)c6ccc([nH]6)c(-c6c(F)cc(S(=O)(=O)[O-])cc6F)c6nc(c(-c7c(F)cc(S(=O)(=O)[O-])cc7F)c7ccc4[nH]7)C=C6)C=C5)cc3)n2-c2ccc(C(C)=O)cc2)cc1
REMARK SMILES IDX 17 1 16 2 15 3 13 4 14 5 12 7 11 8 10 9 7 10 8 11 89 12 9 13
REMARK SMILES IDX 6 14 3 15 4 16 100 17 5 18 99 19 2 20 1 21 90 22 91 23 98 24
REMARK SMILES IDX 92 25 97 26 93 27 94 28 95 29 96 30 18 31 19 32 20 33 21 34
REMARK SMILES IDX 22 36 23 37 24 38 88 39 25 40 87 41 26 42 27 43 28 44 81 45
REMARK SMILES IDX 29 46 86 47 80 48 82 49 30 50 85 51 79 52 78 53 31 55 65 56
REMARK SMILES IDX 44 57 64 58 45 59 48 60 63 61 83 62 46 63 47 64 62 66 84 67
REMARK SMILES IDX 49 68 32 69 33 70 42 71 34 72 35 73 41 74 43 75 36 76 37 77
REMARK SMILES IDX 38 78 39 79 40 80 66 81 67 82 76 83 68 84 69 85 75 86 77 87
REMARK SMILES IDX 70 88 71 89 72 90 73 91 74 92 50 93 51 94 60 95 52 96 53 97
REMARK SMILES IDX 59 98 61 99 54 100 55 101 56 102 57 103 58 104
REMARK H PARENT 15 6 20 35 82 54 48 65
REMARK Flexibility Score: inf
ROOT
ATOM      1  C   UNL A   1      32.955  30.202  26.285  1.00  0.00     0.023 C 
ENDROOT
BRANCH   1   2
ATOM      2  C   UNL A   1      32.045  29.525  25.265  1.00  0.00     0.116 C 
BRANCH   2   3
ATOM      3  N   UNL A   1      32.675  29.532  23.957  1.00  0.00    -0.356 N 
ATOM      4  C   UNL A   1      33.455  28.577  23.375  1.00  0.00     0.220 C 
ATOM      5  O   UNL A   1      34.128  28.883  22.387  1.00  0.00    -0.275 OA
ATOM      6  H   UNL A   1      32.516  30.337  23.414  1.00  0.00     0.163 HD
BRANCH   4   7
ATOM      7  C   UNL A   1      33.474  27.158  23.910  1.00  0.00     0.106 C 
BRANCH   7   8
ATOM      8  C   UNL A   1      33.452  26.099  22.807  1.00  0.00     0.064 C 
BRANCH   8   9
ATOM      9  C   UNL A   1      32.686  24.854  23.172  1.00  0.00     0.024 A 
ATOM     10  C   UNL A   1      32.294  22.645  23.453  1.00  0.00     0.053 A 
ATOM     11  C   UNL A   1      31.076  23.314  23.454  1.00  0.00     0.029 A 
ATOM     12  N   UNL A   1      33.275  23.636  23.517  1.00  0.00    -0.314 N 
ATOM     13  C   UNL A   1      31.322  24.694  23.309  1.00  0.00     0.024 A 
BRANCH  10  14
ATOM     14  C   UNL A   1      32.473  21.213  23.694  1.00  0.00    -0.001 A 
ATOM     15  C   UNL A   1      32.517  18.462  24.286  1.00  0.00     0.118 A 
ATOM     16  C   UNL A   1      32.729  19.407  25.290  1.00  0.00     0.047 A 
ATOM     17  C   UNL A   1      32.287  18.893  22.979  1.00  0.00     0.047 A 
ATOM     18  C   UNL A   1      32.715  20.771  24.998  1.00  0.00     0.014 A 
ATOM     19  C   UNL A   1      32.263  20.267  22.683  1.00  0.00     0.014 A 
BRANCH  15  20
ATOM     20  O   UNL A   1      32.501  17.167  24.726  1.00  0.00    -0.497 OA
ATOM     21  C   UNL A   1      33.597  16.351  24.335  1.00  0.00     0.278 C 
ENDBRANCH  15  20
ENDBRANCH  10  14
BRANCH  12  22
ATOM     22  C   UNL A   1      34.493  23.518  24.233  1.00  0.00     0.046 A 
ATOM     23  C   UNL A   1      35.612  23.103  23.500  1.00  0.00     0.027 A 
ATOM     24  C   UNL A   1      34.622  23.910  25.561  1.00  0.00     0.027 A 
ATOM     25  C   UNL A   1      36.870  23.078  24.090  1.00  0.00     0.014 A 
ATOM     26  C   UNL A   1      35.890  23.856  26.159  1.00  0.00     0.014 A 
ATOM     27  C   UNL A   1      37.024  23.455  25.426  1.00  0.00     0.017 A 
BRANCH  27  28
ATOM     28  C   UNL A   1      38.358  23.467  26.102  1.00  0.00     0.159 C 
ATOM     29  C   UNL A   1      39.178  22.203  26.225  1.00  0.00     0.093 C 
ATOM     30  O   UNL A   1      38.800  24.525  26.548  1.00  0.00    -0.295 OA
ENDBRANCH  27  28
ENDBRANCH  12  22
ENDBRANCH   8   9
ENDBRANCH   7   8
ENDBRANCH   4   7
ENDBRANCH   2   3
ENDBRANCH   1   2
BRANCH   1  31
ATOM     31  C   UNL A   1      34.037  29.335  26.923  1.00  0.00     0.023 C 
BRANCH  31  32
ATOM     32  C   UNL A   1      34.931  30.109  27.880  1.00  0.00     0.116 C 
BRANCH  32  33
ATOM     33  N   UNL A   1      34.262  31.287  28.422  1.00  0.00    -0.352 N 
ATOM     34  C   UNL A   1      34.720  32.152  29.394  1.00  0.00     0.251 C 
ATOM     35  H   UNL A   1      33.375  31.490  28.048  1.00  0.00     0.163 HD
ATOM     36  O   UNL A   1      33.977  32.947  29.933  1.00  0.00    -0.269 OA
BRANCH  34  37
ATOM     37  C   UNL A   1      36.138  32.061  29.792  1.00  0.00     0.039 A 
ATOM     38  C   UNL A   1      36.485  31.195  30.830  1.00  0.00     0.014 A 
ATOM     39  C   UNL A   1      37.108  32.788  29.094  1.00  0.00     0.014 A 
ATOM     40  C   UNL A   1      37.830  30.973  31.100  1.00  0.00     0.010 A 
ATOM     41  C   UNL A   1      38.451  32.543  29.340  1.00  0.00     0.010 A 
ATOM     42  C   UNL A   1      38.808  31.609  30.320  1.00  0.00    -0.014 A 
BRANCH  42  43
ATOM     43  C   UNL A   1      40.206  31.126  30.404  1.00  0.00     0.031 A 
ATOM     44  C   UNL A   1      40.390  29.801  29.644  1.00  0.00     0.074 A 
ATOM     45  C   UNL A   1      41.082  31.883  31.131  1.00  0.00     0.049 A 
ATOM     46  N   UNL A   1      41.174  28.802  29.902  1.00  0.00    -0.248 NA
ATOM     47  C   UNL A   1      39.496  29.487  28.494  1.00  0.00     0.031 C 
ATOM     48  C   UNL A   1      40.726  33.162  31.776  1.00  0.00     0.029 A 
ATOM     49  N   UNL A   1      42.416  31.764  31.477  1.00  0.00    -0.354 N 
ATOM     50  C   UNL A   1      41.040  27.866  28.849  1.00  0.00     0.074 A 
ATOM     51  C   UNL A   1      39.883  28.267  28.110  1.00  0.00     0.031 C 
ATOM     52  C   UNL A   1      41.765  33.650  32.484  1.00  0.00     0.029 A 
ATOM     53  C   UNL A   1      42.903  32.762  32.367  1.00  0.00     0.049 A 
ATOM     54  H   UNL A   1      42.989  31.041  31.132  1.00  0.00     0.167 HD
ATOM     55  C   UNL A   1      41.997  26.929  28.564  1.00  0.00     0.037 A 
ATOM     56  C   UNL A   1      44.116  32.852  33.002  1.00  0.00     0.037 A 
ATOM     57  C   UNL A   1      43.090  27.099  29.464  1.00  0.00     0.049 A 
ATOM     58  C   UNL A   1      44.956  31.795  32.416  1.00  0.00     0.074 A 
ATOM     59  C   UNL A   1      43.219  26.890  30.811  1.00  0.00     0.029 A 
ATOM     60  N   UNL A   1      44.109  27.913  29.025  1.00  0.00    -0.354 N 
ATOM     61  N   UNL A   1      45.439  31.817  31.210  1.00  0.00    -0.248 NA
ATOM     62  C   UNL A   1      45.205  30.575  33.195  1.00  0.00     0.031 C 
ATOM     63  C   UNL A   1      44.010  27.978  31.223  1.00  0.00     0.029 A 
ATOM     64  C   UNL A   1      44.538  28.637  30.105  1.00  0.00     0.049 A 
ATOM     65  H   UNL A   1      44.464  27.966  28.108  1.00  0.00     0.167 HD
ATOM     66  C   UNL A   1      45.721  30.491  30.986  1.00  0.00     0.074 A 
ATOM     67  C   UNL A   1      45.873  29.871  32.285  1.00  0.00     0.031 C 
ATOM     68  C   UNL A   1      45.210  29.897  29.877  1.00  0.00     0.037 A 
BRANCH  55  69
ATOM     69  C   UNL A   1      42.257  26.028  27.379  1.00  0.00     0.058 A 
ATOM     70  C   UNL A   1      42.373  24.633  27.631  1.00  0.00     0.135 A 
ATOM     71  C   UNL A   1      42.745  26.468  26.143  1.00  0.00     0.135 A 
ATOM     72  F   UNL A   1      41.862  24.091  28.750  1.00  0.00    -0.206 F 
ATOM     73  C   UNL A   1      43.085  23.775  26.802  1.00  0.00     0.059 A 
ATOM     74  C   UNL A   1      43.422  25.610  25.268  1.00  0.00     0.059 A 
ATOM     75  F   UNL A   1      42.656  27.752  25.777  1.00  0.00    -0.206 F 
ATOM     76  C   UNL A   1      43.644  24.284  25.639  1.00  0.00     0.060 A 
BRANCH  76  77
ATOM     77  S   UNL A   1      44.698  23.201  24.653  1.00  0.00     0.124 S 
ATOM     78  O   UNL A   1      43.771  22.741  23.626  1.00  0.00    -0.237 OA
ATOM     79  O   UNL A   1      45.742  24.117  24.198  1.00  0.00    -0.237 OA
ATOM     80  O   UNL A   1      45.135  22.194  25.614  1.00  0.00    -0.744 OA
ENDBRANCH  76  77
ENDBRANCH  55  69
BRANCH  56  81
ATOM     81  C   UNL A   1      44.719  33.620  34.167  1.00  0.00     0.058 A 
ATOM     82  C   UNL A   1      45.784  34.528  34.103  1.00  0.00     0.135 A 
ATOM     83  C   UNL A   1      44.078  33.577  35.441  1.00  0.00     0.135 A 
ATOM     84  F   UNL A   1      46.604  34.568  33.049  1.00  0.00    -0.206 F 
ATOM     85  C   UNL A   1      46.053  35.449  35.130  1.00  0.00     0.059 A 
ATOM     86  C   UNL A   1      44.288  34.513  36.451  1.00  0.00     0.059 A 
ATOM     87  F   UNL A   1      43.176  32.636  35.749  1.00  0.00    -0.206 F 
ATOM     88  C   UNL A   1      45.252  35.481  36.268  1.00  0.00     0.060 A 
BRANCH  88  89
ATOM     89  S   UNL A   1      45.369  36.851  37.437  1.00  0.00     0.124 S 
ATOM     90  O   UNL A   1      44.053  36.829  38.065  1.00  0.00    -0.237 OA
ATOM     91  O   UNL A   1      46.488  36.445  38.282  1.00  0.00    -0.237 OA
ATOM     92  O   UNL A   1      45.639  38.000  36.576  1.00  0.00    -0.744 OA
ENDBRANCH  88  89
ENDBRANCH  56  81
BRANCH  68  93
ATOM     93  C   UNL A   1      45.058  30.813  28.675  1.00  0.00     0.058 A 
ATOM     94  C   UNL A   1      46.196  31.432  28.125  1.00  0.00     0.135 A 
ATOM     95  C   UNL A   1      43.829  31.173  28.094  1.00  0.00     0.135 A 
ATOM     96  F   UNL A   1      47.415  31.137  28.606  1.00  0.00    -0.206 F 
ATOM     97  C   UNL A   1      46.119  32.356  27.079  1.00  0.00     0.059 A 
ATOM     98  C   UNL A   1      43.723  32.088  27.039  1.00  0.00     0.059 A 
ATOM     99  F   UNL A   1      42.687  30.650  28.545  1.00  0.00    -0.206 F 
ATOM    100  C   UNL A   1      44.877  32.680  26.538  1.00  0.00     0.060 A 
BRANCH 100 101
ATOM    101  S   UNL A   1      44.801  33.855  25.165  1.00  0.00     0.124 S 
ATOM    102  O   UNL A   1      43.861  34.855  25.660  1.00  0.00    -0.237 OA
ATOM    103  O   UNL A   1      46.190  34.293  25.059  1.00  0.00    -0.237 OA
ATOM    104  O   UNL A   1      44.316  33.049  24.047  1.00  0.00    -0.744 OA
ENDBRANCH 100 101
ENDBRANCH  68  93
ENDBRANCH  42  43
ENDBRANCH  34  37
ENDBRANCH  32  33
ENDBRANCH  31  32
ENDBRANCH   1  31
TORSDOF 20
ENDMDL
