MODEL 1
REMARK VINA RESULT:      -9.0      0.000      0.000
REMARK SMILES C=C(C)COc1ccc2c(C)c(CC(=O)NCCCCNC(=O)c3ccc(-c4c5nc(c(-c6c(F)cc(S(=O)(=O)[O-])cc6F)c6ccc([nH]6)c(-c6c(F)cc(S(=O)(=O)[O-])cc6F)c6nc(c(-c7c(F)cc(S(=O)(=O)[O-])cc7F)c7ccc4[nH]7)C=C6)C=C5)cc3)c(=O)oc2c1
REMARK SMILES IDX 18 1 17 2 16 3 14 4 15 5 13 7 12 8 6 9 7 10 94 11 8 12 93 13
REMARK SMILES IDX 9 14 92 15 10 16 90 17 11 18 91 19 5 20 4 21 2 22 1 23 3 24
REMARK SMILES IDX 19 25 20 26 21 27 22 28 23 30 24 31 25 32 89 33 26 34 88 35
REMARK SMILES IDX 27 36 28 37 29 38 82 39 30 40 87 41 81 42 83 43 31 44 86 45
REMARK SMILES IDX 80 46 79 47 32 49 66 50 45 51 65 52 46 53 49 54 64 55 84 56
REMARK SMILES IDX 47 57 48 58 63 60 85 61 50 62 33 63 34 64 43 65 35 66 36 67
REMARK SMILES IDX 42 68 44 69 37 70 38 71 39 72 40 73 41 74 67 75 68 76 77 77
REMARK SMILES IDX 69 78 70 79 76 80 78 81 71 82 72 83 73 84 74 85 75 86 51 87
REMARK SMILES IDX 52 88 61 89 53 90 54 91 60 92 62 93 55 94 56 95 57 96 58 97
REMARK SMILES IDX 59 98
REMARK H PARENT 16 6 21 29 83 48 49 59
REMARK Flexibility Score: inf
ROOT
ATOM      1  C   UNL A   1      34.754  32.793  30.540  1.00  0.00     0.023 C 
ENDROOT
BRANCH   1   2
ATOM      2  C   UNL A   1      35.142  33.954  31.457  1.00  0.00     0.116 C 
BRANCH   2   3
ATOM      3  N   UNL A   1      36.507  34.390  31.231  1.00  0.00    -0.356 N 
ATOM      4  C   UNL A   1      37.599  34.318  32.046  1.00  0.00     0.224 C 
ATOM      5  O   UNL A   1      38.666  34.773  31.628  1.00  0.00    -0.275 OA
ATOM      6  H   UNL A   1      36.671  34.803  30.353  1.00  0.00     0.163 HD
BRANCH   4   7
ATOM      7  C   UNL A   1      37.513  33.668  33.422  1.00  0.00     0.143 C 
BRANCH   7   8
ATOM      8  C   UNL A   1      38.463  32.503  33.581  1.00  0.00     0.051 A 
ATOM      9  C   UNL A   1      41.568  28.536  33.169  1.00  0.00     0.123 A 
ATOM     10  C   UNL A   1      40.313  28.060  32.794  1.00  0.00     0.047 A 
ATOM     11  C   UNL A   1      41.696  29.860  33.565  1.00  0.00     0.094 A 
ATOM     12  C   UNL A   1      39.190  28.904  32.840  1.00  0.00     0.016 A 
ATOM     13  C   UNL A   1      40.572  30.678  33.620  1.00  0.00     0.142 A 
ATOM     14  C   UNL A   1      39.305  30.240  33.252  1.00  0.00     0.021 A 
ATOM     15  O   UNL A   1      40.805  31.982  34.069  1.00  0.00    -0.422 OA
ATOM     16  C   UNL A   1      38.204  31.223  33.226  1.00  0.00    -0.029 A 
ATOM     17  C   UNL A   1      39.773  32.885  34.175  1.00  0.00     0.340 A 
ATOM     18  C   UNL A   1      36.861  30.751  32.732  1.00  0.00     0.046 C 
ATOM     19  O   UNL A   1      39.954  33.977  34.707  1.00  0.00    -0.246 OA
BRANCH   9  20
ATOM     20  O   UNL A   1      42.636  27.689  33.041  1.00  0.00    -0.489 OA
BRANCH  20  21
ATOM     21  C   UNL A   1      42.853  26.842  34.181  1.00  0.00     0.260 C 
BRANCH  21  22
ATOM     22  C   UNL A   1      43.967  25.835  33.978  1.00  0.00    -0.043 C 
ATOM     23  C   UNL A   1      44.263  25.301  32.780  1.00  0.00     0.011 C 
ATOM     24  C   UNL A   1      44.787  25.525  35.200  1.00  0.00     0.042 C 
ENDBRANCH  21  22
ENDBRANCH  20  21
ENDBRANCH   9  20
ENDBRANCH   7   8
ENDBRANCH   4   7
ENDBRANCH   2   3
ENDBRANCH   1   2
BRANCH   1  25
ATOM     25  C   UNL A   1      33.954  33.193  29.296  1.00  0.00     0.023 C 
BRANCH  25  26
ATOM     26  C   UNL A   1      34.414  32.560  27.986  1.00  0.00     0.116 C 
BRANCH  26  27
ATOM     27  N   UNL A   1      33.798  31.269  27.726  1.00  0.00    -0.352 N 
ATOM     28  C   UNL A   1      34.382  30.025  27.700  1.00  0.00     0.251 C 
ATOM     29  H   UNL A   1      32.830  31.289  27.543  1.00  0.00     0.163 HD
ATOM     30  O   UNL A   1      33.726  29.047  27.348  1.00  0.00    -0.269 OA
BRANCH  28  31
ATOM     31  C   UNL A   1      35.809  29.873  28.060  1.00  0.00     0.039 A 
ATOM     32  C   UNL A   1      36.138  29.489  29.363  1.00  0.00     0.014 A 
ATOM     33  C   UNL A   1      36.817  30.088  27.116  1.00  0.00     0.014 A 
ATOM     34  C   UNL A   1      37.473  29.250  29.698  1.00  0.00     0.010 A 
ATOM     35  C   UNL A   1      38.140  29.787  27.434  1.00  0.00     0.010 A 
ATOM     36  C   UNL A   1      38.481  29.358  28.727  1.00  0.00    -0.014 A 
BRANCH  36  37
ATOM     37  C   UNL A   1      39.894  29.015  29.037  1.00  0.00     0.031 A 
ATOM     38  C   UNL A   1      40.810  30.047  29.638  1.00  0.00     0.074 A 
ATOM     39  C   UNL A   1      40.368  27.794  28.718  1.00  0.00     0.049 A 
ATOM     40  N   UNL A   1      42.089  29.964  29.897  1.00  0.00    -0.248 NA
ATOM     41  C   UNL A   1      40.215  31.353  29.964  1.00  0.00     0.031 C 
ATOM     42  C   UNL A   1      39.592  26.721  28.091  1.00  0.00     0.029 A 
ATOM     43  N   UNL A   1      41.622  27.252  28.862  1.00  0.00    -0.354 N 
ATOM     44  C   UNL A   1      42.454  31.203  30.408  1.00  0.00     0.074 A 
ATOM     45  C   UNL A   1      41.274  32.038  30.373  1.00  0.00     0.031 C 
ATOM     46  C   UNL A   1      40.380  25.646  27.923  1.00  0.00     0.029 A 
ATOM     47  C   UNL A   1      41.725  25.963  28.392  1.00  0.00     0.049 A 
ATOM     48  H   UNL A   1      42.375  27.741  29.266  1.00  0.00     0.167 HD
ATOM     49  C   UNL A   1      43.658  31.603  30.884  1.00  0.00     0.037 A 
ATOM     50  C   UNL A   1      42.786  25.134  28.338  1.00  0.00     0.037 A 
ATOM     51  C   UNL A   1      44.825  30.760  30.941  1.00  0.00     0.049 A 
ATOM     52  C   UNL A   1      44.114  25.604  28.868  1.00  0.00     0.074 A 
ATOM     53  C   UNL A   1      46.078  31.058  31.449  1.00  0.00     0.029 A 
ATOM     54  N   UNL A   1      44.883  29.453  30.478  1.00  0.00    -0.354 N 
ATOM     55  N   UNL A   1      44.427  26.763  29.395  1.00  0.00    -0.248 NA
ATOM     56  C   UNL A   1      45.231  24.652  28.801  1.00  0.00     0.031 C 
ATOM     57  C   UNL A   1      46.903  29.944  31.261  1.00  0.00     0.029 A 
ATOM     58  C   UNL A   1      46.153  28.938  30.676  1.00  0.00     0.049 A 
ATOM     59  H   UNL A   1      44.132  28.966  30.069  1.00  0.00     0.167 HD
ATOM     60  C   UNL A   1      45.768  26.670  29.750  1.00  0.00     0.074 A 
ATOM     61  C   UNL A   1      46.205  25.337  29.387  1.00  0.00     0.031 C 
ATOM     62  C   UNL A   1      46.567  27.602  30.323  1.00  0.00     0.037 A 
BRANCH  49  63
ATOM     63  C   UNL A   1      43.775  33.011  31.398  1.00  0.00     0.058 A 
ATOM     64  C   UNL A   1      43.821  33.288  32.773  1.00  0.00     0.135 A 
ATOM     65  C   UNL A   1      43.895  34.092  30.508  1.00  0.00     0.135 A 
ATOM     66  F   UNL A   1      43.695  32.294  33.667  1.00  0.00    -0.206 F 
ATOM     67  C   UNL A   1      43.958  34.588  33.250  1.00  0.00     0.059 A 
ATOM     68  C   UNL A   1      44.060  35.396  30.962  1.00  0.00     0.059 A 
ATOM     69  F   UNL A   1      43.857  33.883  29.183  1.00  0.00    -0.206 F 
ATOM     70  C   UNL A   1      44.079  35.636  32.337  1.00  0.00     0.060 A 
BRANCH  70  71
ATOM     71  S   UNL A   1      44.276  37.314  32.973  1.00  0.00     0.124 S 
ATOM     72  O   UNL A   1      43.265  37.345  34.026  1.00  0.00    -0.237 OA
ATOM     73  O   UNL A   1      45.663  37.315  33.425  1.00  0.00    -0.237 OA
ATOM     74  O   UNL A   1      43.998  38.152  31.811  1.00  0.00    -0.744 OA
ENDBRANCH  70  71
ENDBRANCH  49  63
BRANCH  50  75
ATOM     75  C   UNL A   1      42.638  23.766  27.772  1.00  0.00     0.058 A 
ATOM     76  C   UNL A   1      42.461  22.655  28.610  1.00  0.00     0.135 A 
ATOM     77  C   UNL A   1      42.679  23.540  26.387  1.00  0.00     0.135 A 
ATOM     78  F   UNL A   1      42.421  22.820  29.941  1.00  0.00    -0.206 F 
ATOM     79  C   UNL A   1      42.358  21.365  28.099  1.00  0.00     0.059 A 
ATOM     80  C   UNL A   1      42.551  22.262  25.850  1.00  0.00     0.059 A 
ATOM     81  F   UNL A   1      42.828  24.571  25.540  1.00  0.00    -0.206 F 
ATOM     82  C   UNL A   1      42.406  21.179  26.717  1.00  0.00     0.060 A 
BRANCH  82  83
ATOM     83  S   UNL A   1      42.243  19.504  26.061  1.00  0.00     0.124 S 
ATOM     84  O   UNL A   1      42.703  18.702  27.189  1.00  0.00    -0.237 OA
ATOM     85  O   UNL A   1      40.817  19.427  25.762  1.00  0.00    -0.237 OA
ATOM     86  O   UNL A   1      43.121  19.515  24.894  1.00  0.00    -0.744 OA
ENDBRANCH  82  83
ENDBRANCH  50  75
BRANCH  62  87
ATOM     87  C   UNL A   1      47.983  27.205  30.635  1.00  0.00     0.058 A 
ATOM     88  C   UNL A   1      48.356  26.743  31.907  1.00  0.00     0.135 A 
ATOM     89  C   UNL A   1      48.966  27.237  29.633  1.00  0.00     0.135 A 
ATOM     90  F   UNL A   1      47.456  26.701  32.902  1.00  0.00    -0.206 F 
ATOM     91  C   UNL A   1      49.662  26.347  32.181  1.00  0.00     0.059 A 
ATOM     92  C   UNL A   1      50.270  26.820  29.878  1.00  0.00     0.059 A 
ATOM     93  F   UNL A   1      48.658  27.661  28.397  1.00  0.00    -0.206 F 
ATOM     94  C   UNL A   1      50.612  26.386  31.158  1.00  0.00     0.060 A 
BRANCH  94  95
ATOM     95  S   UNL A   1      52.292  25.834  31.515  1.00  0.00     0.124 S 
ATOM     96  O   UNL A   1      52.083  24.416  31.790  1.00  0.00    -0.237 OA
ATOM     97  O   UNL A   1      52.994  26.141  30.273  1.00  0.00    -0.237 OA
ATOM     98  O   UNL A   1      52.681  26.646  32.664  1.00  0.00    -0.744 OA
ENDBRANCH  94  95
ENDBRANCH  62  87
ENDBRANCH  36  37
ENDBRANCH  28  31
ENDBRANCH  26  27
ENDBRANCH  25  26
ENDBRANCH   1  25
TORSDOF 18
ENDMDL
MODEL 2
REMARK VINA RESULT:      -9.0      5.055     12.449
REMARK SMILES C=C(C)COc1ccc2c(C)c(CC(=O)NCCCCNC(=O)c3ccc(-c4c5nc(c(-c6c(F)cc(S(=O)(=O)[O-])cc6F)c6ccc([nH]6)c(-c6c(F)cc(S(=O)(=O)[O-])cc6F)c6nc(c(-c7c(F)cc(S(=O)(=O)[O-])cc7F)c7ccc4[nH]7)C=C6)C=C5)cc3)c(=O)oc2c1
REMARK SMILES IDX 18 1 17 2 16 3 14 4 15 5 13 7 12 8 6 9 7 10 94 11 8 12 93 13
REMARK SMILES IDX 9 14 92 15 10 16 90 17 11 18 91 19 5 20 4 21 2 22 1 23 3 24
REMARK SMILES IDX 19 25 20 26 21 27 22 28 23 30 24 31 25 32 89 33 26 34 88 35
REMARK SMILES IDX 27 36 28 37 29 38 82 39 30 40 87 41 81 42 83 43 31 44 86 45
REMARK SMILES IDX 80 46 79 47 32 49 66 50 45 51 65 52 46 53 49 54 64 55 84 56
REMARK SMILES IDX 47 57 48 58 63 60 85 61 50 62 33 63 34 64 43 65 35 66 36 67
REMARK SMILES IDX 42 68 44 69 37 70 38 71 39 72 40 73 41 74 67 75 68 76 77 77
REMARK SMILES IDX 69 78 70 79 76 80 78 81 71 82 72 83 73 84 74 85 75 86 51 87
REMARK SMILES IDX 52 88 61 89 53 90 54 91 60 92 62 93 55 94 56 95 57 96 58 97
REMARK SMILES IDX 59 98
REMARK H PARENT 16 6 21 29 83 48 49 59
REMARK Flexibility Score: inf
ROOT
ATOM      1  C   UNL A   1      37.598  22.142  25.693  1.00  0.00     0.023 C 
ENDROOT
BRANCH   1   2
ATOM      2  C   UNL A   1      37.063  21.717  24.325  1.00  0.00     0.116 C 
BRANCH   2   3
ATOM      3  N   UNL A   1      35.623  21.542  24.336  1.00  0.00    -0.356 N 
ATOM      4  C   UNL A   1      34.634  22.362  23.879  1.00  0.00     0.224 C 
ATOM      5  O   UNL A   1      33.465  21.993  24.012  1.00  0.00    -0.275 OA
ATOM      6  H   UNL A   1      35.310  20.698  24.737  1.00  0.00     0.163 HD
BRANCH   4   7
ATOM      7  C   UNL A   1      34.961  23.685  23.195  1.00  0.00     0.143 C 
BRANCH   7   8
ATOM      8  C   UNL A   1      33.894  24.734  23.405  1.00  0.00     0.051 A 
ATOM      9  C   UNL A   1      31.050  28.809  24.333  1.00  0.00     0.123 A 
ATOM     10  C   UNL A   1      31.597  28.455  25.565  1.00  0.00     0.047 A 
ATOM     11  C   UNL A   1      31.344  28.036  23.218  1.00  0.00     0.094 A 
ATOM     12  C   UNL A   1      32.416  27.318  25.679  1.00  0.00     0.016 A 
ATOM     13  C   UNL A   1      32.142  26.904  23.351  1.00  0.00     0.142 A 
ATOM     14  C   UNL A   1      32.707  26.521  24.562  1.00  0.00     0.021 A 
ATOM     15  O   UNL A   1      32.344  26.176  22.174  1.00  0.00    -0.422 OA
ATOM     16  C   UNL A   1      33.641  25.378  24.568  1.00  0.00    -0.029 A 
ATOM     17  C   UNL A   1      33.108  25.032  22.176  1.00  0.00     0.340 A 
ATOM     18  C   UNL A   1      34.317  25.039  25.872  1.00  0.00     0.046 C 
ATOM     19  O   UNL A   1      33.161  24.318  21.180  1.00  0.00    -0.246 OA
BRANCH   9  20
ATOM     20  O   UNL A   1      30.315  29.962  24.268  1.00  0.00    -0.489 OA
BRANCH  20  21
ATOM     21  C   UNL A   1      29.616  30.144  23.027  1.00  0.00     0.260 C 
BRANCH  21  22
ATOM     22  C   UNL A   1      28.127  30.364  23.203  1.00  0.00    -0.043 C 
ATOM     23  C   UNL A   1      27.587  31.575  23.428  1.00  0.00     0.011 C 
ATOM     24  C   UNL A   1      27.269  29.141  23.029  1.00  0.00     0.042 C 
ENDBRANCH  21  22
ENDBRANCH  20  21
ENDBRANCH   9  20
ENDBRANCH   7   8
ENDBRANCH   4   7
ENDBRANCH   2   3
ENDBRANCH   1   2
BRANCH   1  25
ATOM     25  C   UNL A   1      37.565  23.651  25.958  1.00  0.00     0.023 C 
BRANCH  25  26
ATOM     26  C   UNL A   1      38.744  24.205  26.753  1.00  0.00     0.116 C 
BRANCH  26  27
ATOM     27  N   UNL A   1      39.911  24.480  25.932  1.00  0.00    -0.352 N 
ATOM     28  C   UNL A   1      40.892  25.425  26.116  1.00  0.00     0.251 C 
ATOM     29  H   UNL A   1      40.014  23.912  25.134  1.00  0.00     0.163 HD
ATOM     30  O   UNL A   1      41.751  25.594  25.254  1.00  0.00    -0.269 OA
BRANCH  28  31
ATOM     31  C   UNL A   1      40.887  26.264  27.336  1.00  0.00     0.039 A 
ATOM     32  C   UNL A   1      41.745  27.366  27.398  1.00  0.00     0.014 A 
ATOM     33  C   UNL A   1      40.031  25.979  28.403  1.00  0.00     0.014 A 
ATOM     34  C   UNL A   1      41.691  28.224  28.499  1.00  0.00     0.010 A 
ATOM     35  C   UNL A   1      39.933  26.871  29.470  1.00  0.00     0.010 A 
ATOM     36  C   UNL A   1      40.758  28.006  29.526  1.00  0.00    -0.014 A 
BRANCH  36  37
ATOM     37  C   UNL A   1      40.617  28.960  30.657  1.00  0.00     0.031 A 
ATOM     38  C   UNL A   1      41.479  28.813  31.883  1.00  0.00     0.074 A 
ATOM     39  C   UNL A   1      39.669  29.917  30.608  1.00  0.00     0.049 A 
ATOM     40  N   UNL A   1      41.444  29.489  33.002  1.00  0.00    -0.248 NA
ATOM     41  C   UNL A   1      42.495  27.749  31.857  1.00  0.00     0.031 C 
ATOM     42  C   UNL A   1      38.741  30.135  29.496  1.00  0.00     0.029 A 
ATOM     43  N   UNL A   1      39.317  30.879  31.523  1.00  0.00    -0.354 N 
ATOM     44  C   UNL A   1      42.423  28.930  33.814  1.00  0.00     0.074 A 
ATOM     45  C   UNL A   1      43.000  27.825  33.080  1.00  0.00     0.031 C 
ATOM     46  C   UNL A   1      37.941  31.173  29.784  1.00  0.00     0.029 A 
ATOM     47  C   UNL A   1      38.270  31.673  31.115  1.00  0.00     0.049 A 
ATOM     48  H   UNL A   1      39.773  30.991  32.389  1.00  0.00     0.167 HD
ATOM     49  C   UNL A   1      42.822  29.317  35.050  1.00  0.00     0.037 A 
ATOM     50  C   UNL A   1      37.640  32.682  31.748  1.00  0.00     0.037 A 
ATOM     51  C   UNL A   1      42.262  30.434  35.767  1.00  0.00     0.049 A 
ATOM     52  C   UNL A   1      38.098  33.089  33.123  1.00  0.00     0.074 A 
ATOM     53  C   UNL A   1      42.631  30.933  37.004  1.00  0.00     0.029 A 
ATOM     54  N   UNL A   1      41.220  31.228  35.311  1.00  0.00    -0.354 N 
ATOM     55  N   UNL A   1      39.060  32.580  33.854  1.00  0.00    -0.248 NA
ATOM     56  C   UNL A   1      37.388  34.208  33.757  1.00  0.00     0.031 C 
ATOM     57  C   UNL A   1      41.788  32.006  37.312  1.00  0.00     0.029 A 
ATOM     58  C   UNL A   1      40.924  32.203  36.248  1.00  0.00     0.049 A 
ATOM     59  H   UNL A   1      40.760  31.114  34.448  1.00  0.00     0.167 HD
ATOM     60  C   UNL A   1      39.092  33.336  35.020  1.00  0.00     0.074 A 
ATOM     61  C   UNL A   1      38.059  34.344  34.893  1.00  0.00     0.031 C 
ATOM     62  C   UNL A   1      39.902  33.209  36.099  1.00  0.00     0.037 A 
BRANCH  49  63
ATOM     63  C   UNL A   1      43.927  28.535  35.704  1.00  0.00     0.058 A 
ATOM     64  C   UNL A   1      45.272  28.914  35.568  1.00  0.00     0.135 A 
ATOM     65  C   UNL A   1      43.639  27.428  36.519  1.00  0.00     0.135 A 
ATOM     66  F   UNL A   1      45.605  29.956  34.789  1.00  0.00    -0.206 F 
ATOM     67  C   UNL A   1      46.294  28.210  36.196  1.00  0.00     0.059 A 
ATOM     68  C   UNL A   1      44.642  26.726  37.179  1.00  0.00     0.059 A 
ATOM     69  F   UNL A   1      42.370  27.023  36.684  1.00  0.00    -0.206 F 
ATOM     70  C   UNL A   1      45.969  27.118  37.002  1.00  0.00     0.060 A 
BRANCH  70  71
ATOM     71  S   UNL A   1      47.307  26.227  37.824  1.00  0.00     0.124 S 
ATOM     72  O   UNL A   1      46.614  25.665  38.980  1.00  0.00    -0.237 OA
ATOM     73  O   UNL A   1      47.717  25.268  36.803  1.00  0.00    -0.237 OA
ATOM     74  O   UNL A   1      48.278  27.273  38.123  1.00  0.00    -0.744 OA
ENDBRANCH  70  71
ENDBRANCH  49  63
BRANCH  50  75
ATOM     75  C   UNL A   1      36.514  33.394  31.084  1.00  0.00     0.058 A 
ATOM     76  C   UNL A   1      35.192  33.211  31.515  1.00  0.00     0.135 A 
ATOM     77  C   UNL A   1      36.735  34.262  30.004  1.00  0.00     0.135 A 
ATOM     78  F   UNL A   1      34.929  32.387  32.540  1.00  0.00    -0.206 F 
ATOM     79  C   UNL A   1      34.125  33.841  30.883  1.00  0.00     0.059 A 
ATOM     80  C   UNL A   1      35.687  34.925  29.371  1.00  0.00     0.059 A 
ATOM     81  F   UNL A   1      37.984  34.487  29.564  1.00  0.00    -0.206 F 
ATOM     82  C   UNL A   1      34.383  34.695  29.810  1.00  0.00     0.060 A 
BRANCH  82  83
ATOM     83  S   UNL A   1      32.994  35.531  29.012  1.00  0.00     0.124 S 
ATOM     84  O   UNL A   1      33.662  36.659  28.370  1.00  0.00    -0.237 OA
ATOM     85  O   UNL A   1      32.485  34.497  28.117  1.00  0.00    -0.237 OA
ATOM     86  O   UNL A   1      32.119  35.868  30.131  1.00  0.00    -0.744 OA
ENDBRANCH  82  83
ENDBRANCH  50  75
BRANCH  62  87
ATOM     87  C   UNL A   1      39.736  34.206  37.212  1.00  0.00     0.058 A 
ATOM     88  C   UNL A   1      38.967  33.919  38.351  1.00  0.00     0.135 A 
ATOM     89  C   UNL A   1      40.399  35.443  37.161  1.00  0.00     0.135 A 
ATOM     90  F   UNL A   1      38.308  32.754  38.446  1.00  0.00    -0.206 F 
ATOM     91  C   UNL A   1      38.844  34.834  39.393  1.00  0.00     0.059 A 
ATOM     92  C   UNL A   1      40.311  36.361  38.203  1.00  0.00     0.059 A 
ATOM     93  F   UNL A   1      41.155  35.762  36.099  1.00  0.00    -0.206 F 
ATOM     94  C   UNL A   1      39.522  36.051  39.310  1.00  0.00     0.060 A 
BRANCH  94  95
ATOM     95  S   UNL A   1      39.385  37.214  40.684  1.00  0.00     0.124 S 
ATOM     96  O   UNL A   1      38.860  36.357  41.743  1.00  0.00    -0.237 OA
ATOM     97  O   UNL A   1      40.764  37.660  40.856  1.00  0.00    -0.237 OA
ATOM     98  O   UNL A   1      38.464  38.228  40.181  1.00  0.00    -0.744 OA
ENDBRANCH  94  95
ENDBRANCH  62  87
ENDBRANCH  36  37
ENDBRANCH  28  31
ENDBRANCH  26  27
ENDBRANCH  25  26
ENDBRANCH   1  25
TORSDOF 18
ENDMDL
MODEL 3
REMARK VINA RESULT:      -8.9      4.368      7.360
REMARK SMILES C=C(C)COc1ccc2c(C)c(CC(=O)NCCCCNC(=O)c3ccc(-c4c5nc(c(-c6c(F)cc(S(=O)(=O)[O-])cc6F)c6ccc([nH]6)c(-c6c(F)cc(S(=O)(=O)[O-])cc6F)c6nc(c(-c7c(F)cc(S(=O)(=O)[O-])cc7F)c7ccc4[nH]7)C=C6)C=C5)cc3)c(=O)oc2c1
REMARK SMILES IDX 18 1 17 2 16 3 14 4 15 5 13 7 12 8 6 9 7 10 94 11 8 12 93 13
REMARK SMILES IDX 9 14 92 15 10 16 90 17 11 18 91 19 5 20 4 21 2 22 1 23 3 24
REMARK SMILES IDX 19 25 20 26 21 27 22 28 23 30 24 31 25 32 89 33 26 34 88 35
REMARK SMILES IDX 27 36 28 37 29 38 82 39 30 40 87 41 81 42 83 43 31 44 86 45
REMARK SMILES IDX 80 46 79 47 32 49 66 50 45 51 65 52 46 53 49 54 64 55 84 56
REMARK SMILES IDX 47 57 48 58 63 60 85 61 50 62 33 63 34 64 43 65 35 66 36 67
REMARK SMILES IDX 42 68 44 69 37 70 38 71 39 72 40 73 41 74 67 75 68 76 77 77
REMARK SMILES IDX 69 78 70 79 76 80 78 81 71 82 72 83 73 84 74 85 75 86 51 87
REMARK SMILES IDX 52 88 61 89 53 90 54 91 60 92 62 93 55 94 56 95 57 96 58 97
REMARK SMILES IDX 59 98
REMARK H PARENT 16 6 21 29 83 48 49 59
REMARK Flexibility Score: inf
ROOT
ATOM      1  C   UNL A   1      34.604  30.332  27.634  1.00  0.00     0.023 C 
ENDROOT
BRANCH   1   2
ATOM      2  C   UNL A   1      33.322  30.059  26.845  1.00  0.00     0.116 C 
BRANCH   2   3
ATOM      3  N   UNL A   1      33.597  29.747  25.455  1.00  0.00    -0.356 N 
ATOM      4  C   UNL A   1      32.817  29.127  24.523  1.00  0.00     0.224 C 
ATOM      5  O   UNL A   1      33.282  28.964  23.393  1.00  0.00    -0.275 OA
ATOM      6  H   UNL A   1      34.485  30.025  25.134  1.00  0.00     0.163 HD
BRANCH   4   7
ATOM      7  C   UNL A   1      31.400  28.675  24.857  1.00  0.00     0.143 C 
BRANCH   7   8
ATOM      8  C   UNL A   1      31.288  27.178  25.036  1.00  0.00     0.051 A 
ATOM      9  C   UNL A   1      31.742  22.146  25.170  1.00  0.00     0.123 A 
ATOM     10  C   UNL A   1      31.574  22.462  23.824  1.00  0.00     0.047 A 
ATOM     11  C   UNL A   1      31.727  23.166  26.110  1.00  0.00     0.094 A 
ATOM     12  C   UNL A   1      31.368  23.796  23.428  1.00  0.00     0.016 A 
ATOM     13  C   UNL A   1      31.505  24.478  25.704  1.00  0.00     0.142 A 
ATOM     14  C   UNL A   1      31.336  24.834  24.371  1.00  0.00     0.021 A 
ATOM     15  O   UNL A   1      31.470  25.424  26.734  1.00  0.00    -0.422 OA
ATOM     16  C   UNL A   1      31.235  26.268  24.035  1.00  0.00    -0.029 A 
ATOM     17  C   UNL A   1      31.251  26.754  26.462  1.00  0.00     0.340 A 
ATOM     18  C   UNL A   1      31.149  26.637  22.577  1.00  0.00     0.046 C 
ATOM     19  O   UNL A   1      31.074  27.555  27.375  1.00  0.00    -0.246 OA
BRANCH   9  20
ATOM     20  O   UNL A   1      32.005  20.841  25.491  1.00  0.00    -0.489 OA
BRANCH  20  21
ATOM     21  C   UNL A   1      33.013  20.227  24.673  1.00  0.00     0.260 C 
BRANCH  21  22
ATOM     22  C   UNL A   1      32.597  18.879  24.116  1.00  0.00    -0.043 C 
ATOM     23  C   UNL A   1      32.477  17.778  24.878  1.00  0.00     0.011 C 
ATOM     24  C   UNL A   1      32.244  18.866  22.654  1.00  0.00     0.042 C 
ENDBRANCH  21  22
ENDBRANCH  20  21
ENDBRANCH   9  20
ENDBRANCH   7   8
ENDBRANCH   4   7
ENDBRANCH   2   3
ENDBRANCH   1   2
BRANCH   1  25
ATOM     25  C   UNL A   1      34.952  31.815  27.806  1.00  0.00     0.023 C 
BRANCH  25  26
ATOM     26  C   UNL A   1      35.955  32.131  28.912  1.00  0.00     0.116 C 
BRANCH  26  27
ATOM     27  N   UNL A   1      35.706  31.394  30.140  1.00  0.00    -0.352 N 
ATOM     28  C   UNL A   1      36.529  30.509  30.795  1.00  0.00     0.251 C 
ATOM     29  H   UNL A   1      34.829  31.549  30.559  1.00  0.00     0.163 HD
ATOM     30  O   UNL A   1      36.109  29.886  31.768  1.00  0.00    -0.269 OA
BRANCH  28  31
ATOM     31  C   UNL A   1      37.907  30.281  30.305  1.00  0.00     0.039 A 
ATOM     32  C   UNL A   1      38.959  30.285  31.225  1.00  0.00     0.014 A 
ATOM     33  C   UNL A   1      38.159  30.046  28.951  1.00  0.00     0.014 A 
ATOM     34  C   UNL A   1      40.254  29.981  30.798  1.00  0.00     0.010 A 
ATOM     35  C   UNL A   1      39.439  29.679  28.538  1.00  0.00     0.010 A 
ATOM     36  C   UNL A   1      40.498  29.636  29.459  1.00  0.00    -0.014 A 
BRANCH  36  37
ATOM     37  C   UNL A   1      41.849  29.215  29.003  1.00  0.00     0.031 A 
ATOM     38  C   UNL A   1      42.964  30.222  28.906  1.00  0.00     0.074 A 
ATOM     39  C   UNL A   1      42.054  27.940  28.616  1.00  0.00     0.049 A 
ATOM     40  N   UNL A   1      44.180  30.065  28.451  1.00  0.00    -0.248 NA
ATOM     41  C   UNL A   1      42.663  31.591  29.354  1.00  0.00     0.031 C 
ATOM     42  C   UNL A   1      41.043  26.880  28.622  1.00  0.00     0.029 A 
ATOM     43  N   UNL A   1      43.178  27.320  28.128  1.00  0.00    -0.354 N 
ATOM     44  C   UNL A   1      44.786  31.312  28.549  1.00  0.00     0.074 A 
ATOM     45  C   UNL A   1      43.788  32.227  29.058  1.00  0.00     0.031 C 
ATOM     46  C   UNL A   1      41.596  25.740  28.178  1.00  0.00     0.029 A 
ATOM     47  C   UNL A   1      42.988  25.993  27.820  1.00  0.00     0.049 A 
ATOM     48  H   UNL A   1      44.040  27.782  28.012  1.00  0.00     0.167 HD
ATOM     49  C   UNL A   1      46.064  31.658  28.263  1.00  0.00     0.037 A 
ATOM     50  C   UNL A   1      43.837  25.085  27.299  1.00  0.00     0.037 A 
ATOM     51  C   UNL A   1      47.062  30.738  27.781  1.00  0.00     0.049 A 
ATOM     52  C   UNL A   1      45.251  25.497  26.985  1.00  0.00     0.074 A 
ATOM     53  C   UNL A   1      48.397  30.982  27.507  1.00  0.00     0.029 A 
ATOM     54  N   UNL A   1      46.838  29.397  27.504  1.00  0.00    -0.354 N 
ATOM     55  N   UNL A   1      45.820  26.669  27.133  1.00  0.00    -0.248 NA
ATOM     56  C   UNL A   1      46.139  24.462  26.437  1.00  0.00     0.031 C 
ATOM     57  C   UNL A   1      48.970  29.799  27.031  1.00  0.00     0.029 A 
ATOM     58  C   UNL A   1      48.005  28.806  27.050  1.00  0.00     0.049 A 
ATOM     59  H   UNL A   1      45.976  28.935  27.615  1.00  0.00     0.167 HD
ATOM     60  C   UNL A   1      47.139  26.505  26.726  1.00  0.00     0.074 A 
ATOM     61  C   UNL A   1      47.287  25.118  26.335  1.00  0.00     0.031 C 
ATOM     62  C   UNL A   1      48.139  27.419  26.679  1.00  0.00     0.037 A 
BRANCH  49  63
ATOM     63  C   UNL A   1      46.465  33.091  28.478  1.00  0.00     0.058 A 
ATOM     64  C   UNL A   1      46.355  34.044  27.452  1.00  0.00     0.135 A 
ATOM     65  C   UNL A   1      46.914  33.531  29.734  1.00  0.00     0.135 A 
ATOM     66  F   UNL A   1      45.946  33.675  26.228  1.00  0.00    -0.206 F 
ATOM     67  C   UNL A   1      46.697  35.376  27.657  1.00  0.00     0.059 A 
ATOM     68  C   UNL A   1      47.235  34.864  29.969  1.00  0.00     0.059 A 
ATOM     69  F   UNL A   1      47.038  32.662  30.749  1.00  0.00    -0.206 F 
ATOM     70  C   UNL A   1      47.134  35.778  28.920  1.00  0.00     0.060 A 
BRANCH  70  71
ATOM     71  S   UNL A   1      47.556  37.515  29.173  1.00  0.00     0.124 S 
ATOM     72  O   UNL A   1      48.395  37.783  28.008  1.00  0.00    -0.237 OA
ATOM     73  O   UNL A   1      46.246  38.157  29.172  1.00  0.00    -0.237 OA
ATOM     74  O   UNL A   1      48.249  37.513  30.457  1.00  0.00    -0.744 OA
ENDBRANCH  70  71
ENDBRANCH  49  63
BRANCH  50  75
ATOM     75  C   UNL A   1      43.383  23.690  27.053  1.00  0.00     0.058 A 
ATOM     76  C   UNL A   1      43.052  23.257  25.760  1.00  0.00     0.135 A 
ATOM     77  C   UNL A   1      43.261  22.766  28.102  1.00  0.00     0.135 A 
ATOM     78  F   UNL A   1      43.147  24.106  24.725  1.00  0.00    -0.206 F 
ATOM     79  C   UNL A   1      42.592  21.967  25.518  1.00  0.00     0.059 A 
ATOM     80  C   UNL A   1      42.828  21.461  27.882  1.00  0.00     0.059 A 
ATOM     81  F   UNL A   1      43.583  23.124  29.356  1.00  0.00    -0.206 F 
ATOM     82  C   UNL A   1      42.481  21.077  26.587  1.00  0.00     0.060 A 
BRANCH  82  83
ATOM     83  S   UNL A   1      41.908  19.395  26.260  1.00  0.00     0.124 S 
ATOM     84  O   UNL A   1      42.361  18.695  27.458  1.00  0.00    -0.237 OA
ATOM     85  O   UNL A   1      40.466  19.579  26.135  1.00  0.00    -0.237 OA
ATOM     86  O   UNL A   1      42.598  19.042  25.023  1.00  0.00    -0.744 OA
ENDBRANCH  82  83
ENDBRANCH  50  75
BRANCH  62  87
ATOM     87  C   UNL A   1      49.493  26.944  26.230  1.00  0.00     0.058 A 
ATOM     88  C   UNL A   1      50.376  26.298  27.108  1.00  0.00     0.135 A 
ATOM     89  C   UNL A   1      49.887  27.091  24.890  1.00  0.00     0.135 A 
ATOM     90  F   UNL A   1      50.050  26.140  28.400  1.00  0.00    -0.206 F 
ATOM     91  C   UNL A   1      51.615  25.832  26.678  1.00  0.00     0.059 A 
ATOM     92  C   UNL A   1      51.109  26.609  24.433  1.00  0.00     0.059 A 
ATOM     93  F   UNL A   1      49.073  27.693  24.008  1.00  0.00    -0.206 F 
ATOM     94  C   UNL A   1      51.971  25.990  25.337  1.00  0.00     0.060 A 
BRANCH  94  95
ATOM     95  S   UNL A   1      53.564  25.348  24.782  1.00  0.00     0.124 S 
ATOM     96  O   UNL A   1      53.465  25.524  23.337  1.00  0.00    -0.237 OA
ATOM     97  O   UNL A   1      54.511  26.225  25.463  1.00  0.00    -0.237 OA
ATOM     98  O   UNL A   1      53.555  23.965  25.249  1.00  0.00    -0.744 OA
ENDBRANCH  94  95
ENDBRANCH  62  87
ENDBRANCH  36  37
ENDBRANCH  28  31
ENDBRANCH  26  27
ENDBRANCH  25  26
ENDBRANCH   1  25
TORSDOF 18
ENDMDL
