MODEL 1
REMARK VINA RESULT:     -11.4      0.000      0.000
REMARK SMILES N#Cc1c2ccccc2cn1CCCCC(=O)NCCCCNC(=O)c1ccc(-c2c3nc(c(-c4c(F)cc(S(=O)(=O)[O-])cc4F)c4ccc([nH]4)c(-c4c(F)cc(S(=O)(=O)[O-])cc4F)c4nc(c(-c5c(F)cc(S(=O)(=O)[O-])cc5F)c5ccc2[nH]5)C=C4)C=C3)cc1
REMARK SMILES IDX 19 1 18 2 16 3 17 4 15 6 14 7 13 8 12 9 11 10 3 11 4 12 5 13
REMARK SMILES IDX 9 14 10 15 6 16 8 17 7 18 2 19 1 20 20 21 21 22 22 23 23 24
REMARK SMILES IDX 24 25 25 27 26 28 27 29 91 30 28 31 90 32 29 33 30 34 31 35
REMARK SMILES IDX 84 36 32 37 89 38 83 39 85 40 33 41 88 42 82 43 81 44 34 46
REMARK SMILES IDX 68 47 47 48 67 49 48 50 51 51 66 52 86 53 49 54 50 55 65 57
REMARK SMILES IDX 87 58 52 59 35 60 36 61 45 62 37 63 38 64 44 65 46 66 39 67
REMARK SMILES IDX 40 68 41 69 42 70 43 71 69 72 70 73 79 74 71 75 72 76 78 77
REMARK SMILES IDX 80 78 73 79 74 80 75 81 76 82 77 83 53 84 54 85 63 86 55 87
REMARK SMILES IDX 56 88 62 89 64 90 57 91 58 92 59 93 60 94 61 95
REMARK H PARENT 18 5 23 26 85 45 51 56
REMARK Flexibility Score: inf
ROOT
ATOM      1  C   UNL A   1      40.138  21.250  26.336  1.00  0.00     0.116 C 
ENDROOT
BRANCH   1   2
ATOM      2  N   UNL A   1      39.569  22.579  26.350  1.00  0.00    -0.356 N 
ATOM      3  C   UNL A   1      38.304  22.997  26.076  1.00  0.00     0.219 C 
ATOM      4  O   UNL A   1      38.031  24.182  26.278  1.00  0.00    -0.275 OA
ATOM      5  H   UNL A   1      40.198  23.295  26.595  1.00  0.00     0.163 HD
BRANCH   3   6
ATOM      6  C   UNL A   1      37.239  22.037  25.578  1.00  0.00     0.100 C 
BRANCH   6   7
ATOM      7  C   UNL A   1      35.798  22.544  25.681  1.00  0.00     0.012 C 
BRANCH   7   8
ATOM      8  C   UNL A   1      35.144  23.124  24.419  1.00  0.00     0.022 C 
BRANCH   8   9
ATOM      9  C   UNL A   1      33.645  23.447  24.477  1.00  0.00     0.123 C 
BRANCH   9  10
ATOM     10  N   UNL A   1      33.354  24.809  24.878  1.00  0.00    -0.338 N 
ATOM     11  C   UNL A   1      32.424  25.198  25.824  1.00  0.00     0.128 A 
ATOM     12  C   UNL A   1      32.370  26.570  25.763  1.00  0.00     0.018 A 
ATOM     13  C   UNL A   1      31.514  27.412  26.463  1.00  0.00     0.012 A 
ATOM     14  C   UNL A   1      33.354  27.003  24.829  1.00  0.00     0.001 A 
ATOM     15  C   UNL A   1      34.016  25.904  24.363  1.00  0.00     0.095 A 
ATOM     16  C   UNL A   1      31.737  28.756  26.083  1.00  0.00     0.001 A 
ATOM     17  C   UNL A   1      33.610  28.309  24.451  1.00  0.00     0.010 A 
ATOM     18  C   UNL A   1      32.728  29.180  25.124  1.00  0.00     0.001 A 
BRANCH  11  19
ATOM     19  C   UNL A   1      31.680  24.310  26.660  1.00  0.00     0.118 C 
ATOM     20  N   UNL A   1      31.045  23.595  27.304  1.00  0.00    -0.191 NA
ENDBRANCH  11  19
ENDBRANCH   9  10
ENDBRANCH   8   9
ENDBRANCH   7   8
ENDBRANCH   6   7
ENDBRANCH   3   6
ENDBRANCH   1   2
BRANCH   1  21
ATOM     21  C   UNL A   1      41.135  21.029  27.474  1.00  0.00     0.023 C 
BRANCH  21  22
ATOM     22  C   UNL A   1      42.275  20.065  27.142  1.00  0.00     0.023 C 
BRANCH  22  23
ATOM     23  C   UNL A   1      42.177  19.441  25.751  1.00  0.00     0.116 C 
BRANCH  23  24
ATOM     24  N   UNL A   1      43.390  19.573  24.976  1.00  0.00    -0.352 N 
ATOM     25  C   UNL A   1      44.422  20.470  24.991  1.00  0.00     0.251 C 
ATOM     26  H   UNL A   1      43.494  18.870  24.294  1.00  0.00     0.163 HD
ATOM     27  O   UNL A   1      45.452  20.106  24.419  1.00  0.00    -0.269 OA
BRANCH  25  28
ATOM     28  C   UNL A   1      44.353  21.848  25.550  1.00  0.00     0.039 A 
ATOM     29  C   UNL A   1      45.098  22.335  26.622  1.00  0.00     0.014 A 
ATOM     30  C   UNL A   1      43.352  22.673  24.999  1.00  0.00     0.014 A 
ATOM     31  C   UNL A   1      44.736  23.536  27.228  1.00  0.00     0.010 A 
ATOM     32  C   UNL A   1      43.016  23.891  25.576  1.00  0.00     0.010 A 
ATOM     33  C   UNL A   1      43.648  24.282  26.745  1.00  0.00    -0.014 A 
BRANCH  33  34
ATOM     34  C   UNL A   1      43.365  25.591  27.339  1.00  0.00     0.031 A 
ATOM     35  C   UNL A   1      44.431  26.563  26.970  1.00  0.00     0.074 A 
ATOM     36  C   UNL A   1      42.261  25.913  28.059  1.00  0.00     0.049 A 
ATOM     37  N   UNL A   1      45.387  26.972  27.738  1.00  0.00    -0.248 NA
ATOM     38  C   UNL A   1      44.642  26.890  25.548  1.00  0.00     0.031 C 
ATOM     39  C   UNL A   1      41.086  25.085  28.341  1.00  0.00     0.029 A 
ATOM     40  N   UNL A   1      41.929  27.097  28.674  1.00  0.00    -0.354 N 
ATOM     41  C   UNL A   1      46.127  27.862  26.968  1.00  0.00     0.074 A 
ATOM     42  C   UNL A   1      45.780  27.589  25.599  1.00  0.00     0.031 C 
ATOM     43  C   UNL A   1      40.088  25.847  28.853  1.00  0.00     0.029 A 
ATOM     44  C   UNL A   1      40.582  27.194  29.079  1.00  0.00     0.049 A 
ATOM     45  H   UNL A   1      42.579  27.821  28.818  1.00  0.00     0.167 HD
ATOM     46  C   UNL A   1      46.687  28.952  27.558  1.00  0.00     0.037 A 
ATOM     47  C   UNL A   1      39.941  28.284  29.603  1.00  0.00     0.037 A 
ATOM     48  C   UNL A   1      46.785  28.755  28.985  1.00  0.00     0.049 A 
ATOM     49  C   UNL A   1      41.001  29.154  30.172  1.00  0.00     0.074 A 
ATOM     50  C   UNL A   1      47.424  27.859  29.818  1.00  0.00     0.029 A 
ATOM     51  N   UNL A   1      45.789  29.329  29.733  1.00  0.00    -0.354 N 
ATOM     52  N   UNL A   1      41.731  28.812  31.198  1.00  0.00    -0.248 NA
ATOM     53  C   UNL A   1      41.579  30.141  29.279  1.00  0.00     0.031 C 
ATOM     54  C   UNL A   1      46.512  27.628  30.891  1.00  0.00     0.029 A 
ATOM     55  C   UNL A   1      45.409  28.466  30.722  1.00  0.00     0.049 A 
ATOM     56  H   UNL A   1      45.406  30.224  29.580  1.00  0.00     0.167 HD
ATOM     57  C   UNL A   1      43.020  29.166  30.832  1.00  0.00     0.074 A 
ATOM     58  C   UNL A   1      42.855  30.022  29.653  1.00  0.00     0.031 C 
ATOM     59  C   UNL A   1      44.097  28.490  31.330  1.00  0.00     0.037 A 
BRANCH  46  60
ATOM     60  C   UNL A   1      46.646  30.339  26.945  1.00  0.00     0.058 A 
ATOM     61  C   UNL A   1      47.817  31.127  26.970  1.00  0.00     0.135 A 
ATOM     62  C   UNL A   1      45.458  31.034  26.623  1.00  0.00     0.135 A 
ATOM     63  F   UNL A   1      49.001  30.582  27.292  1.00  0.00    -0.206 F 
ATOM     64  C   UNL A   1      47.796  32.505  26.747  1.00  0.00     0.059 A 
ATOM     65  C   UNL A   1      45.424  32.397  26.350  1.00  0.00     0.059 A 
ATOM     66  F   UNL A   1      44.253  30.455  26.643  1.00  0.00    -0.206 F 
ATOM     67  C   UNL A   1      46.592  33.131  26.438  1.00  0.00     0.060 A 
BRANCH  67  68
ATOM     68  S   UNL A   1      46.562  34.910  26.172  1.00  0.00     0.124 S 
ATOM     69  O   UNL A   1      47.485  35.057  25.053  1.00  0.00    -0.237 OA
ATOM     70  O   UNL A   1      45.152  35.138  25.875  1.00  0.00    -0.237 OA
ATOM     71  O   UNL A   1      47.023  35.449  27.449  1.00  0.00    -0.744 OA
ENDBRANCH  67  68
ENDBRANCH  46  60
BRANCH  47  72
ATOM     72  C   UNL A   1      38.591  28.855  29.261  1.00  0.00     0.058 A 
ATOM     73  C   UNL A   1      37.644  29.188  30.260  1.00  0.00     0.135 A 
ATOM     74  C   UNL A   1      38.327  29.383  27.985  1.00  0.00     0.135 A 
ATOM     75  F   UNL A   1      37.806  28.748  31.517  1.00  0.00    -0.206 F 
ATOM     76  C   UNL A   1      36.550  30.041  30.022  1.00  0.00     0.059 A 
ATOM     77  C   UNL A   1      37.245  30.232  27.722  1.00  0.00     0.059 A 
ATOM     78  F   UNL A   1      39.169  29.160  26.965  1.00  0.00    -0.206 F 
ATOM     79  C   UNL A   1      36.375  30.582  28.749  1.00  0.00     0.060 A 
BRANCH  79  80
ATOM     80  S   UNL A   1      35.081  31.822  28.461  1.00  0.00     0.124 S 
ATOM     81  O   UNL A   1      34.078  31.054  27.729  1.00  0.00    -0.237 OA
ATOM     82  O   UNL A   1      34.716  32.215  29.817  1.00  0.00    -0.237 OA
ATOM     83  O   UNL A   1      35.765  32.851  27.681  1.00  0.00    -0.744 OA
ENDBRANCH  79  80
ENDBRANCH  47  72
BRANCH  59  84
ATOM     84  C   UNL A   1      43.896  27.591  32.525  1.00  0.00     0.058 A 
ATOM     85  C   UNL A   1      43.666  28.021  33.844  1.00  0.00     0.135 A 
ATOM     86  C   UNL A   1      43.766  26.218  32.268  1.00  0.00     0.135 A 
ATOM     87  F   UNL A   1      43.690  29.326  34.158  1.00  0.00    -0.206 F 
ATOM     88  C   UNL A   1      43.340  27.118  34.864  1.00  0.00     0.059 A 
ATOM     89  C   UNL A   1      43.412  25.308  33.258  1.00  0.00     0.059 A 
ATOM     90  F   UNL A   1      43.923  25.752  31.019  1.00  0.00    -0.206 F 
ATOM     91  C   UNL A   1      43.209  25.763  34.557  1.00  0.00     0.060 A 
BRANCH  91  92
ATOM     92  S   UNL A   1      42.724  24.596  35.849  1.00  0.00     0.124 S 
ATOM     93  O   UNL A   1      41.273  24.563  35.706  1.00  0.00    -0.237 OA
ATOM     94  O   UNL A   1      43.429  23.379  35.455  1.00  0.00    -0.237 OA
ATOM     95  O   UNL A   1      43.215  25.219  37.077  1.00  0.00    -0.744 OA
ENDBRANCH  91  92
ENDBRANCH  59  84
ENDBRANCH  33  34
ENDBRANCH  25  28
ENDBRANCH  23  24
ENDBRANCH  22  23
ENDBRANCH  21  22
ENDBRANCH   1  21
TORSDOF 19
ENDMDL
MODEL 2
REMARK VINA RESULT:     -11.2      2.535      3.916
REMARK SMILES N#Cc1c2ccccc2cn1CCCCC(=O)NCCCCNC(=O)c1ccc(-c2c3nc(c(-c4c(F)cc(S(=O)(=O)[O-])cc4F)c4ccc([nH]4)c(-c4c(F)cc(S(=O)(=O)[O-])cc4F)c4nc(c(-c5c(F)cc(S(=O)(=O)[O-])cc5F)c5ccc2[nH]5)C=C4)C=C3)cc1
REMARK SMILES IDX 19 1 18 2 16 3 17 4 15 6 14 7 13 8 12 9 11 10 3 11 4 12 5 13
REMARK SMILES IDX 9 14 10 15 6 16 8 17 7 18 2 19 1 20 20 21 21 22 22 23 23 24
REMARK SMILES IDX 24 25 25 27 26 28 27 29 91 30 28 31 90 32 29 33 30 34 31 35
REMARK SMILES IDX 84 36 32 37 89 38 83 39 85 40 33 41 88 42 82 43 81 44 34 46
REMARK SMILES IDX 68 47 47 48 67 49 48 50 51 51 66 52 86 53 49 54 50 55 65 57
REMARK SMILES IDX 87 58 52 59 35 60 36 61 45 62 37 63 38 64 44 65 46 66 39 67
REMARK SMILES IDX 40 68 41 69 42 70 43 71 69 72 70 73 79 74 71 75 72 76 78 77
REMARK SMILES IDX 80 78 73 79 74 80 75 81 76 82 77 83 53 84 54 85 63 86 55 87
REMARK SMILES IDX 56 88 62 89 64 90 57 91 58 92 59 93 60 94 61 95
REMARK H PARENT 18 5 23 26 85 45 51 56
REMARK Flexibility Score: inf
ROOT
ATOM      1  C   UNL A   1      34.505  23.640  24.832  1.00  0.00     0.116 C 
ENDROOT
BRANCH   1   2
ATOM      2  N   UNL A   1      33.802  23.765  26.088  1.00  0.00    -0.356 N 
ATOM      3  C   UNL A   1      32.692  23.125  26.543  1.00  0.00     0.219 C 
ATOM      4  O   UNL A   1      32.351  23.317  27.712  1.00  0.00    -0.275 OA
ATOM      5  H   UNL A   1      34.189  24.418  26.715  1.00  0.00     0.163 HD
BRANCH   3   6
ATOM      6  C   UNL A   1      31.910  22.166  25.663  1.00  0.00     0.100 C 
BRANCH   6   7
ATOM      7  C   UNL A   1      30.752  22.789  24.880  1.00  0.00     0.012 C 
BRANCH   7   8
ATOM      8  C   UNL A   1      31.076  23.520  23.569  1.00  0.00     0.022 C 
BRANCH   8   9
ATOM      9  C   UNL A   1      30.523  24.941  23.390  1.00  0.00     0.123 C 
BRANCH   9  10
ATOM     10  N   UNL A   1      31.205  25.940  24.187  1.00  0.00    -0.338 N 
ATOM     11  C   UNL A   1      32.404  26.552  23.873  1.00  0.00     0.128 A 
ATOM     12  C   UNL A   1      32.751  27.297  24.974  1.00  0.00     0.018 A 
ATOM     13  C   UNL A   1      33.923  28.020  25.169  1.00  0.00     0.012 A 
ATOM     14  C   UNL A   1      31.691  27.197  25.920  1.00  0.00     0.001 A 
ATOM     15  C   UNL A   1      30.703  26.429  25.375  1.00  0.00     0.095 A 
ATOM     16  C   UNL A   1      33.923  28.608  26.455  1.00  0.00     0.001 A 
ATOM     17  C   UNL A   1      31.652  27.774  27.176  1.00  0.00     0.010 A 
ATOM     18  C   UNL A   1      32.847  28.486  27.410  1.00  0.00     0.001 A 
BRANCH  11  19
ATOM     19  C   UNL A   1      33.111  26.394  22.642  1.00  0.00     0.118 C 
ATOM     20  N   UNL A   1      33.722  26.260  21.673  1.00  0.00    -0.191 NA
ENDBRANCH  11  19
ENDBRANCH   9  10
ENDBRANCH   8   9
ENDBRANCH   7   8
ENDBRANCH   6   7
ENDBRANCH   3   6
ENDBRANCH   1   2
BRANCH   1  21
ATOM     21  C   UNL A   1      35.980  24.025  24.945  1.00  0.00     0.023 C 
BRANCH  21  22
ATOM     22  C   UNL A   1      36.959  22.927  24.525  1.00  0.00     0.023 C 
BRANCH  22  23
ATOM     23  C   UNL A   1      37.591  22.176  25.697  1.00  0.00     0.116 C 
BRANCH  23  24
ATOM     24  N   UNL A   1      39.025  22.036  25.582  1.00  0.00    -0.352 N 
ATOM     25  C   UNL A   1      40.079  22.565  26.274  1.00  0.00     0.251 C 
ATOM     26  H   UNL A   1      39.300  21.434  24.854  1.00  0.00     0.163 HD
ATOM     27  O   UNL A   1      41.158  21.985  26.127  1.00  0.00    -0.269 OA
BRANCH  25  28
ATOM     28  C   UNL A   1      40.033  23.810  27.090  1.00  0.00     0.039 A 
ATOM     29  C   UNL A   1      39.025  24.771  27.060  1.00  0.00     0.014 A 
ATOM     30  C   UNL A   1      41.182  24.066  27.864  1.00  0.00     0.014 A 
ATOM     31  C   UNL A   1      39.238  26.016  27.647  1.00  0.00     0.010 A 
ATOM     32  C   UNL A   1      41.379  25.292  28.486  1.00  0.00     0.010 A 
ATOM     33  C   UNL A   1      40.447  26.301  28.302  1.00  0.00    -0.014 A 
BRANCH  33  34
ATOM     34  C   UNL A   1      40.592  27.581  29.000  1.00  0.00     0.031 A 
ATOM     35  C   UNL A   1      41.684  28.382  28.380  1.00  0.00     0.074 A 
ATOM     36  C   UNL A   1      39.809  28.024  30.015  1.00  0.00     0.049 A 
ATOM     37  N   UNL A   1      42.872  28.549  28.859  1.00  0.00    -0.248 NA
ATOM     38  C   UNL A   1      41.558  28.794  26.969  1.00  0.00     0.031 C 
ATOM     39  C   UNL A   1      38.619  27.390  30.589  1.00  0.00     0.029 A 
ATOM     40  N   UNL A   1      39.890  29.188  30.743  1.00  0.00    -0.354 N 
ATOM     41  C   UNL A   1      43.531  29.363  27.944  1.00  0.00     0.074 A 
ATOM     42  C   UNL A   1      42.778  29.278  26.721  1.00  0.00     0.031 C 
ATOM     43  C   UNL A   1      37.963  28.265  31.392  1.00  0.00     0.029 A 
ATOM     44  C   UNL A   1      38.749  29.480  31.518  1.00  0.00     0.049 A 
ATOM     45  H   UNL A   1      40.681  29.772  30.724  1.00  0.00     0.167 HD
ATOM     46  C   UNL A   1      44.428  30.282  28.391  1.00  0.00     0.037 A 
ATOM     47  C   UNL A   1      38.496  30.614  32.242  1.00  0.00     0.037 A 
ATOM     48  C   UNL A   1      44.871  29.944  29.723  1.00  0.00     0.049 A 
ATOM     49  C   UNL A   1      39.817  31.232  32.519  1.00  0.00     0.074 A 
ATOM     50  C   UNL A   1      45.529  28.880  30.305  1.00  0.00     0.029 A 
ATOM     51  N   UNL A   1      44.246  30.613  30.744  1.00  0.00    -0.354 N 
ATOM     52  N   UNL A   1      40.719  30.678  33.281  1.00  0.00    -0.248 NA
ATOM     53  C   UNL A   1      40.308  32.180  31.536  1.00  0.00     0.031 C 
ATOM     54  C   UNL A   1      44.918  28.716  31.584  1.00  0.00     0.029 A 
ATOM     55  C   UNL A   1      43.991  29.743  31.767  1.00  0.00     0.049 A 
ATOM     56  H   UNL A   1      44.015  31.570  30.739  1.00  0.00     0.167 HD
ATOM     57  C   UNL A   1      41.902  30.835  32.578  1.00  0.00     0.074 A 
ATOM     58  C   UNL A   1      41.590  31.808  31.527  1.00  0.00     0.031 C 
ATOM     59  C   UNL A   1      42.925  29.940  32.724  1.00  0.00     0.037 A 
BRANCH  46  60
ATOM     60  C   UNL A   1      44.489  31.704  27.866  1.00  0.00     0.058 A 
ATOM     61  C   UNL A   1      45.626  32.112  27.138  1.00  0.00     0.135 A 
ATOM     62  C   UNL A   1      43.645  32.751  28.303  1.00  0.00     0.135 A 
ATOM     63  F   UNL A   1      46.515  31.207  26.697  1.00  0.00    -0.206 F 
ATOM     64  C   UNL A   1      45.928  33.455  26.911  1.00  0.00     0.059 A 
ATOM     65  C   UNL A   1      43.902  34.093  28.045  1.00  0.00     0.059 A 
ATOM     66  F   UNL A   1      42.576  32.544  29.078  1.00  0.00    -0.206 F 
ATOM     67  C   UNL A   1      45.059  34.439  27.371  1.00  0.00     0.060 A 
BRANCH  67  68
ATOM     68  S   UNL A   1      45.458  36.173  27.097  1.00  0.00     0.124 S 
ATOM     69  O   UNL A   1      44.171  36.709  26.675  1.00  0.00    -0.237 OA
ATOM     70  O   UNL A   1      45.921  36.579  28.420  1.00  0.00    -0.237 OA
ATOM     71  O   UNL A   1      46.492  36.120  26.067  1.00  0.00    -0.744 OA
ENDBRANCH  67  68
ENDBRANCH  46  60
BRANCH  47  72
ATOM     72  C   UNL A   1      37.239  31.438  32.319  1.00  0.00     0.058 A 
ATOM     73  C   UNL A   1      36.885  32.157  33.487  1.00  0.00     0.135 A 
ATOM     74  C   UNL A   1      36.533  31.797  31.158  1.00  0.00     0.135 A 
ATOM     75  F   UNL A   1      37.507  31.904  34.649  1.00  0.00    -0.206 F 
ATOM     76  C   UNL A   1      35.945  33.204  33.485  1.00  0.00     0.059 A 
ATOM     77  C   UNL A   1      35.592  32.834  31.130  1.00  0.00     0.059 A 
ATOM     78  F   UNL A   1      36.801  31.206  29.984  1.00  0.00    -0.206 F 
ATOM     79  C   UNL A   1      35.321  33.554  32.289  1.00  0.00     0.060 A 
BRANCH  79  80
ATOM     80  S   UNL A   1      34.242  35.012  32.221  1.00  0.00     0.124 S 
ATOM     81  O   UNL A   1      34.979  35.978  33.029  1.00  0.00    -0.237 OA
ATOM     82  O   UNL A   1      34.184  35.293  30.791  1.00  0.00    -0.237 OA
ATOM     83  O   UNL A   1      32.993  34.536  32.809  1.00  0.00    -0.744 OA
ENDBRANCH  79  80
ENDBRANCH  47  72
BRANCH  59  84
ATOM     84  C   UNL A   1      42.888  28.987  33.892  1.00  0.00     0.058 A 
ATOM     85  C   UNL A   1      43.287  29.287  35.207  1.00  0.00     0.135 A 
ATOM     86  C   UNL A   1      42.253  27.754  33.682  1.00  0.00     0.135 A 
ATOM     87  F   UNL A   1      43.828  30.477  35.509  1.00  0.00    -0.206 F 
ATOM     88  C   UNL A   1      43.077  28.388  36.261  1.00  0.00     0.059 A 
ATOM     89  C   UNL A   1      42.005  26.860  34.717  1.00  0.00     0.059 A 
ATOM     90  F   UNL A   1      41.803  27.431  32.458  1.00  0.00    -0.206 F 
ATOM     91  C   UNL A   1      42.428  27.179  36.004  1.00  0.00     0.060 A 
BRANCH  91  92
ATOM     92  S   UNL A   1      42.092  26.038  37.366  1.00  0.00     0.124 S 
ATOM     93  O   UNL A   1      42.279  24.738  36.733  1.00  0.00    -0.237 OA
ATOM     94  O   UNL A   1      43.101  26.417  38.350  1.00  0.00    -0.237 OA
ATOM     95  O   UNL A   1      40.716  26.354  37.745  1.00  0.00    -0.744 OA
ENDBRANCH  91  92
ENDBRANCH  59  84
ENDBRANCH  33  34
ENDBRANCH  25  28
ENDBRANCH  23  24
ENDBRANCH  22  23
ENDBRANCH  21  22
ENDBRANCH   1  21
TORSDOF 19
ENDMDL
MODEL 3
REMARK VINA RESULT:     -11.2      1.595      2.973
REMARK SMILES N#Cc1c2ccccc2cn1CCCCC(=O)NCCCCNC(=O)c1ccc(-c2c3nc(c(-c4c(F)cc(S(=O)(=O)[O-])cc4F)c4ccc([nH]4)c(-c4c(F)cc(S(=O)(=O)[O-])cc4F)c4nc(c(-c5c(F)cc(S(=O)(=O)[O-])cc5F)c5ccc2[nH]5)C=C4)C=C3)cc1
REMARK SMILES IDX 19 1 18 2 16 3 17 4 15 6 14 7 13 8 12 9 11 10 3 11 4 12 5 13
REMARK SMILES IDX 9 14 10 15 6 16 8 17 7 18 2 19 1 20 20 21 21 22 22 23 23 24
REMARK SMILES IDX 24 25 25 27 26 28 27 29 91 30 28 31 90 32 29 33 30 34 31 35
REMARK SMILES IDX 84 36 32 37 89 38 83 39 85 40 33 41 88 42 82 43 81 44 34 46
REMARK SMILES IDX 68 47 47 48 67 49 48 50 51 51 66 52 86 53 49 54 50 55 65 57
REMARK SMILES IDX 87 58 52 59 35 60 36 61 45 62 37 63 38 64 44 65 46 66 39 67
REMARK SMILES IDX 40 68 41 69 42 70 43 71 69 72 70 73 79 74 71 75 72 76 78 77
REMARK SMILES IDX 80 78 73 79 74 80 75 81 76 82 77 83 53 84 54 85 63 86 55 87
REMARK SMILES IDX 56 88 62 89 64 90 57 91 58 92 59 93 60 94 61 95
REMARK H PARENT 18 5 23 26 85 45 51 56
REMARK Flexibility Score: inf
ROOT
ATOM      1  C   UNL A   1      40.162  21.156  26.321  1.00  0.00     0.116 C 
ENDROOT
BRANCH   1   2
ATOM      2  N   UNL A   1      39.670  22.515  26.291  1.00  0.00    -0.356 N 
ATOM      3  C   UNL A   1      38.411  22.991  26.096  1.00  0.00     0.219 C 
ATOM      4  O   UNL A   1      38.222  24.201  26.239  1.00  0.00    -0.275 OA
ATOM      5  H   UNL A   1      40.357  23.206  26.433  1.00  0.00     0.163 HD
BRANCH   3   6
ATOM      6  C   UNL A   1      37.255  22.067  25.757  1.00  0.00     0.100 C 
BRANCH   6   7
ATOM      7  C   UNL A   1      35.916  22.761  25.493  1.00  0.00     0.012 C 
BRANCH   7   8
ATOM      8  C   UNL A   1      34.897  22.825  26.640  1.00  0.00     0.022 C 
BRANCH   8   9
ATOM      9  C   UNL A   1      33.461  22.371  26.343  1.00  0.00     0.123 C 
BRANCH   9  10
ATOM     10  N   UNL A   1      33.374  21.299  25.372  1.00  0.00    -0.338 N 
ATOM     11  C   UNL A   1      32.676  21.337  24.179  1.00  0.00     0.128 A 
ATOM     12  C   UNL A   1      32.735  20.065  23.663  1.00  0.00     0.018 A 
ATOM     13  C   UNL A   1      32.103  19.588  22.520  1.00  0.00     0.012 A 
ATOM     14  C   UNL A   1      33.562  19.285  24.521  1.00  0.00     0.001 A 
ATOM     15  C   UNL A   1      34.023  20.092  25.520  1.00  0.00     0.095 A 
ATOM     16  C   UNL A   1      32.372  18.209  22.356  1.00  0.00     0.001 A 
ATOM     17  C   UNL A   1      33.859  17.942  24.378  1.00  0.00     0.010 A 
ATOM     18  C   UNL A   1      33.201  17.427  23.242  1.00  0.00     0.001 A 
BRANCH  11  19
ATOM     19  C   UNL A   1      32.024  22.490  23.643  1.00  0.00     0.118 C 
ATOM     20  N   UNL A   1      31.466  23.392  23.191  1.00  0.00    -0.191 NA
ENDBRANCH  11  19
ENDBRANCH   9  10
ENDBRANCH   8   9
ENDBRANCH   7   8
ENDBRANCH   6   7
ENDBRANCH   3   6
ENDBRANCH   1   2
BRANCH   1  21
ATOM     21  C   UNL A   1      41.150  20.916  27.463  1.00  0.00     0.023 C 
BRANCH  21  22
ATOM     22  C   UNL A   1      42.309  19.982  27.115  1.00  0.00     0.023 C 
BRANCH  22  23
ATOM     23  C   UNL A   1      42.199  19.341  25.732  1.00  0.00     0.116 C 
BRANCH  23  24
ATOM     24  N   UNL A   1      43.397  19.482  24.937  1.00  0.00    -0.352 N 
ATOM     25  C   UNL A   1      44.425  20.384  24.937  1.00  0.00     0.251 C 
ATOM     26  H   UNL A   1      43.494  18.782  24.251  1.00  0.00     0.163 HD
ATOM     27  O   UNL A   1      45.447  20.028  24.347  1.00  0.00    -0.269 OA
BRANCH  25  28
ATOM     28  C   UNL A   1      44.358  21.761  25.501  1.00  0.00     0.039 A 
ATOM     29  C   UNL A   1      45.098  22.240  26.580  1.00  0.00     0.014 A 
ATOM     30  C   UNL A   1      43.364  22.592  24.947  1.00  0.00     0.014 A 
ATOM     31  C   UNL A   1      44.737  23.441  27.188  1.00  0.00     0.010 A 
ATOM     32  C   UNL A   1      43.029  23.809  25.527  1.00  0.00     0.010 A 
ATOM     33  C   UNL A   1      43.655  24.193  26.702  1.00  0.00    -0.014 A 
BRANCH  33  34
ATOM     34  C   UNL A   1      43.374  25.501  27.299  1.00  0.00     0.031 A 
ATOM     35  C   UNL A   1      44.452  26.466  26.950  1.00  0.00     0.074 A 
ATOM     36  C   UNL A   1      42.263  25.827  28.005  1.00  0.00     0.049 A 
ATOM     37  N   UNL A   1      45.401  26.864  27.733  1.00  0.00    -0.248 NA
ATOM     38  C   UNL A   1      44.685  26.800  25.533  1.00  0.00     0.031 C 
ATOM     39  C   UNL A   1      41.078  25.005  28.267  1.00  0.00     0.029 A 
ATOM     40  N   UNL A   1      41.931  27.010  28.622  1.00  0.00    -0.354 N 
ATOM     41  C   UNL A   1      46.158  27.753  26.978  1.00  0.00     0.074 A 
ATOM     42  C   UNL A   1      45.827  27.490  25.603  1.00  0.00     0.031 C 
ATOM     43  C   UNL A   1      40.079  25.773  28.770  1.00  0.00     0.029 A 
ATOM     44  C   UNL A   1      40.580  27.114  29.010  1.00  0.00     0.049 A 
ATOM     45  H   UNL A   1      42.585  27.728  28.780  1.00  0.00     0.167 HD
ATOM     46  C   UNL A   1      46.717  28.835  27.582  1.00  0.00     0.037 A 
ATOM     47  C   UNL A   1      39.939  28.207  29.531  1.00  0.00     0.037 A 
ATOM     48  C   UNL A   1      46.794  28.630  29.009  1.00  0.00     0.049 A 
ATOM     49  C   UNL A   1      40.997  29.065  30.120  1.00  0.00     0.074 A 
ATOM     50  C   UNL A   1      47.416  27.724  29.845  1.00  0.00     0.029 A 
ATOM     51  N   UNL A   1      45.792  29.207  29.747  1.00  0.00    -0.354 N 
ATOM     52  N   UNL A   1      41.711  28.712  31.153  1.00  0.00    -0.248 NA
ATOM     53  C   UNL A   1      41.595  30.053  29.240  1.00  0.00     0.031 C 
ATOM     54  C   UNL A   1      46.488  27.495  30.905  1.00  0.00     0.029 A 
ATOM     55  C   UNL A   1      45.392  28.341  30.725  1.00  0.00     0.049 A 
ATOM     56  H   UNL A   1      45.419  30.105  29.594  1.00  0.00     0.167 HD
ATOM     57  C   UNL A   1      43.007  29.059  30.807  1.00  0.00     0.074 A 
ATOM     58  C   UNL A   1      42.865  29.922  29.631  1.00  0.00     0.031 C 
ATOM     59  C   UNL A   1      44.073  28.372  31.316  1.00  0.00     0.037 A 
BRANCH  46  60
ATOM     60  C   UNL A   1      46.695  30.226  26.976  1.00  0.00     0.058 A 
ATOM     61  C   UNL A   1      47.868  31.009  27.031  1.00  0.00     0.135 A 
ATOM     62  C   UNL A   1      45.517  30.927  26.632  1.00  0.00     0.135 A 
ATOM     63  F   UNL A   1      49.042  30.458  27.376  1.00  0.00    -0.206 F 
ATOM     64  C   UNL A   1      47.857  32.388  26.816  1.00  0.00     0.059 A 
ATOM     65  C   UNL A   1      45.494  32.292  26.366  1.00  0.00     0.059 A 
ATOM     66  F   UNL A   1      44.310  30.353  26.622  1.00  0.00    -0.206 F 
ATOM     67  C   UNL A   1      46.663  33.020  26.485  1.00  0.00     0.060 A 
BRANCH  67  68
ATOM     68  S   UNL A   1      46.645  34.802  26.228  1.00  0.00     0.124 S 
ATOM     69  O   UNL A   1      45.949  35.265  27.422  1.00  0.00    -0.237 OA
ATOM     70  O   UNL A   1      48.072  35.102  26.160  1.00  0.00    -0.237 OA
ATOM     71  O   UNL A   1      45.918  34.953  24.971  1.00  0.00    -0.744 OA
ENDBRANCH  67  68
ENDBRANCH  46  60
BRANCH  47  72
ATOM     72  C   UNL A   1      38.598  28.789  29.174  1.00  0.00     0.058 A 
ATOM     73  C   UNL A   1      37.614  29.062  30.156  1.00  0.00     0.135 A 
ATOM     74  C   UNL A   1      38.376  29.387  27.921  1.00  0.00     0.135 A 
ATOM     75  F   UNL A   1      37.736  28.552  31.392  1.00  0.00    -0.206 F 
ATOM     76  C   UNL A   1      36.524  29.921  29.927  1.00  0.00     0.059 A 
ATOM     77  C   UNL A   1      37.298  30.244  27.668  1.00  0.00     0.059 A 
ATOM     78  F   UNL A   1      39.254  29.225  26.921  1.00  0.00    -0.206 F 
ATOM     79  C   UNL A   1      36.390  30.532  28.682  1.00  0.00     0.060 A 
BRANCH  79  80
ATOM     80  S   UNL A   1      35.099  31.780  28.417  1.00  0.00     0.124 S 
ATOM     81  O   UNL A   1      34.731  32.135  29.784  1.00  0.00    -0.237 OA
ATOM     82  O   UNL A   1      35.806  32.807  27.662  1.00  0.00    -0.237 OA
ATOM     83  O   UNL A   1      34.076  31.055  27.668  1.00  0.00    -0.744 OA
ENDBRANCH  79  80
ENDBRANCH  47  72
BRANCH  59  84
ATOM     84  C   UNL A   1      43.849  27.468  32.502  1.00  0.00     0.058 A 
ATOM     85  C   UNL A   1      43.804  26.062  32.464  1.00  0.00     0.135 A 
ATOM     86  C   UNL A   1      43.848  28.073  33.768  1.00  0.00     0.135 A 
ATOM     87  F   UNL A   1      43.883  25.401  31.299  1.00  0.00    -0.206 F 
ATOM     88  C   UNL A   1      43.742  25.298  33.636  1.00  0.00     0.059 A 
ATOM     89  C   UNL A   1      43.819  27.334  34.945  1.00  0.00     0.059 A 
ATOM     90  F   UNL A   1      43.940  29.409  33.872  1.00  0.00    -0.206 F 
ATOM     91  C   UNL A   1      43.757  25.945  34.873  1.00  0.00     0.060 A 
BRANCH  91  92
ATOM     92  S   UNL A   1      43.744  24.969  36.394  1.00  0.00     0.124 S 
ATOM     93  O   UNL A   1      44.882  25.518  37.123  1.00  0.00    -0.237 OA
ATOM     94  O   UNL A   1      42.428  25.270  36.950  1.00  0.00    -0.237 OA
ATOM     95  O   UNL A   1      43.911  23.596  35.922  1.00  0.00    -0.744 OA
ENDBRANCH  91  92
ENDBRANCH  59  84
ENDBRANCH  33  34
ENDBRANCH  25  28
ENDBRANCH  23  24
ENDBRANCH  22  23
ENDBRANCH  21  22
ENDBRANCH   1  21
TORSDOF 19
ENDMDL
