MODEL 1
REMARK VINA RESULT:     -10.4      0.000      0.000
REMARK SMILES NC(=O)CC[C@H](C(=O)NCCCCNC(=O)c1ccc(-c2c3nc(c(-c4c(F)cc(S(=O)(=O)[O-])cc4F)c4ccc([nH]4)c(-c4c(F)cc(S(=O)(=O)[O-])cc4F)c4nc(c(-c5c(F)cc(S(=O)(=O)[O-])cc5F)c5ccc2[nH]5)C=C4)C=C3)cc1)N1CCOC1=O
REMARK SMILES IDX 11 1 10 2 9 3 7 4 8 5 6 7 5 8 4 9 2 10 1 11 3 14 83 15 84 16
REMARK SMILES IDX 87 17 85 18 86 19 88 20 12 21 13 22 14 23 15 24 16 26 17 27
REMARK SMILES IDX 18 28 82 29 19 30 81 31 20 32 21 33 22 34 75 35 23 36 80 37
REMARK SMILES IDX 74 38 76 39 24 40 79 41 73 42 72 43 25 45 59 46 38 47 58 48
REMARK SMILES IDX 39 49 42 50 57 51 77 52 40 53 41 54 56 56 78 57 43 58 26 59
REMARK SMILES IDX 27 60 36 61 28 62 29 63 35 64 37 65 30 66 31 67 32 68 33 69
REMARK SMILES IDX 34 70 60 71 61 72 70 73 62 74 63 75 69 76 71 77 64 78 65 79
REMARK SMILES IDX 66 80 67 81 68 82 44 83 45 84 54 85 46 86 47 87 53 88 55 89
REMARK SMILES IDX 48 90 49 91 50 92 51 93 52 94
REMARK H PARENT 9 6 1 12 1 13 14 25 76 44 42 55
REMARK Flexibility Score: inf
ROOT
ATOM      1  C   UNL A   1      33.914  27.934  24.674  1.00  0.00     0.023 C 
ENDROOT
BRANCH   1   2
ATOM      2  C   UNL A   1      33.565  26.461  24.887  1.00  0.00     0.116 C 
BRANCH   2   3
ATOM      3  N   UNL A   1      33.769  25.679  23.688  1.00  0.00    -0.354 N 
ATOM      4  C   UNL A   1      33.581  24.360  23.419  1.00  0.00     0.242 C 
ATOM      5  O   UNL A   1      33.822  24.011  22.254  1.00  0.00    -0.273 OA
ATOM      6  H   UNL A   1      34.108  26.199  22.924  1.00  0.00     0.163 HD
BRANCH   4   7
ATOM      7  C   UNL A   1      33.316  23.254  24.490  1.00  0.00     0.178 C 
BRANCH   7   8
ATOM      8  C   UNL A   1      31.825  22.827  24.372  1.00  0.00     0.045 C 
BRANCH   8   9
ATOM      9  C   UNL A   1      31.059  22.599  25.679  1.00  0.00     0.102 C 
BRANCH   9  10
ATOM     10  C   UNL A   1      30.889  23.842  26.523  1.00  0.00     0.217 C 
ATOM     11  N   UNL A   1      29.816  24.625  26.234  1.00  0.00    -0.370 N 
ATOM     12  H   UNL A   1      29.654  25.448  26.751  1.00  0.00     0.159 HD
ATOM     13  H   UNL A   1      29.201  24.370  25.510  1.00  0.00     0.159 HD
ATOM     14  O   UNL A   1      31.639  24.135  27.447  1.00  0.00    -0.275 OA
ENDBRANCH   9  10
ENDBRANCH   8   9
ENDBRANCH   7   8
BRANCH   7  15
ATOM     15  N   UNL A   1      34.239  22.129  24.659  1.00  0.00    -0.293 N 
ATOM     16  C   UNL A   1      33.799  20.759  24.618  1.00  0.00     0.165 C 
ATOM     17  C   UNL A   1      35.254  22.167  25.607  1.00  0.00     0.410 C 
ATOM     18  C   UNL A   1      35.077  20.023  24.913  1.00  0.00     0.256 C 
ATOM     19  O   UNL A   1      35.764  20.909  25.799  1.00  0.00    -0.448 OA
ATOM     20  O   UNL A   1      35.665  23.155  26.191  1.00  0.00    -0.224 OA
ENDBRANCH   7  15
ENDBRANCH   4   7
ENDBRANCH   2   3
ENDBRANCH   1   2
BRANCH   1  21
ATOM     21  C   UNL A   1      33.140  28.910  25.551  1.00  0.00     0.023 C 
BRANCH  21  22
ATOM     22  C   UNL A   1      33.516  28.886  27.028  1.00  0.00     0.116 C 
BRANCH  22  23
ATOM     23  N   UNL A   1      33.525  30.203  27.655  1.00  0.00    -0.352 N 
ATOM     24  C   UNL A   1      34.549  30.803  28.352  1.00  0.00     0.251 C 
ATOM     25  H   UNL A   1      32.697  30.726  27.569  1.00  0.00     0.163 HD
ATOM     26  O   UNL A   1      34.382  31.888  28.898  1.00  0.00    -0.269 OA
BRANCH  24  27
ATOM     27  C   UNL A   1      35.833  30.086  28.465  1.00  0.00     0.039 A 
ATOM     28  C   UNL A   1      36.721  30.118  27.389  1.00  0.00     0.014 A 
ATOM     29  C   UNL A   1      36.201  29.508  29.683  1.00  0.00     0.014 A 
ATOM     30  C   UNL A   1      38.025  29.655  27.569  1.00  0.00     0.010 A 
ATOM     31  C   UNL A   1      37.521  29.123  29.882  1.00  0.00     0.010 A 
ATOM     32  C   UNL A   1      38.450  29.212  28.834  1.00  0.00    -0.014 A 
BRANCH  32  33
ATOM     33  C   UNL A   1      39.874  28.886  29.097  1.00  0.00     0.031 A 
ATOM     34  C   UNL A   1      40.802  29.939  29.630  1.00  0.00     0.074 A 
ATOM     35  C   UNL A   1      40.347  27.667  28.768  1.00  0.00     0.049 A 
ATOM     36  N   UNL A   1      42.091  29.872  29.842  1.00  0.00    -0.248 NA
ATOM     37  C   UNL A   1      40.208  31.249  29.941  1.00  0.00     0.031 C 
ATOM     38  C   UNL A   1      39.556  26.582  28.180  1.00  0.00     0.029 A 
ATOM     39  N   UNL A   1      41.610  27.139  28.862  1.00  0.00    -0.354 N 
ATOM     40  C   UNL A   1      42.463  31.128  30.303  1.00  0.00     0.074 A 
ATOM     41  C   UNL A   1      41.277  31.955  30.282  1.00  0.00     0.031 C 
ATOM     42  C   UNL A   1      40.348  25.516  27.981  1.00  0.00     0.029 A 
ATOM     43  C   UNL A   1      41.708  25.851  28.388  1.00  0.00     0.049 A 
ATOM     44  H   UNL A   1      42.375  27.635  29.235  1.00  0.00     0.167 HD
ATOM     45  C   UNL A   1      43.677  31.546  30.733  1.00  0.00     0.037 A 
ATOM     46  C   UNL A   1      42.776  25.037  28.278  1.00  0.00     0.037 A 
ATOM     47  C   UNL A   1      44.851  30.714  30.759  1.00  0.00     0.049 A 
ATOM     48  C   UNL A   1      44.119  25.525  28.747  1.00  0.00     0.074 A 
ATOM     49  C   UNL A   1      46.115  31.022  31.227  1.00  0.00     0.029 A 
ATOM     50  N   UNL A   1      44.907  29.408  30.290  1.00  0.00    -0.354 N 
ATOM     51  N   UNL A   1      44.438  26.692  29.254  1.00  0.00    -0.248 NA
ATOM     52  C   UNL A   1      45.246  24.589  28.634  1.00  0.00     0.031 C 
ATOM     53  C   UNL A   1      46.947  29.921  31.000  1.00  0.00     0.029 A 
ATOM     54  C   UNL A   1      46.191  28.908  30.433  1.00  0.00     0.049 A 
ATOM     55  H   UNL A   1      44.147  28.911  29.910  1.00  0.00     0.167 HD
ATOM     56  C   UNL A   1      45.800  26.628  29.530  1.00  0.00     0.074 A 
ATOM     57  C   UNL A   1      46.238  25.298  29.154  1.00  0.00     0.031 C 
ATOM     58  C   UNL A   1      46.613  27.583  30.044  1.00  0.00     0.037 A 
BRANCH  45  59
ATOM     59  C   UNL A   1      43.788  32.966  31.215  1.00  0.00     0.058 A 
ATOM     60  C   UNL A   1      44.058  34.022  30.327  1.00  0.00     0.135 A 
ATOM     61  C   UNL A   1      43.609  33.282  32.571  1.00  0.00     0.135 A 
ATOM     62  F   UNL A   1      44.254  33.774  29.022  1.00  0.00    -0.206 F 
ATOM     63  C   UNL A   1      44.188  35.332  30.772  1.00  0.00     0.059 A 
ATOM     64  C   UNL A   1      43.705  34.591  33.034  1.00  0.00     0.059 A 
ATOM     65  F   UNL A   1      43.348  32.314  33.461  1.00  0.00    -0.206 F 
ATOM     66  C   UNL A   1      44.013  35.607  32.129  1.00  0.00     0.060 A 
BRANCH  66  67
ATOM     67  S   UNL A   1      44.194  37.312  32.692  1.00  0.00     0.124 S 
ATOM     68  O   UNL A   1      44.111  38.044  31.432  1.00  0.00    -0.237 OA
ATOM     69  O   UNL A   1      43.055  37.467  33.590  1.00  0.00    -0.237 OA
ATOM     70  O   UNL A   1      45.503  37.321  33.338  1.00  0.00    -0.744 OA
ENDBRANCH  66  67
ENDBRANCH  45  59
BRANCH  46  71
ATOM     71  C   UNL A   1      42.611  23.675  27.703  1.00  0.00     0.058 A 
ATOM     72  C   UNL A   1      42.691  23.457  26.321  1.00  0.00     0.135 A 
ATOM     73  C   UNL A   1      42.405  22.559  28.530  1.00  0.00     0.135 A 
ATOM     74  F   UNL A   1      42.880  24.493  25.489  1.00  0.00    -0.206 F 
ATOM     75  C   UNL A   1      42.566  22.183  25.775  1.00  0.00     0.059 A 
ATOM     76  C   UNL A   1      42.300  21.272  28.010  1.00  0.00     0.059 A 
ATOM     77  F   UNL A   1      42.337  22.711  29.862  1.00  0.00    -0.206 F 
ATOM     78  C   UNL A   1      42.377  21.096  26.629  1.00  0.00     0.060 A 
BRANCH  78  79
ATOM     79  S   UNL A   1      42.286  19.439  25.916  1.00  0.00     0.124 S 
ATOM     80  O   UNL A   1      40.852  19.293  25.693  1.00  0.00    -0.237 OA
ATOM     81  O   UNL A   1      43.108  19.575  24.718  1.00  0.00    -0.237 OA
ATOM     82  O   UNL A   1      42.853  18.592  26.961  1.00  0.00    -0.744 OA
ENDBRANCH  78  79
ENDBRANCH  46  71
BRANCH  58  83
ATOM     83  C   UNL A   1      48.061  27.229  30.236  1.00  0.00     0.058 A 
ATOM     84  C   UNL A   1      49.027  27.545  29.268  1.00  0.00     0.135 A 
ATOM     85  C   UNL A   1      48.497  26.624  31.426  1.00  0.00     0.135 A 
ATOM     86  F   UNL A   1      48.661  28.115  28.109  1.00  0.00    -0.206 F 
ATOM     87  C   UNL A   1      50.374  27.262  29.467  1.00  0.00     0.059 A 
ATOM     88  C   UNL A   1      49.842  26.356  31.658  1.00  0.00     0.059 A 
ATOM     89  F   UNL A   1      47.614  26.309  32.387  1.00  0.00    -0.206 F 
ATOM     90  C   UNL A   1      50.773  26.670  30.668  1.00  0.00     0.060 A 
BRANCH  90  91
ATOM     91  S   UNL A   1      52.530  26.352  30.933  1.00  0.00     0.124 S 
ATOM     92  O   UNL A   1      53.014  26.223  29.562  1.00  0.00    -0.237 OA
ATOM     93  O   UNL A   1      52.961  27.549  31.647  1.00  0.00    -0.237 OA
ATOM     94  O   UNL A   1      52.538  25.123  31.720  1.00  0.00    -0.744 OA
ENDBRANCH  90  91
ENDBRANCH  58  83
ENDBRANCH  32  33
ENDBRANCH  24  27
ENDBRANCH  22  23
ENDBRANCH  21  22
ENDBRANCH   1  21
TORSDOF 18
ENDMDL
MODEL 2
REMARK VINA RESULT:     -10.4      0.917      2.122
REMARK SMILES NC(=O)CC[C@H](C(=O)NCCCCNC(=O)c1ccc(-c2c3nc(c(-c4c(F)cc(S(=O)(=O)[O-])cc4F)c4ccc([nH]4)c(-c4c(F)cc(S(=O)(=O)[O-])cc4F)c4nc(c(-c5c(F)cc(S(=O)(=O)[O-])cc5F)c5ccc2[nH]5)C=C4)C=C3)cc1)N1CCOC1=O
REMARK SMILES IDX 11 1 10 2 9 3 7 4 8 5 6 7 5 8 4 9 2 10 1 11 3 14 83 15 84 16
REMARK SMILES IDX 87 17 85 18 86 19 88 20 12 21 13 22 14 23 15 24 16 26 17 27
REMARK SMILES IDX 18 28 82 29 19 30 81 31 20 32 21 33 22 34 75 35 23 36 80 37
REMARK SMILES IDX 74 38 76 39 24 40 79 41 73 42 72 43 25 45 59 46 38 47 58 48
REMARK SMILES IDX 39 49 42 50 57 51 77 52 40 53 41 54 56 56 78 57 43 58 26 59
REMARK SMILES IDX 27 60 36 61 28 62 29 63 35 64 37 65 30 66 31 67 32 68 33 69
REMARK SMILES IDX 34 70 60 71 61 72 70 73 62 74 63 75 69 76 71 77 64 78 65 79
REMARK SMILES IDX 66 80 67 81 68 82 44 83 45 84 54 85 46 86 47 87 53 88 55 89
REMARK SMILES IDX 48 90 49 91 50 92 51 93 52 94
REMARK H PARENT 9 6 1 12 1 13 14 25 76 44 42 55
REMARK Flexibility Score: inf
ROOT
ATOM      1  C   UNL A   1      32.187  27.245  25.692  1.00  0.00     0.023 C 
ENDROOT
BRANCH   1   2
ATOM      2  C   UNL A   1      30.837  26.688  25.244  1.00  0.00     0.116 C 
BRANCH   2   3
ATOM      3  N   UNL A   1      30.384  25.616  26.100  1.00  0.00    -0.354 N 
ATOM      4  C   UNL A   1      30.901  24.388  26.374  1.00  0.00     0.242 C 
ATOM      5  O   UNL A   1      30.270  23.712  27.200  1.00  0.00    -0.273 OA
ATOM      6  H   UNL A   1      29.543  25.810  26.574  1.00  0.00     0.163 HD
BRANCH   4   7
ATOM      7  C   UNL A   1      32.059  23.705  25.578  1.00  0.00     0.178 C 
BRANCH   7   8
ATOM      8  C   UNL A   1      31.777  22.176  25.551  1.00  0.00     0.045 C 
BRANCH   8   9
ATOM      9  C   UNL A   1      32.975  21.242  25.748  1.00  0.00     0.102 C 
BRANCH   9  10
ATOM     10  C   UNL A   1      32.671  19.783  25.493  1.00  0.00     0.217 C 
ATOM     11  N   UNL A   1      33.025  18.912  26.476  1.00  0.00    -0.370 N 
ATOM     12  H   UNL A   1      32.852  17.949  26.365  1.00  0.00     0.159 HD
ATOM     13  H   UNL A   1      33.454  19.245  27.297  1.00  0.00     0.159 HD
ATOM     14  O   UNL A   1      32.104  19.380  24.484  1.00  0.00    -0.275 OA
ENDBRANCH   9  10
ENDBRANCH   8   9
ENDBRANCH   7   8
BRANCH   7  15
ATOM     15  N   UNL A   1      32.514  24.243  24.294  1.00  0.00    -0.293 N 
ATOM     16  C   UNL A   1      31.954  23.818  23.038  1.00  0.00     0.165 C 
ATOM     17  C   UNL A   1      33.863  24.466  24.045  1.00  0.00     0.410 C 
ATOM     18  C   UNL A   1      32.793  24.588  22.057  1.00  0.00     0.256 C 
ATOM     19  O   UNL A   1      34.067  24.655  22.702  1.00  0.00    -0.448 OA
ATOM     20  O   UNL A   1      34.757  24.508  24.872  1.00  0.00    -0.224 OA
ENDBRANCH   7  15
ENDBRANCH   4   7
ENDBRANCH   2   3
ENDBRANCH   1   2
BRANCH   1  21
ATOM     21  C   UNL A   1      32.110  28.375  26.710  1.00  0.00     0.023 C 
BRANCH  21  22
ATOM     22  C   UNL A   1      33.439  28.760  27.348  1.00  0.00     0.116 C 
BRANCH  22  23
ATOM     23  N   UNL A   1      33.490  30.140  27.820  1.00  0.00    -0.352 N 
ATOM     24  C   UNL A   1      34.556  30.807  28.378  1.00  0.00     0.251 C 
ATOM     25  H   UNL A   1      32.658  30.657  27.727  1.00  0.00     0.163 HD
ATOM     26  O   UNL A   1      34.425  31.949  28.807  1.00  0.00    -0.269 OA
BRANCH  24  27
ATOM     27  C   UNL A   1      35.843  30.097  28.492  1.00  0.00     0.039 A 
ATOM     28  C   UNL A   1      36.716  30.101  27.402  1.00  0.00     0.014 A 
ATOM     29  C   UNL A   1      36.231  29.552  29.720  1.00  0.00     0.014 A 
ATOM     30  C   UNL A   1      38.024  29.647  27.576  1.00  0.00     0.010 A 
ATOM     31  C   UNL A   1      37.555  29.177  29.910  1.00  0.00     0.010 A 
ATOM     32  C   UNL A   1      38.468  29.240  28.846  1.00  0.00    -0.014 A 
BRANCH  32  33
ATOM     33  C   UNL A   1      39.897  28.924  29.097  1.00  0.00     0.031 A 
ATOM     34  C   UNL A   1      40.821  29.985  29.623  1.00  0.00     0.074 A 
ATOM     35  C   UNL A   1      40.377  27.709  28.764  1.00  0.00     0.049 A 
ATOM     36  N   UNL A   1      42.112  29.928  29.824  1.00  0.00    -0.248 NA
ATOM     37  C   UNL A   1      40.219  31.290  29.940  1.00  0.00     0.031 C 
ATOM     38  C   UNL A   1      39.590  26.619  28.181  1.00  0.00     0.029 A 
ATOM     39  N   UNL A   1      41.645  27.191  28.847  1.00  0.00    -0.354 N 
ATOM     40  C   UNL A   1      42.478  31.186  30.283  1.00  0.00     0.074 A 
ATOM     41  C   UNL A   1      41.285  32.005  30.272  1.00  0.00     0.031 C 
ATOM     42  C   UNL A   1      40.388  25.559  27.976  1.00  0.00     0.029 A 
ATOM     43  C   UNL A   1      41.749  25.905  28.371  1.00  0.00     0.049 A 
ATOM     44  H   UNL A   1      42.408  27.693  29.214  1.00  0.00     0.167 HD
ATOM     45  C   UNL A   1      43.692  31.614  30.703  1.00  0.00     0.037 A 
ATOM     46  C   UNL A   1      42.823  25.099  28.251  1.00  0.00     0.037 A 
ATOM     47  C   UNL A   1      44.873  30.791  30.719  1.00  0.00     0.049 A 
ATOM     48  C   UNL A   1      44.165  25.598  28.710  1.00  0.00     0.074 A 
ATOM     49  C   UNL A   1      46.139  31.109  31.177  1.00  0.00     0.029 A 
ATOM     50  N   UNL A   1      44.936  29.486  30.248  1.00  0.00    -0.354 N 
ATOM     51  N   UNL A   1      44.479  26.767  29.215  1.00  0.00    -0.248 NA
ATOM     52  C   UNL A   1      45.298  24.670  28.586  1.00  0.00     0.031 C 
ATOM     53  C   UNL A   1      46.978  30.015  30.942  1.00  0.00     0.029 A 
ATOM     54  C   UNL A   1      46.225  28.996  30.380  1.00  0.00     0.049 A 
ATOM     55  H   UNL A   1      44.176  28.983  29.875  1.00  0.00     0.167 HD
ATOM     56  C   UNL A   1      45.844  26.713  29.479  1.00  0.00     0.074 A 
ATOM     57  C   UNL A   1      46.290  25.388  29.099  1.00  0.00     0.031 C 
ATOM     58  C   UNL A   1      46.653  27.675  29.988  1.00  0.00     0.037 A 
BRANCH  45  59
ATOM     59  C   UNL A   1      43.796  33.035  31.184  1.00  0.00     0.058 A 
ATOM     60  C   UNL A   1      43.532  33.377  32.521  1.00  0.00     0.135 A 
ATOM     61  C   UNL A   1      44.176  34.065  30.309  1.00  0.00     0.135 A 
ATOM     62  F   UNL A   1      43.149  32.434  33.397  1.00  0.00    -0.206 F 
ATOM     63  C   UNL A   1      43.601  34.693  32.964  1.00  0.00     0.059 A 
ATOM     64  C   UNL A   1      44.281  35.385  30.738  1.00  0.00     0.059 A 
ATOM     65  F   UNL A   1      44.442  33.795  29.022  1.00  0.00    -0.206 F 
ATOM     66  C   UNL A   1      43.973  35.692  32.063  1.00  0.00     0.060 A 
BRANCH  66  67
ATOM     67  S   UNL A   1      44.048  37.396  32.651  1.00  0.00     0.124 S 
ATOM     68  O   UNL A   1      45.372  37.433  33.264  1.00  0.00    -0.237 OA
ATOM     69  O   UNL A   1      43.902  38.159  31.415  1.00  0.00    -0.237 OA
ATOM     70  O   UNL A   1      42.924  37.487  33.577  1.00  0.00    -0.744 OA
ENDBRANCH  66  67
ENDBRANCH  45  59
BRANCH  46  71
ATOM     71  C   UNL A   1      42.663  23.736  27.678  1.00  0.00     0.058 A 
ATOM     72  C   UNL A   1      42.734  23.519  26.295  1.00  0.00     0.135 A 
ATOM     73  C   UNL A   1      42.472  22.618  28.506  1.00  0.00     0.135 A 
ATOM     74  F   UNL A   1      42.909  24.557  25.462  1.00  0.00    -0.206 F 
ATOM     75  C   UNL A   1      42.615  22.245  25.749  1.00  0.00     0.059 A 
ATOM     76  C   UNL A   1      42.373  21.331  27.986  1.00  0.00     0.059 A 
ATOM     77  F   UNL A   1      42.413  22.769  29.838  1.00  0.00    -0.206 F 
ATOM     78  C   UNL A   1      42.440  21.156  26.604  1.00  0.00     0.060 A 
BRANCH  78  79
ATOM     79  S   UNL A   1      42.357  19.498  25.891  1.00  0.00     0.124 S 
ATOM     80  O   UNL A   1      43.376  19.575  24.850  1.00  0.00    -0.237 OA
ATOM     81  O   UNL A   1      42.677  18.654  27.037  1.00  0.00    -0.237 OA
ATOM     82  O   UNL A   1      40.978  19.405  25.420  1.00  0.00    -0.744 OA
ENDBRANCH  78  79
ENDBRANCH  46  71
BRANCH  58  83
ATOM     83  C   UNL A   1      48.106  27.332  30.167  1.00  0.00     0.058 A 
ATOM     84  C   UNL A   1      49.041  27.546  29.143  1.00  0.00     0.135 A 
ATOM     85  C   UNL A   1      48.578  26.843  31.396  1.00  0.00     0.135 A 
ATOM     86  F   UNL A   1      48.640  28.003  27.946  1.00  0.00    -0.206 F 
ATOM     87  C   UNL A   1      50.393  27.275  29.326  1.00  0.00     0.059 A 
ATOM     88  C   UNL A   1      49.929  26.590  31.610  1.00  0.00     0.059 A 
ATOM     89  F   UNL A   1      47.725  26.628  32.411  1.00  0.00    -0.206 F 
ATOM     90  C   UNL A   1      50.828  26.801  30.565  1.00  0.00     0.060 A 
BRANCH  90  91
ATOM     91  S   UNL A   1      52.592  26.499  30.803  1.00  0.00     0.124 S 
ATOM     92  O   UNL A   1      53.060  26.390  29.425  1.00  0.00    -0.237 OA
ATOM     93  O   UNL A   1      53.019  27.693  31.525  1.00  0.00    -0.237 OA
ATOM     94  O   UNL A   1      52.624  25.261  31.577  1.00  0.00    -0.744 OA
ENDBRANCH  90  91
ENDBRANCH  58  83
ENDBRANCH  32  33
ENDBRANCH  24  27
ENDBRANCH  22  23
ENDBRANCH  21  22
ENDBRANCH   1  21
TORSDOF 18
ENDMDL
MODEL 3
REMARK VINA RESULT:     -10.3      4.913     10.560
REMARK SMILES NC(=O)CC[C@H](C(=O)NCCCCNC(=O)c1ccc(-c2c3nc(c(-c4c(F)cc(S(=O)(=O)[O-])cc4F)c4ccc([nH]4)c(-c4c(F)cc(S(=O)(=O)[O-])cc4F)c4nc(c(-c5c(F)cc(S(=O)(=O)[O-])cc5F)c5ccc2[nH]5)C=C4)C=C3)cc1)N1CCOC1=O
REMARK SMILES IDX 11 1 10 2 9 3 7 4 8 5 6 7 5 8 4 9 2 10 1 11 3 14 83 15 84 16
REMARK SMILES IDX 87 17 85 18 86 19 88 20 12 21 13 22 14 23 15 24 16 26 17 27
REMARK SMILES IDX 18 28 82 29 19 30 81 31 20 32 21 33 22 34 75 35 23 36 80 37
REMARK SMILES IDX 74 38 76 39 24 40 79 41 73 42 72 43 25 45 59 46 38 47 58 48
REMARK SMILES IDX 39 49 42 50 57 51 77 52 40 53 41 54 56 56 78 57 43 58 26 59
REMARK SMILES IDX 27 60 36 61 28 62 29 63 35 64 37 65 30 66 31 67 32 68 33 69
REMARK SMILES IDX 34 70 60 71 61 72 70 73 62 74 63 75 69 76 71 77 64 78 65 79
REMARK SMILES IDX 66 80 67 81 68 82 44 83 45 84 54 85 46 86 47 87 53 88 55 89
REMARK SMILES IDX 48 90 49 91 50 92 51 93 52 94
REMARK H PARENT 9 6 1 12 1 13 14 25 76 44 42 55
REMARK Flexibility Score: inf
ROOT
ATOM      1  C   UNL A   1      38.082  22.063  25.049  1.00  0.00     0.023 C 
ENDROOT
BRANCH   1   2
ATOM      2  C   UNL A   1      36.916  21.092  24.865  1.00  0.00     0.116 C 
BRANCH   2   3
ATOM      3  N   UNL A   1      35.914  21.249  25.895  1.00  0.00    -0.354 N 
ATOM      4  C   UNL A   1      34.570  21.441  25.835  1.00  0.00     0.242 C 
ATOM      5  O   UNL A   1      33.987  21.500  26.928  1.00  0.00    -0.273 OA
ATOM      6  H   UNL A   1      36.272  21.211  26.811  1.00  0.00     0.163 HD
BRANCH   4   7
ATOM      7  C   UNL A   1      33.772  21.810  24.543  1.00  0.00     0.178 C 
BRANCH   7   8
ATOM      8  C   UNL A   1      32.698  20.709  24.318  1.00  0.00     0.045 C 
BRANCH   8   9
ATOM      9  C   UNL A   1      33.190  19.261  24.231  1.00  0.00     0.102 C 
BRANCH   9  10
ATOM     10  C   UNL A   1      32.594  18.340  25.271  1.00  0.00     0.217 C 
ATOM     11  N   UNL A   1      32.934  18.589  26.564  1.00  0.00    -0.370 N 
ATOM     12  H   UNL A   1      32.575  18.021  27.284  1.00  0.00     0.159 HD
ATOM     13  H   UNL A   1      33.537  19.335  26.779  1.00  0.00     0.159 HD
ATOM     14  O   UNL A   1      31.814  17.434  24.999  1.00  0.00    -0.275 OA
ENDBRANCH   9  10
ENDBRANCH   8   9
ENDBRANCH   7   8
BRANCH   7  15
ATOM     15  N   UNL A   1      33.275  23.171  24.325  1.00  0.00    -0.293 N 
ATOM     16  C   UNL A   1      32.156  23.708  25.053  1.00  0.00     0.165 C 
ATOM     17  C   UNL A   1      33.180  23.706  23.046  1.00  0.00     0.410 C 
ATOM     18  C   UNL A   1      32.007  25.065  24.421  1.00  0.00     0.256 C 
ATOM     19  O   UNL A   1      32.403  24.835  23.066  1.00  0.00    -0.448 OA
ATOM     20  O   UNL A   1      33.706  23.271  22.036  1.00  0.00    -0.224 OA
ENDBRANCH   7  15
ENDBRANCH   4   7
ENDBRANCH   2   3
ENDBRANCH   1   2
BRANCH   1  21
ATOM     21  C   UNL A   1      37.799  23.237  25.978  1.00  0.00     0.023 C 
BRANCH  21  22
ATOM     22  C   UNL A   1      38.899  23.538  26.989  1.00  0.00     0.116 C 
BRANCH  22  23
ATOM     23  N   UNL A   1      40.231  23.631  26.400  1.00  0.00    -0.352 N 
ATOM     24  C   UNL A   1      41.133  24.665  26.504  1.00  0.00     0.251 C 
ATOM     25  H   UNL A   1      40.518  22.860  25.862  1.00  0.00     0.163 HD
ATOM     26  O   UNL A   1      42.190  24.638  25.881  1.00  0.00    -0.269 OA
BRANCH  24  27
ATOM     27  C   UNL A   1      40.776  25.824  27.343  1.00  0.00     0.039 A 
ATOM     28  C   UNL A   1      39.790  25.673  28.318  1.00  0.00     0.014 A 
ATOM     29  C   UNL A   1      41.517  27.006  27.247  1.00  0.00     0.014 A 
ATOM     30  C   UNL A   1      39.615  26.679  29.270  1.00  0.00     0.010 A 
ATOM     31  C   UNL A   1      41.396  27.967  28.243  1.00  0.00     0.010 A 
ATOM     32  C   UNL A   1      40.458  27.803  29.274  1.00  0.00    -0.014 A 
BRANCH  32  33
ATOM     33  C   UNL A   1      40.413  28.795  30.377  1.00  0.00     0.031 A 
ATOM     34  C   UNL A   1      41.303  28.631  31.576  1.00  0.00     0.074 A 
ATOM     35  C   UNL A   1      39.505  29.791  30.337  1.00  0.00     0.049 A 
ATOM     36  N   UNL A   1      41.347  29.340  32.673  1.00  0.00    -0.248 NA
ATOM     37  C   UNL A   1      42.249  27.504  31.548  1.00  0.00     0.031 C 
ATOM     38  C   UNL A   1      38.540  30.014  29.256  1.00  0.00     0.029 A 
ATOM     39  N   UNL A   1      39.229  30.791  31.235  1.00  0.00    -0.354 N 
ATOM     40  C   UNL A   1      42.318  28.744  33.468  1.00  0.00     0.074 A 
ATOM     41  C   UNL A   1      42.793  27.579  32.754  1.00  0.00     0.031 C 
ATOM     42  C   UNL A   1      37.792  31.090  29.548  1.00  0.00     0.029 A 
ATOM     43  C   UNL A   1      38.193  31.610  30.851  1.00  0.00     0.049 A 
ATOM     44  H   UNL A   1      39.727  30.912  32.076  1.00  0.00     0.167 HD
ATOM     45  C   UNL A   1      42.791  29.147  34.671  1.00  0.00     0.037 A 
ATOM     46  C   UNL A   1      37.618  32.652  31.483  1.00  0.00     0.037 A 
ATOM     47  C   UNL A   1      42.318  30.312  35.372  1.00  0.00     0.049 A 
ATOM     48  C   UNL A   1      38.149  33.075  32.825  1.00  0.00     0.074 A 
ATOM     49  C   UNL A   1      42.768  30.839  36.569  1.00  0.00     0.029 A 
ATOM     50  N   UNL A   1      41.281  31.129  34.941  1.00  0.00    -0.354 N 
ATOM     51  N   UNL A   1      39.121  32.546  33.529  1.00  0.00    -0.248 NA
ATOM     52  C   UNL A   1      37.508  34.236  33.460  1.00  0.00     0.031 C 
ATOM     53  C   UNL A   1      41.975  31.947  36.886  1.00  0.00     0.029 A 
ATOM     54  C   UNL A   1      41.059  32.139  35.863  1.00  0.00     0.049 A 
ATOM     55  H   UNL A   1      40.776  31.007  34.105  1.00  0.00     0.167 HD
ATOM     56  C   UNL A   1      39.217  33.314  34.684  1.00  0.00     0.074 A 
ATOM     57  C   UNL A   1      38.218  34.359  34.573  1.00  0.00     0.031 C 
ATOM     58  C   UNL A   1      40.053  33.167  35.741  1.00  0.00     0.037 A 
BRANCH  45  59
ATOM     59  C   UNL A   1      43.879  28.320  35.298  1.00  0.00     0.058 A 
ATOM     60  C   UNL A   1      45.237  28.600  35.069  1.00  0.00     0.135 A 
ATOM     61  C   UNL A   1      43.568  27.246  36.147  1.00  0.00     0.135 A 
ATOM     62  F   UNL A   1      45.591  29.605  34.252  1.00  0.00    -0.206 F 
ATOM     63  C   UNL A   1      46.245  27.821  35.625  1.00  0.00     0.059 A 
ATOM     64  C   UNL A   1      44.562  26.472  36.739  1.00  0.00     0.059 A 
ATOM     65  F   UNL A   1      42.288  26.935  36.402  1.00  0.00    -0.206 F 
ATOM     66  C   UNL A   1      45.898  26.756  36.456  1.00  0.00     0.060 A 
BRANCH  66  67
ATOM     67  S   UNL A   1      47.219  25.749  37.162  1.00  0.00     0.124 S 
ATOM     68  O   UNL A   1      46.685  25.460  38.489  1.00  0.00    -0.237 OA
ATOM     69  O   UNL A   1      47.273  24.617  36.242  1.00  0.00    -0.237 OA
ATOM     70  O   UNL A   1      48.378  26.635  37.131  1.00  0.00    -0.744 OA
ENDBRANCH  66  67
ENDBRANCH  45  59
BRANCH  46  71
ATOM     71  C   UNL A   1      36.481  33.368  30.845  1.00  0.00     0.058 A 
ATOM     72  C   UNL A   1      35.176  33.240  31.339  1.00  0.00     0.135 A 
ATOM     73  C   UNL A   1      36.684  34.222  29.749  1.00  0.00     0.135 A 
ATOM     74  F   UNL A   1      34.930  32.429  32.381  1.00  0.00    -0.206 F 
ATOM     75  C   UNL A   1      34.109  33.927  30.768  1.00  0.00     0.059 A 
ATOM     76  C   UNL A   1      35.637  34.938  29.175  1.00  0.00     0.059 A 
ATOM     77  F   UNL A   1      37.917  34.392  29.248  1.00  0.00    -0.206 F 
ATOM     78  C   UNL A   1      34.352  34.779  29.690  1.00  0.00     0.060 A 
BRANCH  78  79
ATOM     79  S   UNL A   1      32.972  35.719  29.000  1.00  0.00     0.124 S 
ATOM     80  O   UNL A   1      33.665  36.824  28.349  1.00  0.00    -0.237 OA
ATOM     81  O   UNL A   1      32.349  34.743  28.112  1.00  0.00    -0.237 OA
ATOM     82  O   UNL A   1      32.186  36.072  30.179  1.00  0.00    -0.744 OA
ENDBRANCH  78  79
ENDBRANCH  46  71
BRANCH  58  83
ATOM     83  C   UNL A   1      39.930  34.158  36.864  1.00  0.00     0.058 A 
ATOM     84  C   UNL A   1      40.528  35.426  36.791  1.00  0.00     0.135 A 
ATOM     85  C   UNL A   1      39.153  33.862  37.996  1.00  0.00     0.135 A 
ATOM     86  F   UNL A   1      41.289  35.754  35.735  1.00  0.00    -0.206 F 
ATOM     87  C   UNL A   1      40.372  36.361  37.808  1.00  0.00     0.059 A 
ATOM     88  C   UNL A   1      38.961  34.793  39.013  1.00  0.00     0.059 A 
ATOM     89  F   UNL A   1      38.552  32.667  38.110  1.00  0.00    -0.206 F 
ATOM     90  C   UNL A   1      39.583  36.037  38.914  1.00  0.00     0.060 A 
BRANCH  90  91
ATOM     91  S   UNL A   1      39.350  37.278  40.204  1.00  0.00     0.124 S 
ATOM     92  O   UNL A   1      38.597  38.306  39.490  1.00  0.00    -0.237 OA
ATOM     93  O   UNL A   1      38.608  36.539  41.219  1.00  0.00    -0.237 OA
ATOM     94  O   UNL A   1      40.714  37.643  40.574  1.00  0.00    -0.744 OA
ENDBRANCH  90  91
ENDBRANCH  58  83
ENDBRANCH  32  33
ENDBRANCH  24  27
ENDBRANCH  22  23
ENDBRANCH  21  22
ENDBRANCH   1  21
TORSDOF 18
ENDMDL
