MODEL 1
REMARK VINA RESULT:     -11.7      0.000      0.000
REMARK SMILES Cc1nc(C)c(C(=O)N2CCC([C@H](C)C(=O)NCCCCNC(=O)c3ccc(-c4c5nc(c(-c6c(F)cc(S(=O)(=O)[O-])cc6F)c6ccc([nH]6)c(-c6c(F)cc(S(=O)(=O)[O-])cc6F)c6nc(c(-c7c(F)cc(S(=O)(=O)[O-])cc7F)c7ccc4[nH]7)C=C6)C=C5)cc3)CC2)s1
REMARK SMILES IDX 20 1 19 2 18 3 17 4 15 5 16 6 13 8 14 9 12 10 7 11 8 12 9 13
REMARK SMILES IDX 10 14 92 15 11 16 91 17 6 18 1 19 2 20 3 21 93 22 4 23 5 24
REMARK SMILES IDX 21 25 22 26 23 27 24 29 25 30 26 31 90 32 27 33 89 34 28 35
REMARK SMILES IDX 29 36 30 37 83 38 31 39 88 40 82 41 84 42 32 43 87 44 81 45
REMARK SMILES IDX 80 46 33 48 67 49 46 50 66 51 47 52 50 53 65 54 85 55 48 56
REMARK SMILES IDX 49 57 64 59 86 60 51 61 34 62 35 63 44 64 36 65 37 66 43 67
REMARK SMILES IDX 45 68 38 69 39 70 40 71 41 72 42 73 68 74 69 75 78 76 70 77
REMARK SMILES IDX 71 78 77 79 79 80 72 81 73 82 74 83 75 84 76 85 52 86 53 87
REMARK SMILES IDX 62 88 54 89 55 90 61 91 63 92 56 93 57 94 58 95 59 96 60 97
REMARK H PARENT 17 7 22 28 84 47 50 58
REMARK Flexibility Score: inf
ROOT
ATOM      1  C   UNL A   1      33.673  28.412  25.764  1.00  0.00     0.023 C 
ENDROOT
BRANCH   1   2
ATOM      2  C   UNL A   1      33.015  29.558  25.005  1.00  0.00     0.023 C 
BRANCH   2   3
ATOM      3  C   UNL A   1      31.536  29.371  24.710  1.00  0.00     0.116 C 
BRANCH   3   4
ATOM      4  N   UNL A   1      31.269  28.820  23.402  1.00  0.00    -0.356 N 
ATOM      5  C   UNL A   1      30.526  27.737  23.055  1.00  0.00     0.223 C 
ATOM      6  O   UNL A   1      30.323  27.544  21.852  1.00  0.00    -0.275 OA
ATOM      7  H   UNL A   1      31.686  29.301  22.650  1.00  0.00     0.163 HD
BRANCH   5   8
ATOM      8  C   UNL A   1      29.950  26.764  24.092  1.00  0.00     0.078 C 
ATOM      9  C   UNL A   1      28.426  26.662  23.966  1.00  0.00     0.018 C 
BRANCH   8  10
ATOM     10  C   UNL A   1      30.723  25.425  24.323  1.00  0.00     0.005 C 
ATOM     11  C   UNL A   1      34.026  23.107  23.263  1.00  0.00     0.265 C 
ATOM     12  O   UNL A   1      34.037  23.131  22.031  1.00  0.00    -0.268 OA
ATOM     13  N   UNL A   1      32.880  23.520  23.948  1.00  0.00    -0.338 N 
ATOM     14  C   UNL A   1      31.580  23.214  23.387  1.00  0.00     0.120 C 
ATOM     15  C   UNL A   1      32.881  24.311  25.173  1.00  0.00     0.120 C 
ATOM     16  C   UNL A   1      30.778  24.474  23.109  1.00  0.00     0.026 C 
ATOM     17  C   UNL A   1      32.116  25.621  24.966  1.00  0.00     0.026 C 
BRANCH  11  18
ATOM     18  C   UNL A   1      35.129  22.549  24.033  1.00  0.00     0.115 A 
ATOM     19  C   UNL A   1      38.448  22.414  26.061  1.00  0.00     0.079 C 
ATOM     20  C   UNL A   1      37.140  22.248  25.372  1.00  0.00     0.091 A 
ATOM     21  N   UNL A   1      36.347  21.215  25.527  1.00  0.00    -0.246 NA
ATOM     22  S   UNL A   1      36.555  23.469  24.333  1.00  0.00    -0.113 S 
ATOM     23  C   UNL A   1      35.178  21.383  24.787  1.00  0.00     0.061 A 
ATOM     24  C   UNL A   1      34.135  20.329  24.931  1.00  0.00     0.068 C 
ENDBRANCH  11  18
ENDBRANCH   8  10
ENDBRANCH   5   8
ENDBRANCH   3   4
ENDBRANCH   2   3
ENDBRANCH   1   2
BRANCH   1  25
ATOM     25  C   UNL A   1      33.657  28.540  27.283  1.00  0.00     0.116 C 
BRANCH  25  26
ATOM     26  N   UNL A   1      33.574  29.919  27.747  1.00  0.00    -0.352 N 
ATOM     27  C   UNL A   1      34.532  30.677  28.380  1.00  0.00     0.251 C 
ATOM     28  H   UNL A   1      32.714  30.369  27.587  1.00  0.00     0.163 HD
ATOM     29  O   UNL A   1      34.252  31.786  28.822  1.00  0.00    -0.269 OA
BRANCH  27  30
ATOM     30  C   UNL A   1      35.892  30.126  28.553  1.00  0.00     0.039 A 
ATOM     31  C   UNL A   1      36.772  30.143  27.469  1.00  0.00     0.014 A 
ATOM     32  C   UNL A   1      36.307  29.640  29.796  1.00  0.00     0.014 A 
ATOM     33  C   UNL A   1      38.098  29.748  27.656  1.00  0.00     0.010 A 
ATOM     34  C   UNL A   1      37.647  29.325  29.997  1.00  0.00     0.010 A 
ATOM     35  C   UNL A   1      38.557  29.377  28.931  1.00  0.00    -0.014 A 
BRANCH  35  36
ATOM     36  C   UNL A   1      39.985  29.048  29.170  1.00  0.00     0.031 A 
ATOM     37  C   UNL A   1      40.915  30.089  29.730  1.00  0.00     0.074 A 
ATOM     38  C   UNL A   1      40.458  27.834  28.819  1.00  0.00     0.049 A 
ATOM     39  N   UNL A   1      42.204  30.015  29.941  1.00  0.00    -0.248 NA
ATOM     40  C   UNL A   1      40.325  31.393  30.068  1.00  0.00     0.031 C 
ATOM     41  C   UNL A   1      39.668  26.761  28.211  1.00  0.00     0.029 A 
ATOM     42  N   UNL A   1      41.719  27.302  28.915  1.00  0.00    -0.354 N 
ATOM     43  C   UNL A   1      42.579  31.262  30.429  1.00  0.00     0.074 A 
ATOM     44  C   UNL A   1      41.393  32.092  30.423  1.00  0.00     0.031 C 
ATOM     45  C   UNL A   1      40.459  25.694  28.004  1.00  0.00     0.029 A 
ATOM     46  C   UNL A   1      41.815  26.016  28.435  1.00  0.00     0.049 A 
ATOM     47  H   UNL A   1      42.485  27.794  29.291  1.00  0.00     0.167 HD
ATOM     48  C   UNL A   1      43.793  31.670  30.871  1.00  0.00     0.037 A 
ATOM     49  C   UNL A   1      42.878  25.192  28.348  1.00  0.00     0.037 A 
ATOM     50  C   UNL A   1      44.963  30.834  30.897  1.00  0.00     0.049 A 
ATOM     51  C   UNL A   1      44.213  25.663  28.857  1.00  0.00     0.074 A 
ATOM     52  C   UNL A   1      46.229  31.139  31.365  1.00  0.00     0.029 A 
ATOM     53  N   UNL A   1      45.011  29.525  30.440  1.00  0.00    -0.354 N 
ATOM     54  N   UNL A   1      44.535  26.827  29.369  1.00  0.00    -0.248 NA
ATOM     55  C   UNL A   1      45.327  24.707  28.786  1.00  0.00     0.031 C 
ATOM     56  C   UNL A   1      47.051  30.025  31.161  1.00  0.00     0.029 A 
ATOM     57  C   UNL A   1      46.286  29.011  30.606  1.00  0.00     0.049 A 
ATOM     58  H   UNL A   1      44.249  29.033  30.054  1.00  0.00     0.167 HD
ATOM     59  C   UNL A   1      45.882  26.736  29.705  1.00  0.00     0.074 A 
ATOM     60  C   UNL A   1      46.309  25.397  29.350  1.00  0.00     0.031 C 
ATOM     61  C   UNL A   1      46.692  27.673  30.255  1.00  0.00     0.037 A 
BRANCH  48  62
ATOM     62  C   UNL A   1      43.906  33.082  31.377  1.00  0.00     0.058 A 
ATOM     63  C   UNL A   1      44.220  34.146  30.515  1.00  0.00     0.135 A 
ATOM     64  C   UNL A   1      43.672  33.382  32.729  1.00  0.00     0.135 A 
ATOM     65  F   UNL A   1      44.469  33.913  29.217  1.00  0.00    -0.206 F 
ATOM     66  C   UNL A   1      44.330  35.451  30.981  1.00  0.00     0.059 A 
ATOM     67  C   UNL A   1      43.749  34.686  33.211  1.00  0.00     0.059 A 
ATOM     68  F   UNL A   1      43.369  32.404  33.597  1.00  0.00    -0.206 F 
ATOM     69  C   UNL A   1      44.094  35.712  32.332  1.00  0.00     0.060 A 
BRANCH  69  70
ATOM     70  S   UNL A   1      44.237  37.412  32.919  1.00  0.00     0.124 S 
ATOM     71  O   UNL A   1      44.147  38.160  31.668  1.00  0.00    -0.237 OA
ATOM     72  O   UNL A   1      43.091  37.533  33.813  1.00  0.00    -0.237 OA
ATOM     73  O   UNL A   1      45.543  37.437  33.572  1.00  0.00    -0.744 OA
ENDBRANCH  69  70
ENDBRANCH  48  62
BRANCH  49  74
ATOM     74  C   UNL A   1      42.718  23.829  27.774  1.00  0.00     0.058 A 
ATOM     75  C   UNL A   1      42.498  22.718  28.602  1.00  0.00     0.135 A 
ATOM     76  C   UNL A   1      42.775  23.611  26.389  1.00  0.00     0.135 A 
ATOM     77  F   UNL A   1      42.440  22.875  29.933  1.00  0.00    -0.206 F 
ATOM     78  C   UNL A   1      42.362  21.436  28.080  1.00  0.00     0.059 A 
ATOM     79  C   UNL A   1      42.616  22.342  25.842  1.00  0.00     0.059 A 
ATOM     80  F   UNL A   1      42.963  24.644  25.553  1.00  0.00    -0.206 F 
ATOM     81  C   UNL A   1      42.422  21.258  26.697  1.00  0.00     0.060 A 
BRANCH  81  82
ATOM     82  S   UNL A   1      42.203  19.595  26.026  1.00  0.00     0.124 S 
ATOM     83  O   UNL A   1      40.768  19.571  25.766  1.00  0.00    -0.237 OA
ATOM     84  O   UNL A   1      43.066  19.621  24.850  1.00  0.00    -0.237 OA
ATOM     85  O   UNL A   1      42.663  18.734  27.111  1.00  0.00    -0.744 OA
ENDBRANCH  81  82
ENDBRANCH  49  74
BRANCH  61  86
ATOM     86  C   UNL A   1      48.114  27.276  30.539  1.00  0.00     0.058 A 
ATOM     87  C   UNL A   1      48.475  26.634  31.734  1.00  0.00     0.135 A 
ATOM     88  C   UNL A   1      49.117  27.499  29.583  1.00  0.00     0.135 A 
ATOM     89  F   UNL A   1      47.553  26.402  32.682  1.00  0.00    -0.206 F 
ATOM     90  C   UNL A   1      49.789  26.251  31.982  1.00  0.00     0.059 A 
ATOM     91  C   UNL A   1      50.432  27.100  29.800  1.00  0.00     0.059 A 
ATOM     92  F   UNL A   1      48.822  28.100  28.420  1.00  0.00    -0.206 F 
ATOM     93  C   UNL A   1      50.761  26.487  31.008  1.00  0.00     0.060 A 
BRANCH  93  94
ATOM     94  S   UNL A   1      52.457  25.959  31.329  1.00  0.00     0.124 S 
ATOM     95  O   UNL A   1      52.911  26.984  32.263  1.00  0.00    -0.237 OA
ATOM     96  O   UNL A   1      52.268  24.627  31.894  1.00  0.00    -0.237 OA
ATOM     97  O   UNL A   1      53.078  25.991  30.010  1.00  0.00    -0.744 OA
ENDBRANCH  93  94
ENDBRANCH  61  86
ENDBRANCH  35  36
ENDBRANCH  27  30
ENDBRANCH  25  26
ENDBRANCH   1  25
TORSDOF 16
ENDMDL
MODEL 2
REMARK VINA RESULT:     -11.7      1.258      2.056
REMARK SMILES Cc1nc(C)c(C(=O)N2CCC([C@H](C)C(=O)NCCCCNC(=O)c3ccc(-c4c5nc(c(-c6c(F)cc(S(=O)(=O)[O-])cc6F)c6ccc([nH]6)c(-c6c(F)cc(S(=O)(=O)[O-])cc6F)c6nc(c(-c7c(F)cc(S(=O)(=O)[O-])cc7F)c7ccc4[nH]7)C=C6)C=C5)cc3)CC2)s1
REMARK SMILES IDX 20 1 19 2 18 3 17 4 15 5 16 6 13 8 14 9 12 10 7 11 8 12 9 13
REMARK SMILES IDX 10 14 92 15 11 16 91 17 6 18 1 19 2 20 3 21 93 22 4 23 5 24
REMARK SMILES IDX 21 25 22 26 23 27 24 29 25 30 26 31 90 32 27 33 89 34 28 35
REMARK SMILES IDX 29 36 30 37 83 38 31 39 88 40 82 41 84 42 32 43 87 44 81 45
REMARK SMILES IDX 80 46 33 48 67 49 46 50 66 51 47 52 50 53 65 54 85 55 48 56
REMARK SMILES IDX 49 57 64 59 86 60 51 61 34 62 35 63 44 64 36 65 37 66 43 67
REMARK SMILES IDX 45 68 38 69 39 70 40 71 41 72 42 73 68 74 69 75 78 76 70 77
REMARK SMILES IDX 71 78 77 79 79 80 72 81 73 82 74 83 75 84 76 85 52 86 53 87
REMARK SMILES IDX 62 88 54 89 55 90 61 91 63 92 56 93 57 94 58 95 59 96 60 97
REMARK H PARENT 17 7 22 28 84 47 50 58
REMARK Flexibility Score: inf
ROOT
ATOM      1  C   UNL A   1      32.616  28.100  26.112  1.00  0.00     0.023 C 
ENDROOT
BRANCH   1   2
ATOM      2  C   UNL A   1      31.757  29.223  25.545  1.00  0.00     0.023 C 
BRANCH   2   3
ATOM      3  C   UNL A   1      31.493  29.140  24.050  1.00  0.00     0.116 C 
BRANCH   3   4
ATOM      4  N   UNL A   1      32.693  29.051  23.252  1.00  0.00    -0.356 N 
ATOM      5  C   UNL A   1      33.213  27.987  22.587  1.00  0.00     0.223 C 
ATOM      6  O   UNL A   1      34.182  28.190  21.848  1.00  0.00    -0.275 OA
ATOM      7  H   UNL A   1      33.212  29.886  23.178  1.00  0.00     0.163 HD
BRANCH   5   8
ATOM      8  C   UNL A   1      32.647  26.568  22.730  1.00  0.00     0.078 C 
ATOM      9  C   UNL A   1      31.646  26.258  21.611  1.00  0.00     0.018 C 
BRANCH   8  10
ATOM     10  C   UNL A   1      33.654  25.430  23.101  1.00  0.00     0.005 C 
ATOM     11  C   UNL A   1      34.387  22.105  25.513  1.00  0.00     0.265 C 
ATOM     12  O   UNL A   1      34.079  22.474  26.647  1.00  0.00    -0.268 OA
ATOM     13  N   UNL A   1      34.561  23.058  24.505  1.00  0.00    -0.338 N 
ATOM     14  C   UNL A   1      35.158  24.334  24.843  1.00  0.00     0.120 C 
ATOM     15  C   UNL A   1      34.121  22.901  23.124  1.00  0.00     0.120 C 
ATOM     16  C   UNL A   1      34.223  25.490  24.534  1.00  0.00     0.026 C 
ATOM     17  C   UNL A   1      33.144  24.015  22.742  1.00  0.00     0.026 C 
BRANCH  11  18
ATOM     18  C   UNL A   1      34.692  20.714  25.210  1.00  0.00     0.115 A 
ATOM     19  C   UNL A   1      34.161  17.053  24.001  1.00  0.00     0.079 C 
ATOM     20  C   UNL A   1      34.595  18.401  24.457  1.00  0.00     0.091 A 
ATOM     21  N   UNL A   1      35.847  18.784  24.550  1.00  0.00    -0.246 NA
ATOM     22  S   UNL A   1      33.437  19.588  24.855  1.00  0.00    -0.113 S 
ATOM     23  C   UNL A   1      35.920  20.115  24.956  1.00  0.00     0.061 A 
ATOM     24  C   UNL A   1      37.278  20.723  25.022  1.00  0.00     0.068 C 
ENDBRANCH  11  18
ENDBRANCH   8  10
ENDBRANCH   5   8
ENDBRANCH   3   4
ENDBRANCH   2   3
ENDBRANCH   1   2
BRANCH   1  25
ATOM     25  C   UNL A   1      33.483  28.481  27.307  1.00  0.00     0.116 C 
BRANCH  25  26
ATOM     26  N   UNL A   1      33.445  29.903  27.620  1.00  0.00    -0.352 N 
ATOM     27  C   UNL A   1      34.434  30.698  28.149  1.00  0.00     0.251 C 
ATOM     28  H   UNL A   1      32.593  30.357  27.427  1.00  0.00     0.163 HD
ATOM     29  O   UNL A   1      34.192  31.856  28.474  1.00  0.00    -0.269 OA
BRANCH  27  30
ATOM     30  C   UNL A   1      35.783  30.133  28.357  1.00  0.00     0.039 A 
ATOM     31  C   UNL A   1      36.709  30.190  27.313  1.00  0.00     0.014 A 
ATOM     32  C   UNL A   1      36.143  29.592  29.594  1.00  0.00     0.014 A 
ATOM     33  C   UNL A   1      38.024  29.779  27.539  1.00  0.00     0.010 A 
ATOM     34  C   UNL A   1      37.471  29.259  29.839  1.00  0.00     0.010 A 
ATOM     35  C   UNL A   1      38.427  29.351  28.816  1.00  0.00    -0.014 A 
BRANCH  35  36
ATOM     36  C   UNL A   1      39.842  29.003  29.101  1.00  0.00     0.031 A 
ATOM     37  C   UNL A   1      40.768  30.033  29.688  1.00  0.00     0.074 A 
ATOM     38  C   UNL A   1      40.309  27.782  28.768  1.00  0.00     0.049 A 
ATOM     39  N   UNL A   1      42.048  29.943  29.941  1.00  0.00    -0.248 NA
ATOM     40  C   UNL A   1      40.185  31.346  30.005  1.00  0.00     0.031 C 
ATOM     41  C   UNL A   1      39.525  26.718  28.137  1.00  0.00     0.029 A 
ATOM     42  N   UNL A   1      41.559  27.233  28.905  1.00  0.00    -0.354 N 
ATOM     43  C   UNL A   1      42.424  31.185  30.438  1.00  0.00     0.074 A 
ATOM     44  C   UNL A   1      41.250  32.031  30.392  1.00  0.00     0.031 C 
ATOM     45  C   UNL A   1      40.308  25.641  27.958  1.00  0.00     0.029 A 
ATOM     46  C   UNL A   1      41.653  25.946  28.431  1.00  0.00     0.049 A 
ATOM     47  H   UNL A   1      42.319  27.716  29.305  1.00  0.00     0.167 HD
ATOM     48  C   UNL A   1      43.628  31.578  30.917  1.00  0.00     0.037 A 
ATOM     49  C   UNL A   1      42.706  25.107  28.380  1.00  0.00     0.037 A 
ATOM     50  C   UNL A   1      44.786  30.727  30.983  1.00  0.00     0.049 A 
ATOM     51  C   UNL A   1      44.031  25.561  28.930  1.00  0.00     0.074 A 
ATOM     52  C   UNL A   1      46.040  31.016  31.491  1.00  0.00     0.029 A 
ATOM     53  N   UNL A   1      44.831  29.416  30.530  1.00  0.00    -0.354 N 
ATOM     54  N   UNL A   1      44.352  26.722  29.450  1.00  0.00    -0.248 NA
ATOM     55  C   UNL A   1      45.133  24.590  28.897  1.00  0.00     0.031 C 
ATOM     56  C   UNL A   1      46.853  29.890  31.316  1.00  0.00     0.029 A 
ATOM     57  C   UNL A   1      46.092  28.886  30.738  1.00  0.00     0.049 A 
ATOM     58  H   UNL A   1      44.075  28.933  30.121  1.00  0.00     0.167 HD
ATOM     59  C   UNL A   1      45.686  26.613  29.829  1.00  0.00     0.074 A 
ATOM     60  C   UNL A   1      46.106  25.268  29.491  1.00  0.00     0.031 C 
ATOM     61  C   UNL A   1      46.491  27.541  30.403  1.00  0.00     0.037 A 
BRANCH  48  62
ATOM     62  C   UNL A   1      43.744  32.990  31.424  1.00  0.00     0.058 A 
ATOM     63  C   UNL A   1      43.597  33.293  32.788  1.00  0.00     0.135 A 
ATOM     64  C   UNL A   1      44.031  34.047  30.546  1.00  0.00     0.135 A 
ATOM     65  F   UNL A   1      43.306  32.322  33.668  1.00  0.00    -0.206 F 
ATOM     66  C   UNL A   1      43.699  34.596  33.259  1.00  0.00     0.059 A 
ATOM     67  C   UNL A   1      44.165  35.357  31.001  1.00  0.00     0.059 A 
ATOM     68  F   UNL A   1      44.180  33.816  29.233  1.00  0.00    -0.206 F 
ATOM     69  C   UNL A   1      43.982  35.624  32.357  1.00  0.00     0.060 A 
BRANCH  69  70
ATOM     70  S   UNL A   1      44.114  37.310  32.986  1.00  0.00     0.124 S 
ATOM     71  O   UNL A   1      45.372  37.247  33.724  1.00  0.00    -0.237 OA
ATOM     72  O   UNL A   1      44.139  38.101  31.760  1.00  0.00    -0.237 OA
ATOM     73  O   UNL A   1      42.914  37.463  33.802  1.00  0.00    -0.744 OA
ENDBRANCH  69  70
ENDBRANCH  48  62
BRANCH  49  74
ATOM     74  C   UNL A   1      42.546  23.745  27.804  1.00  0.00     0.058 A 
ATOM     75  C   UNL A   1      42.439  22.618  28.633  1.00  0.00     0.135 A 
ATOM     76  C   UNL A   1      42.492  23.543  26.417  1.00  0.00     0.135 A 
ATOM     77  F   UNL A   1      42.491  22.760  29.966  1.00  0.00    -0.206 F 
ATOM     78  C   UNL A   1      42.304  21.337  28.108  1.00  0.00     0.059 A 
ATOM     79  C   UNL A   1      42.331  22.274  25.868  1.00  0.00     0.059 A 
ATOM     80  F   UNL A   1      42.570  24.590  25.581  1.00  0.00    -0.206 F 
ATOM     81  C   UNL A   1      42.251  21.175  26.723  1.00  0.00     0.060 A 
BRANCH  81  82
ATOM     82  S   UNL A   1      42.034  19.512  26.051  1.00  0.00     0.124 S 
ATOM     83  O   UNL A   1      42.484  18.685  27.165  1.00  0.00    -0.237 OA
ATOM     84  O   UNL A   1      40.603  19.479  25.767  1.00  0.00    -0.237 OA
ATOM     85  O   UNL A   1      42.898  19.513  24.874  1.00  0.00    -0.744 OA
ENDBRANCH  81  82
ENDBRANCH  49  74
BRANCH  61  86
ATOM     86  C   UNL A   1      47.897  27.125  30.733  1.00  0.00     0.058 A 
ATOM     87  C   UNL A   1      48.212  26.486  31.942  1.00  0.00     0.135 A 
ATOM     88  C   UNL A   1      48.933  27.329  29.808  1.00  0.00     0.135 A 
ATOM     89  F   UNL A   1      47.259  26.272  32.863  1.00  0.00    -0.206 F 
ATOM     90  C   UNL A   1      49.512  26.085  32.233  1.00  0.00     0.059 A 
ATOM     91  C   UNL A   1      50.235  26.912  30.068  1.00  0.00     0.059 A 
ATOM     92  F   UNL A   1      48.682  27.927  28.633  1.00  0.00    -0.206 F 
ATOM     93  C   UNL A   1      50.517  26.302  31.289  1.00  0.00     0.060 A 
BRANCH  93  94
ATOM     94  S   UNL A   1      52.195  25.751  31.666  1.00  0.00     0.124 S 
ATOM     95  O   UNL A   1      52.857  25.928  30.377  1.00  0.00    -0.237 OA
ATOM     96  O   UNL A   1      52.599  26.677  32.718  1.00  0.00    -0.237 OA
ATOM     97  O   UNL A   1      52.010  24.368  32.093  1.00  0.00    -0.744 OA
ENDBRANCH  93  94
ENDBRANCH  61  86
ENDBRANCH  35  36
ENDBRANCH  27  30
ENDBRANCH  25  26
ENDBRANCH   1  25
TORSDOF 16
ENDMDL
MODEL 3
REMARK VINA RESULT:     -11.5      4.813     10.596
REMARK SMILES Cc1nc(C)c(C(=O)N2CCC([C@H](C)C(=O)NCCCCNC(=O)c3ccc(-c4c5nc(c(-c6c(F)cc(S(=O)(=O)[O-])cc6F)c6ccc([nH]6)c(-c6c(F)cc(S(=O)(=O)[O-])cc6F)c6nc(c(-c7c(F)cc(S(=O)(=O)[O-])cc7F)c7ccc4[nH]7)C=C6)C=C5)cc3)CC2)s1
REMARK SMILES IDX 20 1 19 2 18 3 17 4 15 5 16 6 13 8 14 9 12 10 7 11 8 12 9 13
REMARK SMILES IDX 10 14 92 15 11 16 91 17 6 18 1 19 2 20 3 21 93 22 4 23 5 24
REMARK SMILES IDX 21 25 22 26 23 27 24 29 25 30 26 31 90 32 27 33 89 34 28 35
REMARK SMILES IDX 29 36 30 37 83 38 31 39 88 40 82 41 84 42 32 43 87 44 81 45
REMARK SMILES IDX 80 46 33 48 67 49 46 50 66 51 47 52 50 53 65 54 85 55 48 56
REMARK SMILES IDX 49 57 64 59 86 60 51 61 34 62 35 63 44 64 36 65 37 66 43 67
REMARK SMILES IDX 45 68 38 69 39 70 40 71 41 72 42 73 68 74 69 75 78 76 70 77
REMARK SMILES IDX 71 78 77 79 79 80 72 81 73 82 74 83 75 84 76 85 52 86 53 87
REMARK SMILES IDX 62 88 54 89 55 90 61 91 63 92 56 93 57 94 58 95 59 96 60 97
REMARK H PARENT 17 7 22 28 84 47 50 58
REMARK Flexibility Score: inf
ROOT
ATOM      1  C   UNL A   1      37.638  23.001  26.318  1.00  0.00     0.023 C 
ENDROOT
BRANCH   1   2
ATOM      2  C   UNL A   1      37.743  22.045  25.136  1.00  0.00     0.023 C 
BRANCH   2   3
ATOM      3  C   UNL A   1      36.589  21.065  24.994  1.00  0.00     0.116 C 
BRANCH   3   4
ATOM      4  N   UNL A   1      35.629  21.139  26.070  1.00  0.00    -0.356 N 
ATOM      5  C   UNL A   1      34.273  21.211  26.015  1.00  0.00     0.223 C 
ATOM      6  O   UNL A   1      33.652  21.119  27.079  1.00  0.00    -0.275 OA
ATOM      7  H   UNL A   1      36.013  21.135  26.977  1.00  0.00     0.163 HD
BRANCH   5   8
ATOM      8  C   UNL A   1      33.509  21.407  24.699  1.00  0.00     0.078 C 
ATOM      9  C   UNL A   1      32.539  20.248  24.447  1.00  0.00     0.018 C 
BRANCH   8  10
ATOM     10  C   UNL A   1      32.976  22.845  24.389  1.00  0.00     0.005 C 
ATOM     11  C   UNL A   1      31.038  26.218  25.895  1.00  0.00     0.265 C 
ATOM     12  O   UNL A   1      30.058  25.769  26.493  1.00  0.00    -0.268 OA
ATOM     13  N   UNL A   1      31.738  25.395  25.009  1.00  0.00    -0.338 N 
ATOM     14  C   UNL A   1      31.000  24.443  24.205  1.00  0.00     0.120 C 
ATOM     15  C   UNL A   1      33.189  25.363  24.871  1.00  0.00     0.120 C 
ATOM     16  C   UNL A   1      31.445  23.016  24.473  1.00  0.00     0.026 C 
ATOM     17  C   UNL A   1      33.725  23.958  25.159  1.00  0.00     0.026 C 
BRANCH  11  18
ATOM     18  C   UNL A   1      31.424  27.619  25.991  1.00  0.00     0.115 A 
ATOM     19  C   UNL A   1      33.269  30.806  27.249  1.00  0.00     0.079 C 
ATOM     20  C   UNL A   1      32.500  29.721  26.582  1.00  0.00     0.091 A 
ATOM     21  N   UNL A   1      31.941  29.828  25.400  1.00  0.00    -0.246 NA
ATOM     22  S   UNL A   1      32.339  28.197  27.332  1.00  0.00    -0.113 S 
ATOM     23  C   UNL A   1      31.342  28.624  25.035  1.00  0.00     0.061 A 
ATOM     24  C   UNL A   1      30.738  28.561  23.674  1.00  0.00     0.068 C 
ENDBRANCH  11  18
ENDBRANCH   8  10
ENDBRANCH   5   8
ENDBRANCH   3   4
ENDBRANCH   2   3
ENDBRANCH   1   2
BRANCH   1  25
ATOM     25  C   UNL A   1      38.509  24.249  26.229  1.00  0.00     0.116 C 
BRANCH  25  26
ATOM     26  N   UNL A   1      39.932  23.956  26.123  1.00  0.00    -0.352 N 
ATOM     27  C   UNL A   1      40.996  24.623  26.684  1.00  0.00     0.251 C 
ATOM     28  H   UNL A   1      40.165  23.173  25.574  1.00  0.00     0.163 HD
ATOM     29  O   UNL A   1      42.146  24.319  26.386  1.00  0.00    -0.269 OA
BRANCH  27  30
ATOM     30  C   UNL A   1      40.739  25.735  27.622  1.00  0.00     0.039 A 
ATOM     31  C   UNL A   1      39.694  25.618  28.541  1.00  0.00     0.014 A 
ATOM     32  C   UNL A   1      41.558  26.867  27.623  1.00  0.00     0.014 A 
ATOM     33  C   UNL A   1      39.523  26.603  29.516  1.00  0.00     0.010 A 
ATOM     34  C   UNL A   1      41.437  27.803  28.644  1.00  0.00     0.010 A 
ATOM     35  C   UNL A   1      40.421  27.681  29.603  1.00  0.00    -0.014 A 
BRANCH  35  36
ATOM     36  C   UNL A   1      40.315  28.685  30.692  1.00  0.00     0.031 A 
ATOM     37  C   UNL A   1      41.163  28.549  31.927  1.00  0.00     0.074 A 
ATOM     38  C   UNL A   1      39.408  29.679  30.598  1.00  0.00     0.049 A 
ATOM     39  N   UNL A   1      41.164  29.280  33.011  1.00  0.00    -0.248 NA
ATOM     40  C   UNL A   1      42.114  27.426  31.959  1.00  0.00     0.031 C 
ATOM     41  C   UNL A   1      38.485  29.881  29.478  1.00  0.00     0.029 A 
ATOM     42  N   UNL A   1      39.106  30.700  31.463  1.00  0.00    -0.354 N 
ATOM     43  C   UNL A   1      42.106  28.703  33.855  1.00  0.00     0.074 A 
ATOM     44  C   UNL A   1      42.611  27.525  33.182  1.00  0.00     0.031 C 
ATOM     45  C   UNL A   1      37.734  30.969  29.718  1.00  0.00     0.029 A 
ATOM     46  C   UNL A   1      38.097  31.522  31.017  1.00  0.00     0.049 A 
ATOM     47  H   UNL A   1      39.566  30.832  32.323  1.00  0.00     0.167 HD
ATOM     48  C   UNL A   1      42.534  29.131  35.067  1.00  0.00     0.037 A 
ATOM     49  C   UNL A   1      37.526  32.598  31.594  1.00  0.00     0.037 A 
ATOM     50  C   UNL A   1      42.046  30.316  35.722  1.00  0.00     0.049 A 
ATOM     51  C   UNL A   1      38.027  33.063  32.934  1.00  0.00     0.074 A 
ATOM     52  C   UNL A   1      42.446  30.859  36.930  1.00  0.00     0.029 A 
ATOM     53  N   UNL A   1      41.053  31.145  35.220  1.00  0.00    -0.354 N 
ATOM     54  N   UNL A   1      38.961  32.537  33.692  1.00  0.00    -0.248 NA
ATOM     55  C   UNL A   1      37.407  34.271  33.495  1.00  0.00     0.031 C 
ATOM     56  C   UNL A   1      41.671  31.999  37.174  1.00  0.00     0.029 A 
ATOM     57  C   UNL A   1      40.819  32.189  36.098  1.00  0.00     0.049 A 
ATOM     58  H   UNL A   1      40.583  31.009  34.365  1.00  0.00     0.167 HD
ATOM     59  C   UNL A   1      39.057  33.364  34.806  1.00  0.00     0.074 A 
ATOM     60  C   UNL A   1      38.096  34.431  34.616  1.00  0.00     0.031 C 
ATOM     61  C   UNL A   1      39.865  33.249  35.889  1.00  0.00     0.037 A 
BRANCH  48  62
ATOM     62  C   UNL A   1      43.598  28.317  35.752  1.00  0.00     0.058 A 
ATOM     63  C   UNL A   1      43.267  27.281  36.642  1.00  0.00     0.135 A 
ATOM     64  C   UNL A   1      44.958  28.553  35.499  1.00  0.00     0.135 A 
ATOM     65  F   UNL A   1      41.982  27.024  36.932  1.00  0.00    -0.206 F 
ATOM     66  C   UNL A   1      44.247  26.531  37.281  1.00  0.00     0.059 A 
ATOM     67  C   UNL A   1      45.956  27.795  36.106  1.00  0.00     0.059 A 
ATOM     68  F   UNL A   1      45.331  29.531  34.658  1.00  0.00    -0.206 F 
ATOM     69  C   UNL A   1      45.591  26.796  37.008  1.00  0.00     0.060 A 
BRANCH  69  70
ATOM     70  S   UNL A   1      46.850  25.809  37.843  1.00  0.00     0.124 S 
ATOM     71  O   UNL A   1      46.367  25.826  39.220  1.00  0.00    -0.237 OA
ATOM     72  O   UNL A   1      46.751  24.526  37.153  1.00  0.00    -0.237 OA
ATOM     73  O   UNL A   1      48.081  26.554  37.600  1.00  0.00    -0.744 OA
ENDBRANCH  69  70
ENDBRANCH  48  62
BRANCH  49  74
ATOM     74  C   UNL A   1      36.430  33.323  30.896  1.00  0.00     0.058 A 
ATOM     75  C   UNL A   1      35.102  33.224  31.339  1.00  0.00     0.135 A 
ATOM     76  C   UNL A   1      36.688  34.132  29.779  1.00  0.00     0.135 A 
ATOM     77  F   UNL A   1      34.805  32.459  32.400  1.00  0.00    -0.206 F 
ATOM     78  C   UNL A   1      34.066  33.885  30.687  1.00  0.00     0.059 A 
ATOM     79  C   UNL A   1      35.672  34.823  29.126  1.00  0.00     0.059 A 
ATOM     80  F   UNL A   1      37.945  34.275  29.328  1.00  0.00    -0.206 F 
ATOM     81  C   UNL A   1      34.362  34.683  29.580  1.00  0.00     0.060 A 
BRANCH  81  82
ATOM     82  S   UNL A   1      33.015  35.569  28.766  1.00  0.00     0.124 S 
ATOM     83  O   UNL A   1      32.248  36.052  29.908  1.00  0.00    -0.237 OA
ATOM     84  O   UNL A   1      33.732  36.584  28.001  1.00  0.00    -0.237 OA
ATOM     85  O   UNL A   1      32.370  34.533  27.964  1.00  0.00    -0.744 OA
ENDBRANCH  81  82
ENDBRANCH  49  74
BRANCH  61  86
ATOM     86  C   UNL A   1      39.771  34.323  36.936  1.00  0.00     0.058 A 
ATOM     87  C   UNL A   1      38.965  34.172  38.076  1.00  0.00     0.135 A 
ATOM     88  C   UNL A   1      40.532  35.497  36.820  1.00  0.00     0.135 A 
ATOM     89  F   UNL A   1      38.214  33.071  38.232  1.00  0.00    -0.206 F 
ATOM     90  C   UNL A   1      38.898  35.161  39.052  1.00  0.00     0.059 A 
ATOM     91  C   UNL A   1      40.499  36.487  37.797  1.00  0.00     0.059 A 
ATOM     92  F   UNL A   1      41.326  35.685  35.755  1.00  0.00    -0.206 F 
ATOM     93  C   UNL A   1      39.670  36.315  38.904  1.00  0.00     0.060 A 
BRANCH  93  94
ATOM     94  S   UNL A   1      39.596  37.578  40.192  1.00  0.00     0.124 S 
ATOM     95  O   UNL A   1      40.737  38.418  39.843  1.00  0.00    -0.237 OA
ATOM     96  O   UNL A   1      38.282  38.172  39.973  1.00  0.00    -0.237 OA
ATOM     97  O   UNL A   1      39.734  36.812  41.427  1.00  0.00    -0.744 OA
ENDBRANCH  93  94
ENDBRANCH  61  86
ENDBRANCH  35  36
ENDBRANCH  27  30
ENDBRANCH  25  26
ENDBRANCH   1  25
TORSDOF 16
ENDMDL
