MODEL 1
REMARK VINA RESULT:     -11.6      0.000      0.000
REMARK SMILES O=C(NCCCCNC(=O)[C@H]1C[C@@H](O)CN1C(=O)C[C@@H]1CSCC[NH2+]1)c1ccc(-c2c3nc(c(-c4c(F)cc(S(=O)(=O)[O-])cc4F)c4ccc([nH]4)c(-c4c(F)cc(S(=O)(=O)[O-])cc4F)c4nc(c(-c5c(F)cc(S(=O)(=O)[O-])cc5F)c5ccc2[nH]5)C=C4)C=C3)cc1
REMARK SMILES IDX 5 1 4 2 3 3 1 4 2 5 26 7 27 8 91 9 28 10 90 11 29 12 30 13
REMARK SMILES IDX 31 14 84 15 32 16 89 17 83 18 85 19 33 20 88 21 82 22 81 23
REMARK SMILES IDX 34 25 68 26 47 27 67 28 48 29 51 30 66 31 86 32 49 33 50 34
REMARK SMILES IDX 65 36 87 37 52 38 35 39 36 40 45 41 37 42 38 43 44 44 46 45
REMARK SMILES IDX 39 46 40 47 41 48 42 49 43 50 69 51 70 52 79 53 71 54 72 55
REMARK SMILES IDX 78 56 80 57 73 58 74 59 75 60 76 61 77 62 53 63 54 64 63 65
REMARK SMILES IDX 55 66 56 67 62 68 64 69 57 70 58 71 59 72 60 73 61 74 6 75
REMARK SMILES IDX 7 76 8 77 9 78 10 80 11 81 12 82 16 83 13 84 15 85 17 86
REMARK SMILES IDX 18 87 19 88 20 89 21 90 25 91 22 92 24 93 23 96 14 97
REMARK H PARENT 3 6 85 24 51 35 8 79 25 94 25 95 14 98
REMARK Flexibility Score: inf
ROOT
ATOM      1  C   UNL A   1      34.536  30.016  27.505  1.00  0.00     0.023 C 
ENDROOT
BRANCH   1   2
ATOM      2  C   UNL A   1      35.512  30.933  28.235  1.00  0.00     0.116 C 
BRANCH   2   3
ATOM      3  N   UNL A   1      35.434  30.820  29.683  1.00  0.00    -0.352 N 
ATOM      4  O   UNL A   1      36.070  30.262  31.768  1.00  0.00    -0.269 OA
ATOM      5  C   UNL A   1      36.385  30.421  30.599  1.00  0.00     0.251 C 
ATOM      6  H   UNL A   1      34.564  31.068  30.072  1.00  0.00     0.163 HD
BRANCH   5   7
ATOM      7  C   UNL A   1      37.775  30.154  30.158  1.00  0.00     0.039 A 
ATOM      8  C   UNL A   1      38.123  30.211  28.808  1.00  0.00     0.014 A 
ATOM      9  C   UNL A   1      38.749  29.853  31.116  1.00  0.00     0.014 A 
ATOM     10  C   UNL A   1      39.385  29.791  28.401  1.00  0.00     0.010 A 
ATOM     11  C   UNL A   1      40.049  29.526  30.710  1.00  0.00     0.010 A 
ATOM     12  C   UNL A   1      40.367  29.451  29.346  1.00  0.00    -0.014 A 
BRANCH  12  13
ATOM     13  C   UNL A   1      41.727  29.074  28.877  1.00  0.00     0.031 A 
ATOM     14  C   UNL A   1      42.862  30.062  28.892  1.00  0.00     0.074 A 
ATOM     15  C   UNL A   1      41.939  27.808  28.467  1.00  0.00     0.049 A 
ATOM     16  N   UNL A   1      44.110  29.885  28.538  1.00  0.00    -0.248 NA
ATOM     17  C   UNL A   1      42.561  31.427  29.352  1.00  0.00     0.031 C 
ATOM     18  C   UNL A   1      40.912  26.766  28.390  1.00  0.00     0.029 A 
ATOM     19  N   UNL A   1      43.084  27.173  28.059  1.00  0.00    -0.354 N 
ATOM     20  C   UNL A   1      44.737  31.114  28.709  1.00  0.00     0.074 A 
ATOM     21  C   UNL A   1      43.727  32.037  29.181  1.00  0.00     0.031 C 
ATOM     22  C   UNL A   1      41.480  25.614  28.008  1.00  0.00     0.029 A 
ATOM     23  C   UNL A   1      42.896  25.846  27.753  1.00  0.00     0.049 A 
ATOM     24  H   UNL A   1      43.956  27.625  27.990  1.00  0.00     0.167 HD
ATOM     25  C   UNL A   1      46.037  31.439  28.497  1.00  0.00     0.037 A 
ATOM     26  C   UNL A   1      43.761  24.918  27.301  1.00  0.00     0.037 A 
ATOM     27  C   UNL A   1      47.042  30.507  28.051  1.00  0.00     0.049 A 
ATOM     28  C   UNL A   1      45.195  25.302  27.084  1.00  0.00     0.074 A 
ATOM     29  C   UNL A   1      48.393  30.731  27.847  1.00  0.00     0.029 A 
ATOM     30  N   UNL A   1      46.809  29.175  27.739  1.00  0.00    -0.354 N 
ATOM     31  N   UNL A   1      45.773  26.463  27.277  1.00  0.00    -0.248 NA
ATOM     32  C   UNL A   1      46.094  24.255  26.583  1.00  0.00     0.031 C 
ATOM     33  C   UNL A   1      48.969  29.546  27.375  1.00  0.00     0.029 A 
ATOM     34  C   UNL A   1      47.986  28.571  27.326  1.00  0.00     0.049 A 
ATOM     35  H   UNL A   1      45.936  28.725  27.801  1.00  0.00     0.167 HD
ATOM     36  C   UNL A   1      47.105  26.286  26.928  1.00  0.00     0.074 A 
ATOM     37  C   UNL A   1      47.252  24.899  26.534  1.00  0.00     0.031 C 
ATOM     38  C   UNL A   1      48.114  27.191  26.930  1.00  0.00     0.037 A 
BRANCH  25  39
ATOM     39  C   UNL A   1      46.452  32.867  28.729  1.00  0.00     0.058 A 
ATOM     40  C   UNL A   1      46.399  33.829  27.708  1.00  0.00     0.135 A 
ATOM     41  C   UNL A   1      46.853  33.292  30.006  1.00  0.00     0.135 A 
ATOM     42  F   UNL A   1      46.034  33.475  26.465  1.00  0.00    -0.206 F 
ATOM     43  C   UNL A   1      46.747  35.156  27.939  1.00  0.00     0.059 A 
ATOM     44  C   UNL A   1      47.185  34.618  30.266  1.00  0.00     0.059 A 
ATOM     45  F   UNL A   1      46.921  32.414  31.020  1.00  0.00    -0.206 F 
ATOM     46  C   UNL A   1      47.141  35.542  29.223  1.00  0.00     0.060 A 
BRANCH  46  47
ATOM     47  S   UNL A   1      47.582  37.269  29.510  1.00  0.00     0.124 S 
ATOM     48  O   UNL A   1      46.802  37.944  28.476  1.00  0.00    -0.237 OA
ATOM     49  O   UNL A   1      47.133  37.484  30.882  1.00  0.00    -0.237 OA
ATOM     50  O   UNL A   1      49.029  37.288  29.318  1.00  0.00    -0.744 OA
ENDBRANCH  46  47
ENDBRANCH  25  39
BRANCH  26  51
ATOM     51  C   UNL A   1      43.276  23.542  27.022  1.00  0.00     0.058 A 
ATOM     52  C   UNL A   1      43.031  23.112  25.711  1.00  0.00     0.135 A 
ATOM     53  C   UNL A   1      43.098  22.616  28.062  1.00  0.00     0.135 A 
ATOM     54  F   UNL A   1      43.184  23.962  24.685  1.00  0.00    -0.206 F 
ATOM     55  C   UNL A   1      42.622  21.811  25.438  1.00  0.00     0.059 A 
ATOM     56  C   UNL A   1      42.715  21.303  27.812  1.00  0.00     0.059 A 
ATOM     57  F   UNL A   1      43.339  22.975  29.332  1.00  0.00    -0.206 F 
ATOM     58  C   UNL A   1      42.472  20.912  26.496  1.00  0.00     0.060 A 
BRANCH  58  59
ATOM     59  S   UNL A   1      42.010  19.204  26.130  1.00  0.00     0.124 S 
ATOM     60  O   UNL A   1      42.411  18.524  27.356  1.00  0.00    -0.237 OA
ATOM     61  O   UNL A   1      40.574  19.315  25.900  1.00  0.00    -0.237 OA
ATOM     62  O   UNL A   1      42.804  18.892  24.945  1.00  0.00    -0.744 OA
ENDBRANCH  58  59
ENDBRANCH  26  51
BRANCH  38  63
ATOM     63  C   UNL A   1      49.470  26.703  26.505  1.00  0.00     0.058 A 
ATOM     64  C   UNL A   1      50.314  26.018  27.393  1.00  0.00     0.135 A 
ATOM     65  C   UNL A   1      49.916  26.897  25.189  1.00  0.00     0.135 A 
ATOM     66  F   UNL A   1      49.935  25.816  28.665  1.00  0.00    -0.206 F 
ATOM     67  C   UNL A   1      51.565  25.561  26.996  1.00  0.00     0.059 A 
ATOM     68  C   UNL A   1      51.155  26.428  24.764  1.00  0.00     0.059 A 
ATOM     69  F   UNL A   1      49.143  27.540  24.300  1.00  0.00    -0.206 F 
ATOM     70  C   UNL A   1      51.979  25.772  25.679  1.00  0.00     0.060 A 
BRANCH  70  71
ATOM     71  S   UNL A   1      53.596  25.155  25.167  1.00  0.00     0.124 S 
ATOM     72  O   UNL A   1      53.659  25.615  23.783  1.00  0.00    -0.237 OA
ATOM     73  O   UNL A   1      54.499  25.824  26.099  1.00  0.00    -0.237 OA
ATOM     74  O   UNL A   1      53.480  23.711  25.345  1.00  0.00    -0.744 OA
ENDBRANCH  70  71
ENDBRANCH  38  63
ENDBRANCH  12  13
ENDBRANCH   5   7
ENDBRANCH   2   3
ENDBRANCH   1   2
BRANCH   1  75
ATOM     75  C   UNL A   1      33.180  30.628  27.145  1.00  0.00     0.023 C 
BRANCH  75  76
ATOM     76  C   UNL A   1      32.446  29.978  25.979  1.00  0.00     0.116 C 
BRANCH  76  77
ATOM     77  N   UNL A   1      33.249  29.783  24.786  1.00  0.00    -0.354 N 
ATOM     78  C   UNL A   1      33.052  28.860  23.792  1.00  0.00     0.242 C 
ATOM     79  H   UNL A   1      34.023  30.382  24.679  1.00  0.00     0.163 HD
ATOM     80  O   UNL A   1      33.609  29.046  22.705  1.00  0.00    -0.273 OA
BRANCH  78  81
ATOM     81  C   UNL A   1      32.082  27.673  24.020  1.00  0.00     0.177 C 
ATOM     82  C   UNL A   1      30.622  28.125  23.930  1.00  0.00     0.069 C 
ATOM     83  N   UNL A   1      32.180  26.683  22.929  1.00  0.00    -0.328 N 
ATOM     84  C   UNL A   1      30.339  28.084  22.433  1.00  0.00     0.136 C 
ATOM     85  C   UNL A   1      31.071  26.825  21.998  1.00  0.00     0.152 C 
BRANCH  83  86
ATOM     86  C   UNL A   1      33.160  25.718  22.898  1.00  0.00     0.229 C 
ATOM     87  O   UNL A   1      33.998  25.678  21.996  1.00  0.00    -0.275 OA
BRANCH  86  88
ATOM     88  C   UNL A   1      33.189  24.687  24.021  1.00  0.00     0.166 C 
BRANCH  88  89
ATOM     89  C   UNL A   1      31.872  23.888  24.174  1.00  0.00     0.201 C 
ATOM     90  C   UNL A   1      31.895  22.971  25.421  1.00  0.00     0.135 C 
ATOM     91  N   UNL A   1      31.444  23.089  23.002  1.00  0.00    -0.342 N 
ATOM     92  S   UNL A   1      33.084  21.588  25.286  1.00  0.00    -0.150 SA
ATOM     93  C   UNL A   1      32.379  22.026  22.620  1.00  0.00     0.271 C 
ATOM     94  H   UNL A   1      31.338  23.720  22.207  1.00  0.00     0.346 HD
ATOM     95  H   UNL A   1      30.573  22.630  23.264  1.00  0.00     0.346 HD
ATOM     96  C   UNL A   1      32.520  20.933  23.682  1.00  0.00     0.131 C 
ENDBRANCH  88  89
ENDBRANCH  86  88
ENDBRANCH  83  86
BRANCH  84  97
ATOM     97  O   UNL A   1      30.845  29.243  21.782  1.00  0.00    -0.391 OA
ATOM     98  H   UNL A   1      30.131  29.891  21.673  1.00  0.00     0.211 HD
ENDBRANCH  84  97
ENDBRANCH  78  81
ENDBRANCH  76  77
ENDBRANCH  75  76
ENDBRANCH   1  75
TORSDOF 18
ENDMDL
MODEL 2
REMARK VINA RESULT:     -11.5      2.718      9.049
REMARK SMILES O=C(NCCCCNC(=O)[C@H]1C[C@@H](O)CN1C(=O)C[C@@H]1CSCC[NH2+]1)c1ccc(-c2c3nc(c(-c4c(F)cc(S(=O)(=O)[O-])cc4F)c4ccc([nH]4)c(-c4c(F)cc(S(=O)(=O)[O-])cc4F)c4nc(c(-c5c(F)cc(S(=O)(=O)[O-])cc5F)c5ccc2[nH]5)C=C4)C=C3)cc1
REMARK SMILES IDX 5 1 4 2 3 3 1 4 2 5 26 7 27 8 91 9 28 10 90 11 29 12 30 13
REMARK SMILES IDX 31 14 84 15 32 16 89 17 83 18 85 19 33 20 88 21 82 22 81 23
REMARK SMILES IDX 34 25 68 26 47 27 67 28 48 29 51 30 66 31 86 32 49 33 50 34
REMARK SMILES IDX 65 36 87 37 52 38 35 39 36 40 45 41 37 42 38 43 44 44 46 45
REMARK SMILES IDX 39 46 40 47 41 48 42 49 43 50 69 51 70 52 79 53 71 54 72 55
REMARK SMILES IDX 78 56 80 57 73 58 74 59 75 60 76 61 77 62 53 63 54 64 63 65
REMARK SMILES IDX 55 66 56 67 62 68 64 69 57 70 58 71 59 72 60 73 61 74 6 75
REMARK SMILES IDX 7 76 8 77 9 78 10 80 11 81 12 82 16 83 13 84 15 85 17 86
REMARK SMILES IDX 18 87 19 88 20 89 21 90 25 91 22 92 24 93 23 96 14 97
REMARK H PARENT 3 6 85 24 51 35 8 79 25 94 25 95 14 98
REMARK Flexibility Score: inf
ROOT
ATOM      1  C   UNL A   1      38.041  20.224  25.169  1.00  0.00     0.023 C 
ENDROOT
BRANCH   1   2
ATOM      2  C   UNL A   1      39.311  20.675  25.885  1.00  0.00     0.116 C 
BRANCH   2   3
ATOM      3  N   UNL A   1      40.296  19.615  26.032  1.00  0.00    -0.352 N 
ATOM      4  O   UNL A   1      42.329  18.668  26.220  1.00  0.00    -0.269 OA
ATOM      5  C   UNL A   1      41.653  19.685  26.270  1.00  0.00     0.251 C 
ATOM      6  H   UNL A   1      39.937  18.702  25.950  1.00  0.00     0.163 HD
BRANCH   5   7
ATOM      7  C   UNL A   1      42.292  20.992  26.550  1.00  0.00     0.039 A 
ATOM      8  C   UNL A   1      42.583  21.382  27.857  1.00  0.00     0.014 A 
ATOM      9  C   UNL A   1      42.613  21.837  25.483  1.00  0.00     0.014 A 
ATOM     10  C   UNL A   1      43.022  22.678  28.111  1.00  0.00     0.010 A 
ATOM     11  C   UNL A   1      43.149  23.107  25.736  1.00  0.00     0.010 A 
ATOM     12  C   UNL A   1      43.319  23.554  27.054  1.00  0.00    -0.014 A 
BRANCH  12  13
ATOM     13  C   UNL A   1      43.853  24.907  27.362  1.00  0.00     0.031 A 
ATOM     14  C   UNL A   1      45.295  25.256  27.106  1.00  0.00     0.074 A 
ATOM     15  C   UNL A   1      43.008  25.840  27.844  1.00  0.00     0.049 A 
ATOM     16  N   UNL A   1      45.910  26.396  27.298  1.00  0.00    -0.248 NA
ATOM     17  C   UNL A   1      46.163  24.192  26.579  1.00  0.00     0.031 C 
ATOM     18  C   UNL A   1      41.593  25.613  28.150  1.00  0.00     0.029 A 
ATOM     19  N   UNL A   1      43.202  27.164  28.142  1.00  0.00    -0.354 N 
ATOM     20  C   UNL A   1      47.237  26.183  26.939  1.00  0.00     0.074 A 
ATOM     21  C   UNL A   1      47.343  24.797  26.534  1.00  0.00     0.031 C 
ATOM     22  C   UNL A   1      41.037  26.766  28.545  1.00  0.00     0.029 A 
ATOM     23  C   UNL A   1      42.065  27.800  28.582  1.00  0.00     0.049 A 
ATOM     24  H   UNL A   1      44.072  27.615  28.051  1.00  0.00     0.167 HD
ATOM     25  C   UNL A   1      48.267  27.065  26.941  1.00  0.00     0.037 A 
ATOM     26  C   UNL A   1      41.869  29.069  28.986  1.00  0.00     0.037 A 
ATOM     27  C   UNL A   1      48.147  28.449  27.321  1.00  0.00     0.049 A 
ATOM     28  C   UNL A   1      43.025  30.025  28.970  1.00  0.00     0.074 A 
ATOM     29  C   UNL A   1      49.123  29.431  27.317  1.00  0.00     0.029 A 
ATOM     30  N   UNL A   1      46.982  29.052  27.774  1.00  0.00    -0.354 N 
ATOM     31  N   UNL A   1      44.265  29.810  28.602  1.00  0.00    -0.248 NA
ATOM     32  C   UNL A   1      42.759  31.395  29.429  1.00  0.00     0.031 C 
ATOM     33  C   UNL A   1      48.559  30.615  27.803  1.00  0.00     0.029 A 
ATOM     34  C   UNL A   1      47.220  30.385  28.070  1.00  0.00     0.049 A 
ATOM     35  H   UNL A   1      46.113  28.599  27.871  1.00  0.00     0.167 HD
ATOM     36  C   UNL A   1      44.927  31.018  28.778  1.00  0.00     0.074 A 
ATOM     37  C   UNL A   1      43.944  31.966  29.263  1.00  0.00     0.031 C 
ATOM     38  C   UNL A   1      46.232  31.314  28.560  1.00  0.00     0.037 A 
BRANCH  25  39
ATOM     39  C   UNL A   1      49.625  26.560  26.535  1.00  0.00     0.058 A 
ATOM     40  C   UNL A   1      50.458  25.870  27.429  1.00  0.00     0.135 A 
ATOM     41  C   UNL A   1      50.077  26.718  25.214  1.00  0.00     0.135 A 
ATOM     42  F   UNL A   1      50.082  25.700  28.708  1.00  0.00    -0.206 F 
ATOM     43  C   UNL A   1      51.696  25.372  27.036  1.00  0.00     0.059 A 
ATOM     44  C   UNL A   1      51.301  26.210  24.792  1.00  0.00     0.059 A 
ATOM     45  F   UNL A   1      49.320  27.370  24.315  1.00  0.00    -0.206 F 
ATOM     46  C   UNL A   1      52.111  25.548  25.713  1.00  0.00     0.060 A 
BRANCH  46  47
ATOM     47  S   UNL A   1      53.716  24.890  25.215  1.00  0.00     0.124 S 
ATOM     48  O   UNL A   1      54.547  25.250  26.361  1.00  0.00    -0.237 OA
ATOM     49  O   UNL A   1      53.437  23.466  25.059  1.00  0.00    -0.237 OA
ATOM     50  O   UNL A   1      54.010  25.607  23.978  1.00  0.00    -0.744 OA
ENDBRANCH  46  47
ENDBRANCH  25  39
BRANCH  26  51
ATOM     51  C   UNL A   1      40.521  29.490  29.445  1.00  0.00     0.058 A 
ATOM     52  C   UNL A   1      40.244  29.677  30.806  1.00  0.00     0.135 A 
ATOM     53  C   UNL A   1      39.498  29.761  28.523  1.00  0.00     0.135 A 
ATOM     54  F   UNL A   1      41.188  29.426  31.725  1.00  0.00    -0.206 F 
ATOM     55  C   UNL A   1      38.997  30.116  31.240  1.00  0.00     0.059 A 
ATOM     56  C   UNL A   1      38.253  30.226  28.930  1.00  0.00     0.059 A 
ATOM     57  F   UNL A   1      39.721  29.615  27.208  1.00  0.00    -0.206 F 
ATOM     58  C   UNL A   1      38.009  30.393  30.293  1.00  0.00     0.060 A 
BRANCH  58  59
ATOM     59  S   UNL A   1      36.416  31.031  30.856  1.00  0.00     0.124 S 
ATOM     60  O   UNL A   1      36.000  29.993  31.792  1.00  0.00    -0.237 OA
ATOM     61  O   UNL A   1      36.788  32.312  31.448  1.00  0.00    -0.237 OA
ATOM     62  O   UNL A   1      35.638  31.121  29.625  1.00  0.00    -0.744 OA
ENDBRANCH  58  59
ENDBRANCH  26  51
BRANCH  38  63
ATOM     63  C   UNL A   1      46.667  32.725  28.833  1.00  0.00     0.058 A 
ATOM     64  C   UNL A   1      47.157  33.111  30.091  1.00  0.00     0.135 A 
ATOM     65  C   UNL A   1      46.623  33.693  27.818  1.00  0.00     0.135 A 
ATOM     66  F   UNL A   1      47.210  32.223  31.096  1.00  0.00    -0.206 F 
ATOM     67  C   UNL A   1      47.565  34.416  30.341  1.00  0.00     0.059 A 
ATOM     68  C   UNL A   1      47.048  34.999  28.039  1.00  0.00     0.059 A 
ATOM     69  F   UNL A   1      46.170  33.372  26.596  1.00  0.00    -0.206 F 
ATOM     70  C   UNL A   1      47.506  35.354  29.309  1.00  0.00     0.060 A 
BRANCH  70  71
ATOM     71  S   UNL A   1      48.061  37.041  29.635  1.00  0.00     0.124 S 
ATOM     72  O   UNL A   1      48.050  37.074  31.094  1.00  0.00    -0.237 OA
ATOM     73  O   UNL A   1      49.381  37.065  29.011  1.00  0.00    -0.237 OA
ATOM     74  O   UNL A   1      47.050  37.864  28.980  1.00  0.00    -0.744 OA
ENDBRANCH  70  71
ENDBRANCH  38  63
ENDBRANCH  12  13
ENDBRANCH   5   7
ENDBRANCH   2   3
ENDBRANCH   1   2
BRANCH   1  75
ATOM     75  C   UNL A   1      37.267  21.314  24.424  1.00  0.00     0.023 C 
BRANCH  75  76
ATOM     76  C   UNL A   1      36.871  22.531  25.250  1.00  0.00     0.116 C 
BRANCH  76  77
ATOM     77  N   UNL A   1      36.115  22.231  26.453  1.00  0.00    -0.354 N 
ATOM     78  C   UNL A   1      34.759  22.056  26.561  1.00  0.00     0.242 C 
ATOM     79  H   UNL A   1      36.634  22.143  27.284  1.00  0.00     0.163 HD
ATOM     80  O   UNL A   1      34.324  21.483  27.566  1.00  0.00    -0.273 OA
BRANCH  78  81
ATOM     81  C   UNL A   1      33.828  22.494  25.403  1.00  0.00     0.177 C 
ATOM     82  C   UNL A   1      33.639  21.364  24.386  1.00  0.00     0.069 C 
ATOM     83  N   UNL A   1      32.451  22.729  25.881  1.00  0.00    -0.328 N 
ATOM     84  C   UNL A   1      32.513  20.537  24.995  1.00  0.00     0.136 C 
ATOM     85  C   UNL A   1      31.587  21.606  25.552  1.00  0.00     0.152 C 
BRANCH  83  86
ATOM     86  C   UNL A   1      32.070  23.912  26.472  1.00  0.00     0.229 C 
ATOM     87  O   UNL A   1      31.289  23.936  27.424  1.00  0.00    -0.275 OA
BRANCH  86  88
ATOM     88  C   UNL A   1      32.647  25.211  25.919  1.00  0.00     0.166 C 
BRANCH  88  89
ATOM     89  C   UNL A   1      31.581  26.293  25.618  1.00  0.00     0.201 C 
ATOM     90  C   UNL A   1      32.049  27.271  24.514  1.00  0.00     0.135 C 
ATOM     91  N   UNL A   1      31.091  27.076  26.774  1.00  0.00    -0.342 N 
ATOM     92  S   UNL A   1      33.440  28.340  25.030  1.00  0.00    -0.150 SA
ATOM     93  C   UNL A   1      32.122  27.873  27.447  1.00  0.00     0.271 C 
ATOM     94  H   UNL A   1      30.695  26.428  27.456  1.00  0.00     0.346 HD
ATOM     95  H   UNL A   1      30.405  27.737  26.410  1.00  0.00     0.346 HD
ATOM     96  C   UNL A   1      32.700  28.983  26.566  1.00  0.00     0.131 C 
ENDBRANCH  88  89
ENDBRANCH  86  88
ENDBRANCH  83  86
BRANCH  84  97
ATOM     97  O   UNL A   1      33.002  19.675  26.015  1.00  0.00    -0.391 OA
ATOM     98  H   UNL A   1      33.959  19.556  25.907  1.00  0.00     0.211 HD
ENDBRANCH  84  97
ENDBRANCH  78  81
ENDBRANCH  76  77
ENDBRANCH  75  76
ENDBRANCH   1  75
TORSDOF 18
ENDMDL
MODEL 3
REMARK VINA RESULT:     -11.5      0.647      1.674
REMARK SMILES O=C(NCCCCNC(=O)[C@H]1C[C@@H](O)CN1C(=O)C[C@@H]1CSCC[NH2+]1)c1ccc(-c2c3nc(c(-c4c(F)cc(S(=O)(=O)[O-])cc4F)c4ccc([nH]4)c(-c4c(F)cc(S(=O)(=O)[O-])cc4F)c4nc(c(-c5c(F)cc(S(=O)(=O)[O-])cc5F)c5ccc2[nH]5)C=C4)C=C3)cc1
REMARK SMILES IDX 5 1 4 2 3 3 1 4 2 5 26 7 27 8 91 9 28 10 90 11 29 12 30 13
REMARK SMILES IDX 31 14 84 15 32 16 89 17 83 18 85 19 33 20 88 21 82 22 81 23
REMARK SMILES IDX 34 25 68 26 47 27 67 28 48 29 51 30 66 31 86 32 49 33 50 34
REMARK SMILES IDX 65 36 87 37 52 38 35 39 36 40 45 41 37 42 38 43 44 44 46 45
REMARK SMILES IDX 39 46 40 47 41 48 42 49 43 50 69 51 70 52 79 53 71 54 72 55
REMARK SMILES IDX 78 56 80 57 73 58 74 59 75 60 76 61 77 62 53 63 54 64 63 65
REMARK SMILES IDX 55 66 56 67 62 68 64 69 57 70 58 71 59 72 60 73 61 74 6 75
REMARK SMILES IDX 7 76 8 77 9 78 10 80 11 81 12 82 16 83 13 84 15 85 17 86
REMARK SMILES IDX 18 87 19 88 20 89 21 90 25 91 22 92 24 93 23 96 14 97
REMARK H PARENT 3 6 85 24 51 35 8 79 25 94 25 95 14 98
REMARK Flexibility Score: inf
ROOT
ATOM      1  C   UNL A   1      34.301  31.239  27.601  1.00  0.00     0.023 C 
ENDROOT
BRANCH   1   2
ATOM      2  C   UNL A   1      35.341  30.410  28.349  1.00  0.00     0.116 C 
BRANCH   2   3
ATOM      3  N   UNL A   1      35.447  30.755  29.758  1.00  0.00    -0.352 N 
ATOM      4  O   UNL A   1      36.330  30.826  31.827  1.00  0.00    -0.269 OA
ATOM      5  C   UNL A   1      36.496  30.595  30.638  1.00  0.00     0.251 C 
ATOM      6  H   UNL A   1      34.642  31.169  30.145  1.00  0.00     0.163 HD
BRANCH   5   7
ATOM      7  C   UNL A   1      37.810  30.112  30.150  1.00  0.00     0.039 A 
ATOM      8  C   UNL A   1      38.734  29.541  31.024  1.00  0.00     0.014 A 
ATOM      9  C   UNL A   1      38.115  30.225  28.790  1.00  0.00     0.014 A 
ATOM     10  C   UNL A   1      40.021  29.254  30.579  1.00  0.00     0.010 A 
ATOM     11  C   UNL A   1      39.379  29.843  28.324  1.00  0.00     0.010 A 
ATOM     12  C   UNL A   1      40.358  29.393  29.223  1.00  0.00    -0.014 A 
BRANCH  12  13
ATOM     13  C   UNL A   1      41.722  29.009  28.772  1.00  0.00     0.031 A 
ATOM     14  C   UNL A   1      42.859  29.996  28.791  1.00  0.00     0.074 A 
ATOM     15  C   UNL A   1      41.937  27.739  28.376  1.00  0.00     0.049 A 
ATOM     16  N   UNL A   1      44.111  29.813  28.452  1.00  0.00    -0.248 NA
ATOM     17  C   UNL A   1      42.556  31.365  29.235  1.00  0.00     0.031 C 
ATOM     18  C   UNL A   1      40.908  26.698  28.298  1.00  0.00     0.029 A 
ATOM     19  N   UNL A   1      43.085  27.098  27.987  1.00  0.00    -0.354 N 
ATOM     20  C   UNL A   1      44.738  31.042  28.619  1.00  0.00     0.074 A 
ATOM     21  C   UNL A   1      43.725  31.971  29.071  1.00  0.00     0.031 C 
ATOM     22  C   UNL A   1      41.478  25.541  27.933  1.00  0.00     0.029 A 
ATOM     23  C   UNL A   1      42.898  25.768  27.692  1.00  0.00     0.049 A 
ATOM     24  H   UNL A   1      43.958  27.548  27.924  1.00  0.00     0.167 HD
ATOM     25  C   UNL A   1      46.041  31.362  28.419  1.00  0.00     0.037 A 
ATOM     26  C   UNL A   1      43.766  24.835  27.258  1.00  0.00     0.037 A 
ATOM     27  C   UNL A   1      47.049  30.425  27.992  1.00  0.00     0.049 A 
ATOM     28  C   UNL A   1      45.203  25.215  27.053  1.00  0.00     0.074 A 
ATOM     29  C   UNL A   1      48.402  30.644  27.802  1.00  0.00     0.029 A 
ATOM     30  N   UNL A   1      46.817  29.090  27.690  1.00  0.00    -0.354 N 
ATOM     31  N   UNL A   1      45.781  26.376  27.242  1.00  0.00    -0.248 NA
ATOM     32  C   UNL A   1      46.105  24.161  26.572  1.00  0.00     0.031 C 
ATOM     33  C   UNL A   1      48.981  29.454  27.348  1.00  0.00     0.029 A 
ATOM     34  C   UNL A   1      47.998  28.480  27.296  1.00  0.00     0.049 A 
ATOM     35  H   UNL A   1      45.942  28.643  27.747  1.00  0.00     0.167 HD
ATOM     36  C   UNL A   1      47.116  26.193  26.909  1.00  0.00     0.074 A 
ATOM     37  C   UNL A   1      47.265  24.802  26.530  1.00  0.00     0.031 C 
ATOM     38  C   UNL A   1      48.127  27.096  26.914  1.00  0.00     0.037 A 
BRANCH  25  39
ATOM     39  C   UNL A   1      46.456  32.792  28.642  1.00  0.00     0.058 A 
ATOM     40  C   UNL A   1      46.926  33.242  29.885  1.00  0.00     0.135 A 
ATOM     41  C   UNL A   1      46.437  33.711  27.579  1.00  0.00     0.135 A 
ATOM     42  F   UNL A   1      46.954  32.409  30.938  1.00  0.00    -0.206 F 
ATOM     43  C   UNL A   1      47.344  34.555  30.073  1.00  0.00     0.059 A 
ATOM     44  C   UNL A   1      46.871  35.024  27.739  1.00  0.00     0.059 A 
ATOM     45  F   UNL A   1      45.997  33.334  26.368  1.00  0.00    -0.206 F 
ATOM     46  C   UNL A   1      47.312  35.441  28.994  1.00  0.00     0.060 A 
BRANCH  46  47
ATOM     47  S   UNL A   1      47.865  37.140  29.251  1.00  0.00     0.124 S 
ATOM     48  O   UNL A   1      46.707  37.725  29.921  1.00  0.00    -0.237 OA
ATOM     49  O   UNL A   1      49.052  36.962  30.080  1.00  0.00    -0.237 OA
ATOM     50  O   UNL A   1      48.118  37.625  27.898  1.00  0.00    -0.744 OA
ENDBRANCH  46  47
ENDBRANCH  25  39
BRANCH  26  51
ATOM     51  C   UNL A   1      43.282  23.457  26.986  1.00  0.00     0.058 A 
ATOM     52  C   UNL A   1      43.073  23.008  25.675  1.00  0.00     0.135 A 
ATOM     53  C   UNL A   1      43.066  22.549  28.035  1.00  0.00     0.135 A 
ATOM     54  F   UNL A   1      43.263  23.841  24.641  1.00  0.00    -0.206 F 
ATOM     55  C   UNL A   1      42.665  21.705  25.411  1.00  0.00     0.059 A 
ATOM     56  C   UNL A   1      42.684  21.234  27.794  1.00  0.00     0.059 A 
ATOM     57  F   UNL A   1      43.271  22.927  29.306  1.00  0.00    -0.206 F 
ATOM     58  C   UNL A   1      42.477  20.823  26.478  1.00  0.00     0.060 A 
BRANCH  58  59
ATOM     59  S   UNL A   1      42.017  19.113  26.125  1.00  0.00     0.124 S 
ATOM     60  O   UNL A   1      42.929  18.784  25.035  1.00  0.00    -0.237 OA
ATOM     61  O   UNL A   1      42.281  18.453  27.399  1.00  0.00    -0.237 OA
ATOM     62  O   UNL A   1      40.607  19.215  25.762  1.00  0.00    -0.744 OA
ENDBRANCH  58  59
ENDBRANCH  26  51
BRANCH  38  63
ATOM     63  C   UNL A   1      49.487  26.602  26.509  1.00  0.00     0.058 A 
ATOM     64  C   UNL A   1      49.959  26.750  25.196  1.00  0.00     0.135 A 
ATOM     65  C   UNL A   1      50.337  26.004  27.451  1.00  0.00     0.135 A 
ATOM     66  F   UNL A   1      49.179  27.308  24.256  1.00  0.00    -0.206 F 
ATOM     67  C   UNL A   1      51.219  26.298  24.823  1.00  0.00     0.059 A 
ATOM     68  C   UNL A   1      51.612  25.565  27.106  1.00  0.00     0.059 A 
ATOM     69  F   UNL A   1      49.935  25.846  28.722  1.00  0.00    -0.206 F 
ATOM     70  C   UNL A   1      52.039  25.705  25.786  1.00  0.00     0.060 A 
BRANCH  70  71
ATOM     71  S   UNL A   1      53.684  25.143  25.299  1.00  0.00     0.124 S 
ATOM     72  O   UNL A   1      54.510  25.697  26.366  1.00  0.00    -0.237 OA
ATOM     73  O   UNL A   1      53.534  23.690  25.303  1.00  0.00    -0.237 OA
ATOM     74  O   UNL A   1      53.872  25.743  23.982  1.00  0.00    -0.744 OA
ENDBRANCH  70  71
ENDBRANCH  38  63
ENDBRANCH  12  13
ENDBRANCH   5   7
ENDBRANCH   2   3
ENDBRANCH   1   2
BRANCH   1  75
ATOM     75  C   UNL A   1      33.153  30.456  26.959  1.00  0.00     0.023 C 
BRANCH  75  76
ATOM     76  C   UNL A   1      33.517  29.092  26.387  1.00  0.00     0.116 C 
BRANCH  76  77
ATOM     77  N   UNL A   1      34.037  29.119  25.032  1.00  0.00    -0.354 N 
ATOM     78  C   UNL A   1      33.453  28.597  23.906  1.00  0.00     0.242 C 
ATOM     79  H   UNL A   1      34.906  29.563  24.907  1.00  0.00     0.163 HD
ATOM     80  O   UNL A   1      33.851  28.994  22.806  1.00  0.00    -0.273 OA
BRANCH  78  81
ATOM     81  C   UNL A   1      32.271  27.605  24.038  1.00  0.00     0.177 C 
ATOM     82  C   UNL A   1      30.931  28.344  24.098  1.00  0.00     0.069 C 
ATOM     83  N   UNL A   1      32.126  26.778  22.823  1.00  0.00    -0.328 N 
ATOM     84  C   UNL A   1      30.594  28.570  22.629  1.00  0.00     0.136 C 
ATOM     85  C   UNL A   1      31.038  27.265  21.989  1.00  0.00     0.152 C 
BRANCH  83  86
ATOM     86  C   UNL A   1      32.887  25.653  22.605  1.00  0.00     0.229 C 
ATOM     87  O   UNL A   1      33.949  25.702  21.982  1.00  0.00    -0.275 OA
BRANCH  86  88
ATOM     88  C   UNL A   1      32.383  24.325  23.162  1.00  0.00     0.166 C 
BRANCH  88  89
ATOM     89  C   UNL A   1      33.156  23.091  22.636  1.00  0.00     0.201 C 
ATOM     90  C   UNL A   1      32.411  21.770  22.946  1.00  0.00     0.135 C 
ATOM     91  N   UNL A   1      34.565  22.959  23.072  1.00  0.00    -0.342 N 
ATOM     92  S   UNL A   1      32.357  21.366  24.729  1.00  0.00    -0.150 SA
ATOM     93  C   UNL A   1      34.739  22.807  24.519  1.00  0.00     0.271 C 
ATOM     94  H   UNL A   1      35.071  23.794  22.776  1.00  0.00     0.346 HD
ATOM     95  H   UNL A   1      34.924  22.105  22.645  1.00  0.00     0.346 HD
ATOM     96  C   UNL A   1      34.141  21.510  25.069  1.00  0.00     0.131 C 
ENDBRANCH  88  89
ENDBRANCH  86  88
ENDBRANCH  83  86
BRANCH  84  97
ATOM     97  O   UNL A   1      31.303  29.686  22.105  1.00  0.00    -0.391 OA
ATOM     98  H   UNL A   1      31.593  29.489  21.201  1.00  0.00     0.211 HD
ENDBRANCH  84  97
ENDBRANCH  78  81
ENDBRANCH  76  77
ENDBRANCH  75  76
ENDBRANCH   1  75
TORSDOF 18
ENDMDL
