MODEL 1
REMARK VINA RESULT:     -12.1      0.000      0.000
REMARK SMILES O=C(CCc1cccnc1)Nc1cccc(F)c1C(=O)NCCCCNC(=O)c1ccc(-c2c3nc(c(-c4c(F)cc(S(=O)(=O)[O-])cc4F)c4ccc([nH]4)c(-c4c(F)cc(S(=O)(=O)[O-])cc4F)c4nc(c(-c5c(F)cc(S(=O)(=O)[O-])cc5F)c5ccc2[nH]5)C=C4)C=C3)cc1
REMARK SMILES IDX 23 1 22 2 21 3 19 4 20 5 18 7 12 8 13 9 14 10 16 11 15 12
REMARK SMILES IDX 17 13 11 14 1 15 2 16 3 18 4 19 5 20 6 21 10 22 7 23 9 24
REMARK SMILES IDX 8 25 24 26 25 27 26 28 27 29 28 31 29 32 30 33 94 34 31 35
REMARK SMILES IDX 93 36 32 37 33 38 34 39 87 40 35 41 92 42 86 43 88 44 36 45
REMARK SMILES IDX 91 46 85 47 84 48 37 50 71 51 50 52 70 53 51 54 54 55 69 56
REMARK SMILES IDX 89 57 52 58 53 59 68 61 90 62 55 63 38 64 39 65 48 66 40 67
REMARK SMILES IDX 41 68 47 69 49 70 42 71 43 72 44 73 45 74 46 75 72 76 73 77
REMARK SMILES IDX 82 78 74 79 75 80 81 81 83 82 76 83 77 84 78 85 79 86 80 87
REMARK SMILES IDX 56 88 57 89 66 90 58 91 59 92 65 93 67 94 60 95 61 96 62 97
REMARK SMILES IDX 63 98 64 99
REMARK H PARENT 21 6 11 17 26 30 88 49 54 60
REMARK Flexibility Score: inf
ROOT
ATOM      1  C   UNL A   1      39.272  22.272  26.056  1.00  0.00     0.023 C 
ENDROOT
BRANCH   1   2
ATOM      2  C   UNL A   1      38.034  23.176  26.014  1.00  0.00     0.116 C 
BRANCH   2   3
ATOM      3  N   UNL A   1      37.664  23.436  24.633  1.00  0.00    -0.352 N 
ATOM      4  C   UNL A   1      36.685  22.916  23.829  1.00  0.00     0.256 C 
ATOM      5  O   UNL A   1      36.738  23.158  22.620  1.00  0.00    -0.269 OA
ATOM      6  H   UNL A   1      38.224  24.114  24.191  1.00  0.00     0.163 HD
BRANCH   4   7
ATOM      7  C   UNL A   1      35.497  22.169  24.306  1.00  0.00     0.099 A 
ATOM      8  C   UNL A   1      34.220  22.779  24.179  1.00  0.00     0.056 A 
ATOM      9  C   UNL A   1      33.077  22.054  24.553  1.00  0.00     0.027 A 
ATOM     10  C   UNL A   1      33.180  20.756  25.053  1.00  0.00     0.005 A 
ATOM     11  C   UNL A   1      35.572  20.861  24.787  1.00  0.00     0.138 A 
ATOM     12  C   UNL A   1      34.430  20.164  25.180  1.00  0.00     0.040 A 
ATOM     13  F   UNL A   1      36.733  20.195  24.840  1.00  0.00    -0.206 F 
BRANCH   8  14
ATOM     14  N   UNL A   1      34.095  24.077  23.609  1.00  0.00    -0.325 N 
ATOM     15  O   UNL A   1      34.395  25.435  25.463  1.00  0.00    -0.275 OA
ATOM     16  C   UNL A   1      34.094  25.281  24.282  1.00  0.00     0.224 C 
ATOM     17  H   UNL A   1      33.998  24.120  22.629  1.00  0.00     0.169 HD
BRANCH  16  18
ATOM     18  C   UNL A   1      33.646  26.474  23.456  1.00  0.00     0.105 C 
BRANCH  18  19
ATOM     19  C   UNL A   1      32.891  27.541  24.249  1.00  0.00     0.047 C 
BRANCH  19  20
ATOM     20  C   UNL A   1      31.534  27.877  23.691  1.00  0.00    -0.029 A 
ATOM     21  C   UNL A   1      30.382  27.205  24.112  1.00  0.00     0.007 A 
ATOM     22  C   UNL A   1      31.374  28.878  22.737  1.00  0.00     0.114 A 
ATOM     23  C   UNL A   1      29.154  27.510  23.534  1.00  0.00     0.020 A 
ATOM     24  N   UNL A   1      30.193  29.206  22.168  1.00  0.00    -0.264 NA
ATOM     25  C   UNL A   1      29.113  28.501  22.568  1.00  0.00     0.111 A 
ENDBRANCH  19  20
ENDBRANCH  18  19
ENDBRANCH  16  18
ENDBRANCH   8  14
ENDBRANCH   4   7
ENDBRANCH   2   3
ENDBRANCH   1   2
BRANCH   1  26
ATOM     26  C   UNL A   1      40.033  22.304  27.387  1.00  0.00     0.023 C 
BRANCH  26  27
ATOM     27  C   UNL A   1      41.339  23.095  27.370  1.00  0.00     0.116 C 
BRANCH  27  28
ATOM     28  N   UNL A   1      41.473  23.957  26.205  1.00  0.00    -0.352 N 
ATOM     29  C   UNL A   1      41.424  25.330  26.127  1.00  0.00     0.251 C 
ATOM     30  H   UNL A   1      41.620  23.492  25.350  1.00  0.00     0.163 HD
ATOM     31  O   UNL A   1      41.453  25.883  25.036  1.00  0.00    -0.269 OA
BRANCH  29  32
ATOM     32  C   UNL A   1      41.297  26.128  27.366  1.00  0.00     0.039 A 
ATOM     33  C   UNL A   1      42.321  27.019  27.697  1.00  0.00     0.014 A 
ATOM     34  C   UNL A   1      40.170  26.015  28.184  1.00  0.00     0.014 A 
ATOM     35  C   UNL A   1      42.181  27.847  28.812  1.00  0.00     0.010 A 
ATOM     36  C   UNL A   1      40.001  26.889  29.255  1.00  0.00     0.010 A 
ATOM     37  C   UNL A   1      41.003  27.817  29.576  1.00  0.00    -0.014 A 
BRANCH  37  38
ATOM     38  C   UNL A   1      40.796  28.763  30.702  1.00  0.00     0.031 A 
ATOM     39  C   UNL A   1      41.638  28.663  31.944  1.00  0.00     0.074 A 
ATOM     40  C   UNL A   1      39.809  29.678  30.626  1.00  0.00     0.049 A 
ATOM     41  N   UNL A   1      41.570  29.367  33.044  1.00  0.00    -0.248 NA
ATOM     42  C   UNL A   1      42.676  27.621  31.962  1.00  0.00     0.031 C 
ATOM     43  C   UNL A   1      38.893  29.840  29.493  1.00  0.00     0.029 A 
ATOM     44  N   UNL A   1      39.406  30.644  31.515  1.00  0.00    -0.354 N 
ATOM     45  C   UNL A   1      42.548  28.851  33.886  1.00  0.00     0.074 A 
ATOM     46  C   UNL A   1      43.157  27.737  33.192  1.00  0.00     0.031 C 
ATOM     47  C   UNL A   1      38.062  30.864  29.741  1.00  0.00     0.029 A 
ATOM     48  C   UNL A   1      38.356  31.407  31.063  1.00  0.00     0.049 A 
ATOM     49  H   UNL A   1      39.830  30.776  32.393  1.00  0.00     0.167 HD
ATOM     50  C   UNL A   1      42.923  29.284  35.112  1.00  0.00     0.037 A 
ATOM     51  C   UNL A   1      37.702  32.431  31.647  1.00  0.00     0.037 A 
ATOM     52  C   UNL A   1      42.329  30.409  35.786  1.00  0.00     0.049 A 
ATOM     53  C   UNL A   1      38.133  32.891  33.012  1.00  0.00     0.074 A 
ATOM     54  C   UNL A   1      42.673  30.959  37.008  1.00  0.00     0.029 A 
ATOM     55  N   UNL A   1      41.268  31.159  35.296  1.00  0.00    -0.354 N 
ATOM     56  N   UNL A   1      39.095  32.424  33.772  1.00  0.00    -0.248 NA
ATOM     57  C   UNL A   1      37.394  34.017  33.600  1.00  0.00     0.031 C 
ATOM     58  C   UNL A   1      41.796  32.013  37.277  1.00  0.00     0.029 A 
ATOM     59  C   UNL A   1      40.934  32.153  36.201  1.00  0.00     0.049 A 
ATOM     60  H   UNL A   1      40.820  31.006  34.433  1.00  0.00     0.167 HD
ATOM     61  C   UNL A   1      39.088  33.209  34.919  1.00  0.00     0.074 A 
ATOM     62  C   UNL A   1      38.037  34.191  34.748  1.00  0.00     0.031 C 
ATOM     63  C   UNL A   1      39.882  33.123  36.016  1.00  0.00     0.037 A 
BRANCH  50  64
ATOM     64  C   UNL A   1      44.041  28.551  35.802  1.00  0.00     0.058 A 
ATOM     65  C   UNL A   1      43.766  27.515  36.709  1.00  0.00     0.135 A 
ATOM     66  C   UNL A   1      45.385  28.909  35.605  1.00  0.00     0.135 A 
ATOM     67  F   UNL A   1      42.501  27.127  36.933  1.00  0.00    -0.206 F 
ATOM     68  C   UNL A   1      44.784  26.867  37.404  1.00  0.00     0.059 A 
ATOM     69  C   UNL A   1      46.420  28.257  36.268  1.00  0.00     0.059 A 
ATOM     70  F   UNL A   1      45.704  29.878  34.732  1.00  0.00    -0.206 F 
ATOM     71  C   UNL A   1      46.108  27.245  37.177  1.00  0.00     0.060 A 
BRANCH  71  72
ATOM     72  S   UNL A   1      47.419  26.371  38.056  1.00  0.00     0.124 S 
ATOM     73  O   UNL A   1      46.775  25.101  38.371  1.00  0.00    -0.237 OA
ATOM     74  O   UNL A   1      48.479  26.318  37.054  1.00  0.00    -0.237 OA
ATOM     75  O   UNL A   1      47.695  27.237  39.199  1.00  0.00    -0.744 OA
ENDBRANCH  71  72
ENDBRANCH  50  64
BRANCH  51  76
ATOM     76  C   UNL A   1      36.600  33.110  30.917  1.00  0.00     0.058 A 
ATOM     77  C   UNL A   1      36.859  34.029  29.888  1.00  0.00     0.135 A 
ATOM     78  C   UNL A   1      35.260  32.888  31.272  1.00  0.00     0.135 A 
ATOM     79  F   UNL A   1      38.123  34.284  29.517  1.00  0.00    -0.206 F 
ATOM     80  C   UNL A   1      35.834  34.725  29.258  1.00  0.00     0.059 A 
ATOM     81  C   UNL A   1      34.214  33.554  30.640  1.00  0.00     0.059 A 
ATOM     82  F   UNL A   1      34.962  32.009  32.242  1.00  0.00    -0.206 F 
ATOM     83  C   UNL A   1      34.513  34.486  29.647  1.00  0.00     0.060 A 
BRANCH  83  84
ATOM     84  S   UNL A   1      33.199  35.423  28.837  1.00  0.00     0.124 S 
ATOM     85  O   UNL A   1      32.428  35.894  29.984  1.00  0.00    -0.237 OA
ATOM     86  O   UNL A   1      33.952  36.445  28.116  1.00  0.00    -0.237 OA
ATOM     87  O   UNL A   1      32.537  34.426  28.002  1.00  0.00    -0.744 OA
ENDBRANCH  83  84
ENDBRANCH  51  76
BRANCH  63  88
ATOM     88  C   UNL A   1      39.658  34.120  37.119  1.00  0.00     0.058 A 
ATOM     89  C   UNL A   1      40.275  35.380  37.076  1.00  0.00     0.135 A 
ATOM     90  C   UNL A   1      38.895  33.801  38.253  1.00  0.00     0.135 A 
ATOM     91  F   UNL A   1      41.021  35.734  36.017  1.00  0.00    -0.206 F 
ATOM     92  C   UNL A   1      40.161  36.282  38.127  1.00  0.00     0.059 A 
ATOM     93  C   UNL A   1      38.743  34.699  39.305  1.00  0.00     0.059 A 
ATOM     94  F   UNL A   1      38.274  32.613  38.337  1.00  0.00    -0.206 F 
ATOM     95  C   UNL A   1      39.395  35.931  39.241  1.00  0.00     0.060 A 
BRANCH  95  96
ATOM     96  S   UNL A   1      39.246  37.119  40.591  1.00  0.00     0.124 S 
ATOM     97  O   UNL A   1      40.626  37.562  40.753  1.00  0.00    -0.237 OA
ATOM     98  O   UNL A   1      38.324  38.106  40.035  1.00  0.00    -0.237 OA
ATOM     99  O   UNL A   1      38.709  36.320  41.688  1.00  0.00    -0.744 OA
ENDBRANCH  95  96
ENDBRANCH  63  88
ENDBRANCH  37  38
ENDBRANCH  29  32
ENDBRANCH  27  28
ENDBRANCH  26  27
ENDBRANCH   1  26
TORSDOF 18
ENDMDL
MODEL 2
REMARK VINA RESULT:     -11.9      3.111      4.154
REMARK SMILES O=C(CCc1cccnc1)Nc1cccc(F)c1C(=O)NCCCCNC(=O)c1ccc(-c2c3nc(c(-c4c(F)cc(S(=O)(=O)[O-])cc4F)c4ccc([nH]4)c(-c4c(F)cc(S(=O)(=O)[O-])cc4F)c4nc(c(-c5c(F)cc(S(=O)(=O)[O-])cc5F)c5ccc2[nH]5)C=C4)C=C3)cc1
REMARK SMILES IDX 23 1 22 2 21 3 19 4 20 5 18 7 12 8 13 9 14 10 16 11 15 12
REMARK SMILES IDX 17 13 11 14 1 15 2 16 3 18 4 19 5 20 6 21 10 22 7 23 9 24
REMARK SMILES IDX 8 25 24 26 25 27 26 28 27 29 28 31 29 32 30 33 94 34 31 35
REMARK SMILES IDX 93 36 32 37 33 38 34 39 87 40 35 41 92 42 86 43 88 44 36 45
REMARK SMILES IDX 91 46 85 47 84 48 37 50 71 51 50 52 70 53 51 54 54 55 69 56
REMARK SMILES IDX 89 57 52 58 53 59 68 61 90 62 55 63 38 64 39 65 48 66 40 67
REMARK SMILES IDX 41 68 47 69 49 70 42 71 43 72 44 73 45 74 46 75 72 76 73 77
REMARK SMILES IDX 82 78 74 79 75 80 81 81 83 82 76 83 77 84 78 85 79 86 80 87
REMARK SMILES IDX 56 88 57 89 66 90 58 91 59 92 65 93 67 94 60 95 61 96 62 97
REMARK SMILES IDX 63 98 64 99
REMARK H PARENT 21 6 11 17 26 30 88 49 54 60
REMARK Flexibility Score: inf
ROOT
ATOM      1  C   UNL A   1      34.726  24.077  26.133  1.00  0.00     0.023 C 
ENDROOT
BRANCH   1   2
ATOM      2  C   UNL A   1      34.067  25.285  25.457  1.00  0.00     0.116 C 
BRANCH   2   3
ATOM      3  N   UNL A   1      32.637  25.272  25.717  1.00  0.00    -0.352 N 
ATOM      4  C   UNL A   1      31.638  24.421  25.324  1.00  0.00     0.256 C 
ATOM      5  O   UNL A   1      30.471  24.774  25.507  1.00  0.00    -0.269 OA
ATOM      6  H   UNL A   1      32.328  26.015  26.283  1.00  0.00     0.163 HD
BRANCH   4   7
ATOM      7  C   UNL A   1      31.843  23.055  24.788  1.00  0.00     0.099 A 
ATOM      8  C   UNL A   1      31.897  22.884  23.378  1.00  0.00     0.056 A 
ATOM      9  C   UNL A   1      32.169  21.610  22.854  1.00  0.00     0.027 A 
ATOM     10  C   UNL A   1      32.375  20.516  23.694  1.00  0.00     0.005 A 
ATOM     11  C   UNL A   1      32.075  21.950  25.608  1.00  0.00     0.138 A 
ATOM     12  C   UNL A   1      32.318  20.685  25.072  1.00  0.00     0.040 A 
ATOM     13  F   UNL A   1      32.135  22.061  26.941  1.00  0.00    -0.206 F 
BRANCH   8  14
ATOM     14  N   UNL A   1      31.755  24.004  22.510  1.00  0.00    -0.325 N 
ATOM     15  O   UNL A   1      33.964  24.487  22.005  1.00  0.00    -0.275 OA
ATOM     16  C   UNL A   1      32.768  24.769  21.974  1.00  0.00     0.224 C 
ATOM     17  H   UNL A   1      30.835  24.259  22.269  1.00  0.00     0.169 HD
BRANCH  16  18
ATOM     18  C   UNL A   1      32.317  26.069  21.333  1.00  0.00     0.105 C 
BRANCH  18  19
ATOM     19  C   UNL A   1      31.212  26.798  22.098  1.00  0.00     0.047 C 
BRANCH  19  20
ATOM     20  C   UNL A   1      31.714  27.724  23.173  1.00  0.00    -0.029 A 
ATOM     21  C   UNL A   1      30.877  28.186  24.193  1.00  0.00     0.007 A 
ATOM     22  C   UNL A   1      33.039  28.151  23.195  1.00  0.00     0.114 A 
ATOM     23  C   UNL A   1      31.366  29.082  25.137  1.00  0.00     0.020 A 
ATOM     24  N   UNL A   1      33.547  29.009  24.107  1.00  0.00    -0.264 NA
ATOM     25  C   UNL A   1      32.693  29.468  25.047  1.00  0.00     0.111 A 
ENDBRANCH  19  20
ENDBRANCH  18  19
ENDBRANCH  16  18
ENDBRANCH   8  14
ENDBRANCH   4   7
ENDBRANCH   2   3
ENDBRANCH   1   2
BRANCH   1  26
ATOM     26  C   UNL A   1      35.593  23.225  25.198  1.00  0.00     0.023 C 
BRANCH  26  27
ATOM     27  C   UNL A   1      37.011  23.743  24.974  1.00  0.00     0.116 C 
BRANCH  27  28
ATOM     28  N   UNL A   1      38.038  22.759  25.281  1.00  0.00    -0.352 N 
ATOM     29  C   UNL A   1      39.175  22.896  26.042  1.00  0.00     0.251 C 
ATOM     30  H   UNL A   1      37.898  21.867  24.889  1.00  0.00     0.163 HD
ATOM     31  O   UNL A   1      39.984  21.979  26.105  1.00  0.00    -0.269 OA
BRANCH  29  32
ATOM     32  C   UNL A   1      39.433  24.169  26.749  1.00  0.00     0.039 A 
ATOM     33  C   UNL A   1      38.930  24.331  28.042  1.00  0.00     0.014 A 
ATOM     34  C   UNL A   1      40.180  25.187  26.151  1.00  0.00     0.014 A 
ATOM     35  C   UNL A   1      39.237  25.487  28.762  1.00  0.00     0.010 A 
ATOM     36  C   UNL A   1      40.543  26.307  26.895  1.00  0.00     0.010 A 
ATOM     37  C   UNL A   1      40.079  26.465  28.209  1.00  0.00    -0.014 A 
BRANCH  37  38
ATOM     38  C   UNL A   1      40.499  27.651  29.000  1.00  0.00     0.031 A 
ATOM     39  C   UNL A   1      41.836  27.670  29.688  1.00  0.00     0.074 A 
ATOM     40  C   UNL A   1      39.649  28.687  29.144  1.00  0.00     0.049 A 
ATOM     41  N   UNL A   1      42.353  28.592  30.457  1.00  0.00    -0.248 NA
ATOM     42  C   UNL A   1      42.696  26.490  29.505  1.00  0.00     0.031 C 
ATOM     43  C   UNL A   1      38.304  28.762  28.566  1.00  0.00     0.029 A 
ATOM     44  N   UNL A   1      39.784  29.874  29.820  1.00  0.00    -0.354 N 
ATOM     45  C   UNL A   1      43.592  28.103  30.857  1.00  0.00     0.074 A 
ATOM     46  C   UNL A   1      43.725  26.779  30.291  1.00  0.00     0.031 C 
ATOM     47  C   UNL A   1      37.754  29.944  28.883  1.00  0.00     0.029 A 
ATOM     48  C   UNL A   1      38.687  30.696  29.717  1.00  0.00     0.049 A 
ATOM     49  H   UNL A   1      40.591  30.113  30.331  1.00  0.00     0.167 HD
ATOM     50  C   UNL A   1      44.541  28.714  31.603  1.00  0.00     0.037 A 
ATOM     51  C   UNL A   1      38.457  31.919  30.235  1.00  0.00     0.037 A 
ATOM     52  C   UNL A   1      44.412  30.043  32.142  1.00  0.00     0.049 A 
ATOM     53  C   UNL A   1      39.524  32.575  31.065  1.00  0.00     0.074 A 
ATOM     54  C   UNL A   1      45.339  30.770  32.866  1.00  0.00     0.029 A 
ATOM     55  N   UNL A   1      43.287  30.845  32.015  1.00  0.00    -0.354 N 
ATOM     56  N   UNL A   1      40.711  32.119  31.390  1.00  0.00    -0.248 NA
ATOM     57  C   UNL A   1      39.227  33.912  31.599  1.00  0.00     0.031 C 
ATOM     58  C   UNL A   1      44.761  31.995  33.214  1.00  0.00     0.029 A 
ATOM     59  C   UNL A   1      43.490  32.052  32.665  1.00  0.00     0.049 A 
ATOM     60  H   UNL A   1      42.465  30.593  31.534  1.00  0.00     0.167 HD
ATOM     61  C   UNL A   1      41.308  33.118  32.149  1.00  0.00     0.074 A 
ATOM     62  C   UNL A   1      40.358  34.210  32.224  1.00  0.00     0.031 C 
ATOM     63  C   UNL A   1      42.533  33.129  32.733  1.00  0.00     0.037 A 
BRANCH  50  64
ATOM     64  C   UNL A   1      45.816  27.960  31.868  1.00  0.00     0.058 A 
ATOM     65  C   UNL A   1      46.864  27.973  30.935  1.00  0.00     0.135 A 
ATOM     66  C   UNL A   1      45.979  27.180  33.025  1.00  0.00     0.135 A 
ATOM     67  F   UNL A   1      46.765  28.705  29.814  1.00  0.00    -0.206 F 
ATOM     68  C   UNL A   1      48.025  27.231  31.134  1.00  0.00     0.059 A 
ATOM     69  C   UNL A   1      47.142  26.452  33.258  1.00  0.00     0.059 A 
ATOM     70  F   UNL A   1      45.016  27.149  33.960  1.00  0.00    -0.206 F 
ATOM     71  C   UNL A   1      48.155  26.474  32.299  1.00  0.00     0.060 A 
BRANCH  71  72
ATOM     72  S   UNL A   1      49.682  25.547  32.561  1.00  0.00     0.124 S 
ATOM     73  O   UNL A   1      50.508  26.523  33.263  1.00  0.00    -0.237 OA
ATOM     74  O   UNL A   1      49.220  24.413  33.356  1.00  0.00    -0.237 OA
ATOM     75  O   UNL A   1      50.113  25.215  31.206  1.00  0.00    -0.744 OA
ENDBRANCH  71  72
ENDBRANCH  50  64
BRANCH  51  76
ATOM     76  C   UNL A   1      37.173  32.610  29.944  1.00  0.00     0.058 A 
ATOM     77  C   UNL A   1      37.089  33.623  28.977  1.00  0.00     0.135 A 
ATOM     78  C   UNL A   1      36.011  32.301  30.668  1.00  0.00     0.135 A 
ATOM     79  F   UNL A   1      38.174  33.964  28.264  1.00  0.00    -0.206 F 
ATOM     80  C   UNL A   1      35.910  34.326  28.759  1.00  0.00     0.059 A 
ATOM     81  C   UNL A   1      34.811  32.973  30.451  1.00  0.00     0.059 A 
ATOM     82  F   UNL A   1      36.039  31.330  31.595  1.00  0.00    -0.206 F 
ATOM     83  C   UNL A   1      34.777  33.998  29.507  1.00  0.00     0.060 A 
BRANCH  83  84
ATOM     84  S   UNL A   1      33.263  34.944  29.229  1.00  0.00     0.124 S 
ATOM     85  O   UNL A   1      32.567  34.100  28.263  1.00  0.00    -0.237 OA
ATOM     86  O   UNL A   1      32.682  34.989  30.568  1.00  0.00    -0.237 OA
ATOM     87  O   UNL A   1      33.751  36.219  28.715  1.00  0.00    -0.744 OA
ENDBRANCH  83  84
ENDBRANCH  51  76
BRANCH  63  88
ATOM     88  C   UNL A   1      42.930  34.361  33.498  1.00  0.00     0.058 A 
ATOM     89  C   UNL A   1      43.673  35.377  32.877  1.00  0.00     0.135 A 
ATOM     90  C   UNL A   1      42.640  34.501  34.865  1.00  0.00     0.135 A 
ATOM     91  F   UNL A   1      43.982  35.290  31.573  1.00  0.00    -0.206 F 
ATOM     92  C   UNL A   1      44.132  36.480  33.587  1.00  0.00     0.059 A 
ATOM     93  C   UNL A   1      43.066  35.610  35.589  1.00  0.00     0.059 A 
ATOM     94  F   UNL A   1      41.922  33.562  35.502  1.00  0.00    -0.206 F 
ATOM     95  C   UNL A   1      43.827  36.586  34.946  1.00  0.00     0.060 A 
BRANCH  95  96
ATOM     96  S   UNL A   1      44.421  38.030  35.850  1.00  0.00     0.124 S 
ATOM     97  O   UNL A   1      43.853  37.808  37.175  1.00  0.00    -0.237 OA
ATOM     98  O   UNL A   1      45.870  37.886  35.748  1.00  0.00    -0.237 OA
ATOM     99  O   UNL A   1      43.857  39.152  35.104  1.00  0.00    -0.744 OA
ENDBRANCH  95  96
ENDBRANCH  63  88
ENDBRANCH  37  38
ENDBRANCH  29  32
ENDBRANCH  27  28
ENDBRANCH  26  27
ENDBRANCH   1  26
TORSDOF 18
ENDMDL
MODEL 3
REMARK VINA RESULT:     -11.7      3.237      5.098
REMARK SMILES O=C(CCc1cccnc1)Nc1cccc(F)c1C(=O)NCCCCNC(=O)c1ccc(-c2c3nc(c(-c4c(F)cc(S(=O)(=O)[O-])cc4F)c4ccc([nH]4)c(-c4c(F)cc(S(=O)(=O)[O-])cc4F)c4nc(c(-c5c(F)cc(S(=O)(=O)[O-])cc5F)c5ccc2[nH]5)C=C4)C=C3)cc1
REMARK SMILES IDX 23 1 22 2 21 3 19 4 20 5 18 7 12 8 13 9 14 10 16 11 15 12
REMARK SMILES IDX 17 13 11 14 1 15 2 16 3 18 4 19 5 20 6 21 10 22 7 23 9 24
REMARK SMILES IDX 8 25 24 26 25 27 26 28 27 29 28 31 29 32 30 33 94 34 31 35
REMARK SMILES IDX 93 36 32 37 33 38 34 39 87 40 35 41 92 42 86 43 88 44 36 45
REMARK SMILES IDX 91 46 85 47 84 48 37 50 71 51 50 52 70 53 51 54 54 55 69 56
REMARK SMILES IDX 89 57 52 58 53 59 68 61 90 62 55 63 38 64 39 65 48 66 40 67
REMARK SMILES IDX 41 68 47 69 49 70 42 71 43 72 44 73 45 74 46 75 72 76 73 77
REMARK SMILES IDX 82 78 74 79 75 80 81 81 83 82 76 83 77 84 78 85 79 86 80 87
REMARK SMILES IDX 56 88 57 89 66 90 58 91 59 92 65 93 67 94 60 95 61 96 62 97
REMARK SMILES IDX 63 98 64 99
REMARK H PARENT 21 6 11 17 26 30 88 49 54 60
REMARK Flexibility Score: inf
ROOT
ATOM      1  C   UNL A   1      34.618  24.113  25.794  1.00  0.00     0.023 C 
ENDROOT
BRANCH   1   2
ATOM      2  C   UNL A   1      34.255  25.403  25.049  1.00  0.00     0.116 C 
BRANCH   2   3
ATOM      3  N   UNL A   1      34.155  25.134  23.625  1.00  0.00    -0.352 N 
ATOM      4  C   UNL A   1      33.101  25.177  22.752  1.00  0.00     0.256 C 
ATOM      5  O   UNL A   1      33.255  24.681  21.633  1.00  0.00    -0.269 OA
ATOM      6  H   UNL A   1      35.007  24.871  23.209  1.00  0.00     0.163 HD
BRANCH   4   7
ATOM      7  C   UNL A   1      31.814  25.868  23.002  1.00  0.00     0.099 A 
ATOM      8  C   UNL A   1      30.739  25.116  23.548  1.00  0.00     0.056 A 
ATOM      9  C   UNL A   1      29.539  25.771  23.864  1.00  0.00     0.027 A 
ATOM     10  C   UNL A   1      29.386  27.139  23.641  1.00  0.00     0.005 A 
ATOM     11  C   UNL A   1      31.645  27.240  22.809  1.00  0.00     0.138 A 
ATOM     12  C   UNL A   1      30.436  27.871  23.104  1.00  0.00     0.040 A 
ATOM     13  F   UNL A   1      32.647  28.022  22.391  1.00  0.00    -0.206 F 
BRANCH   8  14
ATOM     14  N   UNL A   1      30.904  23.733  23.842  1.00  0.00    -0.325 N 
ATOM     15  O   UNL A   1      31.145  23.771  26.147  1.00  0.00    -0.275 OA
ATOM     16  C   UNL A   1      31.184  23.176  25.072  1.00  0.00     0.224 C 
ATOM     17  H   UNL A   1      30.809  23.107  23.087  1.00  0.00     0.169 HD
BRANCH  16  18
ATOM     18  C   UNL A   1      31.599  21.716  25.033  1.00  0.00     0.105 C 
BRANCH  18  19
ATOM     19  C   UNL A   1      32.367  21.313  23.774  1.00  0.00     0.047 C 
BRANCH  19  20
ATOM     20  C   UNL A   1      32.937  19.920  23.820  1.00  0.00    -0.029 A 
ATOM     21  C   UNL A   1      32.376  18.874  23.082  1.00  0.00     0.007 A 
ATOM     22  C   UNL A   1      34.053  19.623  24.598  1.00  0.00     0.114 A 
ATOM     23  C   UNL A   1      32.901  17.590  23.193  1.00  0.00     0.020 A 
ATOM     24  N   UNL A   1      34.594  18.391  24.715  1.00  0.00    -0.264 NA
ATOM     25  C   UNL A   1      33.993  17.399  24.021  1.00  0.00     0.111 A 
ENDBRANCH  19  20
ENDBRANCH  18  19
ENDBRANCH  16  18
ENDBRANCH   8  14
ENDBRANCH   4   7
ENDBRANCH   2   3
ENDBRANCH   1   2
BRANCH   1  26
ATOM     26  C   UNL A   1      35.615  23.213  25.052  1.00  0.00     0.023 C 
BRANCH  26  27
ATOM     27  C   UNL A   1      37.038  23.758  24.961  1.00  0.00     0.116 C 
BRANCH  27  28
ATOM     28  N   UNL A   1      38.053  22.774  25.305  1.00  0.00    -0.352 N 
ATOM     29  C   UNL A   1      39.179  22.919  26.082  1.00  0.00     0.251 C 
ATOM     30  H   UNL A   1      37.914  21.875  24.928  1.00  0.00     0.163 HD
ATOM     31  O   UNL A   1      39.980  21.999  26.176  1.00  0.00    -0.269 OA
BRANCH  29  32
ATOM     32  C   UNL A   1      39.433  24.204  26.768  1.00  0.00     0.039 A 
ATOM     33  C   UNL A   1      38.892  24.403  28.040  1.00  0.00     0.014 A 
ATOM     34  C   UNL A   1      40.214  25.197  26.171  1.00  0.00     0.014 A 
ATOM     35  C   UNL A   1      39.194  25.570  28.744  1.00  0.00     0.010 A 
ATOM     36  C   UNL A   1      40.570  26.329  26.900  1.00  0.00     0.010 A 
ATOM     37  C   UNL A   1      40.067  26.524  28.195  1.00  0.00    -0.014 A 
BRANCH  37  38
ATOM     38  C   UNL A   1      40.480  27.721  28.972  1.00  0.00     0.031 A 
ATOM     39  C   UNL A   1      41.823  27.763  29.648  1.00  0.00     0.074 A 
ATOM     40  C   UNL A   1      39.619  28.749  29.114  1.00  0.00     0.049 A 
ATOM     41  N   UNL A   1      42.335  28.697  30.406  1.00  0.00    -0.248 NA
ATOM     42  C   UNL A   1      42.695  26.590  29.469  1.00  0.00     0.031 C 
ATOM     43  C   UNL A   1      38.269  28.803  28.547  1.00  0.00     0.029 A 
ATOM     44  N   UNL A   1      39.746  29.943  29.779  1.00  0.00    -0.354 N 
ATOM     45  C   UNL A   1      43.582  28.226  30.799  1.00  0.00     0.074 A 
ATOM     46  C   UNL A   1      43.726  26.899  30.244  1.00  0.00     0.031 C 
ATOM     47  C   UNL A   1      37.707  29.982  28.858  1.00  0.00     0.029 A 
ATOM     48  C   UNL A   1      38.638  30.751  29.677  1.00  0.00     0.049 A 
ATOM     49  H   UNL A   1      40.554  30.196  30.280  1.00  0.00     0.167 HD
ATOM     50  C   UNL A   1      44.531  28.855  31.531  1.00  0.00     0.037 A 
ATOM     51  C   UNL A   1      38.398  31.976  30.187  1.00  0.00     0.037 A 
ATOM     52  C   UNL A   1      44.390  30.186  32.060  1.00  0.00     0.049 A 
ATOM     53  C   UNL A   1      39.465  32.652  31.002  1.00  0.00     0.074 A 
ATOM     54  C   UNL A   1      45.315  30.931  32.770  1.00  0.00     0.029 A 
ATOM     55  N   UNL A   1      43.255  30.974  31.935  1.00  0.00    -0.354 N 
ATOM     56  N   UNL A   1      40.659  32.213  31.320  1.00  0.00    -0.248 NA
ATOM     57  C   UNL A   1      39.156  33.990  31.526  1.00  0.00     0.031 C 
ATOM     58  C   UNL A   1      44.726  32.152  33.112  1.00  0.00     0.029 A 
ATOM     59  C   UNL A   1      43.449  32.189  32.573  1.00  0.00     0.049 A 
ATOM     60  H   UNL A   1      42.432  30.709  31.464  1.00  0.00     0.167 HD
ATOM     61  C   UNL A   1      41.251  33.225  32.066  1.00  0.00     0.074 A 
ATOM     62  C   UNL A   1      40.289  34.307  32.139  1.00  0.00     0.031 C 
ATOM     63  C   UNL A   1      42.480  33.256  32.640  1.00  0.00     0.037 A 
BRANCH  50  64
ATOM     64  C   UNL A   1      45.816  28.118  31.792  1.00  0.00     0.058 A 
ATOM     65  C   UNL A   1      45.974  27.338  32.949  1.00  0.00     0.135 A 
ATOM     66  C   UNL A   1      46.914  28.225  30.922  1.00  0.00     0.135 A 
ATOM     67  F   UNL A   1      44.957  27.195  33.814  1.00  0.00    -0.206 F 
ATOM     68  C   UNL A   1      47.177  26.700  33.239  1.00  0.00     0.059 A 
ATOM     69  C   UNL A   1      48.116  27.574  31.177  1.00  0.00     0.059 A 
ATOM     70  F   UNL A   1      46.810  28.941  29.791  1.00  0.00    -0.206 F 
ATOM     71  C   UNL A   1      48.242  26.824  32.346  1.00  0.00     0.060 A 
BRANCH  71  72
ATOM     72  S   UNL A   1      49.783  25.960  32.716  1.00  0.00     0.124 S 
ATOM     73  O   UNL A   1      50.569  26.219  31.514  1.00  0.00    -0.237 OA
ATOM     74  O   UNL A   1      50.231  26.637  33.929  1.00  0.00    -0.237 OA
ATOM     75  O   UNL A   1      49.358  24.575  32.904  1.00  0.00    -0.744 OA
ENDBRANCH  71  72
ENDBRANCH  50  64
BRANCH  51  76
ATOM     76  C   UNL A   1      37.104  32.649  29.900  1.00  0.00     0.058 A 
ATOM     77  C   UNL A   1      36.979  33.585  28.862  1.00  0.00     0.135 A 
ATOM     78  C   UNL A   1      35.975  32.405  30.698  1.00  0.00     0.135 A 
ATOM     79  F   UNL A   1      38.031  33.862  28.076  1.00  0.00    -0.206 F 
ATOM     80  C   UNL A   1      35.792  34.275  28.642  1.00  0.00     0.059 A 
ATOM     81  C   UNL A   1      34.768  33.064  30.483  1.00  0.00     0.059 A 
ATOM     82  F   UNL A   1      36.043  31.509  31.696  1.00  0.00    -0.206 F 
ATOM     83  C   UNL A   1      34.694  34.013  29.464  1.00  0.00     0.060 A 
BRANCH  83  84
ATOM     84  S   UNL A   1      33.171  34.942  29.182  1.00  0.00     0.124 S 
ATOM     85  O   UNL A   1      33.694  36.224  28.719  1.00  0.00    -0.237 OA
ATOM     86  O   UNL A   1      32.500  34.128  28.172  1.00  0.00    -0.237 OA
ATOM     87  O   UNL A   1      32.536  34.959  30.496  1.00  0.00    -0.744 OA
ENDBRANCH  83  84
ENDBRANCH  51  76
BRANCH  63  88
ATOM     88  C   UNL A   1      42.869  34.499  33.390  1.00  0.00     0.058 A 
ATOM     89  C   UNL A   1      43.442  35.589  32.716  1.00  0.00     0.135 A 
ATOM     90  C   UNL A   1      42.745  34.582  34.786  1.00  0.00     0.135 A 
ATOM     91  F   UNL A   1      43.589  35.559  31.381  1.00  0.00    -0.206 F 
ATOM     92  C   UNL A   1      43.896  36.710  33.400  1.00  0.00     0.059 A 
ATOM     93  C   UNL A   1      43.168  35.706  35.489  1.00  0.00     0.059 A 
ATOM     94  F   UNL A   1      42.192  33.571  35.476  1.00  0.00    -0.206 F 
ATOM     95  C   UNL A   1      43.758  36.758  34.789  1.00  0.00     0.060 A 
BRANCH  95  96
ATOM     96  S   UNL A   1      44.342  38.227  35.660  1.00  0.00     0.124 S 
ATOM     97  O   UNL A   1      43.758  38.041  36.984  1.00  0.00    -0.237 OA
ATOM     98  O   UNL A   1      45.792  38.079  35.580  1.00  0.00    -0.237 OA
ATOM     99  O   UNL A   1      43.787  39.327  34.878  1.00  0.00    -0.744 OA
ENDBRANCH  95  96
ENDBRANCH  63  88
ENDBRANCH  37  38
ENDBRANCH  29  32
ENDBRANCH  27  28
ENDBRANCH  26  27
ENDBRANCH   1  26
TORSDOF 18
ENDMDL
