MODEL 1
REMARK VINA RESULT:     -12.3      0.000      0.000
REMARK SMILES O=C(NCCCCNC(=O)C1CCN(C(=O)COc2ccc(Cl)cc2Cl)CC1)c1ccc(-c2c3nc(c(-c4c(F)cc(S(=O)(=O)[O-])cc4F)c4ccc([nH]4)c(-c4c(F)cc(S(=O)(=O)[O-])cc4F)c4nc(c(-c5c(F)cc(S(=O)(=O)[O-])cc5F)c5ccc2[nH]5)C=C4)C=C3)cc1
REMARK SMILES IDX 5 1 4 2 3 3 1 4 2 5 29 7 30 8 94 9 31 10 93 11 32 12 33 13
REMARK SMILES IDX 34 14 87 15 35 16 92 17 86 18 88 19 36 20 91 21 85 22 84 23
REMARK SMILES IDX 37 25 71 26 50 27 70 28 51 29 54 30 69 31 89 32 52 33 53 34
REMARK SMILES IDX 68 36 90 37 55 38 38 39 39 40 48 41 40 42 41 43 47 44 49 45
REMARK SMILES IDX 42 46 43 47 44 48 45 49 46 50 72 51 73 52 82 53 74 54 75 55
REMARK SMILES IDX 81 56 83 57 76 58 77 59 78 60 79 61 80 62 56 63 57 64 66 65
REMARK SMILES IDX 58 66 59 67 65 68 67 69 60 70 61 71 62 72 63 73 64 74 6 75
REMARK SMILES IDX 7 76 8 77 9 78 10 80 11 81 12 82 28 83 13 84 27 85 14 86
REMARK SMILES IDX 15 87 16 88 17 89 18 90 19 91 20 92 25 93 21 94 24 95 26 96
REMARK SMILES IDX 22 97 23 98
REMARK H PARENT 3 6 88 24 54 35 8 79
REMARK Flexibility Score: inf
ROOT
ATOM      1  C   UNL A   1      35.399  32.289  27.832  1.00  0.00     0.023 C 
ENDROOT
BRANCH   1   2
ATOM      2  C   UNL A   1      36.181  32.313  29.127  1.00  0.00     0.116 C 
BRANCH   2   3
ATOM      3  N   UNL A   1      35.758  31.323  30.111  1.00  0.00    -0.352 N 
ATOM      4  O   UNL A   1      36.061  29.501  31.433  1.00  0.00    -0.269 OA
ATOM      5  C   UNL A   1      36.527  30.309  30.646  1.00  0.00     0.251 C 
ATOM      6  H   UNL A   1      34.828  31.385  30.426  1.00  0.00     0.163 HD
BRANCH   5   7
ATOM      7  C   UNL A   1      37.927  30.214  30.187  1.00  0.00     0.039 A 
ATOM      8  C   UNL A   1      38.180  29.962  28.838  1.00  0.00     0.014 A 
ATOM      9  C   UNL A   1      38.960  30.202  31.127  1.00  0.00     0.014 A 
ATOM     10  C   UNL A   1      39.434  29.511  28.461  1.00  0.00     0.010 A 
ATOM     11  C   UNL A   1      40.253  29.869  30.716  1.00  0.00     0.010 A 
ATOM     12  C   UNL A   1      40.492  29.490  29.386  1.00  0.00    -0.014 A 
BRANCH  12  13
ATOM     13  C   UNL A   1      41.854  29.183  28.890  1.00  0.00     0.031 A 
ATOM     14  C   UNL A   1      42.944  30.217  28.862  1.00  0.00     0.074 A 
ATOM     15  C   UNL A   1      42.092  27.917  28.493  1.00  0.00     0.049 A 
ATOM     16  N   UNL A   1      44.176  30.091  28.441  1.00  0.00    -0.248 NA
ATOM     17  C   UNL A   1      42.619  31.565  29.356  1.00  0.00     0.031 C 
ATOM     18  C   UNL A   1      41.089  26.845  28.464  1.00  0.00     0.029 A 
ATOM     19  N   UNL A   1      43.237  27.304  28.066  1.00  0.00    -0.354 N 
ATOM     20  C   UNL A   1      44.762  31.344  28.580  1.00  0.00     0.074 A 
ATOM     21  C   UNL A   1      43.752  32.220  29.132  1.00  0.00     0.031 C 
ATOM     22  C   UNL A   1      41.676  25.697  28.106  1.00  0.00     0.029 A 
ATOM     23  C   UNL A   1      43.071  25.968  27.790  1.00  0.00     0.049 A 
ATOM     24  H   UNL A   1      44.097  27.774  27.966  1.00  0.00     0.167 HD
ATOM     25  C   UNL A   1      46.028  31.715  28.267  1.00  0.00     0.037 A 
ATOM     26  C   UNL A   1      43.933  25.062  27.299  1.00  0.00     0.037 A 
ATOM     27  C   UNL A   1      47.028  30.813  27.754  1.00  0.00     0.049 A 
ATOM     28  C   UNL A   1      45.326  25.505  26.976  1.00  0.00     0.074 A 
ATOM     29  C   UNL A   1      48.354  31.078  27.454  1.00  0.00     0.029 A 
ATOM     30  N   UNL A   1      46.814  29.473  27.462  1.00  0.00    -0.354 N 
ATOM     31  N   UNL A   1      45.863  26.692  27.129  1.00  0.00    -0.248 NA
ATOM     32  C   UNL A   1      46.222  24.499  26.398  1.00  0.00     0.031 C 
ATOM     33  C   UNL A   1      48.931  29.908  26.948  1.00  0.00     0.029 A 
ATOM     34  C   UNL A   1      47.977  28.905  26.966  1.00  0.00     0.049 A 
ATOM     35  H   UNL A   1      45.963  28.996  27.589  1.00  0.00     0.167 HD
ATOM     36  C   UNL A   1      47.161  26.578  26.653  1.00  0.00     0.074 A 
ATOM     37  C   UNL A   1      47.337  25.199  26.243  1.00  0.00     0.031 C 
ATOM     38  C   UNL A   1      48.118  27.532  26.552  1.00  0.00     0.037 A 
BRANCH  25  39
ATOM     39  C   UNL A   1      46.416  33.158  28.445  1.00  0.00     0.058 A 
ATOM     40  C   UNL A   1      47.000  33.627  29.631  1.00  0.00     0.135 A 
ATOM     41  C   UNL A   1      46.297  34.058  27.374  1.00  0.00     0.135 A 
ATOM     42  F   UNL A   1      47.126  32.812  30.692  1.00  0.00    -0.206 F 
ATOM     43  C   UNL A   1      47.456  34.937  29.747  1.00  0.00     0.059 A 
ATOM     44  C   UNL A   1      46.762  35.368  27.462  1.00  0.00     0.059 A 
ATOM     45  F   UNL A   1      45.743  33.661  26.217  1.00  0.00    -0.206 F 
ATOM     46  C   UNL A   1      47.337  35.800  28.655  1.00  0.00     0.060 A 
BRANCH  46  47
ATOM     47  S   UNL A   1      47.978  37.483  28.805  1.00  0.00     0.124 S 
ATOM     48  O   UNL A   1      47.453  38.103  27.593  1.00  0.00    -0.237 OA
ATOM     49  O   UNL A   1      47.380  37.935  30.058  1.00  0.00    -0.237 OA
ATOM     50  O   UNL A   1      49.425  37.294  28.837  1.00  0.00    -0.744 OA
ENDBRANCH  46  47
ENDBRANCH  25  39
BRANCH  26  51
ATOM     51  C   UNL A   1      43.474  23.675  27.042  1.00  0.00     0.058 A 
ATOM     52  C   UNL A   1      43.340  22.749  28.084  1.00  0.00     0.135 A 
ATOM     53  C   UNL A   1      43.121  23.262  25.747  1.00  0.00     0.135 A 
ATOM     54  F   UNL A   1      43.663  23.100  29.339  1.00  0.00    -0.206 F 
ATOM     55  C   UNL A   1      42.883  21.456  27.853  1.00  0.00     0.059 A 
ATOM     56  C   UNL A   1      42.635  21.986  25.494  1.00  0.00     0.059 A 
ATOM     57  F   UNL A   1      43.209  24.122  24.719  1.00  0.00    -0.206 F 
ATOM     58  C   UNL A   1      42.532  21.084  26.552  1.00  0.00     0.060 A 
BRANCH  58  59
ATOM     59  S   UNL A   1      41.892  19.423  26.258  1.00  0.00     0.124 S 
ATOM     60  O   UNL A   1      42.588  19.057  25.031  1.00  0.00    -0.237 OA
ATOM     61  O   UNL A   1      42.306  18.710  27.464  1.00  0.00    -0.237 OA
ATOM     62  O   UNL A   1      40.455  19.639  26.132  1.00  0.00    -0.744 OA
ENDBRANCH  58  59
ENDBRANCH  26  51
BRANCH  38  63
ATOM     63  C   UNL A   1      49.431  27.102  25.971  1.00  0.00     0.058 A 
ATOM     64  C   UNL A   1      50.424  26.519  26.773  1.00  0.00     0.135 A 
ATOM     65  C   UNL A   1      49.694  27.265  24.603  1.00  0.00     0.135 A 
ATOM     66  F   UNL A   1      50.220  26.355  28.090  1.00  0.00    -0.206 F 
ATOM     67  C   UNL A   1      51.649  26.135  26.240  1.00  0.00     0.059 A 
ATOM     68  C   UNL A   1      50.904  26.869  24.046  1.00  0.00     0.059 A 
ATOM     69  F   UNL A   1      48.772  27.815  23.797  1.00  0.00    -0.206 F 
ATOM     70  C   UNL A   1      51.881  26.318  24.876  1.00  0.00     0.060 A 
BRANCH  70  71
ATOM     71  S   UNL A   1      53.468  25.803  24.190  1.00  0.00     0.124 S 
ATOM     72  O   UNL A   1      54.374  26.782  24.785  1.00  0.00    -0.237 OA
ATOM     73  O   UNL A   1      53.599  24.437  24.685  1.00  0.00    -0.237 OA
ATOM     74  O   UNL A   1      53.269  25.925  22.749  1.00  0.00    -0.744 OA
ENDBRANCH  70  71
ENDBRANCH  38  63
ENDBRANCH  12  13
ENDBRANCH   5   7
ENDBRANCH   2   3
ENDBRANCH   1   2
BRANCH   1  75
ATOM     75  C   UNL A   1      34.182  31.386  27.847  1.00  0.00     0.023 C 
BRANCH  75  76
ATOM     76  C   UNL A   1      34.423  29.928  27.431  1.00  0.00     0.116 C 
BRANCH  76  77
ATOM     77  N   UNL A   1      33.327  29.074  27.857  1.00  0.00    -0.356 N 
ATOM     78  C   UNL A   1      32.340  28.386  27.239  1.00  0.00     0.223 C 
ATOM     79  H   UNL A   1      33.297  28.970  28.836  1.00  0.00     0.163 HD
ATOM     80  O   UNL A   1      31.494  27.904  28.005  1.00  0.00    -0.275 OA
BRANCH  78  81
ATOM     81  C   UNL A   1      32.228  28.073  25.736  1.00  0.00     0.082 C 
ATOM     82  C   UNL A   1      31.043  27.319  25.157  1.00  0.00     0.035 C 
ATOM     83  C   UNL A   1      33.503  27.329  25.265  1.00  0.00     0.035 C 
ATOM     84  C   UNL A   1      31.018  25.886  25.641  1.00  0.00     0.120 C 
ATOM     85  C   UNL A   1      33.506  25.863  25.706  1.00  0.00     0.120 C 
ATOM     86  N   UNL A   1      32.253  25.172  25.410  1.00  0.00    -0.340 N 
ATOM     87  C   UNL A   1      32.169  23.788  25.545  1.00  0.00     0.260 C 
ATOM     88  O   UNL A   1      31.281  23.244  26.206  1.00  0.00    -0.271 OA
BRANCH  87  89
ATOM     89  C   UNL A   1      33.119  22.955  24.686  1.00  0.00     0.329 C 
BRANCH  89  90
ATOM     90  O   UNL A   1      33.948  22.000  25.329  1.00  0.00    -0.482 OA
BRANCH  90  91
ATOM     91  C   UNL A   1      33.795  20.661  25.078  1.00  0.00     0.138 A 
ATOM     92  C   UNL A   1      32.575  19.993  24.926  1.00  0.00     0.049 A 
ATOM     93  C   UNL A   1      34.976  19.923  24.887  1.00  0.00     0.084 A 
ATOM     94  C   UNL A   1      32.531  18.660  24.501  1.00  0.00     0.024 A 
ATOM     95  C   UNL A   1      34.937  18.579  24.504  1.00  0.00     0.045 A 
ATOM     96  Cl  UNL A   1      36.531  20.644  25.133  1.00  0.00    -0.080 Cl
ATOM     97  C   UNL A   1      33.712  17.961  24.288  1.00  0.00     0.042 A 
ATOM     98  Cl  UNL A   1      33.652  16.327  23.757  1.00  0.00    -0.084 Cl
ENDBRANCH  90  91
ENDBRANCH  89  90
ENDBRANCH  87  89
ENDBRANCH  78  81
ENDBRANCH  76  77
ENDBRANCH  75  76
ENDBRANCH   1  75
TORSDOF 17
ENDMDL
MODEL 2
REMARK VINA RESULT:     -11.9      1.121      8.386
REMARK SMILES O=C(NCCCCNC(=O)C1CCN(C(=O)COc2ccc(Cl)cc2Cl)CC1)c1ccc(-c2c3nc(c(-c4c(F)cc(S(=O)(=O)[O-])cc4F)c4ccc([nH]4)c(-c4c(F)cc(S(=O)(=O)[O-])cc4F)c4nc(c(-c5c(F)cc(S(=O)(=O)[O-])cc5F)c5ccc2[nH]5)C=C4)C=C3)cc1
REMARK SMILES IDX 5 1 4 2 3 3 1 4 2 5 29 7 30 8 94 9 31 10 93 11 32 12 33 13
REMARK SMILES IDX 34 14 87 15 35 16 92 17 86 18 88 19 36 20 91 21 85 22 84 23
REMARK SMILES IDX 37 25 71 26 50 27 70 28 51 29 54 30 69 31 89 32 52 33 53 34
REMARK SMILES IDX 68 36 90 37 55 38 38 39 39 40 48 41 40 42 41 43 47 44 49 45
REMARK SMILES IDX 42 46 43 47 44 48 45 49 46 50 72 51 73 52 82 53 74 54 75 55
REMARK SMILES IDX 81 56 83 57 76 58 77 59 78 60 79 61 80 62 56 63 57 64 66 65
REMARK SMILES IDX 58 66 59 67 65 68 67 69 60 70 61 71 62 72 63 73 64 74 6 75
REMARK SMILES IDX 7 76 8 77 9 78 10 80 11 81 12 82 28 83 13 84 27 85 14 86
REMARK SMILES IDX 15 87 16 88 17 89 18 90 19 91 20 92 25 93 21 94 24 95 26 96
REMARK SMILES IDX 22 97 23 98
REMARK H PARENT 3 6 88 24 54 35 8 79
REMARK Flexibility Score: inf
ROOT
ATOM      1  C   UNL A   1      35.912  32.891  28.252  1.00  0.00     0.023 C 
ENDROOT
BRANCH   1   2
ATOM      2  C   UNL A   1      36.672  32.789  29.557  1.00  0.00     0.116 C 
BRANCH   2   3
ATOM      3  N   UNL A   1      36.168  31.775  30.475  1.00  0.00    -0.352 N 
ATOM      4  O   UNL A   1      36.300  29.824  31.631  1.00  0.00    -0.269 OA
ATOM      5  C   UNL A   1      36.830  30.636  30.892  1.00  0.00     0.251 C 
ATOM      6  H   UNL A   1      35.264  31.916  30.835  1.00  0.00     0.163 HD
BRANCH   5   7
ATOM      7  C   UNL A   1      38.193  30.421  30.365  1.00  0.00     0.039 A 
ATOM      8  C   UNL A   1      38.358  30.165  29.003  1.00  0.00     0.014 A 
ATOM      9  C   UNL A   1      39.263  30.302  31.254  1.00  0.00     0.014 A 
ATOM     10  C   UNL A   1      39.546  29.608  28.561  1.00  0.00     0.010 A 
ATOM     11  C   UNL A   1      40.500  29.859  30.778  1.00  0.00     0.010 A 
ATOM     12  C   UNL A   1      40.640  29.478  29.435  1.00  0.00    -0.014 A 
BRANCH  12  13
ATOM     13  C   UNL A   1      41.944  29.055  28.870  1.00  0.00     0.031 A 
ATOM     14  C   UNL A   1      42.168  27.668  28.337  1.00  0.00     0.074 A 
ATOM     15  C   UNL A   1      42.921  29.982  28.821  1.00  0.00     0.049 A 
ATOM     16  N   UNL A   1      43.260  27.159  27.828  1.00  0.00    -0.248 NA
ATOM     17  C   UNL A   1      41.037  26.728  28.383  1.00  0.00     0.031 C 
ATOM     18  C   UNL A   1      42.804  31.352  29.334  1.00  0.00     0.029 A 
ATOM     19  N   UNL A   1      44.185  29.935  28.300  1.00  0.00    -0.354 N 
ATOM     20  C   UNL A   1      42.966  25.833  27.531  1.00  0.00     0.074 A 
ATOM     21  C   UNL A   1      41.586  25.614  27.910  1.00  0.00     0.031 C 
ATOM     22  C   UNL A   1      43.920  32.031  29.046  1.00  0.00     0.029 A 
ATOM     23  C   UNL A   1      44.865  31.123  28.413  1.00  0.00     0.049 A 
ATOM     24  H   UNL A   1      44.569  29.129  27.884  1.00  0.00     0.167 HD
ATOM     25  C   UNL A   1      43.782  24.893  26.995  1.00  0.00     0.037 A 
ATOM     26  C   UNL A   1      46.128  31.444  28.081  1.00  0.00     0.037 A 
ATOM     27  C   UNL A   1      45.143  25.146  26.590  1.00  0.00     0.049 A 
ATOM     28  C   UNL A   1      46.997  30.385  27.480  1.00  0.00     0.074 A 
ATOM     29  C   UNL A   1      46.038  24.276  25.989  1.00  0.00     0.029 A 
ATOM     30  N   UNL A   1      45.806  26.355  26.745  1.00  0.00    -0.354 N 
ATOM     31  N   UNL A   1      46.694  29.141  27.195  1.00  0.00    -0.248 NA
ATOM     32  C   UNL A   1      48.382  30.760  27.175  1.00  0.00     0.031 C 
ATOM     33  C   UNL A   1      47.252  24.949  25.814  1.00  0.00     0.029 A 
ATOM     34  C   UNL A   1      47.104  26.248  26.271  1.00  0.00     0.049 A 
ATOM     35  H   UNL A   1      45.413  27.170  27.133  1.00  0.00     0.167 HD
ATOM     36  C   UNL A   1      47.856  28.580  26.686  1.00  0.00     0.074 A 
ATOM     37  C   UNL A   1      48.855  29.631  26.669  1.00  0.00     0.031 C 
ATOM     38  C   UNL A   1      48.081  27.307  26.281  1.00  0.00     0.037 A 
BRANCH  25  39
ATOM     39  C   UNL A   1      43.253  23.495  26.826  1.00  0.00     0.058 A 
ATOM     40  C   UNL A   1      42.979  22.954  25.562  1.00  0.00     0.135 A 
ATOM     41  C   UNL A   1      43.120  22.651  27.942  1.00  0.00     0.135 A 
ATOM     42  F   UNL A   1      43.077  23.720  24.463  1.00  0.00    -0.206 F 
ATOM     43  C   UNL A   1      42.594  21.625  25.408  1.00  0.00     0.059 A 
ATOM     44  C   UNL A   1      42.754  21.314  27.810  1.00  0.00     0.059 A 
ATOM     45  F   UNL A   1      43.369  23.120  29.176  1.00  0.00    -0.206 F 
ATOM     46  C   UNL A   1      42.489  20.810  26.538  1.00  0.00     0.060 A 
BRANCH  46  47
ATOM     47  S   UNL A   1      42.037  19.075  26.317  1.00  0.00     0.124 S 
ATOM     48  O   UNL A   1      42.297  18.535  27.648  1.00  0.00    -0.237 OA
ATOM     49  O   UNL A   1      40.631  19.164  25.934  1.00  0.00    -0.237 OA
ATOM     50  O   UNL A   1      42.941  18.619  25.267  1.00  0.00    -0.744 OA
ENDBRANCH  46  47
ENDBRANCH  25  39
BRANCH  26  51
ATOM     51  C   UNL A   1      46.638  32.809  28.363  1.00  0.00     0.058 A 
ATOM     52  C   UNL A   1      46.562  33.825  27.402  1.00  0.00     0.135 A 
ATOM     53  C   UNL A   1      47.176  33.130  29.619  1.00  0.00     0.135 A 
ATOM     54  F   UNL A   1      46.052  33.565  26.188  1.00  0.00    -0.206 F 
ATOM     55  C   UNL A   1      47.012  35.113  27.672  1.00  0.00     0.059 A 
ATOM     56  C   UNL A   1      47.606  34.415  29.922  1.00  0.00     0.059 A 
ATOM     57  F   UNL A   1      47.246  32.195  30.581  1.00  0.00    -0.206 F 
ATOM     58  C   UNL A   1      47.533  35.398  28.936  1.00  0.00     0.060 A 
BRANCH  58  59
ATOM     59  S   UNL A   1      48.073  37.080  29.304  1.00  0.00     0.124 S 
ATOM     60  O   UNL A   1      46.819  37.707  29.703  1.00  0.00    -0.237 OA
ATOM     61  O   UNL A   1      49.049  36.869  30.370  1.00  0.00    -0.237 OA
ATOM     62  O   UNL A   1      48.634  37.534  28.035  1.00  0.00    -0.744 OA
ENDBRANCH  58  59
ENDBRANCH  26  51
BRANCH  38  63
ATOM     63  C   UNL A   1      49.464  26.995  25.794  1.00  0.00     0.058 A 
ATOM     64  C   UNL A   1      49.825  27.204  24.454  1.00  0.00     0.135 A 
ATOM     65  C   UNL A   1      50.435  26.495  26.672  1.00  0.00     0.135 A 
ATOM     66  F   UNL A   1      48.924  27.670  23.575  1.00  0.00    -0.206 F 
ATOM     67  C   UNL A   1      51.102  26.900  23.995  1.00  0.00     0.059 A 
ATOM     68  C   UNL A   1      51.723  26.204  26.239  1.00  0.00     0.059 A 
ATOM     69  F   UNL A   1      50.135  26.282  27.964  1.00  0.00    -0.206 F 
ATOM     70  C   UNL A   1      52.042  26.397  24.895  1.00  0.00     0.060 A 
BRANCH  70  71
ATOM     71  S   UNL A   1      53.701  26.018  24.293  1.00  0.00     0.124 S 
ATOM     72  O   UNL A   1      53.502  26.056  22.848  1.00  0.00    -0.237 OA
ATOM     73  O   UNL A   1      54.496  27.107  24.852  1.00  0.00    -0.237 OA
ATOM     74  O   UNL A   1      53.972  24.699  24.857  1.00  0.00    -0.744 OA
ENDBRANCH  70  71
ENDBRANCH  38  63
ENDBRANCH  12  13
ENDBRANCH   5   7
ENDBRANCH   2   3
ENDBRANCH   1   2
BRANCH   1  75
ATOM     75  C   UNL A   1      34.623  32.095  28.210  1.00  0.00     0.023 C 
BRANCH  75  76
ATOM     76  C   UNL A   1      34.701  30.726  27.521  1.00  0.00     0.116 C 
BRANCH  76  77
ATOM     77  N   UNL A   1      33.458  29.989  27.677  1.00  0.00    -0.356 N 
ATOM     78  C   UNL A   1      32.514  29.496  26.843  1.00  0.00     0.223 C 
ATOM     79  H   UNL A   1      33.253  29.803  28.622  1.00  0.00     0.163 HD
ATOM     80  O   UNL A   1      31.502  29.063  27.412  1.00  0.00    -0.275 OA
BRANCH  78  81
ATOM     81  C   UNL A   1      32.619  29.335  25.315  1.00  0.00     0.082 C 
ATOM     82  C   UNL A   1      31.444  28.868  24.474  1.00  0.00     0.035 C 
ATOM     83  C   UNL A   1      33.810  28.408  24.972  1.00  0.00     0.035 C 
ATOM     84  C   UNL A   1      31.089  27.430  24.781  1.00  0.00     0.120 C 
ATOM     85  C   UNL A   1      33.486  26.936  25.237  1.00  0.00     0.120 C 
ATOM     86  N   UNL A   1      32.205  26.519  24.669  1.00  0.00    -0.340 N 
ATOM     87  C   UNL A   1      31.864  25.169  24.631  1.00  0.00     0.260 C 
ATOM     88  O   UNL A   1      30.793  24.747  25.075  1.00  0.00    -0.271 OA
BRANCH  87  89
ATOM     89  C   UNL A   1      32.795  24.248  23.844  1.00  0.00     0.329 C 
BRANCH  89  90
ATOM     90  O   UNL A   1      33.283  23.077  24.482  1.00  0.00    -0.482 OA
BRANCH  90  91
ATOM     91  C   UNL A   1      34.623  22.919  24.721  1.00  0.00     0.138 A 
ATOM     92  C   UNL A   1      35.569  23.947  24.782  1.00  0.00     0.049 A 
ATOM     93  C   UNL A   1      35.056  21.611  25.001  1.00  0.00     0.084 A 
ATOM     94  C   UNL A   1      36.880  23.698  25.203  1.00  0.00     0.024 A 
ATOM     95  C   UNL A   1      36.376  21.350  25.380  1.00  0.00     0.045 A 
ATOM     96  Cl  UNL A   1      33.976  20.264  24.871  1.00  0.00    -0.080 Cl
ATOM     97  C   UNL A   1      37.276  22.401  25.504  1.00  0.00     0.042 A 
ATOM     98  Cl  UNL A   1      38.885  22.101  26.030  1.00  0.00    -0.084 Cl
ENDBRANCH  90  91
ENDBRANCH  89  90
ENDBRANCH  87  89
ENDBRANCH  78  81
ENDBRANCH  76  77
ENDBRANCH  75  76
ENDBRANCH   1  75
TORSDOF 17
ENDMDL
MODEL 3
REMARK VINA RESULT:     -11.9      6.638     12.099
REMARK SMILES O=C(NCCCCNC(=O)C1CCN(C(=O)COc2ccc(Cl)cc2Cl)CC1)c1ccc(-c2c3nc(c(-c4c(F)cc(S(=O)(=O)[O-])cc4F)c4ccc([nH]4)c(-c4c(F)cc(S(=O)(=O)[O-])cc4F)c4nc(c(-c5c(F)cc(S(=O)(=O)[O-])cc5F)c5ccc2[nH]5)C=C4)C=C3)cc1
REMARK SMILES IDX 5 1 4 2 3 3 1 4 2 5 29 7 30 8 94 9 31 10 93 11 32 12 33 13
REMARK SMILES IDX 34 14 87 15 35 16 92 17 86 18 88 19 36 20 91 21 85 22 84 23
REMARK SMILES IDX 37 25 71 26 50 27 70 28 51 29 54 30 69 31 89 32 52 33 53 34
REMARK SMILES IDX 68 36 90 37 55 38 38 39 39 40 48 41 40 42 41 43 47 44 49 45
REMARK SMILES IDX 42 46 43 47 44 48 45 49 46 50 72 51 73 52 82 53 74 54 75 55
REMARK SMILES IDX 81 56 83 57 76 58 77 59 78 60 79 61 80 62 56 63 57 64 66 65
REMARK SMILES IDX 58 66 59 67 65 68 67 69 60 70 61 71 62 72 63 73 64 74 6 75
REMARK SMILES IDX 7 76 8 77 9 78 10 80 11 81 12 82 28 83 13 84 27 85 14 86
REMARK SMILES IDX 15 87 16 88 17 89 18 90 19 91 20 92 25 93 21 94 24 95 26 96
REMARK SMILES IDX 22 97 23 98
REMARK H PARENT 3 6 88 24 54 35 8 79
REMARK Flexibility Score: inf
ROOT
ATOM      1  C   UNL A   1      39.094  23.136  26.471  1.00  0.00     0.023 C 
ENDROOT
BRANCH   1   2
ATOM      2  C   UNL A   1      40.432  23.667  26.937  1.00  0.00     0.116 C 
BRANCH   2   3
ATOM      3  N   UNL A   1      41.248  24.266  25.887  1.00  0.00    -0.352 N 
ATOM      4  O   UNL A   1      42.351  25.983  24.889  1.00  0.00    -0.269 OA
ATOM      5  C   UNL A   1      41.710  25.566  25.840  1.00  0.00     0.251 C 
ATOM      6  H   UNL A   1      41.495  23.683  25.134  1.00  0.00     0.163 HD
BRANCH   5   7
ATOM      7  C   UNL A   1      41.354  26.446  26.972  1.00  0.00     0.039 A 
ATOM      8  C   UNL A   1      41.939  27.711  27.054  1.00  0.00     0.014 A 
ATOM      9  C   UNL A   1      40.587  25.939  28.022  1.00  0.00     0.014 A 
ATOM     10  C   UNL A   1      41.912  28.388  28.260  1.00  0.00     0.010 A 
ATOM     11  C   UNL A   1      40.457  26.687  29.195  1.00  0.00     0.010 A 
ATOM     12  C   UNL A   1      41.145  27.902  29.334  1.00  0.00    -0.014 A 
BRANCH  12  13
ATOM     13  C   UNL A   1      40.996  28.757  30.535  1.00  0.00     0.031 A 
ATOM     14  C   UNL A   1      41.925  28.647  31.711  1.00  0.00     0.074 A 
ATOM     15  C   UNL A   1      40.006  29.671  30.518  1.00  0.00     0.049 A 
ATOM     16  N   UNL A   1      41.902  29.321  32.832  1.00  0.00    -0.248 NA
ATOM     17  C   UNL A   1      43.010  27.656  31.634  1.00  0.00     0.031 C 
ATOM     18  C   UNL A   1      39.038  29.840  29.427  1.00  0.00     0.029 A 
ATOM     19  N   UNL A   1      39.658  30.643  31.416  1.00  0.00    -0.354 N 
ATOM     20  C   UNL A   1      42.937  28.814  33.610  1.00  0.00     0.074 A 
ATOM     21  C   UNL A   1      43.577  27.776  32.830  1.00  0.00     0.031 C 
ATOM     22  C   UNL A   1      38.252  30.891  29.689  1.00  0.00     0.029 A 
ATOM     23  C   UNL A   1      38.596  31.411  31.004  1.00  0.00     0.049 A 
ATOM     24  H   UNL A   1      40.124  30.779  32.273  1.00  0.00     0.167 HD
ATOM     25  C   UNL A   1      43.306  29.185  34.860  1.00  0.00     0.037 A 
ATOM     26  C   UNL A   1      37.939  32.404  31.629  1.00  0.00     0.037 A 
ATOM     27  C   UNL A   1      42.675  30.249  35.601  1.00  0.00     0.049 A 
ATOM     28  C   UNL A   1      38.381  32.796  33.004  1.00  0.00     0.074 A 
ATOM     29  C   UNL A   1      43.008  30.739  36.854  1.00  0.00     0.029 A 
ATOM     30  N   UNL A   1      41.585  30.986  35.162  1.00  0.00    -0.354 N 
ATOM     31  N   UNL A   1      39.372  32.312  33.714  1.00  0.00    -0.248 NA
ATOM     32  C   UNL A   1      37.610  33.850  33.670  1.00  0.00     0.031 C 
ATOM     33  C   UNL A   1      42.096  31.747  37.186  1.00  0.00     0.029 A 
ATOM     34  C   UNL A   1      41.219  31.911  36.127  1.00  0.00     0.049 A 
ATOM     35  H   UNL A   1      41.138  30.871  34.293  1.00  0.00     0.167 HD
ATOM     36  C   UNL A   1      39.336  32.997  34.920  1.00  0.00     0.074 A 
ATOM     37  C   UNL A   1      38.250  33.952  34.827  1.00  0.00     0.031 C 
ATOM     38  C   UNL A   1      40.123  32.840  36.012  1.00  0.00     0.037 A 
BRANCH  25  39
ATOM     39  C   UNL A   1      44.426  28.437  35.529  1.00  0.00     0.058 A 
ATOM     40  C   UNL A   1      45.761  28.855  35.427  1.00  0.00     0.135 A 
ATOM     41  C   UNL A   1      44.144  27.348  36.371  1.00  0.00     0.135 A 
ATOM     42  F   UNL A   1      46.089  29.882  34.625  1.00  0.00    -0.206 F 
ATOM     43  C   UNL A   1      46.777  28.222  36.138  1.00  0.00     0.059 A 
ATOM     44  C   UNL A   1      45.142  26.711  37.105  1.00  0.00     0.059 A 
ATOM     45  F   UNL A   1      42.882  26.907  36.503  1.00  0.00    -0.206 F 
ATOM     46  C   UNL A   1      46.457  27.153  36.979  1.00  0.00     0.060 A 
BRANCH  46  47
ATOM     47  S   UNL A   1      47.779  26.374  37.932  1.00  0.00     0.124 S 
ATOM     48  O   UNL A   1      47.080  26.017  39.162  1.00  0.00    -0.237 OA
ATOM     49  O   UNL A   1      48.166  25.256  37.076  1.00  0.00    -0.237 OA
ATOM     50  O   UNL A   1      48.775  27.433  38.061  1.00  0.00    -0.744 OA
ENDBRANCH  46  47
ENDBRANCH  25  39
BRANCH  26  51
ATOM     51  C   UNL A   1      36.773  33.042  30.970  1.00  0.00     0.058 A 
ATOM     52  C   UNL A   1      35.463  32.756  31.376  1.00  0.00     0.135 A 
ATOM     53  C   UNL A   1      36.953  33.983  29.944  1.00  0.00     0.135 A 
ATOM     54  F   UNL A   1      35.244  31.864  32.355  1.00  0.00    -0.206 F 
ATOM     55  C   UNL A   1      34.368  33.373  30.781  1.00  0.00     0.059 A 
ATOM     56  C   UNL A   1      35.877  34.634  29.353  1.00  0.00     0.059 A 
ATOM     57  F   UNL A   1      38.190  34.308  29.537  1.00  0.00    -0.206 F 
ATOM     58  C   UNL A   1      34.586  34.311  29.769  1.00  0.00     0.060 A 
BRANCH  58  59
ATOM     59  S   UNL A   1      33.169  35.149  29.030  1.00  0.00     0.124 S 
ATOM     60  O   UNL A   1      32.322  35.371  30.195  1.00  0.00    -0.237 OA
ATOM     61  O   UNL A   1      33.780  36.341  28.447  1.00  0.00    -0.237 OA
ATOM     62  O   UNL A   1      32.675  34.174  28.063  1.00  0.00    -0.744 OA
ENDBRANCH  58  59
ENDBRANCH  26  51
BRANCH  38  63
ATOM     63  C   UNL A   1      39.822  33.724  37.185  1.00  0.00     0.058 A 
ATOM     64  C   UNL A   1      40.444  34.972  37.331  1.00  0.00     0.135 A 
ATOM     65  C   UNL A   1      38.899  33.324  38.162  1.00  0.00     0.135 A 
ATOM     66  F   UNL A   1      41.344  35.390  36.426  1.00  0.00    -0.206 F 
ATOM     67  C   UNL A   1      40.180  35.787  38.425  1.00  0.00     0.059 A 
ATOM     68  C   UNL A   1      38.604  34.133  39.254  1.00  0.00     0.059 A 
ATOM     69  F   UNL A   1      38.276  32.139  38.061  1.00  0.00    -0.206 F 
ATOM     70  C   UNL A   1      39.261  35.356  39.384  1.00  0.00     0.060 A 
BRANCH  70  71
ATOM     71  S   UNL A   1      38.914  36.426  40.794  1.00  0.00     0.124 S 
ATOM     72  O   UNL A   1      37.904  35.650  41.507  1.00  0.00    -0.237 OA
ATOM     73  O   UNL A   1      40.216  36.522  41.447  1.00  0.00    -0.237 OA
ATOM     74  O   UNL A   1      38.438  37.659  40.174  1.00  0.00    -0.744 OA
ENDBRANCH  70  71
ENDBRANCH  38  63
ENDBRANCH  12  13
ENDBRANCH   5   7
ENDBRANCH   2   3
ENDBRANCH   1   2
BRANCH   1  75
ATOM     75  C   UNL A   1      39.130  21.717  25.941  1.00  0.00     0.023 C 
BRANCH  75  76
ATOM     76  C   UNL A   1      37.816  21.186  25.353  1.00  0.00     0.116 C 
BRANCH  76  77
ATOM     77  N   UNL A   1      37.451  21.910  24.147  1.00  0.00    -0.356 N 
ATOM     78  C   UNL A   1      36.626  22.939  23.848  1.00  0.00     0.223 C 
ATOM     79  H   UNL A   1      37.920  21.566  23.352  1.00  0.00     0.163 HD
ATOM     80  O   UNL A   1      36.481  23.145  22.635  1.00  0.00    -0.275 OA
BRANCH  78  81
ATOM     81  C   UNL A   1      35.954  23.907  24.839  1.00  0.00     0.082 C 
ATOM     82  C   UNL A   1      35.379  23.432  26.162  1.00  0.00     0.035 C 
ATOM     83  C   UNL A   1      34.828  24.688  24.118  1.00  0.00     0.035 C 
ATOM     84  C   UNL A   1      34.180  22.536  25.947  1.00  0.00     0.120 C 
ATOM     85  C   UNL A   1      33.580  23.829  23.906  1.00  0.00     0.120 C 
ATOM     86  N   UNL A   1      33.156  23.125  25.115  1.00  0.00    -0.340 N 
ATOM     87  C   UNL A   1      31.922  22.479  25.150  1.00  0.00     0.260 C 
ATOM     88  O   UNL A   1      31.805  21.300  25.494  1.00  0.00    -0.271 OA
BRANCH  87  89
ATOM     89  C   UNL A   1      30.685  23.348  24.924  1.00  0.00     0.329 C 
BRANCH  89  90
ATOM     90  O   UNL A   1      30.588  24.578  25.625  1.00  0.00    -0.482 OA
BRANCH  90  91
ATOM     91  C   UNL A   1      30.440  25.759  24.946  1.00  0.00     0.138 A 
ATOM     92  C   UNL A   1      29.434  26.048  24.018  1.00  0.00     0.049 A 
ATOM     93  C   UNL A   1      31.342  26.785  25.277  1.00  0.00     0.084 A 
ATOM     94  C   UNL A   1      29.270  27.341  23.510  1.00  0.00     0.024 A 
ATOM     95  C   UNL A   1      31.209  28.069  24.738  1.00  0.00     0.045 A 
ATOM     96  Cl  UNL A   1      32.667  26.499  26.353  1.00  0.00    -0.080 Cl
ATOM     97  C   UNL A   1      30.156  28.347  23.876  1.00  0.00     0.042 A 
ATOM     98  Cl  UNL A   1      29.945  29.937  23.257  1.00  0.00    -0.084 Cl
ENDBRANCH  90  91
ENDBRANCH  89  90
ENDBRANCH  87  89
ENDBRANCH  78  81
ENDBRANCH  76  77
ENDBRANCH  75  76
ENDBRANCH   1  75
TORSDOF 17
ENDMDL
