MODEL 1
REMARK VINA RESULT:     -12.2      0.000      0.000
REMARK SMILES C[C@@H](Oc1ccc(-c2ccccc2)cc1)C(=O)N1CCC[C@H](C(=O)NCCCCNC(=O)c2ccc(-c3c4nc(c(-c5c(F)cc(S(=O)(=O)[O-])cc5F)c5ccc([nH]5)c(-c5c(F)cc(S(=O)(=O)[O-])cc5F)c5nc(c(-c6c(F)cc(S(=O)(=O)[O-])cc6F)c6ccc3[nH]6)C=C5)C=C4)cc2)C1
REMARK SMILES IDX 26 1 25 2 23 3 24 4 22 6 18 7 19 8 99 9 20 10 21 11 16 12
REMARK SMILES IDX 17 13 2 14 1 15 3 16 4 17 5 18 15 19 6 20 14 21 7 22 8 23
REMARK SMILES IDX 9 24 13 25 10 26 12 27 11 28 27 29 28 30 29 31 30 32 31 33
REMARK SMILES IDX 32 35 33 36 34 37 98 38 35 39 97 40 36 41 37 42 38 43 91 44
REMARK SMILES IDX 39 45 96 46 90 47 92 48 40 49 95 50 89 51 88 52 41 54 75 55
REMARK SMILES IDX 54 56 74 57 55 58 58 59 73 60 93 61 56 62 57 63 72 65 94 66
REMARK SMILES IDX 59 67 42 68 43 69 52 70 44 71 45 72 51 73 53 74 46 75 47 76
REMARK SMILES IDX 48 77 49 78 50 79 76 80 77 81 86 82 78 83 79 84 85 85 87 86
REMARK SMILES IDX 80 87 81 88 82 89 83 90 84 91 60 92 61 93 70 94 62 95 63 96
REMARK SMILES IDX 69 97 71 98 64 99 65 100 66 101 67 102 68 103
REMARK H PARENT 25 5 30 34 92 53 58 64
REMARK Flexibility Score: inf
ROOT
ATOM      1  C   UNL A   1      39.948  21.998  26.426  1.00  0.00     0.116 C 
ENDROOT
BRANCH   1   2
ATOM      2  N   UNL A   1      38.978  23.070  26.369  1.00  0.00    -0.356 N 
ATOM      3  C   UNL A   1      37.778  23.171  25.747  1.00  0.00     0.224 C 
ATOM      4  O   UNL A   1      37.093  24.160  26.040  1.00  0.00    -0.275 OA
ATOM      5  H   UNL A   1      39.238  23.874  26.875  1.00  0.00     0.163 HD
BRANCH   3   6
ATOM      6  C   UNL A   1      37.228  22.171  24.722  1.00  0.00     0.098 C 
ATOM      7  N   UNL A   1      35.079  22.891  23.676  1.00  0.00    -0.339 N 
ATOM      8  C   UNL A   1      34.401  21.662  24.081  1.00  0.00     0.119 C 
ATOM      9  C   UNL A   1      36.522  22.792  23.513  1.00  0.00     0.133 C 
ATOM     10  C   UNL A   1      34.997  21.022  25.328  1.00  0.00     0.022 C 
ATOM     11  C   UNL A   1      36.519  20.952  25.318  1.00  0.00     0.017 C 
BRANCH   7  12
ATOM     12  C   UNL A   1      34.309  24.025  23.417  1.00  0.00     0.263 C 
ATOM     13  O   UNL A   1      34.261  24.497  22.275  1.00  0.00    -0.271 OA
BRANCH  12  14
ATOM     14  C   UNL A   1      33.578  24.755  24.562  1.00  0.00     0.259 C 
ATOM     15  C   UNL A   1      33.938  24.314  25.976  1.00  0.00     0.064 C 
BRANCH  14  16
ATOM     16  O   UNL A   1      33.860  26.148  24.373  1.00  0.00    -0.481 OA
BRANCH  16  17
ATOM     17  C   UNL A   1      32.733  26.903  24.218  1.00  0.00     0.120 A 
ATOM     18  C   UNL A   1      31.765  26.579  23.269  1.00  0.00     0.047 A 
ATOM     19  C   UNL A   1      32.659  28.094  24.927  1.00  0.00     0.047 A 
ATOM     20  C   UNL A   1      30.720  27.479  23.014  1.00  0.00     0.012 A 
ATOM     21  C   UNL A   1      31.615  28.980  24.676  1.00  0.00     0.012 A 
ATOM     22  C   UNL A   1      30.648  28.708  23.691  1.00  0.00    -0.018 A 
BRANCH  22  23
ATOM     23  C   UNL A   1      29.653  29.735  23.343  1.00  0.00    -0.018 A 
ATOM     24  C   UNL A   1      29.606  30.981  23.986  1.00  0.00     0.009 A 
ATOM     25  C   UNL A   1      28.715  29.485  22.323  1.00  0.00     0.009 A 
ATOM     26  C   UNL A   1      28.667  31.947  23.605  1.00  0.00     0.001 A 
ATOM     27  C   UNL A   1      27.779  30.446  21.941  1.00  0.00     0.001 A 
ATOM     28  C   UNL A   1      27.759  31.681  22.582  1.00  0.00     0.000 A 
ENDBRANCH  22  23
ENDBRANCH  16  17
ENDBRANCH  14  16
ENDBRANCH  12  14
ENDBRANCH   7  12
ENDBRANCH   3   6
ENDBRANCH   1   2
BRANCH   1  29
ATOM     29  C   UNL A   1      40.623  21.858  27.787  1.00  0.00     0.023 C 
BRANCH  29  30
ATOM     30  C   UNL A   1      42.139  22.016  27.765  1.00  0.00     0.023 C 
BRANCH  30  31
ATOM     31  C   UNL A   1      42.649  23.452  27.660  1.00  0.00     0.116 C 
BRANCH  31  32
ATOM     32  N   UNL A   1      42.786  23.953  26.298  1.00  0.00    -0.352 N 
ATOM     33  C   UNL A   1      42.452  25.208  25.828  1.00  0.00     0.251 C 
ATOM     34  H   UNL A   1      43.159  23.326  25.638  1.00  0.00     0.163 HD
ATOM     35  O   UNL A   1      42.543  25.488  24.642  1.00  0.00    -0.269 OA
BRANCH  33  36
ATOM     36  C   UNL A   1      41.933  26.198  26.796  1.00  0.00     0.039 A 
ATOM     37  C   UNL A   1      41.012  25.785  27.761  1.00  0.00     0.014 A 
ATOM     38  C   UNL A   1      42.457  27.492  26.818  1.00  0.00     0.014 A 
ATOM     39  C   UNL A   1      40.694  26.645  28.815  1.00  0.00     0.010 A 
ATOM     40  C   UNL A   1      42.202  28.314  27.910  1.00  0.00     0.010 A 
ATOM     41  C   UNL A   1      41.331  27.892  28.928  1.00  0.00    -0.014 A 
BRANCH  41  42
ATOM     42  C   UNL A   1      41.124  28.765  30.112  1.00  0.00     0.031 A 
ATOM     43  C   UNL A   1      41.965  28.572  31.343  1.00  0.00     0.074 A 
ATOM     44  C   UNL A   1      40.119  29.665  30.114  1.00  0.00     0.049 A 
ATOM     45  N   UNL A   1      41.868  29.154  32.510  1.00  0.00    -0.248 NA
ATOM     46  C   UNL A   1      43.034  27.561  31.263  1.00  0.00     0.031 C 
ATOM     47  C   UNL A   1      39.188  29.901  29.007  1.00  0.00     0.029 A 
ATOM     48  N   UNL A   1      39.701  30.540  31.086  1.00  0.00    -0.354 N 
ATOM     49  C   UNL A   1      42.841  28.565  33.308  1.00  0.00     0.074 A 
ATOM     50  C   UNL A   1      43.484  27.545  32.508  1.00  0.00     0.031 C 
ATOM     51  C   UNL A   1      38.327  30.872  29.353  1.00  0.00     0.029 A 
ATOM     52  C   UNL A   1      38.620  31.306  30.716  1.00  0.00     0.049 A 
ATOM     53  H   UNL A   1      40.136  30.613  31.966  1.00  0.00     0.167 HD
ATOM     54  C   UNL A   1      43.184  28.862  34.584  1.00  0.00     0.037 A 
ATOM     55  C   UNL A   1      37.941  32.249  31.398  1.00  0.00     0.037 A 
ATOM     56  C   UNL A   1      42.573  29.910  35.359  1.00  0.00     0.049 A 
ATOM     57  C   UNL A   1      38.372  32.596  32.796  1.00  0.00     0.074 A 
ATOM     58  C   UNL A   1      42.896  30.334  36.635  1.00  0.00     0.029 A 
ATOM     59  N   UNL A   1      41.521  30.702  34.926  1.00  0.00    -0.354 N 
ATOM     60  N   UNL A   1      39.335  32.070  33.515  1.00  0.00    -0.248 NA
ATOM     61  C   UNL A   1      37.632  33.669  33.475  1.00  0.00     0.031 C 
ATOM     62  C   UNL A   1      42.023  31.370  36.984  1.00  0.00     0.029 A 
ATOM     63  C   UNL A   1      41.179  31.612  35.912  1.00  0.00     0.049 A 
ATOM     64  H   UNL A   1      41.083  30.630  34.048  1.00  0.00     0.167 HD
ATOM     65  C   UNL A   1      39.335  32.766  34.718  1.00  0.00     0.074 A 
ATOM     66  C   UNL A   1      38.280  33.755  34.629  1.00  0.00     0.031 C 
ATOM     67  C   UNL A   1      40.137  32.602  35.797  1.00  0.00     0.037 A 
BRANCH  54  68
ATOM     68  C   UNL A   1      44.283  28.052  35.211  1.00  0.00     0.058 A 
ATOM     69  C   UNL A   1      45.625  28.460  35.142  1.00  0.00     0.135 A 
ATOM     70  C   UNL A   1      43.993  26.866  35.904  1.00  0.00     0.135 A 
ATOM     71  F   UNL A   1      45.958  29.578  34.477  1.00  0.00    -0.206 F 
ATOM     72  C   UNL A   1      46.645  27.702  35.707  1.00  0.00     0.059 A 
ATOM     73  C   UNL A   1      44.995  26.106  36.500  1.00  0.00     0.059 A 
ATOM     74  F   UNL A   1      42.727  26.431  35.999  1.00  0.00    -0.206 F 
ATOM     75  C   UNL A   1      46.320  26.524  36.381  1.00  0.00     0.060 A 
BRANCH  75  76
ATOM     76  S   UNL A   1      47.654  25.548  37.107  1.00  0.00     0.124 S 
ATOM     77  O   UNL A   1      48.368  26.562  37.876  1.00  0.00    -0.237 OA
ATOM     78  O   UNL A   1      46.927  24.555  37.890  1.00  0.00    -0.237 OA
ATOM     79  O   UNL A   1      48.364  25.026  35.943  1.00  0.00    -0.744 OA
ENDBRANCH  75  76
ENDBRANCH  54  68
BRANCH  55  80
ATOM     80  C   UNL A   1      36.806  32.960  30.753  1.00  0.00     0.058 A 
ATOM     81  C   UNL A   1      35.482  32.570  31.002  1.00  0.00     0.135 A 
ATOM     82  C   UNL A   1      37.016  34.046  29.889  1.00  0.00     0.135 A 
ATOM     83  F   UNL A   1      35.230  31.534  31.817  1.00  0.00    -0.206 F 
ATOM     84  C   UNL A   1      34.405  33.219  30.407  1.00  0.00     0.059 A 
ATOM     85  C   UNL A   1      35.955  34.725  29.298  1.00  0.00     0.059 A 
ATOM     86  F   UNL A   1      38.264  34.468  29.633  1.00  0.00    -0.206 F 
ATOM     87  C   UNL A   1      34.652  34.297  29.556  1.00  0.00     0.060 A 
BRANCH  87  88
ATOM     88  S   UNL A   1      33.248  35.167  28.826  1.00  0.00     0.124 S 
ATOM     89  O   UNL A   1      32.606  34.101  28.065  1.00  0.00    -0.237 OA
ATOM     90  O   UNL A   1      32.526  35.633  30.006  1.00  0.00    -0.237 OA
ATOM     91  O   UNL A   1      33.880  36.217  28.034  1.00  0.00    -0.744 OA
ENDBRANCH  87  88
ENDBRANCH  55  80
BRANCH  67  92
ATOM     92  C   UNL A   1      39.939  33.535  36.957  1.00  0.00     0.058 A 
ATOM     93  C   UNL A   1      40.598  34.771  37.029  1.00  0.00     0.135 A 
ATOM     94  C   UNL A   1      39.025  33.214  37.975  1.00  0.00     0.135 A 
ATOM     95  F   UNL A   1      41.484  35.120  36.084  1.00  0.00    -0.206 F 
ATOM     96  C   UNL A   1      40.368  35.654  38.079  1.00  0.00     0.059 A 
ATOM     97  C   UNL A   1      38.764  34.091  39.022  1.00  0.00     0.059 A 
ATOM     98  F   UNL A   1      38.364  32.047  37.946  1.00  0.00    -0.206 F 
ATOM     99  C   UNL A   1      39.447  35.306  39.069  1.00  0.00     0.060 A 
BRANCH  99 100
ATOM    100  S   UNL A   1      39.120  36.481  40.401  1.00  0.00     0.124 S 
ATOM    101  O   UNL A   1      38.159  35.743  41.213  1.00  0.00    -0.237 OA
ATOM    102  O   UNL A   1      40.442  36.663  40.992  1.00  0.00    -0.237 OA
ATOM    103  O   UNL A   1      38.589  37.647  39.702  1.00  0.00    -0.744 OA
ENDBRANCH  99 100
ENDBRANCH  67  92
ENDBRANCH  41  42
ENDBRANCH  33  36
ENDBRANCH  31  32
ENDBRANCH  30  31
ENDBRANCH  29  30
ENDBRANCH   1  29
TORSDOF 19
ENDMDL
MODEL 2
REMARK VINA RESULT:     -12.2      6.173     12.184
REMARK SMILES C[C@@H](Oc1ccc(-c2ccccc2)cc1)C(=O)N1CCC[C@H](C(=O)NCCCCNC(=O)c2ccc(-c3c4nc(c(-c5c(F)cc(S(=O)(=O)[O-])cc5F)c5ccc([nH]5)c(-c5c(F)cc(S(=O)(=O)[O-])cc5F)c5nc(c(-c6c(F)cc(S(=O)(=O)[O-])cc6F)c6ccc3[nH]6)C=C5)C=C4)cc2)C1
REMARK SMILES IDX 26 1 25 2 23 3 24 4 22 6 18 7 19 8 99 9 20 10 21 11 16 12
REMARK SMILES IDX 17 13 2 14 1 15 3 16 4 17 5 18 15 19 6 20 14 21 7 22 8 23
REMARK SMILES IDX 9 24 13 25 10 26 12 27 11 28 27 29 28 30 29 31 30 32 31 33
REMARK SMILES IDX 32 35 33 36 34 37 98 38 35 39 97 40 36 41 37 42 38 43 91 44
REMARK SMILES IDX 39 45 96 46 90 47 92 48 40 49 95 50 89 51 88 52 41 54 75 55
REMARK SMILES IDX 54 56 74 57 55 58 58 59 73 60 93 61 56 62 57 63 72 65 94 66
REMARK SMILES IDX 59 67 42 68 43 69 52 70 44 71 45 72 51 73 53 74 46 75 47 76
REMARK SMILES IDX 48 77 49 78 50 79 76 80 77 81 86 82 78 83 79 84 85 85 87 86
REMARK SMILES IDX 80 87 81 88 82 89 83 90 84 91 60 92 61 93 70 94 62 95 63 96
REMARK SMILES IDX 69 97 71 98 64 99 65 100 66 101 67 102 68 103
REMARK H PARENT 25 5 30 34 92 53 58 64
REMARK Flexibility Score: inf
ROOT
ATOM      1  C   UNL A   1      33.530  30.190  26.803  1.00  0.00     0.116 C 
ENDROOT
BRANCH   1   2
ATOM      2  N   UNL A   1      33.646  29.720  25.440  1.00  0.00    -0.356 N 
ATOM      3  C   UNL A   1      32.714  29.341  24.532  1.00  0.00     0.224 C 
ATOM      4  O   UNL A   1      33.120  29.160  23.377  1.00  0.00    -0.275 OA
ATOM      5  H   UNL A   1      34.573  29.664  25.112  1.00  0.00     0.163 HD
BRANCH   3   6
ATOM      6  C   UNL A   1      31.226  29.119  24.835  1.00  0.00     0.098 C 
ATOM      7  N   UNL A   1      30.401  26.856  24.181  1.00  0.00    -0.339 N 
ATOM      8  C   UNL A   1      29.348  27.418  23.338  1.00  0.00     0.119 C 
ATOM      9  C   UNL A   1      30.851  27.701  25.277  1.00  0.00     0.133 C 
ATOM     10  C   UNL A   1      29.679  28.801  22.793  1.00  0.00     0.022 C 
ATOM     11  C   UNL A   1      30.257  29.752  23.833  1.00  0.00     0.017 C 
BRANCH   7  12
ATOM     12  C   UNL A   1      30.841  25.558  23.923  1.00  0.00     0.263 C 
ATOM     13  O   UNL A   1      30.911  25.143  22.760  1.00  0.00    -0.271 OA
BRANCH  12  14
ATOM     14  C   UNL A   1      31.165  24.595  25.084  1.00  0.00     0.259 C 
ATOM     15  C   UNL A   1      30.001  24.235  26.001  1.00  0.00     0.064 C 
BRANCH  14  16
ATOM     16  O   UNL A   1      31.715  23.422  24.470  1.00  0.00    -0.481 OA
BRANCH  16  17
ATOM     17  C   UNL A   1      32.984  23.147  24.889  1.00  0.00     0.120 A 
ATOM     18  C   UNL A   1      33.348  23.261  26.229  1.00  0.00     0.047 A 
ATOM     19  C   UNL A   1      33.941  22.903  23.914  1.00  0.00     0.047 A 
ATOM     20  C   UNL A   1      34.699  23.151  26.590  1.00  0.00     0.012 A 
ATOM     21  C   UNL A   1      35.280  22.787  24.277  1.00  0.00     0.012 A 
ATOM     22  C   UNL A   1      35.690  22.945  25.614  1.00  0.00    -0.018 A 
BRANCH  22  23
ATOM     23  C   UNL A   1      37.125  22.973  25.938  1.00  0.00    -0.018 A 
ATOM     24  C   UNL A   1      37.957  21.860  25.748  1.00  0.00     0.009 A 
ATOM     25  C   UNL A   1      37.706  24.151  26.443  1.00  0.00     0.009 A 
ATOM     26  C   UNL A   1      39.326  21.934  26.036  1.00  0.00     0.001 A 
ATOM     27  C   UNL A   1      39.069  24.228  26.729  1.00  0.00     0.001 A 
ATOM     28  C   UNL A   1      39.880  23.117  26.521  1.00  0.00     0.000 A 
ENDBRANCH  22  23
ENDBRANCH  16  17
ENDBRANCH  14  16
ENDBRANCH  12  14
ENDBRANCH   7  12
ENDBRANCH   3   6
ENDBRANCH   1   2
BRANCH   1  29
ATOM     29  C   UNL A   1      34.873  30.336  27.514  1.00  0.00     0.023 C 
BRANCH  29  30
ATOM     30  C   UNL A   1      35.248  31.768  27.878  1.00  0.00     0.023 C 
BRANCH  30  31
ATOM     31  C   UNL A   1      36.141  31.921  29.107  1.00  0.00     0.116 C 
BRANCH  31  32
ATOM     32  N   UNL A   1      35.871  30.973  30.180  1.00  0.00    -0.352 N 
ATOM     33  C   UNL A   1      36.749  30.066  30.741  1.00  0.00     0.251 C 
ATOM     34  H   UNL A   1      34.958  30.980  30.549  1.00  0.00     0.163 HD
ATOM     35  O   UNL A   1      36.383  29.266  31.588  1.00  0.00    -0.269 OA
BRANCH  33  36
ATOM     36  C   UNL A   1      38.144  30.055  30.250  1.00  0.00     0.039 A 
ATOM     37  C   UNL A   1      39.189  30.123  31.173  1.00  0.00     0.014 A 
ATOM     38  C   UNL A   1      38.403  29.849  28.893  1.00  0.00     0.014 A 
ATOM     39  C   UNL A   1      40.496  29.881  30.745  1.00  0.00     0.010 A 
ATOM     40  C   UNL A   1      39.693  29.528  28.485  1.00  0.00     0.010 A 
ATOM     41  C   UNL A   1      40.750  29.525  29.409  1.00  0.00    -0.014 A 
BRANCH  41  42
ATOM     42  C   UNL A   1      42.106  29.120  28.957  1.00  0.00     0.031 A 
ATOM     43  C   UNL A   1      43.205  30.142  28.869  1.00  0.00     0.074 A 
ATOM     44  C   UNL A   1      42.321  27.857  28.536  1.00  0.00     0.049 A 
ATOM     45  N   UNL A   1      44.418  30.012  28.398  1.00  0.00    -0.248 NA
ATOM     46  C   UNL A   1      42.884  31.501  29.338  1.00  0.00     0.031 C 
ATOM     47  C   UNL A   1      41.319  26.788  28.506  1.00  0.00     0.029 A 
ATOM     48  N   UNL A   1      43.453  27.259  28.037  1.00  0.00    -0.354 N 
ATOM     49  C   UNL A   1      44.995  31.273  28.489  1.00  0.00     0.074 A 
ATOM     50  C   UNL A   1      43.983  32.166  29.013  1.00  0.00     0.031 C 
ATOM     51  C   UNL A   1      41.885  25.664  28.039  1.00  0.00     0.029 A 
ATOM     52  C   UNL A   1      43.280  25.935  27.704  1.00  0.00     0.049 A 
ATOM     53  H   UNL A   1      44.308  27.734  27.928  1.00  0.00     0.167 HD
ATOM     54  C   UNL A   1      46.260  31.650  28.186  1.00  0.00     0.037 A 
ATOM     55  C   UNL A   1      44.147  25.043  27.187  1.00  0.00     0.037 A 
ATOM     56  C   UNL A   1      47.277  30.749  27.710  1.00  0.00     0.049 A 
ATOM     57  C   UNL A   1      45.560  25.473  26.904  1.00  0.00     0.074 A 
ATOM     58  C   UNL A   1      48.606  31.018  27.440  1.00  0.00     0.029 A 
ATOM     59  N   UNL A   1      47.077  29.403  27.443  1.00  0.00    -0.354 N 
ATOM     60  N   UNL A   1      46.106  26.655  27.054  1.00  0.00    -0.248 NA
ATOM     61  C   UNL A   1      46.479  24.446  26.391  1.00  0.00     0.031 C 
ATOM     62  C   UNL A   1      49.207  29.839  26.987  1.00  0.00     0.029 A 
ATOM     63  C   UNL A   1      48.259  28.828  27.007  1.00  0.00     0.049 A 
ATOM     64  H   UNL A   1      46.223  28.926  27.549  1.00  0.00     0.167 HD
ATOM     65  C   UNL A   1      47.437  26.510  26.680  1.00  0.00     0.074 A 
ATOM     66  C   UNL A   1      47.616  25.122  26.304  1.00  0.00     0.031 C 
ATOM     67  C   UNL A   1      48.422  27.440  26.654  1.00  0.00     0.037 A 
BRANCH  54  68
ATOM     68  C   UNL A   1      46.616  33.096  28.379  1.00  0.00     0.058 A 
ATOM     69  C   UNL A   1      46.475  34.031  27.341  1.00  0.00     0.135 A 
ATOM     70  C   UNL A   1      47.087  33.559  29.618  1.00  0.00     0.135 A 
ATOM     71  F   UNL A   1      46.044  33.638  26.132  1.00  0.00    -0.206 F 
ATOM     72  C   UNL A   1      46.821  35.367  27.513  1.00  0.00     0.059 A 
ATOM     73  C   UNL A   1      47.414  34.896  29.821  1.00  0.00     0.059 A 
ATOM     74  F   UNL A   1      47.242  32.707  30.644  1.00  0.00    -0.206 F 
ATOM     75  C   UNL A   1      47.293  35.789  28.756  1.00  0.00     0.060 A 
BRANCH  75  76
ATOM     76  S   UNL A   1      47.742  37.525  28.965  1.00  0.00     0.124 S 
ATOM     77  O   UNL A   1      48.113  37.894  27.603  1.00  0.00    -0.237 OA
ATOM     78  O   UNL A   1      46.504  38.113  29.465  1.00  0.00    -0.237 OA
ATOM     79  O   UNL A   1      48.841  37.477  29.925  1.00  0.00    -0.744 OA
ENDBRANCH  75  76
ENDBRANCH  54  68
BRANCH  55  80
ATOM     80  C   UNL A   1      43.712  23.643  26.937  1.00  0.00     0.058 A 
ATOM     81  C   UNL A   1      43.492  23.183  25.631  1.00  0.00     0.135 A 
ATOM     82  C   UNL A   1      43.521  22.736  27.991  1.00  0.00     0.135 A 
ATOM     83  F   UNL A   1      43.657  24.015  24.591  1.00  0.00    -0.206 F 
ATOM     84  C   UNL A   1      43.083  21.879  25.376  1.00  0.00     0.059 A 
ATOM     85  C   UNL A   1      43.133  21.421  27.760  1.00  0.00     0.059 A 
ATOM     86  F   UNL A   1      43.737  23.124  29.258  1.00  0.00    -0.206 F 
ATOM     87  C   UNL A   1      42.906  21.003  26.449  1.00  0.00     0.060 A 
BRANCH  87  88
ATOM     88  S   UNL A   1      42.422  19.297  26.107  1.00  0.00     0.124 S 
ATOM     89  O   UNL A   1      43.509  18.851  25.245  1.00  0.00    -0.237 OA
ATOM     90  O   UNL A   1      42.385  18.712  27.444  1.00  0.00    -0.237 OA
ATOM     91  O   UNL A   1      41.121  19.443  25.460  1.00  0.00    -0.744 OA
ENDBRANCH  87  88
ENDBRANCH  55  80
BRANCH  67  92
ATOM     92  C   UNL A   1      49.793  26.987  26.244  1.00  0.00     0.058 A 
ATOM     93  C   UNL A   1      50.714  26.489  27.177  1.00  0.00     0.135 A 
ATOM     94  C   UNL A   1      50.164  26.989  24.889  1.00  0.00     0.135 A 
ATOM     95  F   UNL A   1      50.409  26.472  28.484  1.00  0.00    -0.206 F 
ATOM     96  C   UNL A   1      51.964  26.020  26.784  1.00  0.00     0.059 A 
ATOM     97  C   UNL A   1      51.399  26.506  24.470  1.00  0.00     0.059 A 
ATOM     98  F   UNL A   1      49.313  27.448  23.957  1.00  0.00    -0.206 F 
ATOM     99  C   UNL A   1      52.295  26.030  25.427  1.00  0.00     0.060 A 
BRANCH  99 100
ATOM    100  S   UNL A   1      53.899  25.375  24.921  1.00  0.00     0.124 S 
ATOM    101  O   UNL A   1      54.740  25.751  26.052  1.00  0.00    -0.237 OA
ATOM    102  O   UNL A   1      53.626  23.948  24.781  1.00  0.00    -0.237 OA
ATOM    103  O   UNL A   1      54.174  26.078  23.671  1.00  0.00    -0.744 OA
ENDBRANCH  99 100
ENDBRANCH  67  92
ENDBRANCH  41  42
ENDBRANCH  33  36
ENDBRANCH  31  32
ENDBRANCH  30  31
ENDBRANCH  29  30
ENDBRANCH   1  29
TORSDOF 19
ENDMDL
MODEL 3
REMARK VINA RESULT:     -12.1      1.823      2.502
REMARK SMILES C[C@@H](Oc1ccc(-c2ccccc2)cc1)C(=O)N1CCC[C@H](C(=O)NCCCCNC(=O)c2ccc(-c3c4nc(c(-c5c(F)cc(S(=O)(=O)[O-])cc5F)c5ccc([nH]5)c(-c5c(F)cc(S(=O)(=O)[O-])cc5F)c5nc(c(-c6c(F)cc(S(=O)(=O)[O-])cc6F)c6ccc3[nH]6)C=C5)C=C4)cc2)C1
REMARK SMILES IDX 26 1 25 2 23 3 24 4 22 6 18 7 19 8 99 9 20 10 21 11 16 12
REMARK SMILES IDX 17 13 2 14 1 15 3 16 4 17 5 18 15 19 6 20 14 21 7 22 8 23
REMARK SMILES IDX 9 24 13 25 10 26 12 27 11 28 27 29 28 30 29 31 30 32 31 33
REMARK SMILES IDX 32 35 33 36 34 37 98 38 35 39 97 40 36 41 37 42 38 43 91 44
REMARK SMILES IDX 39 45 96 46 90 47 92 48 40 49 95 50 89 51 88 52 41 54 75 55
REMARK SMILES IDX 54 56 74 57 55 58 58 59 73 60 93 61 56 62 57 63 72 65 94 66
REMARK SMILES IDX 59 67 42 68 43 69 52 70 44 71 45 72 51 73 53 74 46 75 47 76
REMARK SMILES IDX 48 77 49 78 50 79 76 80 77 81 86 82 78 83 79 84 85 85 87 86
REMARK SMILES IDX 80 87 81 88 82 89 83 90 84 91 60 92 61 93 70 94 62 95 63 96
REMARK SMILES IDX 69 97 71 98 64 99 65 100 66 101 67 102 68 103
REMARK H PARENT 25 5 30 34 92 53 58 64
REMARK Flexibility Score: inf
ROOT
ATOM      1  C   UNL A   1      37.415  23.180  25.899  1.00  0.00     0.116 C 
ENDROOT
BRANCH   1   2
ATOM      2  N   UNL A   1      36.075  23.114  26.441  1.00  0.00    -0.356 N 
ATOM      3  C   UNL A   1      34.992  22.382  26.087  1.00  0.00     0.224 C 
ATOM      4  O   UNL A   1      34.032  22.415  26.867  1.00  0.00    -0.275 OA
ATOM      5  H   UNL A   1      35.923  23.713  27.209  1.00  0.00     0.163 HD
BRANCH   3   6
ATOM      6  C   UNL A   1      34.874  21.541  24.808  1.00  0.00     0.098 C 
ATOM      7  N   UNL A   1      33.379  22.551  23.083  1.00  0.00    -0.339 N 
ATOM      8  C   UNL A   1      32.546  21.353  23.019  1.00  0.00     0.119 C 
ATOM      9  C   UNL A   1      34.756  22.340  23.507  1.00  0.00     0.133 C 
ATOM     10  C   UNL A   1      32.547  20.541  24.307  1.00  0.00     0.022 C 
ATOM     11  C   UNL A   1      33.933  20.338  24.906  1.00  0.00     0.017 C 
BRANCH   7  12
ATOM     12  C   UNL A   1      32.832  23.769  22.680  1.00  0.00     0.263 C 
ATOM     13  O   UNL A   1      33.262  24.341  21.672  1.00  0.00    -0.271 OA
BRANCH  12  14
ATOM     14  C   UNL A   1      31.747  24.460  23.531  1.00  0.00     0.259 C 
ATOM     15  C   UNL A   1      30.310  24.021  23.270  1.00  0.00     0.064 C 
BRANCH  14  16
ATOM     16  O   UNL A   1      32.115  24.219  24.895  1.00  0.00    -0.481 OA
BRANCH  16  17
ATOM     17  C   UNL A   1      32.444  25.362  25.567  1.00  0.00     0.120 A 
ATOM     18  C   UNL A   1      31.466  26.223  26.060  1.00  0.00     0.047 A 
ATOM     19  C   UNL A   1      33.785  25.718  25.604  1.00  0.00     0.047 A 
ATOM     20  C   UNL A   1      31.841  27.471  26.576  1.00  0.00     0.012 A 
ATOM     21  C   UNL A   1      34.154  26.956  26.124  1.00  0.00     0.012 A 
ATOM     22  C   UNL A   1      33.189  27.870  26.586  1.00  0.00    -0.018 A 
BRANCH  22  23
ATOM     23  C   UNL A   1      33.601  29.226  26.982  1.00  0.00    -0.018 A 
ATOM     24  C   UNL A   1      32.679  30.268  27.156  1.00  0.00     0.009 A 
ATOM     25  C   UNL A   1      34.962  29.504  27.214  1.00  0.00     0.009 A 
ATOM     26  C   UNL A   1      33.104  31.537  27.568  1.00  0.00     0.001 A 
ATOM     27  C   UNL A   1      35.387  30.768  27.626  1.00  0.00     0.001 A 
ATOM     28  C   UNL A   1      34.455  31.785  27.806  1.00  0.00     0.000 A 
ENDBRANCH  22  23
ENDBRANCH  16  17
ENDBRANCH  14  16
ENDBRANCH  12  14
ENDBRANCH   7  12
ENDBRANCH   3   6
ENDBRANCH   1   2
BRANCH   1  29
ATOM     29  C   UNL A   1      38.496  23.350  26.963  1.00  0.00     0.023 C 
BRANCH  29  30
ATOM     30  C   UNL A   1      39.898  22.952  26.514  1.00  0.00     0.023 C 
BRANCH  30  31
ATOM     31  C   UNL A   1      41.027  23.851  27.012  1.00  0.00     0.116 C 
BRANCH  31  32
ATOM     32  N   UNL A   1      41.817  24.478  25.960  1.00  0.00    -0.352 N 
ATOM     33  C   UNL A   1      42.077  25.825  25.794  1.00  0.00     0.251 C 
ATOM     34  H   UNL A   1      42.211  23.873  25.291  1.00  0.00     0.163 HD
ATOM     35  O   UNL A   1      42.694  26.239  24.824  1.00  0.00    -0.269 OA
BRANCH  33  36
ATOM     36  C   UNL A   1      41.545  26.765  26.803  1.00  0.00     0.039 A 
ATOM     37  C   UNL A   1      40.732  26.274  27.827  1.00  0.00     0.014 A 
ATOM     38  C   UNL A   1      41.958  28.099  26.799  1.00  0.00     0.014 A 
ATOM     39  C   UNL A   1      40.417  27.101  28.907  1.00  0.00     0.010 A 
ATOM     40  C   UNL A   1      41.712  28.894  27.913  1.00  0.00     0.010 A 
ATOM     41  C   UNL A   1      40.952  28.398  28.985  1.00  0.00    -0.014 A 
BRANCH  41  42
ATOM     42  C   UNL A   1      40.756  29.248  30.187  1.00  0.00     0.031 A 
ATOM     43  C   UNL A   1      41.598  29.023  31.412  1.00  0.00     0.074 A 
ATOM     44  C   UNL A   1      39.757  30.155  30.210  1.00  0.00     0.049 A 
ATOM     45  N   UNL A   1      41.509  29.583  32.590  1.00  0.00    -0.248 NA
ATOM     46  C   UNL A   1      42.659  28.007  31.308  1.00  0.00     0.031 C 
ATOM     47  C   UNL A   1      38.824  30.420  29.111  1.00  0.00     0.029 A 
ATOM     48  N   UNL A   1      39.349  31.014  31.201  1.00  0.00    -0.354 N 
ATOM     49  C   UNL A   1      42.479  28.970  33.374  1.00  0.00     0.074 A 
ATOM     50  C   UNL A   1      43.113  27.961  32.551  1.00  0.00     0.031 C 
ATOM     51  C   UNL A   1      37.972  31.391  29.480  1.00  0.00     0.029 A 
ATOM     52  C   UNL A   1      38.272  31.795  30.850  1.00  0.00     0.049 A 
ATOM     53  H   UNL A   1      39.787  31.065  32.081  1.00  0.00     0.167 HD
ATOM     54  C   UNL A   1      42.829  29.238  34.654  1.00  0.00     0.037 A 
ATOM     55  C   UNL A   1      37.602  32.729  31.553  1.00  0.00     0.037 A 
ATOM     56  C   UNL A   1      42.228  30.275  35.453  1.00  0.00     0.049 A 
ATOM     57  C   UNL A   1      38.040  33.043  32.957  1.00  0.00     0.074 A 
ATOM     58  C   UNL A   1      42.557  30.671  36.736  1.00  0.00     0.029 A 
ATOM     59  N   UNL A   1      41.181  31.083  35.039  1.00  0.00    -0.354 N 
ATOM     60  N   UNL A   1      39.001  32.496  33.662  1.00  0.00    -0.248 NA
ATOM     61  C   UNL A   1      37.309  34.108  33.660  1.00  0.00     0.031 C 
ATOM     62  C   UNL A   1      41.693  31.706  37.108  1.00  0.00     0.029 A 
ATOM     63  C   UNL A   1      40.848  31.975  36.044  1.00  0.00     0.049 A 
ATOM     64  H   UNL A   1      40.739  31.032  34.161  1.00  0.00     0.167 HD
ATOM     65  C   UNL A   1      39.009  33.167  34.879  1.00  0.00     0.074 A 
ATOM     66  C   UNL A   1      37.962  34.166  34.813  1.00  0.00     0.031 C 
ATOM     67  C   UNL A   1      39.813  32.976  35.953  1.00  0.00     0.037 A 
BRANCH  54  68
ATOM     68  C   UNL A   1      43.923  28.408  35.261  1.00  0.00     0.058 A 
ATOM     69  C   UNL A   1      45.277  28.735  35.081  1.00  0.00     0.135 A 
ATOM     70  C   UNL A   1      43.619  27.285  36.046  1.00  0.00     0.135 A 
ATOM     71  F   UNL A   1      45.623  29.790  34.326  1.00  0.00    -0.206 F 
ATOM     72  C   UNL A   1      46.292  27.956  35.628  1.00  0.00     0.059 A 
ATOM     73  C   UNL A   1      44.617  26.507  36.625  1.00  0.00     0.059 A 
ATOM     74  F   UNL A   1      42.340  26.928  36.249  1.00  0.00    -0.206 F 
ATOM     75  C   UNL A   1      45.952  26.842  36.396  1.00  0.00     0.060 A 
BRANCH  75  76
ATOM     76  S   UNL A   1      47.278  25.839  37.097  1.00  0.00     0.124 S 
ATOM     77  O   UNL A   1      48.389  26.168  36.210  1.00  0.00    -0.237 OA
ATOM     78  O   UNL A   1      47.380  26.357  38.457  1.00  0.00    -0.237 OA
ATOM     79  O   UNL A   1      46.767  24.476  36.986  1.00  0.00    -0.744 OA
ENDBRANCH  75  76
ENDBRANCH  54  68
BRANCH  55  80
ATOM     80  C   UNL A   1      36.470  33.461  30.926  1.00  0.00     0.058 A 
ATOM     81  C   UNL A   1      35.159  33.291  31.396  1.00  0.00     0.135 A 
ATOM     82  C   UNL A   1      36.673  34.351  29.860  1.00  0.00     0.135 A 
ATOM     83  F   UNL A   1      34.915  32.447  32.410  1.00  0.00    -0.206 F 
ATOM     84  C   UNL A   1      34.086  33.964  30.822  1.00  0.00     0.059 A 
ATOM     85  C   UNL A   1      35.619  35.051  29.283  1.00  0.00     0.059 A 
ATOM     86  F   UNL A   1      37.912  34.561  29.387  1.00  0.00    -0.206 F 
ATOM     87  C   UNL A   1      34.326  34.843  29.765  1.00  0.00     0.060 A 
BRANCH  87  88
ATOM     88  S   UNL A   1      32.934  35.751  29.057  1.00  0.00     0.124 S 
ATOM     89  O   UNL A   1      33.604  36.902  28.465  1.00  0.00    -0.237 OA
ATOM     90  O   UNL A   1      32.379  34.781  28.118  1.00  0.00    -0.237 OA
ATOM     91  O   UNL A   1      32.096  36.035  30.219  1.00  0.00    -0.744 OA
ENDBRANCH  87  88
ENDBRANCH  55  80
BRANCH  67  92
ATOM     92  C   UNL A   1      39.625  33.886  37.131  1.00  0.00     0.058 A 
ATOM     93  C   UNL A   1      38.833  33.517  38.228  1.00  0.00     0.135 A 
ATOM     94  C   UNL A   1      40.300  35.117  37.191  1.00  0.00     0.135 A 
ATOM     95  F   UNL A   1      38.163  32.354  38.216  1.00  0.00    -0.206 F 
ATOM     96  C   UNL A   1      38.705  34.342  39.341  1.00  0.00     0.059 A 
ATOM     97  C   UNL A   1      40.205  35.948  38.301  1.00  0.00     0.059 A 
ATOM     98  F   UNL A   1      41.077  35.510  36.169  1.00  0.00    -0.206 F 
ATOM     99  C   UNL A   1      39.398  35.554  39.369  1.00  0.00     0.060 A 
BRANCH  99 100
ATOM    100  S   UNL A   1      39.266  36.595  40.838  1.00  0.00     0.124 S 
ATOM    101  O   UNL A   1      38.355  35.815  41.669  1.00  0.00    -0.237 OA
ATOM    102  O   UNL A   1      40.648  36.663  41.302  1.00  0.00    -0.237 OA
ATOM    103  O   UNL A   1      38.724  37.848  40.318  1.00  0.00    -0.744 OA
ENDBRANCH  99 100
ENDBRANCH  67  92
ENDBRANCH  41  42
ENDBRANCH  33  36
ENDBRANCH  31  32
ENDBRANCH  30  31
ENDBRANCH  29  30
ENDBRANCH   1  29
TORSDOF 19
ENDMDL
