MODEL 1
REMARK VINA RESULT:     -10.5      0.000      0.000
REMARK SMILES COc1ccc(O[C@H](F)C(=O)NCCCCNC(=O)c2ccc(-c3c4nc(c(-c5c(F)cc(S(=O)(=O)[O-])cc5F)c5ccc([nH]5)c(-c5c(F)cc(S(=O)(=O)[O-])cc5F)c5nc(c(-c6c(F)cc(S(=O)(=O)[O-])cc6F)c6ccc3[nH]6)C=C5)C=C4)cc2)c(C(C)(C)C)c1
REMARK SMILES IDX 14 1 13 2 12 3 10 4 11 5 8 7 9 8 7 9 6 10 3 11 4 12 91 13
REMARK SMILES IDX 5 14 86 15 2 16 1 17 87 18 88 19 89 20 90 21 15 22 16 23
REMARK SMILES IDX 17 24 18 25 19 27 20 28 21 29 85 30 22 31 84 32 23 33 24 34
REMARK SMILES IDX 25 35 78 36 26 37 83 38 77 39 79 40 27 41 82 42 76 43 75 44
REMARK SMILES IDX 28 46 62 47 41 48 61 49 42 50 45 51 60 52 80 53 43 54 44 55
REMARK SMILES IDX 59 57 81 58 46 59 29 60 30 61 39 62 31 63 32 64 38 65 40 66
REMARK SMILES IDX 33 67 34 68 35 69 36 70 37 71 63 72 64 73 73 74 65 75 66 76
REMARK SMILES IDX 72 77 74 78 67 79 68 80 69 81 70 82 71 83 47 84 48 85 57 86
REMARK SMILES IDX 49 87 50 88 56 89 58 90 51 91 52 92 53 93 54 94 55 95
REMARK H PARENT 12 6 17 26 79 45 45 56
REMARK Flexibility Score: inf
ROOT
ATOM      1  C   UNL A   1      33.335  27.717  24.546  1.00  0.00     0.023 C 
ENDROOT
BRANCH   1   2
ATOM      2  C   UNL A   1      32.943  26.243  24.450  1.00  0.00     0.116 C 
BRANCH   2   3
ATOM      3  N   UNL A   1      31.717  25.899  25.147  1.00  0.00    -0.350 N 
ATOM      4  C   UNL A   1      31.520  24.866  26.038  1.00  0.00     0.294 C 
ATOM      5  O   UNL A   1      30.398  24.760  26.546  1.00  0.00    -0.267 OA
ATOM      6  H   UNL A   1      30.935  26.469  24.960  1.00  0.00     0.163 HD
BRANCH   4   7
ATOM      7  C   UNL A   1      32.679  23.888  26.413  1.00  0.00     0.440 C 
ATOM      8  F   UNL A   1      32.527  23.273  27.626  1.00  0.00    -0.191 F 
BRANCH   7   9
ATOM      9  O   UNL A   1      33.099  22.910  25.461  1.00  0.00    -0.451 OA
BRANCH   9  10
ATOM     10  C   UNL A   1      34.429  22.586  25.411  1.00  0.00     0.127 A 
ATOM     11  C   UNL A   1      37.156  21.950  25.319  1.00  0.00     0.119 A 
ATOM     12  C   UNL A   1      36.766  23.213  25.707  1.00  0.00     0.050 A 
ATOM     13  C   UNL A   1      36.198  20.979  25.029  1.00  0.00     0.054 A 
ATOM     14  C   UNL A   1      35.413  23.517  25.765  1.00  0.00     0.051 A 
ATOM     15  C   UNL A   1      34.808  21.255  25.095  1.00  0.00     0.003 A 
BRANCH  11  16
ATOM     16  O   UNL A   1      38.481  21.634  25.396  1.00  0.00    -0.497 OA
ATOM     17  C   UNL A   1      39.156  22.442  26.355  1.00  0.00     0.278 C 
ENDBRANCH  11  16
BRANCH  15  18
ATOM     18  C   UNL A   1      33.786  20.110  24.887  1.00  0.00    -0.009 C 
ATOM     19  C   UNL A   1      32.801  20.445  23.742  1.00  0.00     0.016 C 
ATOM     20  C   UNL A   1      34.512  18.788  24.573  1.00  0.00     0.016 C 
ATOM     21  C   UNL A   1      32.899  19.847  26.135  1.00  0.00     0.016 C 
ENDBRANCH  15  18
ENDBRANCH   9  10
ENDBRANCH   7   9
ENDBRANCH   4   7
ENDBRANCH   2   3
ENDBRANCH   1   2
BRANCH   1  22
ATOM     22  C   UNL A   1      32.897  28.498  25.791  1.00  0.00     0.023 C 
BRANCH  22  23
ATOM     23  C   UNL A   1      33.870  28.596  26.965  1.00  0.00     0.116 C 
BRANCH  23  24
ATOM     24  N   UNL A   1      33.856  29.870  27.663  1.00  0.00    -0.352 N 
ATOM     25  C   UNL A   1      34.860  30.529  28.341  1.00  0.00     0.251 C 
ATOM     26  H   UNL A   1      32.990  30.339  27.649  1.00  0.00     0.163 HD
ATOM     27  O   UNL A   1      34.616  31.603  28.878  1.00  0.00    -0.269 OA
BRANCH  25  28
ATOM     28  C   UNL A   1      36.215  29.935  28.472  1.00  0.00     0.039 A 
ATOM     29  C   UNL A   1      37.070  29.989  27.366  1.00  0.00     0.014 A 
ATOM     30  C   UNL A   1      36.650  29.330  29.654  1.00  0.00     0.014 A 
ATOM     31  C   UNL A   1      38.387  29.534  27.477  1.00  0.00     0.010 A 
ATOM     32  C   UNL A   1      37.984  28.924  29.780  1.00  0.00     0.010 A 
ATOM     33  C   UNL A   1      38.876  29.048  28.702  1.00  0.00    -0.014 A 
BRANCH  33  34
ATOM     34  C   UNL A   1      40.329  28.768  28.880  1.00  0.00     0.031 A 
ATOM     35  C   UNL A   1      40.925  27.433  28.527  1.00  0.00     0.074 A 
ATOM     36  C   UNL A   1      41.115  29.726  29.415  1.00  0.00     0.049 A 
ATOM     37  N   UNL A   1      42.169  27.037  28.620  1.00  0.00    -0.248 NA
ATOM     38  C   UNL A   1      40.003  26.405  28.024  1.00  0.00     0.031 C 
ATOM     39  C   UNL A   1      40.654  31.044  29.860  1.00  0.00     0.029 A 
ATOM     40  N   UNL A   1      42.462  29.743  29.683  1.00  0.00    -0.354 N 
ATOM     41  C   UNL A   1      42.185  25.715  28.189  1.00  0.00     0.074 A 
ATOM     42  C   UNL A   1      40.814  25.364  27.879  1.00  0.00     0.031 C 
ATOM     43  C   UNL A   1      41.702  31.748  30.317  1.00  0.00     0.029 A 
ATOM     44  C   UNL A   1      42.904  30.925  30.228  1.00  0.00     0.049 A 
ATOM     45  H   UNL A   1      43.057  28.979  29.501  1.00  0.00     0.167 HD
ATOM     46  C   UNL A   1      43.243  24.878  28.047  1.00  0.00     0.037 A 
ATOM     47  C   UNL A   1      44.136  31.311  30.614  1.00  0.00     0.037 A 
ATOM     48  C   UNL A   1      44.609  25.229  28.351  1.00  0.00     0.049 A 
ATOM     49  C   UNL A   1      45.294  30.368  30.438  1.00  0.00     0.074 A 
ATOM     50  C   UNL A   1      45.753  24.466  28.186  1.00  0.00     0.029 A 
ATOM     51  N   UNL A   1      45.018  26.442  28.890  1.00  0.00    -0.354 N 
ATOM     52  N   UNL A   1      45.297  29.148  29.958  1.00  0.00    -0.248 NA
ATOM     53  C   UNL A   1      46.616  30.858  30.849  1.00  0.00     0.031 C 
ATOM     54  C   UNL A   1      46.846  25.199  28.662  1.00  0.00     0.029 A 
ATOM     55  C   UNL A   1      46.392  26.437  29.082  1.00  0.00     0.049 A 
ATOM     56  H   UNL A   1      44.420  27.193  29.105  1.00  0.00     0.167 HD
ATOM     57  C   UNL A   1      46.623  28.732  29.990  1.00  0.00     0.074 A 
ATOM     58  C   UNL A   1      47.396  29.838  30.517  1.00  0.00     0.031 C 
ATOM     59  C   UNL A   1      47.153  27.539  29.617  1.00  0.00     0.037 A 
BRANCH  46  60
ATOM     60  C   UNL A   1      42.968  23.491  27.531  1.00  0.00     0.058 A 
ATOM     61  C   UNL A   1      43.101  23.174  26.169  1.00  0.00     0.135 A 
ATOM     62  C   UNL A   1      42.608  22.455  28.409  1.00  0.00     0.135 A 
ATOM     63  F   UNL A   1      43.434  24.127  25.284  1.00  0.00    -0.206 F 
ATOM     64  C   UNL A   1      42.859  21.890  25.692  1.00  0.00     0.059 A 
ATOM     65  C   UNL A   1      42.385  21.157  27.958  1.00  0.00     0.059 A 
ATOM     66  F   UNL A   1      42.471  22.699  29.722  1.00  0.00    -0.206 F 
ATOM     67  C   UNL A   1      42.498  20.888  26.595  1.00  0.00     0.060 A 
BRANCH  67  68
ATOM     68  S   UNL A   1      42.186  19.226  25.959  1.00  0.00     0.124 S 
ATOM     69  O   UNL A   1      40.741  19.261  25.753  1.00  0.00    -0.237 OA
ATOM     70  O   UNL A   1      42.998  19.197  24.746  1.00  0.00    -0.237 OA
ATOM     71  O   UNL A   1      42.645  18.358  27.037  1.00  0.00    -0.744 OA
ENDBRANCH  67  68
ENDBRANCH  46  60
BRANCH  47  72
ATOM     72  C   UNL A   1      44.344  32.671  31.181  1.00  0.00     0.058 A 
ATOM     73  C   UNL A   1      44.308  32.888  32.566  1.00  0.00     0.135 A 
ATOM     74  C   UNL A   1      44.594  33.775  30.352  1.00  0.00     0.135 A 
ATOM     75  F   UNL A   1      44.065  31.864  33.399  1.00  0.00    -0.206 F 
ATOM     76  C   UNL A   1      44.496  34.153  33.111  1.00  0.00     0.059 A 
ATOM     77  C   UNL A   1      44.810  35.046  30.873  1.00  0.00     0.059 A 
ATOM     78  F   UNL A   1      44.655  33.616  29.021  1.00  0.00    -0.206 F 
ATOM     79  C   UNL A   1      44.749  35.227  32.256  1.00  0.00     0.060 A 
BRANCH  79  80
ATOM     80  S   UNL A   1      45.047  36.857  32.974  1.00  0.00     0.124 S 
ATOM     81  O   UNL A   1      44.795  37.730  31.834  1.00  0.00    -0.237 OA
ATOM     82  O   UNL A   1      44.058  36.906  34.047  1.00  0.00    -0.237 OA
ATOM     83  O   UNL A   1      46.436  36.778  33.417  1.00  0.00    -0.744 OA
ENDBRANCH  79  80
ENDBRANCH  47  72
BRANCH  59  84
ATOM     84  C   UNL A   1      48.644  27.381  29.752  1.00  0.00     0.058 A 
ATOM     85  C   UNL A   1      49.239  27.002  30.966  1.00  0.00     0.135 A 
ATOM     86  C   UNL A   1      49.487  27.604  28.652  1.00  0.00     0.135 A 
ATOM     87  F   UNL A   1      48.479  26.783  32.050  1.00  0.00    -0.206 F 
ATOM     88  C   UNL A   1      50.620  26.890  31.096  1.00  0.00     0.059 A 
ATOM     89  C   UNL A   1      50.869  27.471  28.751  1.00  0.00     0.059 A 
ATOM     90  F   UNL A   1      48.971  27.957  27.464  1.00  0.00    -0.206 F 
ATOM     91  C   UNL A   1      51.428  27.133  29.983  1.00  0.00     0.060 A 
BRANCH  91  92
ATOM     92  S   UNL A   1      53.218  26.988  30.163  1.00  0.00     0.124 S 
ATOM     93  O   UNL A   1      53.627  26.690  28.795  1.00  0.00    -0.237 OA
ATOM     94  O   UNL A   1      53.593  28.308  30.663  1.00  0.00    -0.237 OA
ATOM     95  O   UNL A   1      53.376  25.896  31.119  1.00  0.00    -0.744 OA
ENDBRANCH  91  92
ENDBRANCH  59  84
ENDBRANCH  33  34
ENDBRANCH  25  28
ENDBRANCH  23  24
ENDBRANCH  22  23
ENDBRANCH   1  22
TORSDOF 18
ENDMDL
MODEL 2
REMARK VINA RESULT:     -10.5      5.253     10.418
REMARK SMILES COc1ccc(O[C@H](F)C(=O)NCCCCNC(=O)c2ccc(-c3c4nc(c(-c5c(F)cc(S(=O)(=O)[O-])cc5F)c5ccc([nH]5)c(-c5c(F)cc(S(=O)(=O)[O-])cc5F)c5nc(c(-c6c(F)cc(S(=O)(=O)[O-])cc6F)c6ccc3[nH]6)C=C5)C=C4)cc2)c(C(C)(C)C)c1
REMARK SMILES IDX 14 1 13 2 12 3 10 4 11 5 8 7 9 8 7 9 6 10 3 11 4 12 91 13
REMARK SMILES IDX 5 14 86 15 2 16 1 17 87 18 88 19 89 20 90 21 15 22 16 23
REMARK SMILES IDX 17 24 18 25 19 27 20 28 21 29 85 30 22 31 84 32 23 33 24 34
REMARK SMILES IDX 25 35 78 36 26 37 83 38 77 39 79 40 27 41 82 42 76 43 75 44
REMARK SMILES IDX 28 46 62 47 41 48 61 49 42 50 45 51 60 52 80 53 43 54 44 55
REMARK SMILES IDX 59 57 81 58 46 59 29 60 30 61 39 62 31 63 32 64 38 65 40 66
REMARK SMILES IDX 33 67 34 68 35 69 36 70 37 71 63 72 64 73 73 74 65 75 66 76
REMARK SMILES IDX 72 77 74 78 67 79 68 80 69 81 70 82 71 83 47 84 48 85 57 86
REMARK SMILES IDX 49 87 50 88 56 89 58 90 51 91 52 92 53 93 54 94 55 95
REMARK H PARENT 12 6 17 26 79 45 45 56
REMARK Flexibility Score: inf
ROOT
ATOM      1  C   UNL A   1      36.243  22.985  25.746  1.00  0.00     0.023 C 
ENDROOT
BRANCH   1   2
ATOM      2  C   UNL A   1      35.148  23.462  24.792  1.00  0.00     0.116 C 
BRANCH   2   3
ATOM      3  N   UNL A   1      33.808  23.033  25.150  1.00  0.00    -0.350 N 
ATOM      4  C   UNL A   1      32.697  23.825  25.343  1.00  0.00     0.294 C 
ATOM      5  O   UNL A   1      31.635  23.258  25.619  1.00  0.00    -0.267 OA
ATOM      6  H   UNL A   1      33.678  22.064  25.270  1.00  0.00     0.163 HD
BRANCH   4   7
ATOM      7  C   UNL A   1      32.774  25.379  25.188  1.00  0.00     0.440 C 
ATOM      8  F   UNL A   1      33.024  25.806  23.913  1.00  0.00    -0.191 F 
BRANCH   7   9
ATOM      9  O   UNL A   1      31.730  26.185  25.738  1.00  0.00    -0.451 OA
BRANCH   9  10
ATOM     10  C   UNL A   1      31.127  27.105  24.922  1.00  0.00     0.127 A 
ATOM     11  C   UNL A   1      29.878  28.966  23.242  1.00  0.00     0.119 A 
ATOM     12  C   UNL A   1      29.597  27.626  23.097  1.00  0.00     0.050 A 
ATOM     13  C   UNL A   1      30.734  29.398  24.254  1.00  0.00     0.054 A 
ATOM     14  C   UNL A   1      30.208  26.709  23.943  1.00  0.00     0.051 A 
ATOM     15  C   UNL A   1      31.361  28.487  25.144  1.00  0.00     0.003 A 
BRANCH  11  16
ATOM     16  O   UNL A   1      29.169  29.857  22.489  1.00  0.00    -0.497 OA
ATOM     17  C   UNL A   1      27.765  29.699  22.679  1.00  0.00     0.278 C 
ENDBRANCH  11  16
BRANCH  15  18
ATOM     18  C   UNL A   1      32.201  29.026  26.329  1.00  0.00    -0.009 C 
ATOM     19  C   UNL A   1      33.706  28.737  26.119  1.00  0.00     0.016 C 
ATOM     20  C   UNL A   1      31.985  30.542  26.500  1.00  0.00     0.016 C 
ATOM     21  C   UNL A   1      31.837  28.365  27.688  1.00  0.00     0.016 C 
ENDBRANCH  15  18
ENDBRANCH   9  10
ENDBRANCH   7   9
ENDBRANCH   4   7
ENDBRANCH   2   3
ENDBRANCH   1   2
BRANCH   1  22
ATOM     22  C   UNL A   1      37.697  23.321  25.396  1.00  0.00     0.023 C 
BRANCH  22  23
ATOM     23  C   UNL A   1      38.578  23.946  26.477  1.00  0.00     0.116 C 
BRANCH  23  24
ATOM     24  N   UNL A   1      40.007  23.819  26.248  1.00  0.00    -0.352 N 
ATOM     25  C   UNL A   1      41.062  24.557  26.743  1.00  0.00     0.251 C 
ATOM     26  H   UNL A   1      40.264  23.088  25.640  1.00  0.00     0.163 HD
ATOM     27  O   UNL A   1      42.203  24.279  26.395  1.00  0.00    -0.269 OA
BRANCH  25  28
ATOM     28  C   UNL A   1      40.831  25.710  27.650  1.00  0.00     0.039 A 
ATOM     29  C   UNL A   1      39.712  25.677  28.489  1.00  0.00     0.014 A 
ATOM     30  C   UNL A   1      41.689  26.812  27.684  1.00  0.00     0.014 A 
ATOM     31  C   UNL A   1      39.513  26.693  29.430  1.00  0.00     0.010 A 
ATOM     32  C   UNL A   1      41.518  27.800  28.661  1.00  0.00     0.010 A 
ATOM     33  C   UNL A   1      40.444  27.737  29.564  1.00  0.00    -0.014 A 
BRANCH  33  34
ATOM     34  C   UNL A   1      40.349  28.693  30.703  1.00  0.00     0.031 A 
ATOM     35  C   UNL A   1      41.219  28.559  31.922  1.00  0.00     0.074 A 
ATOM     36  C   UNL A   1      39.422  29.674  30.653  1.00  0.00     0.049 A 
ATOM     37  N   UNL A   1      41.259  29.312  32.993  1.00  0.00    -0.248 NA
ATOM     38  C   UNL A   1      42.153  27.424  31.952  1.00  0.00     0.031 C 
ATOM     39  C   UNL A   1      38.471  29.880  29.558  1.00  0.00     0.029 A 
ATOM     40  N   UNL A   1      39.122  30.678  31.542  1.00  0.00    -0.354 N 
ATOM     41  C   UNL A   1      42.217  28.745  33.826  1.00  0.00     0.074 A 
ATOM     42  C   UNL A   1      42.701  27.557  33.153  1.00  0.00     0.031 C 
ATOM     43  C   UNL A   1      37.714  30.956  29.827  1.00  0.00     0.029 A 
ATOM     44  C   UNL A   1      38.103  31.501  31.124  1.00  0.00     0.049 A 
ATOM     45  H   UNL A   1      39.593  30.797  32.398  1.00  0.00     0.167 HD
ATOM     46  C   UNL A   1      42.665  29.182  35.029  1.00  0.00     0.037 A 
ATOM     47  C   UNL A   1      37.541  32.575  31.712  1.00  0.00     0.037 A 
ATOM     48  C   UNL A   1      42.187  30.369  35.697  1.00  0.00     0.049 A 
ATOM     49  C   UNL A   1      38.062  33.046  33.041  1.00  0.00     0.074 A 
ATOM     50  C   UNL A   1      42.621  30.921  36.891  1.00  0.00     0.029 A 
ATOM     51  N   UNL A   1      41.162  31.184  35.235  1.00  0.00    -0.354 N 
ATOM     52  N   UNL A   1      39.021  32.538  33.777  1.00  0.00    -0.248 NA
ATOM     53  C   UNL A   1      37.429  34.240  33.616  1.00  0.00     0.031 C 
ATOM     54  C   UNL A   1      41.833  32.043  37.171  1.00  0.00     0.029 A 
ATOM     55  C   UNL A   1      40.938  32.219  36.130  1.00  0.00     0.049 A 
ATOM     56  H   UNL A   1      40.668  31.046  34.396  1.00  0.00     0.167 HD
ATOM     57  C   UNL A   1      39.121  33.362  34.892  1.00  0.00     0.074 A 
ATOM     58  C   UNL A   1      38.138  34.414  34.723  1.00  0.00     0.031 C 
ATOM     59  C   UNL A   1      39.951  33.257  35.960  1.00  0.00     0.037 A 
BRANCH  46  60
ATOM     60  C   UNL A   1      43.740  28.375  35.706  1.00  0.00     0.058 A 
ATOM     61  C   UNL A   1      45.102  28.617  35.467  1.00  0.00     0.135 A 
ATOM     62  C   UNL A   1      43.409  27.375  36.637  1.00  0.00     0.135 A 
ATOM     63  F   UNL A   1      45.475  29.554  34.582  1.00  0.00    -0.206 F 
ATOM     64  C   UNL A   1      46.097  27.879  36.102  1.00  0.00     0.059 A 
ATOM     65  C   UNL A   1      44.388  26.642  37.302  1.00  0.00     0.059 A 
ATOM     66  F   UNL A   1      42.122  27.104  36.909  1.00  0.00    -0.206 F 
ATOM     67  C   UNL A   1      45.729  26.891  37.015  1.00  0.00     0.060 A 
BRANCH  67  68
ATOM     68  S   UNL A   1      47.032  25.941  37.830  1.00  0.00     0.124 S 
ATOM     69  O   UNL A   1      46.658  26.079  39.234  1.00  0.00    -0.237 OA
ATOM     70  O   UNL A   1      46.857  24.611  37.255  1.00  0.00    -0.237 OA
ATOM     71  O   UNL A   1      48.254  26.634  37.436  1.00  0.00    -0.744 OA
ENDBRANCH  67  68
ENDBRANCH  46  60
BRANCH  47  72
ATOM     72  C   UNL A   1      36.436  33.301  31.030  1.00  0.00     0.058 A 
ATOM     73  C   UNL A   1      35.119  33.220  31.506  1.00  0.00     0.135 A 
ATOM     74  C   UNL A   1      36.675  34.096  29.899  1.00  0.00     0.135 A 
ATOM     75  F   UNL A   1      34.839  32.466  32.580  1.00  0.00    -0.206 F 
ATOM     76  C   UNL A   1      34.074  33.888  30.877  1.00  0.00     0.059 A 
ATOM     77  C   UNL A   1      35.651  34.794  29.267  1.00  0.00     0.059 A 
ATOM     78  F   UNL A   1      37.920  34.219  29.415  1.00  0.00    -0.206 F 
ATOM     79  C   UNL A   1      34.351  34.676  29.758  1.00  0.00     0.060 A 
BRANCH  79  80
ATOM     80  S   UNL A   1      32.998  35.585  28.981  1.00  0.00     0.124 S 
ATOM     81  O   UNL A   1      32.180  35.937  30.135  1.00  0.00    -0.237 OA
ATOM     82  O   UNL A   1      33.701  36.688  28.334  1.00  0.00    -0.237 OA
ATOM     83  O   UNL A   1      32.417  34.603  28.069  1.00  0.00    -0.744 OA
ENDBRANCH  79  80
ENDBRANCH  47  72
BRANCH  59  84
ATOM     84  C   UNL A   1      39.840  34.320  37.019  1.00  0.00     0.058 A 
ATOM     85  C   UNL A   1      39.024  34.154  38.150  1.00  0.00     0.135 A 
ATOM     86  C   UNL A   1      40.565  35.518  36.908  1.00  0.00     0.135 A 
ATOM     87  F   UNL A   1      38.305  33.030  38.303  1.00  0.00    -0.206 F 
ATOM     88  C   UNL A   1      38.897  35.152  39.110  1.00  0.00     0.059 A 
ATOM     89  C   UNL A   1      40.476  36.520  37.870  1.00  0.00     0.059 A 
ATOM     90  F   UNL A   1      41.370  35.726  35.854  1.00  0.00    -0.206 F 
ATOM     91  C   UNL A   1      39.623  36.336  38.958  1.00  0.00     0.060 A 
BRANCH  91  92
ATOM     92  S   UNL A   1      39.450  37.627  40.208  1.00  0.00     0.124 S 
ATOM     93  O   UNL A   1      40.824  38.101  40.332  1.00  0.00    -0.237 OA
ATOM     94  O   UNL A   1      38.514  38.554  39.575  1.00  0.00    -0.237 OA
ATOM     95  O   UNL A   1      38.923  36.910  41.365  1.00  0.00    -0.744 OA
ENDBRANCH  91  92
ENDBRANCH  59  84
ENDBRANCH  33  34
ENDBRANCH  25  28
ENDBRANCH  23  24
ENDBRANCH  22  23
ENDBRANCH   1  22
TORSDOF 18
ENDMDL
MODEL 3
REMARK VINA RESULT:     -10.0      5.228     10.152
REMARK SMILES COc1ccc(O[C@H](F)C(=O)NCCCCNC(=O)c2ccc(-c3c4nc(c(-c5c(F)cc(S(=O)(=O)[O-])cc5F)c5ccc([nH]5)c(-c5c(F)cc(S(=O)(=O)[O-])cc5F)c5nc(c(-c6c(F)cc(S(=O)(=O)[O-])cc6F)c6ccc3[nH]6)C=C5)C=C4)cc2)c(C(C)(C)C)c1
REMARK SMILES IDX 14 1 13 2 12 3 10 4 11 5 8 7 9 8 7 9 6 10 3 11 4 12 91 13
REMARK SMILES IDX 5 14 86 15 2 16 1 17 87 18 88 19 89 20 90 21 15 22 16 23
REMARK SMILES IDX 17 24 18 25 19 27 20 28 21 29 85 30 22 31 84 32 23 33 24 34
REMARK SMILES IDX 25 35 78 36 26 37 83 38 77 39 79 40 27 41 82 42 76 43 75 44
REMARK SMILES IDX 28 46 62 47 41 48 61 49 42 50 45 51 60 52 80 53 43 54 44 55
REMARK SMILES IDX 59 57 81 58 46 59 29 60 30 61 39 62 31 63 32 64 38 65 40 66
REMARK SMILES IDX 33 67 34 68 35 69 36 70 37 71 63 72 64 73 73 74 65 75 66 76
REMARK SMILES IDX 72 77 74 78 67 79 68 80 69 81 70 82 71 83 47 84 48 85 57 86
REMARK SMILES IDX 49 87 50 88 56 89 58 90 51 91 52 92 53 93 54 94 55 95
REMARK H PARENT 12 6 17 26 79 45 45 56
REMARK Flexibility Score: inf
ROOT
ATOM      1  C   UNL A   1      36.778  22.302  26.489  1.00  0.00     0.023 C 
ENDROOT
BRANCH   1   2
ATOM      2  C   UNL A   1      35.438  21.695  26.072  1.00  0.00     0.116 C 
BRANCH   2   3
ATOM      3  N   UNL A   1      34.490  21.525  27.159  1.00  0.00    -0.350 N 
ATOM      4  C   UNL A   1      33.469  22.377  27.521  1.00  0.00     0.294 C 
ATOM      5  O   UNL A   1      32.751  22.033  28.466  1.00  0.00    -0.267 OA
ATOM      6  H   UNL A   1      34.589  20.708  27.699  1.00  0.00     0.163 HD
BRANCH   4   7
ATOM      7  C   UNL A   1      33.212  23.710  26.747  1.00  0.00     0.440 C 
ATOM      8  F   UNL A   1      34.343  24.432  26.481  1.00  0.00    -0.191 F 
BRANCH   7   9
ATOM      9  O   UNL A   1      32.404  23.686  25.570  1.00  0.00    -0.451 OA
BRANCH   9  10
ATOM     10  C   UNL A   1      31.867  24.868  25.131  1.00  0.00     0.127 A 
ATOM     11  C   UNL A   1      30.762  27.290  24.261  1.00  0.00     0.119 A 
ATOM     12  C   UNL A   1      30.665  26.938  25.589  1.00  0.00     0.050 A 
ATOM     13  C   UNL A   1      31.454  26.473  23.368  1.00  0.00     0.054 A 
ATOM     14  C   UNL A   1      31.228  25.743  26.017  1.00  0.00     0.051 A 
ATOM     15  C   UNL A   1      32.054  25.254  23.778  1.00  0.00     0.003 A 
BRANCH  11  16
ATOM     16  O   UNL A   1      30.318  28.526  23.888  1.00  0.00    -0.497 OA
ATOM     17  C   UNL A   1      30.304  28.670  22.471  1.00  0.00     0.278 C 
ENDBRANCH  11  16
BRANCH  15  18
ATOM     18  C   UNL A   1      32.919  24.447  22.777  1.00  0.00    -0.009 C 
ATOM     19  C   UNL A   1      32.408  22.993  22.649  1.00  0.00     0.016 C 
ATOM     20  C   UNL A   1      32.912  25.122  21.392  1.00  0.00     0.016 C 
ATOM     21  C   UNL A   1      34.406  24.329  23.210  1.00  0.00     0.016 C 
ENDBRANCH  15  18
ENDBRANCH   9  10
ENDBRANCH   7   9
ENDBRANCH   4   7
ENDBRANCH   2   3
ENDBRANCH   1   2
BRANCH   1  22
ATOM     22  C   UNL A   1      37.485  23.233  25.496  1.00  0.00     0.023 C 
BRANCH  22  23
ATOM     23  C   UNL A   1      38.415  24.311  26.050  1.00  0.00     0.116 C 
BRANCH  23  24
ATOM     24  N   UNL A   1      39.817  23.933  26.112  1.00  0.00    -0.352 N 
ATOM     25  C   UNL A   1      40.854  24.461  26.852  1.00  0.00     0.251 C 
ATOM     26  H   UNL A   1      40.066  23.177  25.533  1.00  0.00     0.163 HD
ATOM     27  O   UNL A   1      41.978  23.989  26.732  1.00  0.00    -0.269 OA
BRANCH  25  28
ATOM     28  C   UNL A   1      40.639  25.623  27.752  1.00  0.00     0.039 A 
ATOM     29  C   UNL A   1      39.561  25.579  28.643  1.00  0.00     0.014 A 
ATOM     30  C   UNL A   1      41.472  26.745  27.730  1.00  0.00     0.014 A 
ATOM     31  C   UNL A   1      39.382  26.604  29.577  1.00  0.00     0.010 A 
ATOM     32  C   UNL A   1      41.324  27.744  28.700  1.00  0.00     0.010 A 
ATOM     33  C   UNL A   1      40.295  27.671  29.652  1.00  0.00    -0.014 A 
BRANCH  33  34
ATOM     34  C   UNL A   1      40.230  28.642  30.781  1.00  0.00     0.031 A 
ATOM     35  C   UNL A   1      41.112  28.507  31.991  1.00  0.00     0.074 A 
ATOM     36  C   UNL A   1      39.322  29.639  30.729  1.00  0.00     0.049 A 
ATOM     37  N   UNL A   1      41.178  29.271  33.052  1.00  0.00    -0.248 NA
ATOM     38  C   UNL A   1      42.024  27.354  32.024  1.00  0.00     0.031 C 
ATOM     39  C   UNL A   1      38.361  29.850  29.642  1.00  0.00     0.029 A 
ATOM     40  N   UNL A   1      39.050  30.659  31.608  1.00  0.00    -0.354 N 
ATOM     41  C   UNL A   1      42.135  28.697  33.882  1.00  0.00     0.074 A 
ATOM     42  C   UNL A   1      42.589  27.492  33.217  1.00  0.00     0.031 C 
ATOM     43  C   UNL A   1      37.628  30.943  29.906  1.00  0.00     0.029 A 
ATOM     44  C   UNL A   1      38.042  31.497  31.192  1.00  0.00     0.049 A 
ATOM     45  H   UNL A   1      39.533  30.780  32.458  1.00  0.00     0.167 HD
ATOM     46  C   UNL A   1      42.605  29.140  35.074  1.00  0.00     0.037 A 
ATOM     47  C   UNL A   1      37.507  32.587  31.773  1.00  0.00     0.037 A 
ATOM     48  C   UNL A   1      42.156  30.343  35.732  1.00  0.00     0.049 A 
ATOM     49  C   UNL A   1      38.051  33.064  33.091  1.00  0.00     0.074 A 
ATOM     50  C   UNL A   1      42.614  30.901  36.915  1.00  0.00     0.029 A 
ATOM     51  N   UNL A   1      41.142  31.172  35.272  1.00  0.00    -0.354 N 
ATOM     52  N   UNL A   1      39.009  32.548  33.822  1.00  0.00    -0.248 NA
ATOM     53  C   UNL A   1      37.447  34.278  33.658  1.00  0.00     0.031 C 
ATOM     54  C   UNL A   1      41.851  32.042  37.190  1.00  0.00     0.029 A 
ATOM     55  C   UNL A   1      40.947  32.222  36.157  1.00  0.00     0.049 A 
ATOM     56  H   UNL A   1      40.635  31.033  34.440  1.00  0.00     0.167 HD
ATOM     57  C   UNL A   1      39.137  33.384  34.925  1.00  0.00     0.074 A 
ATOM     58  C   UNL A   1      38.172  34.451  34.755  1.00  0.00     0.031 C 
ATOM     59  C   UNL A   1      39.977  33.276  35.985  1.00  0.00     0.037 A 
BRANCH  46  60
ATOM     60  C   UNL A   1      43.672  28.321  35.749  1.00  0.00     0.058 A 
ATOM     61  C   UNL A   1      45.036  28.544  35.502  1.00  0.00     0.135 A 
ATOM     62  C   UNL A   1      43.333  27.330  36.685  1.00  0.00     0.135 A 
ATOM     63  F   UNL A   1      45.417  29.473  34.611  1.00  0.00    -0.206 F 
ATOM     64  C   UNL A   1      46.024  27.795  36.134  1.00  0.00     0.059 A 
ATOM     65  C   UNL A   1      44.305  26.585  37.348  1.00  0.00     0.059 A 
ATOM     66  F   UNL A   1      42.044  27.077  36.964  1.00  0.00    -0.206 F 
ATOM     67  C   UNL A   1      45.647  26.816  37.054  1.00  0.00     0.060 A 
BRANCH  67  68
ATOM     68  S   UNL A   1      46.942  25.852  37.865  1.00  0.00     0.124 S 
ATOM     69  O   UNL A   1      47.697  26.898  38.549  1.00  0.00    -0.237 OA
ATOM     70  O   UNL A   1      46.175  24.959  38.728  1.00  0.00    -0.237 OA
ATOM     71  O   UNL A   1      47.631  25.205  36.754  1.00  0.00    -0.744 OA
ENDBRANCH  67  68
ENDBRANCH  46  60
BRANCH  47  72
ATOM     72  C   UNL A   1      36.407  33.326  31.095  1.00  0.00     0.058 A 
ATOM     73  C   UNL A   1      36.656  34.097  29.950  1.00  0.00     0.135 A 
ATOM     74  C   UNL A   1      35.088  33.265  31.569  1.00  0.00     0.135 A 
ATOM     75  F   UNL A   1      37.904  34.192  29.463  1.00  0.00    -0.206 F 
ATOM     76  C   UNL A   1      35.641  34.797  29.307  1.00  0.00     0.059 A 
ATOM     77  C   UNL A   1      34.050  33.936  30.929  1.00  0.00     0.059 A 
ATOM     78  F   UNL A   1      34.795  32.527  32.650  1.00  0.00    -0.206 F 
ATOM     79  C   UNL A   1      34.339  34.708  29.803  1.00  0.00     0.060 A 
BRANCH  79  80
ATOM     80  S   UNL A   1      33.017  35.574  28.930  1.00  0.00     0.124 S 
ATOM     81  O   UNL A   1      33.768  36.566  28.170  1.00  0.00    -0.237 OA
ATOM     82  O   UNL A   1      32.406  34.500  28.154  1.00  0.00    -0.237 OA
ATOM     83  O   UNL A   1      32.190  36.100  30.014  1.00  0.00    -0.744 OA
ENDBRANCH  79  80
ENDBRANCH  47  72
BRANCH  59  84
ATOM     84  C   UNL A   1      39.898  34.354  37.033  1.00  0.00     0.058 A 
ATOM     85  C   UNL A   1      39.055  34.238  38.149  1.00  0.00     0.135 A 
ATOM     86  C   UNL A   1      40.682  35.514  36.923  1.00  0.00     0.135 A 
ATOM     87  F   UNL A   1      38.281  33.151  38.300  1.00  0.00    -0.206 F 
ATOM     88  C   UNL A   1      38.959  35.251  39.098  1.00  0.00     0.059 A 
ATOM     89  C   UNL A   1      40.623  36.529  37.874  1.00  0.00     0.059 A 
ATOM     90  F   UNL A   1      41.514  35.673  35.882  1.00  0.00    -0.206 F 
ATOM     91  C   UNL A   1      39.743  36.396  38.948  1.00  0.00     0.060 A 
BRANCH  91  92
ATOM     92  S   UNL A   1      39.609  37.707  40.183  1.00  0.00     0.124 S 
ATOM     93  O   UNL A   1      40.952  38.275  40.154  1.00  0.00    -0.237 OA
ATOM     94  O   UNL A   1      38.552  38.551  39.633  1.00  0.00    -0.237 OA
ATOM     95  O   UNL A   1      39.255  36.988  41.403  1.00  0.00    -0.744 OA
ENDBRANCH  91  92
ENDBRANCH  59  84
ENDBRANCH  33  34
ENDBRANCH  25  28
ENDBRANCH  23  24
ENDBRANCH  22  23
ENDBRANCH   1  22
TORSDOF 18
ENDMDL
