MODEL 1
REMARK VINA RESULT:     -11.7      0.000      0.000
REMARK SMILES C[C@@H](NC(=O)/C(=C/c1ccc(Cl)cc1)NC(=O)c1ccc(C(C)(C)C)cc1)C(=O)NCCCCNC(=O)c1ccc(-c2c3nc(c(-c4c(F)cc(S(=O)(=O)[O-])cc4F)c4ccc([nH]4)c(-c4c(F)cc(S(=O)(=O)[O-])cc4F)c4nc(c(-c5c(F)cc(S(=O)(=O)[O-])cc5F)c5ccc2[nH]5)C=C4)C=C3)cc1
REMARK SMILES IDX 31 1 30 2 28 3 29 4 2 6 1 7 3 8 4 9 5 11 6 12 7 13 15 14
REMARK SMILES IDX 16 15 17 17 18 18 19 19 27 20 20 21 26 22 21 23 22 24 23 25
REMARK SMILES IDX 24 26 25 27 8 28 9 29 14 30 10 31 13 32 11 33 12 34 32 35
REMARK SMILES IDX 33 36 34 37 35 38 36 39 37 41 38 42 39 43 103 44 40 45
REMARK SMILES IDX 102 46 41 47 42 48 43 49 96 50 44 51 101 52 95 53 97 54
REMARK SMILES IDX 45 55 100 56 94 57 93 58 46 60 80 61 59 62 79 63 60 64 63 65
REMARK SMILES IDX 78 66 98 67 61 68 62 69 77 71 99 72 64 73 47 74 48 75 57 76
REMARK SMILES IDX 49 77 50 78 56 79 58 80 51 81 52 82 53 83 54 84 55 85 81 86
REMARK SMILES IDX 82 87 91 88 83 89 84 90 90 91 92 92 85 93 86 94 87 95 88 96
REMARK SMILES IDX 89 97 65 98 66 99 75 100 67 101 68 102 74 103 76 104 69 105
REMARK SMILES IDX 70 106 71 107 72 108 73 109
REMARK H PARENT 30 5 3 10 15 16 35 40 97 59 63 70
REMARK Flexibility Score: inf
ROOT
ATOM      1  C   UNL A   1      39.966  20.674  26.132  1.00  0.00     0.116 C 
ENDROOT
BRANCH   1   2
ATOM      2  N   UNL A   1      39.063  21.768  26.417  1.00  0.00    -0.354 N 
ATOM      3  C   UNL A   1      37.873  22.067  25.835  1.00  0.00     0.242 C 
ATOM      4  O   UNL A   1      37.318  23.123  26.151  1.00  0.00    -0.273 OA
ATOM      5  H   UNL A   1      39.351  22.380  27.132  1.00  0.00     0.163 HD
BRANCH   3   6
ATOM      6  C   UNL A   1      37.285  21.186  24.720  1.00  0.00     0.168 C 
ATOM      7  C   UNL A   1      36.064  20.470  25.313  1.00  0.00     0.041 C 
BRANCH   6   8
ATOM      8  N   UNL A   1      36.956  21.810  23.422  1.00  0.00    -0.339 N 
ATOM      9  C   UNL A   1      36.339  23.035  23.256  1.00  0.00     0.268 C 
ATOM     10  H   UNL A   1      37.197  21.313  22.608  1.00  0.00     0.164 HD
ATOM     11  O   UNL A   1      36.934  23.931  22.664  1.00  0.00    -0.268 OA
BRANCH   9  12
ATOM     12  C   UNL A   1      34.890  23.176  23.639  1.00  0.00     0.107 C 
ATOM     13  C   UNL A   1      34.084  23.757  22.729  1.00  0.00     0.040 C 
BRANCH  12  14
ATOM     14  N   UNL A   1      34.378  22.651  24.810  1.00  0.00    -0.317 N 
ATOM     15  C   UNL A   1      33.756  23.160  25.923  1.00  0.00     0.255 C 
ATOM     16  H   UNL A   1      34.486  21.674  24.858  1.00  0.00     0.170 HD
ATOM     17  O   UNL A   1      33.494  22.404  26.859  1.00  0.00    -0.269 OA
BRANCH  15  18
ATOM     18  C   UNL A   1      33.402  24.573  26.056  1.00  0.00     0.040 A 
ATOM     19  C   UNL A   1      34.381  25.523  25.780  1.00  0.00     0.014 A 
ATOM     20  C   UNL A   1      32.139  24.963  26.494  1.00  0.00     0.014 A 
ATOM     21  C   UNL A   1      34.055  26.877  25.825  1.00  0.00     0.005 A 
ATOM     22  C   UNL A   1      31.817  26.322  26.530  1.00  0.00     0.005 A 
ATOM     23  C   UNL A   1      32.751  27.304  26.148  1.00  0.00    -0.043 A 
BRANCH  23  24
ATOM     24  C   UNL A   1      32.394  28.797  26.057  1.00  0.00    -0.013 C 
ATOM     25  C   UNL A   1      31.754  29.253  27.382  1.00  0.00     0.016 C 
ATOM     26  C   UNL A   1      33.673  29.627  25.795  1.00  0.00     0.016 C 
ATOM     27  C   UNL A   1      31.411  29.125  24.912  1.00  0.00     0.016 C 
ENDBRANCH  23  24
ENDBRANCH  15  18
ENDBRANCH  12  14
BRANCH  13  28
ATOM     28  C   UNL A   1      32.693  24.247  22.859  1.00  0.00    -0.023 A 
ATOM     29  C   UNL A   1      31.611  23.437  23.241  1.00  0.00     0.010 A 
ATOM     30  C   UNL A   1      32.474  25.629  22.756  1.00  0.00     0.010 A 
ATOM     31  C   UNL A   1      30.338  23.979  23.446  1.00  0.00     0.021 A 
ATOM     32  C   UNL A   1      31.208  26.178  22.986  1.00  0.00     0.021 A 
ATOM     33  C   UNL A   1      30.143  25.349  23.319  1.00  0.00     0.041 A 
ATOM     34  Cl  UNL A   1      28.588  26.023  23.602  1.00  0.00    -0.084 Cl
ENDBRANCH  13  28
ENDBRANCH   9  12
ENDBRANCH   6   8
ENDBRANCH   3   6
ENDBRANCH   1   2
BRANCH   1  35
ATOM     35  C   UNL A   1      41.369  20.998  26.629  1.00  0.00     0.023 C 
BRANCH  35  36
ATOM     36  C   UNL A   1      41.393  22.085  27.704  1.00  0.00     0.023 C 
BRANCH  36  37
ATOM     37  C   UNL A   1      42.347  23.234  27.403  1.00  0.00     0.116 C 
BRANCH  37  38
ATOM     38  N   UNL A   1      41.952  23.980  26.219  1.00  0.00    -0.352 N 
ATOM     39  C   UNL A   1      41.370  25.222  26.133  1.00  0.00     0.251 C 
ATOM     40  H   UNL A   1      42.125  23.533  25.359  1.00  0.00     0.163 HD
ATOM     41  O   UNL A   1      40.909  25.610  25.069  1.00  0.00    -0.269 OA
BRANCH  39  42
ATOM     42  C   UNL A   1      41.283  26.063  27.346  1.00  0.00     0.039 A 
ATOM     43  C   UNL A   1      42.242  27.056  27.547  1.00  0.00     0.014 A 
ATOM     44  C   UNL A   1      40.242  25.885  28.263  1.00  0.00     0.014 A 
ATOM     45  C   UNL A   1      42.120  27.916  28.640  1.00  0.00     0.010 A 
ATOM     46  C   UNL A   1      40.075  26.797  29.300  1.00  0.00     0.010 A 
ATOM     47  C   UNL A   1      41.016  27.817  29.504  1.00  0.00    -0.014 A 
BRANCH  47  48
ATOM     48  C   UNL A   1      40.836  28.771  30.629  1.00  0.00     0.031 A 
ATOM     49  C   UNL A   1      41.693  28.657  31.861  1.00  0.00     0.074 A 
ATOM     50  C   UNL A   1      39.867  29.706  30.561  1.00  0.00     0.049 A 
ATOM     51  N   UNL A   1      41.659  29.368  32.957  1.00  0.00    -0.248 NA
ATOM     52  C   UNL A   1      42.707  27.589  31.871  1.00  0.00     0.031 C 
ATOM     53  C   UNL A   1      38.942  29.887  29.439  1.00  0.00     0.029 A 
ATOM     54  N   UNL A   1      39.495  30.679  31.454  1.00  0.00    -0.354 N 
ATOM     55  C   UNL A   1      42.631  28.826  33.791  1.00  0.00     0.074 A 
ATOM     56  C   UNL A   1      43.200  27.693  33.095  1.00  0.00     0.031 C 
ATOM     57  C   UNL A   1      38.132  30.926  29.698  1.00  0.00     0.029 A 
ATOM     58  C   UNL A   1      38.448  31.459  31.021  1.00  0.00     0.049 A 
ATOM     59  H   UNL A   1      39.936  30.809  32.325  1.00  0.00     0.167 HD
ATOM     60  C   UNL A   1      43.028  29.249  35.014  1.00  0.00     0.037 A 
ATOM     61  C   UNL A   1      37.809  32.481  31.621  1.00  0.00     0.037 A 
ATOM     62  C   UNL A   1      42.471  30.391  35.690  1.00  0.00     0.049 A 
ATOM     63  C   UNL A   1      38.261  32.923  32.988  1.00  0.00     0.074 A 
ATOM     64  C   UNL A   1      42.848  30.940  36.904  1.00  0.00     0.029 A 
ATOM     65  N   UNL A   1      41.416  31.157  35.217  1.00  0.00    -0.354 N 
ATOM     66  N   UNL A   1      39.232  32.446  33.730  1.00  0.00    -0.248 NA
ATOM     67  C   UNL A   1      37.535  34.047  33.596  1.00  0.00     0.031 C 
ATOM     68  C   UNL A   1      41.983  32.001  37.192  1.00  0.00     0.029 A 
ATOM     69  C   UNL A   1      41.108  32.155  36.128  1.00  0.00     0.049 A 
ATOM     70  H   UNL A   1      40.952  31.013  34.360  1.00  0.00     0.167 HD
ATOM     71  C   UNL A   1      39.253  33.230  34.879  1.00  0.00     0.074 A 
ATOM     72  C   UNL A   1      38.206  34.219  34.727  1.00  0.00     0.031 C 
ATOM     73  C   UNL A   1      40.067  33.139  35.960  1.00  0.00     0.037 A 
BRANCH  60  74
ATOM     74  C   UNL A   1      44.116  28.470  35.705  1.00  0.00     0.058 A 
ATOM     75  C   UNL A   1      43.828  27.418  36.589  1.00  0.00     0.135 A 
ATOM     76  C   UNL A   1      45.468  28.754  35.448  1.00  0.00     0.135 A 
ATOM     77  F   UNL A   1      42.554  27.112  36.885  1.00  0.00    -0.206 F 
ATOM     78  C   UNL A   1      44.838  26.696  37.216  1.00  0.00     0.059 A 
ATOM     79  C   UNL A   1      46.495  28.023  36.038  1.00  0.00     0.059 A 
ATOM     80  F   UNL A   1      45.803  29.749  34.611  1.00  0.00    -0.206 F 
ATOM     81  C   UNL A   1      46.170  27.003  36.932  1.00  0.00     0.060 A 
BRANCH  81  82
ATOM     82  S   UNL A   1      47.467  26.046  37.743  1.00  0.00     0.124 S 
ATOM     83  O   UNL A   1      48.647  26.856  37.462  1.00  0.00    -0.237 OA
ATOM     84  O   UNL A   1      47.023  26.034  39.132  1.00  0.00    -0.237 OA
ATOM     85  O   UNL A   1      47.416  24.756  37.060  1.00  0.00    -0.744 OA
ENDBRANCH  81  82
ENDBRANCH  60  74
BRANCH  61  86
ATOM     86  C   UNL A   1      36.688  33.173  30.927  1.00  0.00     0.058 A 
ATOM     87  C   UNL A   1      36.936  34.106  29.909  1.00  0.00     0.135 A 
ATOM     88  C   UNL A   1      35.350  32.911  31.259  1.00  0.00     0.135 A 
ATOM     89  F   UNL A   1      38.199  34.397  29.559  1.00  0.00    -0.206 F 
ATOM     90  C   UNL A   1      35.901  34.768  29.258  1.00  0.00     0.059 A 
ATOM     91  C   UNL A   1      34.296  33.539  30.603  1.00  0.00     0.059 A 
ATOM     92  F   UNL A   1      35.057  32.015  32.215  1.00  0.00    -0.206 F 
ATOM     93  C   UNL A   1      34.582  34.475  29.610  1.00  0.00     0.060 A 
BRANCH  93  94
ATOM     94  S   UNL A   1      33.245  35.306  28.725  1.00  0.00     0.124 S 
ATOM     95  O   UNL A   1      32.493  35.903  29.822  1.00  0.00    -0.237 OA
ATOM     96  O   UNL A   1      33.976  36.237  27.872  1.00  0.00    -0.237 OA
ATOM     97  O   UNL A   1      32.578  34.214  28.022  1.00  0.00    -0.744 OA
ENDBRANCH  93  94
ENDBRANCH  61  86
BRANCH  73  98
ATOM     98  C   UNL A   1      39.890  34.162  37.051  1.00  0.00     0.058 A 
ATOM     99  C   UNL A   1      40.408  35.461  36.942  1.00  0.00     0.135 A 
ATOM    100  C   UNL A   1      39.143  33.849  38.200  1.00  0.00     0.135 A 
ATOM    101  F   UNL A   1      41.135  35.812  35.868  1.00  0.00    -0.206 F 
ATOM    102  C   UNL A   1      40.214  36.407  37.943  1.00  0.00     0.059 A 
ATOM    103  C   UNL A   1      38.910  34.789  39.198  1.00  0.00     0.059 A 
ATOM    104  F   UNL A   1      38.616  32.624  38.351  1.00  0.00    -0.206 F 
ATOM    105  C   UNL A   1      39.459  36.062  39.066  1.00  0.00     0.060 A 
BRANCH 105 106
ATOM    106  S   UNL A   1      39.185  37.311  40.340  1.00  0.00     0.124 S 
ATOM    107  O   UNL A   1      38.398  36.565  41.319  1.00  0.00    -0.237 OA
ATOM    108  O   UNL A   1      40.546  37.646  40.746  1.00  0.00    -0.237 OA
ATOM    109  O   UNL A   1      38.469  38.368  39.634  1.00  0.00    -0.744 OA
ENDBRANCH 105 106
ENDBRANCH  73  98
ENDBRANCH  47  48
ENDBRANCH  39  42
ENDBRANCH  37  38
ENDBRANCH  36  37
ENDBRANCH  35  36
ENDBRANCH   1  35
TORSDOF 20
ENDMDL
MODEL 2
REMARK VINA RESULT:     -10.9      6.384     13.878
REMARK SMILES C[C@@H](NC(=O)/C(=C/c1ccc(Cl)cc1)NC(=O)c1ccc(C(C)(C)C)cc1)C(=O)NCCCCNC(=O)c1ccc(-c2c3nc(c(-c4c(F)cc(S(=O)(=O)[O-])cc4F)c4ccc([nH]4)c(-c4c(F)cc(S(=O)(=O)[O-])cc4F)c4nc(c(-c5c(F)cc(S(=O)(=O)[O-])cc5F)c5ccc2[nH]5)C=C4)C=C3)cc1
REMARK SMILES IDX 31 1 30 2 28 3 29 4 2 6 1 7 3 8 4 9 5 11 6 12 7 13 15 14
REMARK SMILES IDX 16 15 17 17 18 18 19 19 27 20 20 21 26 22 21 23 22 24 23 25
REMARK SMILES IDX 24 26 25 27 8 28 9 29 14 30 10 31 13 32 11 33 12 34 32 35
REMARK SMILES IDX 33 36 34 37 35 38 36 39 37 41 38 42 39 43 103 44 40 45
REMARK SMILES IDX 102 46 41 47 42 48 43 49 96 50 44 51 101 52 95 53 97 54
REMARK SMILES IDX 45 55 100 56 94 57 93 58 46 60 80 61 59 62 79 63 60 64 63 65
REMARK SMILES IDX 78 66 98 67 61 68 62 69 77 71 99 72 64 73 47 74 48 75 57 76
REMARK SMILES IDX 49 77 50 78 56 79 58 80 51 81 52 82 53 83 54 84 55 85 81 86
REMARK SMILES IDX 82 87 91 88 83 89 84 90 90 91 92 92 85 93 86 94 87 95 88 96
REMARK SMILES IDX 89 97 65 98 66 99 75 100 67 101 68 102 74 103 76 104 69 105
REMARK SMILES IDX 70 106 71 107 72 108 73 109
REMARK H PARENT 30 5 3 10 15 16 35 40 97 59 63 70
REMARK Flexibility Score: inf
ROOT
ATOM      1  C   UNL A   1      35.064  33.760  30.033  1.00  0.00     0.116 C 
ENDROOT
BRANCH   1   2
ATOM      2  N   UNL A   1      33.831  34.449  30.347  1.00  0.00    -0.354 N 
ATOM      3  C   UNL A   1      33.476  35.085  31.494  1.00  0.00     0.242 C 
ATOM      4  O   UNL A   1      32.320  35.506  31.593  1.00  0.00    -0.273 OA
ATOM      5  H   UNL A   1      33.156  34.457  29.631  1.00  0.00     0.163 HD
BRANCH   3   6
ATOM      6  C   UNL A   1      34.439  35.173  32.690  1.00  0.00     0.168 C 
ATOM      7  C   UNL A   1      33.937  36.316  33.583  1.00  0.00     0.041 C 
BRANCH   6   8
ATOM      8  N   UNL A   1      34.699  33.954  33.482  1.00  0.00    -0.339 N 
ATOM      9  C   UNL A   1      35.804  33.740  34.284  1.00  0.00     0.268 C 
ATOM     10  H   UNL A   1      34.029  33.235  33.437  1.00  0.00     0.164 HD
ATOM     11  O   UNL A   1      35.645  33.560  35.488  1.00  0.00    -0.268 OA
BRANCH   9  12
ATOM     12  C   UNL A   1      37.147  33.548  33.631  1.00  0.00     0.107 C 
ATOM     13  C   UNL A   1      37.600  34.573  32.883  1.00  0.00     0.040 C 
BRANCH  12  14
ATOM     14  N   UNL A   1      37.930  32.433  33.860  1.00  0.00    -0.317 N 
ATOM     15  C   UNL A   1      38.809  32.037  34.838  1.00  0.00     0.255 C 
ATOM     16  H   UNL A   1      37.836  31.759  33.150  1.00  0.00     0.170 HD
ATOM     17  O   UNL A   1      39.428  30.983  34.693  1.00  0.00    -0.269 OA
BRANCH  15  18
ATOM     18  C   UNL A   1      39.057  32.824  36.046  1.00  0.00     0.040 A 
ATOM     19  C   UNL A   1      39.992  33.852  35.978  1.00  0.00     0.014 A 
ATOM     20  C   UNL A   1      38.418  32.525  37.247  1.00  0.00     0.014 A 
ATOM     21  C   UNL A   1      40.197  34.668  37.089  1.00  0.00     0.005 A 
ATOM     22  C   UNL A   1      38.623  33.351  38.355  1.00  0.00     0.005 A 
ATOM     23  C   UNL A   1      39.478  34.468  38.285  1.00  0.00    -0.043 A 
BRANCH  23  24
ATOM     24  C   UNL A   1      39.633  35.467  39.443  1.00  0.00    -0.013 C 
ATOM     25  C   UNL A   1      38.706  35.057  40.603  1.00  0.00     0.016 C 
ATOM     26  C   UNL A   1      41.098  35.475  39.937  1.00  0.00     0.016 C 
ATOM     27  C   UNL A   1      39.291  36.921  39.049  1.00  0.00     0.016 C 
ENDBRANCH  23  24
ENDBRANCH  15  18
ENDBRANCH  12  14
BRANCH  13  28
ATOM     28  C   UNL A   1      38.741  34.637  31.942  1.00  0.00    -0.023 A 
ATOM     29  C   UNL A   1      40.082  34.480  32.328  1.00  0.00     0.010 A 
ATOM     30  C   UNL A   1      38.455  34.692  30.570  1.00  0.00     0.010 A 
ATOM     31  C   UNL A   1      41.110  34.448  31.379  1.00  0.00     0.021 A 
ATOM     32  C   UNL A   1      39.477  34.636  29.617  1.00  0.00     0.021 A 
ATOM     33  C   UNL A   1      40.801  34.525  30.026  1.00  0.00     0.041 A 
ATOM     34  Cl  UNL A   1      42.057  34.454  28.856  1.00  0.00    -0.084 Cl
ENDBRANCH  13  28
ENDBRANCH   9  12
ENDBRANCH   6   8
ENDBRANCH   3   6
ENDBRANCH   1   2
BRANCH   1  35
ATOM     35  C   UNL A   1      35.164  33.503  28.535  1.00  0.00     0.023 C 
BRANCH  35  36
ATOM     36  C   UNL A   1      34.851  32.058  28.148  1.00  0.00     0.023 C 
BRANCH  36  37
ATOM     37  C   UNL A   1      35.841  31.039  28.699  1.00  0.00     0.116 C 
BRANCH  37  38
ATOM     38  N   UNL A   1      35.734  30.895  30.143  1.00  0.00    -0.352 N 
ATOM     39  C   UNL A   1      36.655  30.398  31.033  1.00  0.00     0.251 C 
ATOM     40  H   UNL A   1      34.884  31.196  30.537  1.00  0.00     0.163 HD
ATOM     41  O   UNL A   1      36.323  30.151  32.184  1.00  0.00    -0.269 OA
BRANCH  39  42
ATOM     42  C   UNL A   1      38.035  30.138  30.573  1.00  0.00     0.039 A 
ATOM     43  C   UNL A   1      39.030  29.906  31.524  1.00  0.00     0.014 A 
ATOM     44  C   UNL A   1      38.335  30.098  29.208  1.00  0.00     0.014 A 
ATOM     45  C   UNL A   1      40.318  29.571  31.101  1.00  0.00     0.010 A 
ATOM     46  C   UNL A   1      39.595  29.678  28.791  1.00  0.00     0.010 A 
ATOM     47  C   UNL A   1      40.601  29.417  29.733  1.00  0.00    -0.014 A 
BRANCH  47  48
ATOM     48  C   UNL A   1      41.948  28.990  29.273  1.00  0.00     0.031 A 
ATOM     49  C   UNL A   1      43.088  29.971  29.261  1.00  0.00     0.074 A 
ATOM     50  C   UNL A   1      42.129  27.733  28.819  1.00  0.00     0.049 A 
ATOM     51  N   UNL A   1      44.320  29.798  28.860  1.00  0.00    -0.248 NA
ATOM     52  C   UNL A   1      42.801  31.333  29.742  1.00  0.00     0.031 C 
ATOM     53  C   UNL A   1      41.090  26.703  28.739  1.00  0.00     0.029 A 
ATOM     54  N   UNL A   1      43.250  27.106  28.336  1.00  0.00    -0.354 N 
ATOM     55  C   UNL A   1      44.949  31.027  29.024  1.00  0.00     0.074 A 
ATOM     56  C   UNL A   1      43.949  31.952  29.510  1.00  0.00     0.031 C 
ATOM     57  C   UNL A   1      41.629  25.568  28.267  1.00  0.00     0.029 A 
ATOM     58  C   UNL A   1      43.040  25.798  27.969  1.00  0.00     0.049 A 
ATOM     59  H   UNL A   1      44.125  27.552  28.260  1.00  0.00     0.167 HD
ATOM     60  C   UNL A   1      46.247  31.350  28.811  1.00  0.00     0.037 A 
ATOM     61  C   UNL A   1      43.884  24.888  27.446  1.00  0.00     0.037 A 
ATOM     62  C   UNL A   1      47.241  30.417  28.347  1.00  0.00     0.049 A 
ATOM     63  C   UNL A   1      45.318  25.275  27.205  1.00  0.00     0.074 A 
ATOM     64  C   UNL A   1      48.597  30.628  28.162  1.00  0.00     0.029 A 
ATOM     65  N   UNL A   1      46.990  29.100  27.991  1.00  0.00    -0.354 N 
ATOM     66  N   UNL A   1      45.914  26.421  27.437  1.00  0.00    -0.248 NA
ATOM     67  C   UNL A   1      46.199  24.244  26.639  1.00  0.00     0.031 C 
ATOM     68  C   UNL A   1      49.153  29.457  27.637  1.00  0.00     0.029 A 
ATOM     69  C   UNL A   1      48.158  28.495  27.557  1.00  0.00     0.049 A 
ATOM     70  H   UNL A   1      46.110  28.659  28.038  1.00  0.00     0.167 HD
ATOM     71  C   UNL A   1      47.244  26.240  27.073  1.00  0.00     0.074 A 
ATOM     72  C   UNL A   1      47.368  24.870  26.618  1.00  0.00     0.031 C 
ATOM     73  C   UNL A   1      48.269  27.127  27.114  1.00  0.00     0.037 A 
BRANCH  60  74
ATOM     74  C   UNL A   1      46.668  32.771  29.073  1.00  0.00     0.058 A 
ATOM     75  C   UNL A   1      47.195  33.172  30.311  1.00  0.00     0.135 A 
ATOM     76  C   UNL A   1      46.581  33.738  28.057  1.00  0.00     0.135 A 
ATOM     77  F   UNL A   1      47.287  32.295  31.324  1.00  0.00    -0.206 F 
ATOM     78  C   UNL A   1      47.591  34.484  30.544  1.00  0.00     0.059 A 
ATOM     79  C   UNL A   1      47.003  35.050  28.257  1.00  0.00     0.059 A 
ATOM     80  F   UNL A   1      46.085  33.412  26.853  1.00  0.00    -0.206 F 
ATOM     81  C   UNL A   1      47.495  35.417  29.509  1.00  0.00     0.060 A 
BRANCH  81  82
ATOM     82  S   UNL A   1      48.028  37.112  29.824  1.00  0.00     0.124 S 
ATOM     83  O   UNL A   1      49.479  36.958  29.865  1.00  0.00    -0.237 OA
ATOM     84  O   UNL A   1      47.500  37.825  28.666  1.00  0.00    -0.237 OA
ATOM     85  O   UNL A   1      47.397  37.436  31.099  1.00  0.00    -0.744 OA
ENDBRANCH  81  82
ENDBRANCH  60  74
BRANCH  61  86
ATOM     86  C   UNL A   1      43.401  23.515  27.134  1.00  0.00     0.058 A 
ATOM     87  C   UNL A   1      43.143  23.124  25.811  1.00  0.00     0.135 A 
ATOM     88  C   UNL A   1      43.195  22.564  28.146  1.00  0.00     0.135 A 
ATOM     89  F   UNL A   1      43.316  23.998  24.807  1.00  0.00    -0.206 F 
ATOM     90  C   UNL A   1      42.682  21.848  25.504  1.00  0.00     0.059 A 
ATOM     91  C   UNL A   1      42.762  21.273  27.861  1.00  0.00     0.059 A 
ATOM     92  F   UNL A   1      43.443  22.881  29.426  1.00  0.00    -0.206 F 
ATOM     93  C   UNL A   1      42.497  20.928  26.537  1.00  0.00     0.060 A 
BRANCH  93  94
ATOM     94  S   UNL A   1      41.943  19.260  26.121  1.00  0.00     0.124 S 
ATOM     95  O   UNL A   1      42.250  18.533  27.347  1.00  0.00    -0.237 OA
ATOM     96  O   UNL A   1      40.526  19.470  25.841  1.00  0.00    -0.237 OA
ATOM     97  O   UNL A   1      42.759  18.915  24.960  1.00  0.00    -0.744 OA
ENDBRANCH  93  94
ENDBRANCH  61  86
BRANCH  73  98
ATOM     98  C   UNL A   1      49.630  26.637  26.695  1.00  0.00     0.058 A 
ATOM     99  C   UNL A   1      50.551  26.123  27.620  1.00  0.00     0.135 A 
ATOM    100  C   UNL A   1      49.993  26.632  25.337  1.00  0.00     0.135 A 
ATOM    101  F   UNL A   1      50.258  26.110  28.930  1.00  0.00    -0.206 F 
ATOM    102  C   UNL A   1      51.795  25.645  27.218  1.00  0.00     0.059 A 
ATOM    103  C   UNL A   1      51.217  26.130  24.910  1.00  0.00     0.059 A 
ATOM    104  F   UNL A   1      49.145  27.102  24.408  1.00  0.00    -0.206 F 
ATOM    105  C   UNL A   1      52.117  25.649  25.859  1.00  0.00     0.060 A 
BRANCH 105 106
ATOM    106  S   UNL A   1      53.719  24.993  25.349  1.00  0.00     0.124 S 
ATOM    107  O   UNL A   1      53.415  23.576  25.172  1.00  0.00    -0.237 OA
ATOM    108  O   UNL A   1      53.986  25.741  24.125  1.00  0.00    -0.237 OA
ATOM    109  O   UNL A   1      54.592  25.311  26.474  1.00  0.00    -0.744 OA
ENDBRANCH 105 106
ENDBRANCH  73  98
ENDBRANCH  47  48
ENDBRANCH  39  42
ENDBRANCH  37  38
ENDBRANCH  36  37
ENDBRANCH  35  36
ENDBRANCH   1  35
TORSDOF 20
ENDMDL
MODEL 3
REMARK VINA RESULT:     -10.6      2.812      8.688
REMARK SMILES C[C@@H](NC(=O)/C(=C/c1ccc(Cl)cc1)NC(=O)c1ccc(C(C)(C)C)cc1)C(=O)NCCCCNC(=O)c1ccc(-c2c3nc(c(-c4c(F)cc(S(=O)(=O)[O-])cc4F)c4ccc([nH]4)c(-c4c(F)cc(S(=O)(=O)[O-])cc4F)c4nc(c(-c5c(F)cc(S(=O)(=O)[O-])cc5F)c5ccc2[nH]5)C=C4)C=C3)cc1
REMARK SMILES IDX 31 1 30 2 28 3 29 4 2 6 1 7 3 8 4 9 5 11 6 12 7 13 15 14
REMARK SMILES IDX 16 15 17 17 18 18 19 19 27 20 20 21 26 22 21 23 22 24 23 25
REMARK SMILES IDX 24 26 25 27 8 28 9 29 14 30 10 31 13 32 11 33 12 34 32 35
REMARK SMILES IDX 33 36 34 37 35 38 36 39 37 41 38 42 39 43 103 44 40 45
REMARK SMILES IDX 102 46 41 47 42 48 43 49 96 50 44 51 101 52 95 53 97 54
REMARK SMILES IDX 45 55 100 56 94 57 93 58 46 60 80 61 59 62 79 63 60 64 63 65
REMARK SMILES IDX 78 66 98 67 61 68 62 69 77 71 99 72 64 73 47 74 48 75 57 76
REMARK SMILES IDX 49 77 50 78 56 79 58 80 51 81 52 82 53 83 54 84 55 85 81 86
REMARK SMILES IDX 82 87 91 88 83 89 84 90 90 91 92 92 85 93 86 94 87 95 88 96
REMARK SMILES IDX 89 97 65 98 66 99 75 100 67 101 68 102 74 103 76 104 69 105
REMARK SMILES IDX 70 106 71 107 72 108 73 109
REMARK H PARENT 30 5 3 10 15 16 35 40 97 59 63 70
REMARK Flexibility Score: inf
ROOT
ATOM      1  C   UNL A   1      38.825  27.661  27.924  1.00  0.00     0.116 C 
ENDROOT
BRANCH   1   2
ATOM      2  N   UNL A   1      38.862  29.105  28.001  1.00  0.00    -0.354 N 
ATOM      3  C   UNL A   1      37.830  29.982  28.088  1.00  0.00     0.242 C 
ATOM      4  O   UNL A   1      38.082  31.189  28.020  1.00  0.00    -0.273 OA
ATOM      5  H   UNL A   1      39.761  29.507  27.985  1.00  0.00     0.163 HD
BRANCH   3   6
ATOM      6  C   UNL A   1      36.371  29.497  28.145  1.00  0.00     0.168 C 
ATOM      7  C   UNL A   1      35.986  29.411  29.628  1.00  0.00     0.041 C 
BRANCH   6   8
ATOM      8  N   UNL A   1      35.349  30.233  27.373  1.00  0.00    -0.339 N 
ATOM      9  C   UNL A   1      34.058  29.803  27.137  1.00  0.00     0.268 C 
ATOM     10  H   UNL A   1      35.610  31.105  26.996  1.00  0.00     0.164 HD
ATOM     11  O   UNL A   1      33.117  30.471  27.555  1.00  0.00    -0.268 OA
BRANCH   9  12
ATOM     12  C   UNL A   1      33.841  28.629  26.219  1.00  0.00     0.107 C 
ATOM     13  C   UNL A   1      33.099  27.616  26.709  1.00  0.00     0.040 C 
BRANCH  12  14
ATOM     14  N   UNL A   1      34.283  28.620  24.910  1.00  0.00    -0.317 N 
ATOM     15  C   UNL A   1      33.688  28.689  23.675  1.00  0.00     0.255 C 
ATOM     16  H   UNL A   1      35.262  28.546  24.848  1.00  0.00     0.170 HD
ATOM     17  O   UNL A   1      34.386  28.564  22.668  1.00  0.00    -0.269 OA
BRANCH  15  18
ATOM     18  C   UNL A   1      32.250  28.890  23.498  1.00  0.00     0.040 A 
ATOM     19  C   UNL A   1      31.604  29.787  24.344  1.00  0.00     0.014 A 
ATOM     20  C   UNL A   1      31.532  28.171  22.546  1.00  0.00     0.014 A 
ATOM     21  C   UNL A   1      30.250  30.056  24.154  1.00  0.00     0.005 A 
ATOM     22  C   UNL A   1      30.176  28.451  22.356  1.00  0.00     0.005 A 
ATOM     23  C   UNL A   1      29.519  29.435  23.121  1.00  0.00    -0.043 A 
BRANCH  23  24
ATOM     24  C   UNL A   1      28.065  29.856  22.857  1.00  0.00    -0.013 C 
ATOM     25  C   UNL A   1      27.735  31.109  23.691  1.00  0.00     0.016 C 
ATOM     26  C   UNL A   1      27.875  30.176  21.356  1.00  0.00     0.016 C 
ATOM     27  C   UNL A   1      27.034  28.762  23.211  1.00  0.00     0.016 C 
ENDBRANCH  23  24
ENDBRANCH  15  18
ENDBRANCH  12  14
BRANCH  13  28
ATOM     28  C   UNL A   1      32.881  26.250  26.181  1.00  0.00    -0.023 A 
ATOM     29  C   UNL A   1      33.918  25.342  25.910  1.00  0.00     0.010 A 
ATOM     30  C   UNL A   1      31.561  25.780  26.108  1.00  0.00     0.010 A 
ATOM     31  C   UNL A   1      33.645  24.030  25.511  1.00  0.00     0.021 A 
ATOM     32  C   UNL A   1      31.285  24.461  25.733  1.00  0.00     0.021 A 
ATOM     33  C   UNL A   1      32.328  23.595  25.426  1.00  0.00     0.041 A 
ATOM     34  Cl  UNL A   1      31.989  21.974  24.967  1.00  0.00    -0.084 Cl
ENDBRANCH  13  28
ENDBRANCH   9  12
ENDBRANCH   6   8
ENDBRANCH   3   6
ENDBRANCH   1   2
BRANCH   1  35
ATOM     35  C   UNL A   1      40.203  27.076  28.210  1.00  0.00     0.023 C 
BRANCH  35  36
ATOM     36  C   UNL A   1      40.692  26.123  27.120  1.00  0.00     0.023 C 
BRANCH  36  37
ATOM     37  C   UNL A   1      41.925  26.617  26.372  1.00  0.00     0.116 C 
BRANCH  37  38
ATOM     38  N   UNL A   1      43.073  25.746  26.572  1.00  0.00    -0.352 N 
ATOM     39  C   UNL A   1      44.050  25.810  27.536  1.00  0.00     0.251 C 
ATOM     40  H   UNL A   1      43.162  25.007  25.927  1.00  0.00     0.163 HD
ATOM     41  O   UNL A   1      45.059  25.127  27.432  1.00  0.00    -0.269 OA
BRANCH  39  42
ATOM     42  C   UNL A   1      43.878  26.735  28.676  1.00  0.00     0.039 A 
ATOM     43  C   UNL A   1      44.255  28.070  28.524  1.00  0.00     0.014 A 
ATOM     44  C   UNL A   1      43.321  26.288  29.878  1.00  0.00     0.014 A 
ATOM     45  C   UNL A   1      44.014  28.973  29.560  1.00  0.00     0.010 A 
ATOM     46  C   UNL A   1      43.003  27.206  30.873  1.00  0.00     0.010 A 
ATOM     47  C   UNL A   1      43.353  28.557  30.728  1.00  0.00    -0.014 A 
BRANCH  47  48
ATOM     48  C   UNL A   1      43.025  29.523  31.809  1.00  0.00     0.031 A 
ATOM     49  C   UNL A   1      41.784  30.369  31.714  1.00  0.00     0.074 A 
ATOM     50  C   UNL A   1      43.872  29.674  32.847  1.00  0.00     0.049 A 
ATOM     51  N   UNL A   1      41.352  31.292  32.533  1.00  0.00    -0.248 NA
ATOM     52  C   UNL A   1      40.929  30.168  30.533  1.00  0.00     0.031 C 
ATOM     53  C   UNL A   1      45.129  28.944  33.028  1.00  0.00     0.029 A 
ATOM     54  N   UNL A   1      43.807  30.492  33.947  1.00  0.00    -0.354 N 
ATOM     55  C   UNL A   1      40.187  31.791  31.961  1.00  0.00     0.074 A 
ATOM     56  C   UNL A   1      40.010  31.107  30.699  1.00  0.00     0.031 C 
ATOM     57  C   UNL A   1      45.699  29.325  34.182  1.00  0.00     0.029 A 
ATOM     58  C   UNL A   1      44.874  30.357  34.804  1.00  0.00     0.049 A 
ATOM     59  H   UNL A   1      43.065  31.120  34.108  1.00  0.00     0.167 HD
ATOM     60  C   UNL A   1      39.331  32.717  32.454  1.00  0.00     0.037 A 
ATOM     61  C   UNL A   1      45.160  30.993  35.956  1.00  0.00     0.037 A 
ATOM     62  C   UNL A   1      39.504  33.378  33.721  1.00  0.00     0.049 A 
ATOM     63  C   UNL A   1      44.199  32.030  36.475  1.00  0.00     0.074 A 
ATOM     64  C   UNL A   1      38.661  34.284  34.340  1.00  0.00     0.029 A 
ATOM     65  N   UNL A   1      40.595  33.210  34.562  1.00  0.00    -0.354 N 
ATOM     66  N   UNL A   1      43.063  32.435  35.958  1.00  0.00    -0.248 NA
ATOM     67  C   UNL A   1      44.554  32.691  37.738  1.00  0.00     0.031 C 
ATOM     68  C   UNL A   1      39.269  34.708  35.526  1.00  0.00     0.029 A 
ATOM     69  C   UNL A   1      40.461  34.018  35.680  1.00  0.00     0.049 A 
ATOM     70  H   UNL A   1      41.354  32.605  34.390  1.00  0.00     0.167 HD
ATOM     71  C   UNL A   1      42.554  33.376  36.847  1.00  0.00     0.074 A 
ATOM     72  C   UNL A   1      43.500  33.470  37.940  1.00  0.00     0.031 C 
ATOM     73  C   UNL A   1      41.407  34.095  36.766  1.00  0.00     0.037 A 
BRANCH  60  74
ATOM     74  C   UNL A   1      38.131  33.077  31.619  1.00  0.00     0.058 A 
ATOM     75  C   UNL A   1      36.861  32.535  31.874  1.00  0.00     0.135 A 
ATOM     76  C   UNL A   1      38.244  34.008  30.573  1.00  0.00     0.135 A 
ATOM     77  F   UNL A   1      36.696  31.628  32.852  1.00  0.00    -0.206 F 
ATOM     78  C   UNL A   1      35.754  32.879  31.106  1.00  0.00     0.059 A 
ATOM     79  C   UNL A   1      37.143  34.392  29.812  1.00  0.00     0.059 A 
ATOM     80  F   UNL A   1      39.434  34.559  30.284  1.00  0.00    -0.206 F 
ATOM     81  C   UNL A   1      35.904  33.812  30.078  1.00  0.00     0.060 A 
BRANCH  81  82
ATOM     82  S   UNL A   1      34.454  34.257  29.101  1.00  0.00     0.124 S 
ATOM     83  O   UNL A   1      33.416  34.312  30.127  1.00  0.00    -0.237 OA
ATOM     84  O   UNL A   1      34.846  35.541  28.529  1.00  0.00    -0.237 OA
ATOM     85  O   UNL A   1      34.334  33.159  28.148  1.00  0.00    -0.744 OA
ENDBRANCH  81  82
ENDBRANCH  60  74
BRANCH  61  86
ATOM     86  C   UNL A   1      46.398  30.655  36.708  1.00  0.00     0.058 A 
ATOM     87  C   UNL A   1      47.603  31.328  36.455  1.00  0.00     0.135 A 
ATOM     88  C   UNL A   1      46.404  29.661  37.699  1.00  0.00     0.135 A 
ATOM     89  F   UNL A   1      47.653  32.282  35.512  1.00  0.00    -0.206 F 
ATOM     90  C   UNL A   1      48.771  31.017  37.142  1.00  0.00     0.059 A 
ATOM     91  C   UNL A   1      47.552  29.351  38.420  1.00  0.00     0.059 A 
ATOM     92  F   UNL A   1      45.274  28.998  37.993  1.00  0.00    -0.206 F 
ATOM     93  C   UNL A   1      48.735  30.028  38.127  1.00  0.00     0.060 A 
BRANCH  93  94
ATOM     94  S   UNL A   1      50.248  29.665  39.045  1.00  0.00     0.124 S 
ATOM     95  O   UNL A   1      50.285  30.768  39.998  1.00  0.00    -0.237 OA
ATOM     96  O   UNL A   1      49.958  28.348  39.602  1.00  0.00    -0.237 OA
ATOM     97  O   UNL A   1      51.280  29.688  38.013  1.00  0.00    -0.744 OA
ENDBRANCH  93  94
ENDBRANCH  61  86
BRANCH  73  98
ATOM     98  C   UNL A   1      41.084  35.020  37.909  1.00  0.00     0.058 A 
ATOM     99  C   UNL A   1      41.523  36.352  37.933  1.00  0.00     0.135 A 
ATOM    100  C   UNL A   1      40.276  34.577  38.970  1.00  0.00     0.135 A 
ATOM    101  F   UNL A   1      42.302  36.826  36.948  1.00  0.00    -0.206 F 
ATOM    102  C   UNL A   1      41.193  37.207  38.981  1.00  0.00     0.059 A 
ATOM    103  C   UNL A   1      39.908  35.423  40.011  1.00  0.00     0.059 A 
ATOM    104  F   UNL A   1      39.820  33.315  38.993  1.00  0.00    -0.206 F 
ATOM    105  C   UNL A   1      40.381  36.734  40.013  1.00  0.00     0.060 A 
BRANCH 105 106
ATOM    106  S   UNL A   1      39.933  37.863  41.348  1.00  0.00     0.124 S 
ATOM    107  O   UNL A   1      38.960  38.728  40.687  1.00  0.00    -0.237 OA
ATOM    108  O   UNL A   1      39.393  36.957  42.356  1.00  0.00    -0.237 OA
ATOM    109  O   UNL A   1      41.200  38.498  41.697  1.00  0.00    -0.744 OA
ENDBRANCH 105 106
ENDBRANCH  73  98
ENDBRANCH  47  48
ENDBRANCH  39  42
ENDBRANCH  37  38
ENDBRANCH  36  37
ENDBRANCH  35  36
ENDBRANCH   1  35
TORSDOF 20
ENDMDL
