MODEL 1
REMARK VINA RESULT:     -12.6      0.000      0.000
REMARK SMILES CC1=C(C(=O)NCCCCNC(=O)c2ccc(-c3c4nc(c(-c5c(F)cc(S(=O)(=O)[O-])cc5F)c5ccc([nH]5)c(-c5c(F)cc(S(=O)(=O)[O-])cc5F)c5nc(c(-c6c(F)cc(S(=O)(=O)[O-])cc6F)c6ccc3[nH]6)C=C5)C=C4)cc2)N2C(=O)[C@H](NC(=O)c3c(Cl)c(C(F)(F)F)nn3C)[C@@H]2SC1
REMARK SMILES IDX 8 1 7 2 6 3 4 4 5 5 3 7 1 8 2 9 100 10 80 11 99 12 81 13
REMARK SMILES IDX 98 14 82 15 83 16 84 17 85 18 86 20 87 21 88 22 96 23 89 24
REMARK SMILES IDX 90 25 95 26 97 27 91 28 92 29 93 30 94 31 9 32 10 33 11 34
REMARK SMILES IDX 12 35 13 37 14 38 15 39 79 40 16 41 78 42 17 43 18 44 19 45
REMARK SMILES IDX 72 46 20 47 77 48 71 49 73 50 21 51 76 52 70 53 69 54 22 56
REMARK SMILES IDX 56 57 35 58 55 59 36 60 39 61 54 62 74 63 37 64 38 65 53 67
REMARK SMILES IDX 75 68 40 69 23 70 24 71 33 72 25 73 26 74 32 75 34 76 27 77
REMARK SMILES IDX 28 78 29 79 30 80 31 81 57 82 58 83 67 84 59 85 60 86 66 87
REMARK SMILES IDX 68 88 61 89 62 90 63 91 64 92 65 93 41 94 42 95 51 96 43 97
REMARK SMILES IDX 44 98 50 99 52 100 45 101 46 102 47 103 48 104 49 105
REMARK H PARENT 6 6 84 19 11 36 73 55 39 66
REMARK Flexibility Score: inf
ROOT
ATOM      1  C   UNL A   1      39.479  22.225  26.234  1.00  0.00     0.023 C 
ENDROOT
BRANCH   1   2
ATOM      2  C   UNL A   1      38.362  23.265  26.396  1.00  0.00     0.116 C 
BRANCH   2   3
ATOM      3  N   UNL A   1      37.839  23.592  25.090  1.00  0.00    -0.351 N 
ATOM      4  C   UNL A   1      36.895  23.013  24.311  1.00  0.00     0.268 C 
ATOM      5  O   UNL A   1      36.917  23.300  23.108  1.00  0.00    -0.268 OA
ATOM      6  H   UNL A   1      38.249  24.391  24.689  1.00  0.00     0.163 HD
BRANCH   4   7
ATOM      7  C   UNL A   1      35.784  22.099  24.798  1.00  0.00     0.110 C 
ATOM      8  C   UNL A   1      36.875  19.795  24.640  1.00  0.00     0.043 C 
ATOM      9  C   UNL A   1      35.756  20.746  24.949  1.00  0.00    -0.034 C 
ATOM     10  C   UNL A   1      34.533  19.944  25.391  1.00  0.00     0.104 C 
ATOM     11  N   UNL A   1      34.589  22.753  24.899  1.00  0.00    -0.290 N 
ATOM     12  S   UNL A   1      33.032  20.873  25.766  1.00  0.00    -0.129 SA
ATOM     13  C   UNL A   1      34.118  24.004  25.062  1.00  0.00     0.253 C 
ATOM     14  C   UNL A   1      33.355  22.133  24.505  1.00  0.00     0.181 C 
ATOM     15  O   UNL A   1      34.625  25.042  25.426  1.00  0.00    -0.272 OA
ATOM     16  C   UNL A   1      32.673  23.524  24.687  1.00  0.00     0.206 C 
BRANCH  16  17
ATOM     17  N   UNL A   1      31.638  23.597  25.745  1.00  0.00    -0.336 N 
ATOM     18  C   UNL A   1      30.777  24.617  26.056  1.00  0.00     0.271 C 
ATOM     19  H   UNL A   1      31.558  22.793  26.308  1.00  0.00     0.164 HD
ATOM     20  O   UNL A   1      29.948  24.425  26.942  1.00  0.00    -0.267 OA
BRANCH  18  21
ATOM     21  C   UNL A   1      30.894  25.875  25.371  1.00  0.00     0.145 A 
ATOM     22  C   UNL A   1      31.282  27.089  25.909  1.00  0.00     0.104 A 
ATOM     23  N   UNL A   1      30.509  26.175  24.091  1.00  0.00    -0.261 N 
ATOM     24  Cl  UNL A   1      31.773  27.409  27.504  1.00  0.00    -0.079 Cl
ATOM     25  C   UNL A   1      31.201  28.036  24.860  1.00  0.00     0.185 A 
ATOM     26  N   UNL A   1      30.760  27.448  23.729  1.00  0.00    -0.166 NA
ATOM     27  C   UNL A   1      29.830  25.335  23.132  1.00  0.00     0.174 C 
BRANCH  25  28
ATOM     28  C   UNL A   1      31.523  29.498  24.955  1.00  0.00     0.436 C 
ATOM     29  F   UNL A   1      30.673  30.252  24.207  1.00  0.00    -0.164 F 
ATOM     30  F   UNL A   1      31.431  29.961  26.231  1.00  0.00    -0.164 F 
ATOM     31  F   UNL A   1      32.779  29.802  24.529  1.00  0.00    -0.164 F 
ENDBRANCH  25  28
ENDBRANCH  18  21
ENDBRANCH  16  17
ENDBRANCH   4   7
ENDBRANCH   2   3
ENDBRANCH   1   2
BRANCH   1  32
ATOM     32  C   UNL A   1      40.424  22.080  27.420  1.00  0.00     0.023 C 
BRANCH  32  33
ATOM     33  C   UNL A   1      41.670  22.939  27.328  1.00  0.00     0.116 C 
BRANCH  33  34
ATOM     34  N   UNL A   1      41.714  23.777  26.135  1.00  0.00    -0.352 N 
ATOM     35  C   UNL A   1      41.653  25.149  26.068  1.00  0.00     0.251 C 
ATOM     36  H   UNL A   1      41.797  23.303  25.276  1.00  0.00     0.163 HD
ATOM     37  O   UNL A   1      41.616  25.721  24.984  1.00  0.00    -0.269 OA
BRANCH  35  38
ATOM     38  C   UNL A   1      41.578  25.907  27.332  1.00  0.00     0.039 A 
ATOM     39  C   UNL A   1      42.623  26.767  27.668  1.00  0.00     0.014 A 
ATOM     40  C   UNL A   1      40.423  25.845  28.116  1.00  0.00     0.014 A 
ATOM     41  C   UNL A   1      42.474  27.627  28.757  1.00  0.00     0.010 A 
ATOM     42  C   UNL A   1      40.238  26.770  29.133  1.00  0.00     0.010 A 
ATOM     43  C   UNL A   1      41.264  27.665  29.470  1.00  0.00    -0.014 A 
BRANCH  43  44
ATOM     44  C   UNL A   1      41.052  28.620  30.586  1.00  0.00     0.031 A 
ATOM     45  C   UNL A   1      41.890  28.506  31.830  1.00  0.00     0.074 A 
ATOM     46  C   UNL A   1      40.067  29.537  30.507  1.00  0.00     0.049 A 
ATOM     47  N   UNL A   1      41.815  29.190  32.942  1.00  0.00    -0.248 NA
ATOM     48  C   UNL A   1      42.927  27.459  31.840  1.00  0.00     0.031 C 
ATOM     49  C   UNL A   1      39.150  29.704  29.377  1.00  0.00     0.029 A 
ATOM     50  N   UNL A   1      39.665  30.497  31.402  1.00  0.00    -0.354 N 
ATOM     51  C   UNL A   1      42.779  28.647  33.783  1.00  0.00     0.074 A 
ATOM     52  C   UNL A   1      43.379  27.536  33.082  1.00  0.00     0.031 C 
ATOM     53  C   UNL A   1      38.314  30.722  29.634  1.00  0.00     0.029 A 
ATOM     54  C   UNL A   1      38.607  31.257  30.960  1.00  0.00     0.049 A 
ATOM     55  H   UNL A   1      40.095  30.630  32.278  1.00  0.00     0.167 HD
ATOM     56  C   UNL A   1      43.152  29.059  35.017  1.00  0.00     0.037 A 
ATOM     57  C   UNL A   1      37.947  32.267  31.560  1.00  0.00     0.037 A 
ATOM     58  C   UNL A   1      42.571  30.187  35.694  1.00  0.00     0.049 A 
ATOM     59  C   UNL A   1      38.386  32.713  32.930  1.00  0.00     0.074 A 
ATOM     60  C   UNL A   1      42.919  30.727  36.919  1.00  0.00     0.029 A 
ATOM     61  N   UNL A   1      41.522  30.951  35.203  1.00  0.00    -0.354 N 
ATOM     62  N   UNL A   1      39.348  32.234  33.684  1.00  0.00    -0.248 NA
ATOM     63  C   UNL A   1      37.658  33.840  33.528  1.00  0.00     0.031 C 
ATOM     64  C   UNL A   1      42.050  31.788  37.190  1.00  0.00     0.029 A 
ATOM     65  C   UNL A   1      41.196  31.945  36.109  1.00  0.00     0.049 A 
ATOM     66  H   UNL A   1      41.075  30.807  34.338  1.00  0.00     0.167 HD
ATOM     67  C   UNL A   1      39.359  33.020  34.831  1.00  0.00     0.074 A 
ATOM     68  C   UNL A   1      38.317  34.012  34.666  1.00  0.00     0.031 C 
ATOM     69  C   UNL A   1      40.161  32.931  35.921  1.00  0.00     0.037 A 
BRANCH  56  70
ATOM     70  C   UNL A   1      44.246  28.289  35.706  1.00  0.00     0.058 A 
ATOM     71  C   UNL A   1      43.961  27.223  36.575  1.00  0.00     0.135 A 
ATOM     72  C   UNL A   1      45.595  28.603  35.477  1.00  0.00     0.135 A 
ATOM     73  F   UNL A   1      42.689  26.892  36.847  1.00  0.00    -0.206 F 
ATOM     74  C   UNL A   1      44.973  26.519  37.219  1.00  0.00     0.059 A 
ATOM     75  C   UNL A   1      46.624  27.891  36.085  1.00  0.00     0.059 A 
ATOM     76  F   UNL A   1      45.924  29.614  34.658  1.00  0.00    -0.206 F 
ATOM     77  C   UNL A   1      46.302  26.860  36.967  1.00  0.00     0.060 A 
BRANCH  77  78
ATOM     78  S   UNL A   1      47.602  25.931  37.806  1.00  0.00     0.124 S 
ATOM     79  O   UNL A   1      47.781  24.800  36.902  1.00  0.00    -0.237 OA
ATOM     80  O   UNL A   1      48.699  26.893  37.841  1.00  0.00    -0.237 OA
ATOM     81  O   UNL A   1      47.011  25.612  39.101  1.00  0.00    -0.744 OA
ENDBRANCH  77  78
ENDBRANCH  56  70
BRANCH  57  82
ATOM     82  C   UNL A   1      36.824  32.945  30.860  1.00  0.00     0.058 A 
ATOM     83  C   UNL A   1      35.490  32.626  31.156  1.00  0.00     0.135 A 
ATOM     84  C   UNL A   1      37.057  33.931  29.888  1.00  0.00     0.135 A 
ATOM     85  F   UNL A   1      35.214  31.687  32.074  1.00  0.00    -0.206 F 
ATOM     86  C   UNL A   1      34.428  33.246  30.504  1.00  0.00     0.059 A 
ATOM     87  C   UNL A   1      36.012  34.584  29.241  1.00  0.00     0.059 A 
ATOM     88  F   UNL A   1      38.315  34.287  29.580  1.00  0.00    -0.206 F 
ATOM     89  C   UNL A   1      34.700  34.226  29.548  1.00  0.00     0.060 A 
BRANCH  89  90
ATOM     90  S   UNL A   1      33.315  35.056  28.742  1.00  0.00     0.124 S 
ATOM     91  O   UNL A   1      32.742  33.972  27.952  1.00  0.00    -0.237 OA
ATOM     92  O   UNL A   1      32.521  35.504  29.882  1.00  0.00    -0.237 OA
ATOM     93  O   UNL A   1      33.959  36.122  27.980  1.00  0.00    -0.744 OA
ENDBRANCH  89  90
ENDBRANCH  57  82
BRANCH  69  94
ATOM     94  C   UNL A   1      39.974  33.955  37.006  1.00  0.00     0.058 A 
ATOM     95  C   UNL A   1      40.637  35.192  36.979  1.00  0.00     0.135 A 
ATOM     96  C   UNL A   1      39.071  33.716  38.055  1.00  0.00     0.135 A 
ATOM     97  F   UNL A   1      41.515  35.467  36.001  1.00  0.00    -0.206 F 
ATOM     98  C   UNL A   1      40.428  36.148  37.968  1.00  0.00     0.059 A 
ATOM     99  C   UNL A   1      38.825  34.670  39.037  1.00  0.00     0.059 A 
ATOM    100  F   UNL A   1      38.402  32.555  38.121  1.00  0.00    -0.206 F 
ATOM    101  C   UNL A   1      39.518  35.878  38.991  1.00  0.00     0.060 A 
BRANCH 101 102
ATOM    102  S   UNL A   1      39.230  37.143  40.246  1.00  0.00     0.124 S 
ATOM    103  O   UNL A   1      38.447  36.406  41.233  1.00  0.00    -0.237 OA
ATOM    104  O   UNL A   1      40.587  37.498  40.650  1.00  0.00    -0.237 OA
ATOM    105  O   UNL A   1      38.506  38.183  39.521  1.00  0.00    -0.744 OA
ENDBRANCH 101 102
ENDBRANCH  69  94
ENDBRANCH  43  44
ENDBRANCH  35  38
ENDBRANCH  33  34
ENDBRANCH  32  33
ENDBRANCH   1  32
TORSDOF 17
ENDMDL
MODEL 2
REMARK VINA RESULT:     -12.4      0.910      1.943
REMARK SMILES CC1=C(C(=O)NCCCCNC(=O)c2ccc(-c3c4nc(c(-c5c(F)cc(S(=O)(=O)[O-])cc5F)c5ccc([nH]5)c(-c5c(F)cc(S(=O)(=O)[O-])cc5F)c5nc(c(-c6c(F)cc(S(=O)(=O)[O-])cc6F)c6ccc3[nH]6)C=C5)C=C4)cc2)N2C(=O)[C@H](NC(=O)c3c(Cl)c(C(F)(F)F)nn3C)[C@@H]2SC1
REMARK SMILES IDX 8 1 7 2 6 3 4 4 5 5 3 7 1 8 2 9 100 10 80 11 99 12 81 13
REMARK SMILES IDX 98 14 82 15 83 16 84 17 85 18 86 20 87 21 88 22 96 23 89 24
REMARK SMILES IDX 90 25 95 26 97 27 91 28 92 29 93 30 94 31 9 32 10 33 11 34
REMARK SMILES IDX 12 35 13 37 14 38 15 39 79 40 16 41 78 42 17 43 18 44 19 45
REMARK SMILES IDX 72 46 20 47 77 48 71 49 73 50 21 51 76 52 70 53 69 54 22 56
REMARK SMILES IDX 56 57 35 58 55 59 36 60 39 61 54 62 74 63 37 64 38 65 53 67
REMARK SMILES IDX 75 68 40 69 23 70 24 71 33 72 25 73 26 74 32 75 34 76 27 77
REMARK SMILES IDX 28 78 29 79 30 80 31 81 57 82 58 83 67 84 59 85 60 86 66 87
REMARK SMILES IDX 68 88 61 89 62 90 63 91 64 92 65 93 41 94 42 95 51 96 43 97
REMARK SMILES IDX 44 98 50 99 52 100 45 101 46 102 47 103 48 104 49 105
REMARK H PARENT 6 6 84 19 11 36 73 55 39 66
REMARK Flexibility Score: inf
ROOT
ATOM      1  C   UNL A   1      39.440  22.285  26.202  1.00  0.00     0.023 C 
ENDROOT
BRANCH   1   2
ATOM      2  C   UNL A   1      38.339  23.340  26.383  1.00  0.00     0.116 C 
BRANCH   2   3
ATOM      3  N   UNL A   1      37.788  23.663  25.088  1.00  0.00    -0.351 N 
ATOM      4  C   UNL A   1      36.849  23.065  24.318  1.00  0.00     0.268 C 
ATOM      5  O   UNL A   1      36.845  23.362  23.118  1.00  0.00    -0.268 OA
ATOM      6  H   UNL A   1      38.170  24.477  24.687  1.00  0.00     0.163 HD
BRANCH   4   7
ATOM      7  C   UNL A   1      35.771  22.117  24.813  1.00  0.00     0.110 C 
ATOM      8  C   UNL A   1      36.917  19.844  24.604  1.00  0.00     0.043 C 
ATOM      9  C   UNL A   1      35.780  20.762  24.947  1.00  0.00    -0.034 C 
ATOM     10  C   UNL A   1      34.586  19.923  25.401  1.00  0.00     0.104 C 
ATOM     11  N   UNL A   1      34.562  22.739  24.946  1.00  0.00    -0.290 N 
ATOM     12  S   UNL A   1      33.070  20.808  25.817  1.00  0.00    -0.129 SA
ATOM     13  C   UNL A   1      34.062  23.975  25.134  1.00  0.00     0.253 C 
ATOM     14  C   UNL A   1      33.337  22.093  24.567  1.00  0.00     0.181 C 
ATOM     15  O   UNL A   1      34.550  25.021  25.503  1.00  0.00    -0.272 OA
ATOM     16  C   UNL A   1      32.623  23.463  24.780  1.00  0.00     0.206 C 
BRANCH  16  17
ATOM     17  N   UNL A   1      31.608  23.496  25.858  1.00  0.00    -0.336 N 
ATOM     18  C   UNL A   1      30.708  24.479  26.182  1.00  0.00     0.271 C 
ATOM     19  H   UNL A   1      31.574  22.692  26.426  1.00  0.00     0.164 HD
ATOM     20  O   UNL A   1      29.906  24.254  27.085  1.00  0.00    -0.267 OA
BRANCH  18  21
ATOM     21  C   UNL A   1      30.756  25.737  25.489  1.00  0.00     0.145 A 
ATOM     22  C   UNL A   1      30.398  25.985  24.177  1.00  0.00     0.104 A 
ATOM     23  N   UNL A   1      31.300  26.917  25.925  1.00  0.00    -0.261 N 
ATOM     24  Cl  UNL A   1      29.757  24.886  23.050  1.00  0.00    -0.079 Cl
ATOM     25  C   UNL A   1      30.661  27.356  23.941  1.00  0.00     0.185 A 
ATOM     26  N   UNL A   1      31.181  27.930  25.045  1.00  0.00    -0.166 NA
ATOM     27  C   UNL A   1      32.021  27.182  27.148  1.00  0.00     0.174 C 
BRANCH  25  28
ATOM     28  C   UNL A   1      30.434  28.097  22.658  1.00  0.00     0.436 C 
ATOM     29  F   UNL A   1      30.984  27.449  21.595  1.00  0.00    -0.164 F 
ATOM     30  F   UNL A   1      29.110  28.245  22.378  1.00  0.00    -0.164 F 
ATOM     31  F   UNL A   1      30.964  29.351  22.657  1.00  0.00    -0.164 F 
ENDBRANCH  25  28
ENDBRANCH  18  21
ENDBRANCH  16  17
ENDBRANCH   4   7
ENDBRANCH   2   3
ENDBRANCH   1   2
BRANCH   1  32
ATOM     32  C   UNL A   1      40.413  22.139  27.365  1.00  0.00     0.023 C 
BRANCH  32  33
ATOM     33  C   UNL A   1      41.562  23.128  27.338  1.00  0.00     0.116 C 
BRANCH  33  34
ATOM     34  N   UNL A   1      41.579  23.971  26.149  1.00  0.00    -0.352 N 
ATOM     35  C   UNL A   1      41.505  25.343  26.089  1.00  0.00     0.251 C 
ATOM     36  H   UNL A   1      41.651  23.503  25.286  1.00  0.00     0.163 HD
ATOM     37  O   UNL A   1      41.445  25.920  25.010  1.00  0.00    -0.269 OA
BRANCH  35  38
ATOM     38  C   UNL A   1      41.445  26.094  27.359  1.00  0.00     0.039 A 
ATOM     39  C   UNL A   1      42.445  27.025  27.641  1.00  0.00     0.014 A 
ATOM     40  C   UNL A   1      40.341  25.953  28.202  1.00  0.00     0.014 A 
ATOM     41  C   UNL A   1      42.295  27.872  28.740  1.00  0.00     0.010 A 
ATOM     42  C   UNL A   1      40.147  26.863  29.232  1.00  0.00     0.010 A 
ATOM     43  C   UNL A   1      41.126  27.826  29.516  1.00  0.00    -0.014 A 
BRANCH  43  44
ATOM     44  C   UNL A   1      40.908  28.765  30.645  1.00  0.00     0.031 A 
ATOM     45  C   UNL A   1      41.737  28.630  31.893  1.00  0.00     0.074 A 
ATOM     46  C   UNL A   1      39.926  29.686  30.574  1.00  0.00     0.049 A 
ATOM     47  N   UNL A   1      41.656  29.297  33.015  1.00  0.00    -0.248 NA
ATOM     48  C   UNL A   1      42.771  27.581  31.894  1.00  0.00     0.031 C 
ATOM     49  C   UNL A   1      39.017  29.872  29.441  1.00  0.00     0.029 A 
ATOM     50  N   UNL A   1      39.520  30.632  31.481  1.00  0.00    -0.354 N 
ATOM     51  C   UNL A   1      42.613  28.739  33.854  1.00  0.00     0.074 A 
ATOM     52  C   UNL A   1      43.216  27.637  33.140  1.00  0.00     0.031 C 
ATOM     53  C   UNL A   1      38.182  30.888  29.708  1.00  0.00     0.029 A 
ATOM     54  C   UNL A   1      38.467  31.402  31.044  1.00  0.00     0.049 A 
ATOM     55  H   UNL A   1      39.945  30.751  32.361  1.00  0.00     0.167 HD
ATOM     56  C   UNL A   1      42.979  29.130  35.097  1.00  0.00     0.037 A 
ATOM     57  C   UNL A   1      37.805  32.404  31.655  1.00  0.00     0.037 A 
ATOM     58  C   UNL A   1      42.396  30.249  35.788  1.00  0.00     0.049 A 
ATOM     59  C   UNL A   1      38.236  32.828  33.034  1.00  0.00     0.074 A 
ATOM     60  C   UNL A   1      42.736  30.769  37.023  1.00  0.00     0.029 A 
ATOM     61  N   UNL A   1      41.352  31.023  35.301  1.00  0.00    -0.354 N 
ATOM     62  N   UNL A   1      39.191  32.335  33.787  1.00  0.00    -0.248 NA
ATOM     63  C   UNL A   1      37.506  33.947  33.645  1.00  0.00     0.031 C 
ATOM     64  C   UNL A   1      41.868  31.829  37.304  1.00  0.00     0.029 A 
ATOM     65  C   UNL A   1      41.022  32.004  36.220  1.00  0.00     0.049 A 
ATOM     66  H   UNL A   1      40.911  30.894  34.431  1.00  0.00     0.167 HD
ATOM     67  C   UNL A   1      39.196  33.103  34.947  1.00  0.00     0.074 A 
ATOM     68  C   UNL A   1      38.157  34.100  34.789  1.00  0.00     0.031 C 
ATOM     69  C   UNL A   1      39.991  32.996  36.040  1.00  0.00     0.037 A 
BRANCH  56  70
ATOM     70  C   UNL A   1      44.066  28.348  35.781  1.00  0.00     0.058 A 
ATOM     71  C   UNL A   1      45.423  28.665  35.609  1.00  0.00     0.135 A 
ATOM     72  C   UNL A   1      43.749  27.284  36.640  1.00  0.00     0.135 A 
ATOM     73  F   UNL A   1      45.786  29.661  34.784  1.00  0.00    -0.206 F 
ATOM     74  C   UNL A   1      46.427  27.935  36.235  1.00  0.00     0.059 A 
ATOM     75  C   UNL A   1      44.735  26.559  37.302  1.00  0.00     0.059 A 
ATOM     76  F   UNL A   1      42.468  26.935  36.840  1.00  0.00    -0.206 F 
ATOM     77  C   UNL A   1      46.073  26.883  37.081  1.00  0.00     0.060 A 
BRANCH  77  78
ATOM     78  S   UNL A   1      47.389  25.950  37.890  1.00  0.00     0.124 S 
ATOM     79  O   UNL A   1      46.629  24.909  38.574  1.00  0.00    -0.237 OA
ATOM     80  O   UNL A   1      48.197  25.505  36.758  1.00  0.00    -0.237 OA
ATOM     81  O   UNL A   1      48.022  26.938  38.758  1.00  0.00    -0.744 OA
ENDBRANCH  77  78
ENDBRANCH  56  70
BRANCH  57  82
ATOM     82  C   UNL A   1      36.688  33.095  30.957  1.00  0.00     0.058 A 
ATOM     83  C   UNL A   1      36.938  34.019  29.931  1.00  0.00     0.135 A 
ATOM     84  C   UNL A   1      35.348  32.841  31.293  1.00  0.00     0.135 A 
ATOM     85  F   UNL A   1      38.202  34.300  29.576  1.00  0.00    -0.206 F 
ATOM     86  C   UNL A   1      35.904  34.679  29.274  1.00  0.00     0.059 A 
ATOM     87  C   UNL A   1      34.296  33.470  30.633  1.00  0.00     0.059 A 
ATOM     88  F   UNL A   1      35.053  31.952  32.254  1.00  0.00    -0.206 F 
ATOM     89  C   UNL A   1      34.585  34.395  29.631  1.00  0.00     0.060 A 
BRANCH  89  90
ATOM     90  S   UNL A   1      33.250  35.224  28.741  1.00  0.00     0.124 S 
ATOM     91  O   UNL A   1      32.481  35.803  29.837  1.00  0.00    -0.237 OA
ATOM     92  O   UNL A   1      33.982  36.170  27.904  1.00  0.00    -0.237 OA
ATOM     93  O   UNL A   1      32.601  34.134  28.020  1.00  0.00    -0.744 OA
ENDBRANCH  89  90
ENDBRANCH  57  82
BRANCH  69  94
ATOM     94  C   UNL A   1      39.798  34.003  37.140  1.00  0.00     0.058 A 
ATOM     95  C   UNL A   1      39.016  33.723  38.271  1.00  0.00     0.135 A 
ATOM     96  C   UNL A   1      40.455  35.243  37.087  1.00  0.00     0.135 A 
ATOM     97  F   UNL A   1      38.363  32.553  38.368  1.00  0.00    -0.206 F 
ATOM     98  C   UNL A   1      38.874  34.646  39.302  1.00  0.00     0.059 A 
ATOM     99  C   UNL A   1      40.350  36.169  38.119  1.00  0.00     0.059 A 
ATOM    100  F   UNL A   1      41.224  35.556  36.032  1.00  0.00    -0.206 F 
ATOM    101  C   UNL A   1      39.548  35.866  39.217  1.00  0.00     0.060 A 
BRANCH 101 102
ATOM    102  S   UNL A   1      39.384  37.040  40.578  1.00  0.00     0.124 S 
ATOM    103  O   UNL A   1      40.771  37.196  41.002  1.00  0.00    -0.237 OA
ATOM    104  O   UNL A   1      38.786  38.199  39.921  1.00  0.00    -0.237 OA
ATOM    105  O   UNL A   1      38.513  36.346  41.523  1.00  0.00    -0.744 OA
ENDBRANCH 101 102
ENDBRANCH  69  94
ENDBRANCH  43  44
ENDBRANCH  35  38
ENDBRANCH  33  34
ENDBRANCH  32  33
ENDBRANCH   1  32
TORSDOF 17
ENDMDL
MODEL 3
REMARK VINA RESULT:     -12.3      1.375      2.185
REMARK SMILES CC1=C(C(=O)NCCCCNC(=O)c2ccc(-c3c4nc(c(-c5c(F)cc(S(=O)(=O)[O-])cc5F)c5ccc([nH]5)c(-c5c(F)cc(S(=O)(=O)[O-])cc5F)c5nc(c(-c6c(F)cc(S(=O)(=O)[O-])cc6F)c6ccc3[nH]6)C=C5)C=C4)cc2)N2C(=O)[C@H](NC(=O)c3c(Cl)c(C(F)(F)F)nn3C)[C@@H]2SC1
REMARK SMILES IDX 8 1 7 2 6 3 4 4 5 5 3 7 1 8 2 9 100 10 80 11 99 12 81 13
REMARK SMILES IDX 98 14 82 15 83 16 84 17 85 18 86 20 87 21 88 22 96 23 89 24
REMARK SMILES IDX 90 25 95 26 97 27 91 28 92 29 93 30 94 31 9 32 10 33 11 34
REMARK SMILES IDX 12 35 13 37 14 38 15 39 79 40 16 41 78 42 17 43 18 44 19 45
REMARK SMILES IDX 72 46 20 47 77 48 71 49 73 50 21 51 76 52 70 53 69 54 22 56
REMARK SMILES IDX 56 57 35 58 55 59 36 60 39 61 54 62 74 63 37 64 38 65 53 67
REMARK SMILES IDX 75 68 40 69 23 70 24 71 33 72 25 73 26 74 32 75 34 76 27 77
REMARK SMILES IDX 28 78 29 79 30 80 31 81 57 82 58 83 67 84 59 85 60 86 66 87
REMARK SMILES IDX 68 88 61 89 62 90 63 91 64 92 65 93 41 94 42 95 51 96 43 97
REMARK SMILES IDX 44 98 50 99 52 100 45 101 46 102 47 103 48 104 49 105
REMARK H PARENT 6 6 84 19 11 36 73 55 39 66
REMARK Flexibility Score: inf
ROOT
ATOM      1  C   UNL A   1      38.073  23.068  25.688  1.00  0.00     0.023 C 
ENDROOT
BRANCH   1   2
ATOM      2  C   UNL A   1      37.053  22.054  25.151  1.00  0.00     0.116 C 
BRANCH   2   3
ATOM      3  N   UNL A   1      36.202  21.633  26.239  1.00  0.00    -0.351 N 
ATOM      4  C   UNL A   1      34.858  21.531  26.362  1.00  0.00     0.268 C 
ATOM      5  O   UNL A   1      34.409  21.488  27.514  1.00  0.00    -0.268 OA
ATOM      6  H   UNL A   1      36.696  21.368  27.048  1.00  0.00     0.163 HD
BRANCH   4   7
ATOM      7  C   UNL A   1      33.871  21.404  25.215  1.00  0.00     0.110 C 
ATOM      8  C   UNL A   1      33.900  18.892  24.755  1.00  0.00     0.043 C 
ATOM      9  C   UNL A   1      33.450  20.306  24.529  1.00  0.00    -0.034 C 
ATOM     10  C   UNL A   1      32.491  20.335  23.340  1.00  0.00     0.104 C 
ATOM     11  N   UNL A   1      33.530  22.621  24.695  1.00  0.00    -0.290 N 
ATOM     12  S   UNL A   1      31.854  21.948  22.837  1.00  0.00    -0.129 SA
ATOM     13  C   UNL A   1      33.481  23.914  25.066  1.00  0.00     0.253 C 
ATOM     14  C   UNL A   1      33.379  22.820  23.282  1.00  0.00     0.181 C 
ATOM     15  O   UNL A   1      33.513  24.473  26.141  1.00  0.00    -0.272 OA
ATOM     16  C   UNL A   1      33.274  24.348  23.574  1.00  0.00     0.206 C 
BRANCH  16  17
ATOM     17  N   UNL A   1      31.980  24.980  23.225  1.00  0.00    -0.336 N 
ATOM     18  C   UNL A   1      31.570  26.279  23.386  1.00  0.00     0.271 C 
ATOM     19  H   UNL A   1      31.316  24.378  22.816  1.00  0.00     0.164 HD
ATOM     20  O   UNL A   1      30.463  26.594  22.954  1.00  0.00    -0.267 OA
BRANCH  18  21
ATOM     21  C   UNL A   1      32.420  27.208  24.078  1.00  0.00     0.145 A 
ATOM     22  C   UNL A   1      32.301  27.636  25.388  1.00  0.00     0.104 A 
ATOM     23  N   UNL A   1      33.427  27.976  23.556  1.00  0.00    -0.261 N 
ATOM     24  Cl  UNL A   1      31.157  27.141  26.543  1.00  0.00    -0.079 Cl
ATOM     25  C   UNL A   1      33.338  28.578  25.597  1.00  0.00     0.185 A 
ATOM     26  N   UNL A   1      34.053  28.748  24.466  1.00  0.00    -0.166 NA
ATOM     27  C   UNL A   1      33.846  28.102  22.179  1.00  0.00     0.174 C 
BRANCH  25  28
ATOM     28  C   UNL A   1      33.620  29.321  26.867  1.00  0.00     0.436 C 
ATOM     29  F   UNL A   1      34.711  28.824  27.512  1.00  0.00    -0.164 F 
ATOM     30  F   UNL A   1      33.870  30.641  26.645  1.00  0.00    -0.164 F 
ATOM     31  F   UNL A   1      32.594  29.273  27.760  1.00  0.00    -0.164 F 
ENDBRANCH  25  28
ENDBRANCH  18  21
ENDBRANCH  16  17
ENDBRANCH   4   7
ENDBRANCH   2   3
ENDBRANCH   1   2
BRANCH   1  32
ATOM     32  C   UNL A   1      39.152  22.500  26.601  1.00  0.00     0.023 C 
BRANCH  32  33
ATOM     33  C   UNL A   1      40.134  23.534  27.117  1.00  0.00     0.116 C 
BRANCH  33  34
ATOM     34  N   UNL A   1      41.020  24.063  26.087  1.00  0.00    -0.352 N 
ATOM     35  C   UNL A   1      41.484  25.351  25.956  1.00  0.00     0.251 C 
ATOM     36  H   UNL A   1      41.320  23.423  25.402  1.00  0.00     0.163 HD
ATOM     37  O   UNL A   1      42.159  25.678  24.987  1.00  0.00    -0.269 OA
BRANCH  35  38
ATOM     38  C   UNL A   1      41.101  26.338  26.986  1.00  0.00     0.039 A 
ATOM     39  C   UNL A   1      40.266  25.937  28.029  1.00  0.00     0.014 A 
ATOM     40  C   UNL A   1      41.665  27.616  26.972  1.00  0.00     0.014 A 
ATOM     41  C   UNL A   1      40.056  26.802  29.103  1.00  0.00     0.010 A 
ATOM     42  C   UNL A   1      41.537  28.431  28.088  1.00  0.00     0.010 A 
ATOM     43  C   UNL A   1      40.725  28.036  29.161  1.00  0.00    -0.014 A 
BRANCH  43  44
ATOM     44  C   UNL A   1      40.577  28.943  30.326  1.00  0.00     0.031 A 
ATOM     45  C   UNL A   1      41.455  28.751  31.532  1.00  0.00     0.074 A 
ATOM     46  C   UNL A   1      39.614  29.887  30.326  1.00  0.00     0.049 A 
ATOM     47  N   UNL A   1      41.437  29.385  32.676  1.00  0.00    -0.248 NA
ATOM     48  C   UNL A   1      42.464  27.681  31.457  1.00  0.00     0.031 C 
ATOM     49  C   UNL A   1      38.662  30.129  29.239  1.00  0.00     0.029 A 
ATOM     50  N   UNL A   1      39.270  30.814  31.277  1.00  0.00    -0.354 N 
ATOM     51  C   UNL A   1      42.417  28.780  33.456  1.00  0.00     0.074 A 
ATOM     52  C   UNL A   1      42.962  27.689  32.683  1.00  0.00     0.031 C 
ATOM     53  C   UNL A   1      37.863  31.154  29.572  1.00  0.00     0.029 A 
ATOM     54  C   UNL A   1      38.217  31.619  30.910  1.00  0.00     0.049 A 
ATOM     55  H   UNL A   1      39.734  30.896  32.142  1.00  0.00     0.167 HD
ATOM     56  C   UNL A   1      42.844  29.125  34.693  1.00  0.00     0.037 A 
ATOM     57  C   UNL A   1      37.605  32.616  31.579  1.00  0.00     0.037 A 
ATOM     58  C   UNL A   1      42.317  30.234  35.442  1.00  0.00     0.049 A 
ATOM     59  C   UNL A   1      38.104  32.988  32.950  1.00  0.00     0.074 A 
ATOM     60  C   UNL A   1      42.721  30.708  36.677  1.00  0.00     0.029 A 
ATOM     61  N   UNL A   1      41.272  31.045  35.024  1.00  0.00    -0.354 N 
ATOM     62  N   UNL A   1      39.079  32.450  33.646  1.00  0.00    -0.248 NA
ATOM     63  C   UNL A   1      37.427  34.103  33.625  1.00  0.00     0.031 C 
ATOM     64  C   UNL A   1      41.891  31.777  37.027  1.00  0.00     0.029 A 
ATOM     65  C   UNL A   1      41.004  32.005  35.986  1.00  0.00     0.049 A 
ATOM     66  H   UNL A   1      40.791  30.953  34.170  1.00  0.00     0.167 HD
ATOM     67  C   UNL A   1      39.151  33.182  34.827  1.00  0.00     0.074 A 
ATOM     68  C   UNL A   1      38.130  34.206  34.745  1.00  0.00     0.031 C 
ATOM     69  C   UNL A   1      39.989  33.023  35.881  1.00  0.00     0.037 A 
BRANCH  56  70
ATOM     70  C   UNL A   1      43.941  28.298  35.306  1.00  0.00     0.058 A 
ATOM     71  C   UNL A   1      45.297  28.597  35.092  1.00  0.00     0.135 A 
ATOM     72  C   UNL A   1      43.636  27.209  36.137  1.00  0.00     0.135 A 
ATOM     73  F   UNL A   1      45.647  29.615  34.290  1.00  0.00    -0.206 F 
ATOM     74  C   UNL A   1      46.309  27.826  35.652  1.00  0.00     0.059 A 
ATOM     75  C   UNL A   1      44.633  26.442  36.733  1.00  0.00     0.059 A 
ATOM     76  F   UNL A   1      42.357  26.876  36.374  1.00  0.00    -0.206 F 
ATOM     77  C   UNL A   1      45.967  26.750  36.472  1.00  0.00     0.060 A 
BRANCH  77  78
ATOM     78  S   UNL A   1      47.294  25.764  37.195  1.00  0.00     0.124 S 
ATOM     79  O   UNL A   1      48.476  26.491  36.743  1.00  0.00    -0.237 OA
ATOM     80  O   UNL A   1      47.005  25.851  38.623  1.00  0.00    -0.237 OA
ATOM     81  O   UNL A   1      47.103  24.446  36.599  1.00  0.00    -0.744 OA
ENDBRANCH  77  78
ENDBRANCH  56  70
BRANCH  57  82
ATOM     82  C   UNL A   1      36.476  33.353  30.951  1.00  0.00     0.058 A 
ATOM     83  C   UNL A   1      36.694  34.238  29.884  1.00  0.00     0.135 A 
ATOM     84  C   UNL A   1      35.155  33.182  31.396  1.00  0.00     0.135 A 
ATOM     85  F   UNL A   1      37.939  34.440  29.426  1.00  0.00    -0.206 F 
ATOM     86  C   UNL A   1      35.649  34.940  29.292  1.00  0.00     0.059 A 
ATOM     87  C   UNL A   1      34.089  33.853  30.803  1.00  0.00     0.059 A 
ATOM     88  F   UNL A   1      34.889  32.332  32.401  1.00  0.00    -0.206 F 
ATOM     89  C   UNL A   1      34.348  34.739  29.758  1.00  0.00     0.060 A 
BRANCH  89  90
ATOM     90  S   UNL A   1      32.994  35.621  28.952  1.00  0.00     0.124 S 
ATOM     91  O   UNL A   1      32.380  34.559  28.163  1.00  0.00    -0.237 OA
ATOM     92  O   UNL A   1      32.219  36.099  30.093  1.00  0.00    -0.237 OA
ATOM     93  O   UNL A   1      33.678  36.660  28.189  1.00  0.00    -0.744 OA
ENDBRANCH  89  90
ENDBRANCH  57  82
BRANCH  69  94
ATOM     94  C   UNL A   1      39.867  34.000  37.018  1.00  0.00     0.058 A 
ATOM     95  C   UNL A   1      40.596  35.199  37.045  1.00  0.00     0.135 A 
ATOM     96  C   UNL A   1      38.961  33.758  38.064  1.00  0.00     0.135 A 
ATOM     97  F   UNL A   1      41.479  35.475  36.072  1.00  0.00    -0.206 F 
ATOM     98  C   UNL A   1      40.448  36.114  38.082  1.00  0.00     0.059 A 
ATOM     99  C   UNL A   1      38.776  34.673  39.095  1.00  0.00     0.059 A 
ATOM    100  F   UNL A   1      38.231  32.632  38.080  1.00  0.00    -0.206 F 
ATOM    101  C   UNL A   1      39.533  35.843  39.101  1.00  0.00     0.060 A 
BRANCH 101 102
ATOM    102  S   UNL A   1      39.325  37.056  40.421  1.00  0.00     0.124 S 
ATOM    103  O   UNL A   1      40.701  37.485  40.647  1.00  0.00    -0.237 OA
ATOM    104  O   UNL A   1      38.446  38.044  39.802  1.00  0.00    -0.237 OA
ATOM    105  O   UNL A   1      38.724  36.282  41.504  1.00  0.00    -0.744 OA
ENDBRANCH 101 102
ENDBRANCH  69  94
ENDBRANCH  43  44
ENDBRANCH  35  38
ENDBRANCH  33  34
ENDBRANCH  32  33
ENDBRANCH   1  32
TORSDOF 17
ENDMDL
