MODEL 1
REMARK VINA RESULT:     -13.5      0.000      0.000
REMARK SMILES O=C(NCCCCNC(=O)[C@H]1[C@H]2CC[C@H](CC2)[C@@H]1C(=O)Nc1sc2c(c1C(=O)N1CCCCC1)CCCC2)c1ccc(-c2c3nc(c(-c4c(F)cc(S(=O)(=O)[O-])cc4F)c4ccc([nH]4)c(-c4c(F)cc(S(=O)(=O)[O-])cc4F)c4nc(c(-c5c(F)cc(S(=O)(=O)[O-])cc5F)c5ccc2[nH]5)C=C4)C=C3)cc1
REMARK SMILES IDX 5 1 4 2 3 3 1 4 2 5 39 7 40 8 104 9 41 10 103 11 42 12 43 13
REMARK SMILES IDX 44 14 97 15 45 16 102 17 96 18 98 19 46 20 101 21 95 22
REMARK SMILES IDX 94 23 47 25 81 26 60 27 80 28 61 29 64 30 79 31 99 32 62 33
REMARK SMILES IDX 63 34 78 36 100 37 65 38 48 39 49 40 58 41 50 42 51 43 57 44
REMARK SMILES IDX 59 45 52 46 53 47 54 48 55 49 56 50 82 51 83 52 92 53 84 54
REMARK SMILES IDX 85 55 91 56 93 57 86 58 87 59 88 60 89 61 90 62 66 63 67 64
REMARK SMILES IDX 76 65 68 66 69 67 75 68 77 69 70 70 71 71 72 72 73 73 74 74
REMARK SMILES IDX 6 75 7 76 8 77 9 78 10 80 11 81 12 82 18 83 13 84 17 85
REMARK SMILES IDX 15 86 14 87 16 88 19 89 20 90 21 91 22 93 23 94 26 95 24 96
REMARK SMILES IDX 25 97 38 98 35 99 37 100 36 101 27 102 28 103 29 104 30 105
REMARK SMILES IDX 34 106 31 107 33 108 32 109
REMARK H PARENT 3 6 98 24 64 35 8 79 21 92
REMARK Flexibility Score: inf
ROOT
ATOM      1  C   UNL A   1      37.155  23.342  25.313  1.00  0.00     0.023 C 
ENDROOT
BRANCH   1   2
ATOM      2  C   UNL A   1      38.037  24.062  26.320  1.00  0.00     0.116 C 
BRANCH   2   3
ATOM      3  N   UNL A   1      39.469  23.887  26.084  1.00  0.00    -0.352 N 
ATOM      4  O   UNL A   1      41.671  24.387  26.200  1.00  0.00    -0.269 OA
ATOM      5  C   UNL A   1      40.529  24.626  26.563  1.00  0.00     0.251 C 
ATOM      6  H   UNL A   1      39.710  23.131  25.500  1.00  0.00     0.163 HD
BRANCH   5   7
ATOM      7  C   UNL A   1      40.244  25.744  27.482  1.00  0.00     0.039 A 
ATOM      8  C   UNL A   1      40.916  26.954  27.322  1.00  0.00     0.014 A 
ATOM      9  C   UNL A   1      39.402  25.535  28.576  1.00  0.00     0.014 A 
ATOM     10  C   UNL A   1      40.938  27.855  28.373  1.00  0.00     0.010 A 
ATOM     11  C   UNL A   1      39.324  26.509  29.576  1.00  0.00     0.010 A 
ATOM     12  C   UNL A   1      40.141  27.648  29.513  1.00  0.00    -0.014 A 
BRANCH  12  13
ATOM     13  C   UNL A   1      40.181  28.657  30.603  1.00  0.00     0.031 A 
ATOM     14  C   UNL A   1      39.158  29.760  30.692  1.00  0.00     0.074 A 
ATOM     15  C   UNL A   1      41.117  28.521  31.562  1.00  0.00     0.049 A 
ATOM     16  N   UNL A   1      39.034  30.693  31.602  1.00  0.00    -0.248 NA
ATOM     17  C   UNL A   1      38.152  29.840  29.621  1.00  0.00     0.031 C 
ATOM     18  C   UNL A   1      42.163  27.493  31.574  1.00  0.00     0.029 A 
ATOM     19  N   UNL A   1      41.320  29.210  32.728  1.00  0.00    -0.354 N 
ATOM     20  C   UNL A   1      37.974  31.494  31.194  1.00  0.00     0.074 A 
ATOM     21  C   UNL A   1      37.488  30.942  29.947  1.00  0.00     0.031 C 
ATOM     22  C   UNL A   1      42.835  27.561  32.730  1.00  0.00     0.029 A 
ATOM     23  C   UNL A   1      42.329  28.689  33.502  1.00  0.00     0.049 A 
ATOM     24  H   UNL A   1      40.795  30.001  32.987  1.00  0.00     0.167 HD
ATOM     25  C   UNL A   1      37.455  32.588  31.805  1.00  0.00     0.037 A 
ATOM     26  C   UNL A   1      42.807  29.079  34.697  1.00  0.00     0.037 A 
ATOM     27  C   UNL A   1      37.917  33.099  33.071  1.00  0.00     0.049 A 
ATOM     28  C   UNL A   1      42.200  30.277  35.360  1.00  0.00     0.074 A 
ATOM     29  C   UNL A   1      37.433  34.176  33.794  1.00  0.00     0.029 A 
ATOM     30  N   UNL A   1      38.966  32.566  33.807  1.00  0.00    -0.354 N 
ATOM     31  N   UNL A   1      41.199  31.021  34.956  1.00  0.00    -0.248 NA
ATOM     32  C   UNL A   1      42.794  30.698  36.634  1.00  0.00     0.031 C 
ATOM     33  C   UNL A   1      38.211  34.314  34.950  1.00  0.00     0.029 A 
ATOM     34  C   UNL A   1      39.154  33.300  34.967  1.00  0.00     0.049 A 
ATOM     35  H   UNL A   1      39.498  31.781  33.543  1.00  0.00     0.167 HD
ATOM     36  C   UNL A   1      41.037  31.997  35.929  1.00  0.00     0.074 A 
ATOM     37  C   UNL A   1      42.029  31.733  36.953  1.00  0.00     0.031 C 
ATOM     38  C   UNL A   1      40.151  33.022  35.970  1.00  0.00     0.037 A 
BRANCH  25  39
ATOM     39  C   UNL A   1      36.348  33.329  31.101  1.00  0.00     0.058 A 
ATOM     40  C   UNL A   1      35.020  33.289  31.551  1.00  0.00     0.135 A 
ATOM     41  C   UNL A   1      36.634  34.122  29.977  1.00  0.00     0.135 A 
ATOM     42  F   UNL A   1      34.686  32.537  32.611  1.00  0.00    -0.206 F 
ATOM     43  C   UNL A   1      34.009  33.988  30.895  1.00  0.00     0.059 A 
ATOM     44  C   UNL A   1      35.644  34.847  29.320  1.00  0.00     0.059 A 
ATOM     45  F   UNL A   1      37.889  34.199  29.505  1.00  0.00    -0.206 F 
ATOM     46  C   UNL A   1      34.330  34.761  29.777  1.00  0.00     0.060 A 
BRANCH  46  47
ATOM     47  S   UNL A   1      33.010  35.657  28.931  1.00  0.00     0.124 S 
ATOM     48  O   UNL A   1      32.370  34.583  28.174  1.00  0.00    -0.237 OA
ATOM     49  O   UNL A   1      32.232  36.195  30.042  1.00  0.00    -0.237 OA
ATOM     50  O   UNL A   1      33.726  36.647  28.134  1.00  0.00    -0.744 OA
ENDBRANCH  46  47
ENDBRANCH  25  39
BRANCH  26  51
ATOM     51  C   UNL A   1      43.920  28.322  35.325  1.00  0.00     0.058 A 
ATOM     52  C   UNL A   1      43.664  27.277  36.222  1.00  0.00     0.135 A 
ATOM     53  C   UNL A   1      45.258  28.595  34.998  1.00  0.00     0.135 A 
ATOM     54  F   UNL A   1      42.400  26.980  36.564  1.00  0.00    -0.206 F 
ATOM     55  C   UNL A   1      44.695  26.528  36.780  1.00  0.00     0.059 A 
ATOM     56  C   UNL A   1      46.305  27.844  35.521  1.00  0.00     0.059 A 
ATOM     57  F   UNL A   1      45.552  29.572  34.127  1.00  0.00    -0.206 F 
ATOM     58  C   UNL A   1      46.013  26.818  36.419  1.00  0.00     0.060 A 
BRANCH  58  59
ATOM     59  S   UNL A   1      47.344  25.802  37.093  1.00  0.00     0.124 S 
ATOM     60  O   UNL A   1      46.764  24.467  37.005  1.00  0.00    -0.237 OA
ATOM     61  O   UNL A   1      48.445  26.083  36.177  1.00  0.00    -0.237 OA
ATOM     62  O   UNL A   1      47.514  26.329  38.444  1.00  0.00    -0.744 OA
ENDBRANCH  58  59
ENDBRANCH  26  51
BRANCH  38  63
ATOM     63  C   UNL A   1      40.210  33.916  37.175  1.00  0.00     0.058 A 
ATOM     64  C   UNL A   1      39.415  33.676  38.306  1.00  0.00     0.135 A 
ATOM     65  C   UNL A   1      41.079  35.018  37.200  1.00  0.00     0.135 A 
ATOM     66  F   UNL A   1      38.561  32.641  38.324  1.00  0.00    -0.206 F 
ATOM     67  C   UNL A   1      39.455  34.518  39.411  1.00  0.00     0.059 A 
ATOM     68  C   UNL A   1      41.153  35.859  38.305  1.00  0.00     0.059 A 
ATOM     69  F   UNL A   1      41.866  35.283  36.146  1.00  0.00    -0.206 F 
ATOM     70  C   UNL A   1      40.325  35.610  39.399  1.00  0.00     0.060 A 
BRANCH  70  71
ATOM     71  S   UNL A   1      40.378  36.695  40.842  1.00  0.00     0.124 S 
ATOM     72  O   UNL A   1      41.491  36.126  41.595  1.00  0.00    -0.237 OA
ATOM     73  O   UNL A   1      40.622  38.004  40.243  1.00  0.00    -0.237 OA
ATOM     74  O   UNL A   1      39.058  36.524  41.442  1.00  0.00    -0.744 OA
ENDBRANCH  70  71
ENDBRANCH  38  63
ENDBRANCH  12  13
ENDBRANCH   5   7
ENDBRANCH   2   3
ENDBRANCH   1   2
BRANCH   1  75
ATOM     75  C   UNL A   1      35.845  24.043  24.995  1.00  0.00     0.023 C 
BRANCH  75  76
ATOM     76  C   UNL A   1      35.107  23.519  23.769  1.00  0.00     0.116 C 
BRANCH  76  77
ATOM     77  N   UNL A   1      34.545  22.198  23.942  1.00  0.00    -0.356 N 
ATOM     78  C   UNL A   1      33.298  21.722  24.166  1.00  0.00     0.224 C 
ATOM     79  H   UNL A   1      35.221  21.484  23.883  1.00  0.00     0.163 HD
ATOM     80  O   UNL A   1      33.190  20.489  24.089  1.00  0.00    -0.275 OA
BRANCH  78  81
ATOM     81  C   UNL A   1      32.083  22.529  24.640  1.00  0.00     0.094 C 
ATOM     82  C   UNL A   1      31.671  22.046  26.065  1.00  0.00     0.002 C 
ATOM     83  C   UNL A   1      32.066  24.090  24.548  1.00  0.00     0.094 C 
ATOM     84  C   UNL A   1      32.682  22.539  27.103  1.00  0.00     0.005 C 
ATOM     85  C   UNL A   1      30.294  22.650  26.415  1.00  0.00     0.005 C 
ATOM     86  C   UNL A   1      31.780  24.613  25.990  1.00  0.00     0.002 C 
ATOM     87  C   UNL A   1      32.794  24.057  27.015  1.00  0.00     0.005 C 
ATOM     88  C   UNL A   1      30.380  24.176  26.435  1.00  0.00     0.005 C 
BRANCH  83  89
ATOM     89  C   UNL A   1      31.121  24.561  23.404  1.00  0.00     0.229 C 
ATOM     90  O   UNL A   1      30.360  23.757  22.849  1.00  0.00    -0.274 OA
ATOM     91  N   UNL A   1      31.124  25.821  22.863  1.00  0.00    -0.317 N 
ATOM     92  H   UNL A   1      30.737  25.925  21.965  1.00  0.00     0.170 HD
BRANCH  91  93
ATOM     93  C   UNL A   1      31.622  26.949  23.467  1.00  0.00     0.108 A 
ATOM     94  S   UNL A   1      33.283  27.005  23.804  1.00  0.00    -0.122 S 
ATOM     95  C   UNL A   1      30.938  28.118  23.781  1.00  0.00     0.078 A 
ATOM     96  C   UNL A   1      33.019  28.311  24.863  1.00  0.00     0.011 A 
ATOM     97  C   UNL A   1      31.766  28.889  24.700  1.00  0.00    -0.019 A 
ATOM     98  C   UNL A   1      34.029  28.697  25.899  1.00  0.00     0.047 C 
ATOM     99  C   UNL A   1      31.353  30.059  25.549  1.00  0.00     0.037 C 
ATOM    100  C   UNL A   1      33.332  29.457  27.037  1.00  0.00     0.006 C 
ATOM    101  C   UNL A   1      32.464  30.581  26.473  1.00  0.00     0.005 C 
BRANCH  95 102
ATOM    102  C   UNL A   1      29.525  28.270  23.374  1.00  0.00     0.257 C 
ATOM    103  O   UNL A   1      28.731  27.329  23.446  1.00  0.00    -0.269 OA
ATOM    104  N   UNL A   1      29.072  29.533  23.005  1.00  0.00    -0.339 N 
ATOM    105  C   UNL A   1      27.752  29.902  23.502  1.00  0.00     0.120 C 
ATOM    106  C   UNL A   1      29.356  30.006  21.658  1.00  0.00     0.120 C 
ATOM    107  C   UNL A   1      27.584  31.415  23.500  1.00  0.00     0.022 C 
ATOM    108  C   UNL A   1      29.198  31.523  21.561  1.00  0.00     0.022 C 
ATOM    109  C   UNL A   1      27.850  31.992  22.110  1.00  0.00     0.004 C 
ENDBRANCH  95 102
ENDBRANCH  91  93
ENDBRANCH  83  89
ENDBRANCH  78  81
ENDBRANCH  76  77
ENDBRANCH  75  76
ENDBRANCH   1  75
TORSDOF 17
ENDMDL
MODEL 2
REMARK VINA RESULT:     -13.5      0.614      7.724
REMARK SMILES O=C(NCCCCNC(=O)[C@H]1[C@H]2CC[C@H](CC2)[C@@H]1C(=O)Nc1sc2c(c1C(=O)N1CCCCC1)CCCC2)c1ccc(-c2c3nc(c(-c4c(F)cc(S(=O)(=O)[O-])cc4F)c4ccc([nH]4)c(-c4c(F)cc(S(=O)(=O)[O-])cc4F)c4nc(c(-c5c(F)cc(S(=O)(=O)[O-])cc5F)c5ccc2[nH]5)C=C4)C=C3)cc1
REMARK SMILES IDX 5 1 4 2 3 3 1 4 2 5 39 7 40 8 104 9 41 10 103 11 42 12 43 13
REMARK SMILES IDX 44 14 97 15 45 16 102 17 96 18 98 19 46 20 101 21 95 22
REMARK SMILES IDX 94 23 47 25 81 26 60 27 80 28 61 29 64 30 79 31 99 32 62 33
REMARK SMILES IDX 63 34 78 36 100 37 65 38 48 39 49 40 58 41 50 42 51 43 57 44
REMARK SMILES IDX 59 45 52 46 53 47 54 48 55 49 56 50 82 51 83 52 92 53 84 54
REMARK SMILES IDX 85 55 91 56 93 57 86 58 87 59 88 60 89 61 90 62 66 63 67 64
REMARK SMILES IDX 76 65 68 66 69 67 75 68 77 69 70 70 71 71 72 72 73 73 74 74
REMARK SMILES IDX 6 75 7 76 8 77 9 78 10 80 11 81 12 82 18 83 13 84 17 85
REMARK SMILES IDX 15 86 14 87 16 88 19 89 20 90 21 91 22 93 23 94 26 95 24 96
REMARK SMILES IDX 25 97 38 98 35 99 37 100 36 101 27 102 28 103 29 104 30 105
REMARK SMILES IDX 34 106 31 107 33 108 32 109
REMARK H PARENT 3 6 98 24 64 35 8 79 21 92
REMARK Flexibility Score: inf
ROOT
ATOM      1  C   UNL A   1      37.712  23.220  25.869  1.00  0.00     0.023 C 
ENDROOT
BRANCH   1   2
ATOM      2  C   UNL A   1      38.827  23.915  26.633  1.00  0.00     0.116 C 
BRANCH   2   3
ATOM      3  N   UNL A   1      39.875  24.469  25.777  1.00  0.00    -0.352 N 
ATOM      4  O   UNL A   1      41.553  25.864  25.184  1.00  0.00    -0.269 OA
ATOM      5  C   UNL A   1      40.788  25.464  26.049  1.00  0.00     0.251 C 
ATOM      6  H   UNL A   1      39.937  24.073  24.878  1.00  0.00     0.163 HD
BRANCH   5   7
ATOM      7  C   UNL A   1      40.783  26.069  27.395  1.00  0.00     0.039 A 
ATOM      8  C   UNL A   1      39.599  26.105  28.128  1.00  0.00     0.014 A 
ATOM      9  C   UNL A   1      41.931  26.711  27.863  1.00  0.00     0.014 A 
ATOM     10  C   UNL A   1      39.496  26.980  29.197  1.00  0.00     0.010 A 
ATOM     11  C   UNL A   1      41.857  27.491  29.021  1.00  0.00     0.010 A 
ATOM     12  C   UNL A   1      40.623  27.682  29.661  1.00  0.00    -0.014 A 
BRANCH  12  13
ATOM     13  C   UNL A   1      40.466  28.589  30.827  1.00  0.00     0.031 A 
ATOM     14  C   UNL A   1      41.411  28.535  31.999  1.00  0.00     0.074 A 
ATOM     15  C   UNL A   1      39.494  29.522  30.781  1.00  0.00     0.049 A 
ATOM     16  N   UNL A   1      41.431  29.285  33.072  1.00  0.00    -0.248 NA
ATOM     17  C   UNL A   1      42.461  27.504  31.976  1.00  0.00     0.031 C 
ATOM     18  C   UNL A   1      38.517  29.663  29.697  1.00  0.00     0.029 A 
ATOM     19  N   UNL A   1      39.191  30.551  31.633  1.00  0.00    -0.354 N 
ATOM     20  C   UNL A   1      42.457  28.791  33.871  1.00  0.00     0.074 A 
ATOM     21  C   UNL A   1      43.037  27.670  33.160  1.00  0.00     0.031 C 
ATOM     22  C   UNL A   1      37.785  30.766  29.903  1.00  0.00     0.029 A 
ATOM     23  C   UNL A   1      38.181  31.361  31.173  1.00  0.00     0.049 A 
ATOM     24  H   UNL A   1      39.652  30.696  32.490  1.00  0.00     0.167 HD
ATOM     25  C   UNL A   1      42.875  29.234  35.082  1.00  0.00     0.037 A 
ATOM     26  C   UNL A   1      37.621  32.457  31.716  1.00  0.00     0.037 A 
ATOM     27  C   UNL A   1      42.321  30.380  35.756  1.00  0.00     0.049 A 
ATOM     28  C   UNL A   1      38.118  32.938  33.045  1.00  0.00     0.074 A 
ATOM     29  C   UNL A   1      42.699  30.934  36.967  1.00  0.00     0.029 A 
ATOM     30  N   UNL A   1      41.273  31.154  35.276  1.00  0.00    -0.354 N 
ATOM     31  N   UNL A   1      39.089  32.455  33.783  1.00  0.00    -0.248 NA
ATOM     32  C   UNL A   1      37.438  34.102  33.622  1.00  0.00     0.031 C 
ATOM     33  C   UNL A   1      41.859  32.022  37.235  1.00  0.00     0.029 A 
ATOM     34  C   UNL A   1      40.982  32.169  36.172  1.00  0.00     0.049 A 
ATOM     35  H   UNL A   1      40.805  31.002  34.423  1.00  0.00     0.167 HD
ATOM     36  C   UNL A   1      39.141  33.260  34.912  1.00  0.00     0.074 A 
ATOM     37  C   UNL A   1      38.119  34.275  34.747  1.00  0.00     0.031 C 
ATOM     38  C   UNL A   1      39.957  33.166  35.990  1.00  0.00     0.037 A 
BRANCH  25  39
ATOM     39  C   UNL A   1      43.966  28.460  35.776  1.00  0.00     0.058 A 
ATOM     40  C   UNL A   1      43.687  27.410  36.664  1.00  0.00     0.135 A 
ATOM     41  C   UNL A   1      45.314  28.753  35.514  1.00  0.00     0.135 A 
ATOM     42  F   UNL A   1      42.417  27.095  36.963  1.00  0.00    -0.206 F 
ATOM     43  C   UNL A   1      44.707  26.696  37.290  1.00  0.00     0.059 A 
ATOM     44  C   UNL A   1      46.350  28.038  36.110  1.00  0.00     0.059 A 
ATOM     45  F   UNL A   1      45.639  29.745  34.670  1.00  0.00    -0.206 F 
ATOM     46  C   UNL A   1      46.036  27.021  37.010  1.00  0.00     0.060 A 
BRANCH  46  47
ATOM     47  S   UNL A   1      47.349  26.094  37.832  1.00  0.00     0.124 S 
ATOM     48  O   UNL A   1      48.372  27.123  37.996  1.00  0.00    -0.237 OA
ATOM     49  O   UNL A   1      46.699  25.648  39.060  1.00  0.00    -0.237 OA
ATOM     50  O   UNL A   1      47.669  25.037  36.878  1.00  0.00    -0.744 OA
ENDBRANCH  46  47
ENDBRANCH  25  39
BRANCH  26  51
ATOM     51  C   UNL A   1      36.529  33.158  30.994  1.00  0.00     0.058 A 
ATOM     52  C   UNL A   1      35.196  33.036  31.409  1.00  0.00     0.135 A 
ATOM     53  C   UNL A   1      36.804  34.005  29.909  1.00  0.00     0.135 A 
ATOM     54  F   UNL A   1      34.886  32.237  32.442  1.00  0.00    -0.206 F 
ATOM     55  C   UNL A   1      34.171  33.724  30.771  1.00  0.00     0.059 A 
ATOM     56  C   UNL A   1      35.800  34.725  29.272  1.00  0.00     0.059 A 
ATOM     57  F   UNL A   1      38.068  34.170  29.488  1.00  0.00    -0.206 F 
ATOM     58  C   UNL A   1      34.485  34.571  29.705  1.00  0.00     0.060 A 
BRANCH  58  59
ATOM     59  S   UNL A   1      33.159  35.514  28.923  1.00  0.00     0.124 S 
ATOM     60  O   UNL A   1      33.914  36.483  28.137  1.00  0.00    -0.237 OA
ATOM     61  O   UNL A   1      32.452  34.487  28.164  1.00  0.00    -0.237 OA
ATOM     62  O   UNL A   1      32.423  36.059  30.060  1.00  0.00    -0.744 OA
ENDBRANCH  58  59
ENDBRANCH  26  51
BRANCH  38  63
ATOM     63  C   UNL A   1      39.783  34.205  37.060  1.00  0.00     0.058 A 
ATOM     64  C   UNL A   1      39.073  33.933  38.239  1.00  0.00     0.135 A 
ATOM     65  C   UNL A   1      40.343  35.483  36.906  1.00  0.00     0.135 A 
ATOM     66  F   UNL A   1      38.511  32.729  38.426  1.00  0.00    -0.206 F 
ATOM     67  C   UNL A   1      38.895  34.904  39.217  1.00  0.00     0.059 A 
ATOM     68  C   UNL A   1      40.199  36.462  37.883  1.00  0.00     0.059 A 
ATOM     69  F   UNL A   1      41.039  35.788  35.799  1.00  0.00    -0.206 F 
ATOM     70  C   UNL A   1      39.458  36.168  39.027  1.00  0.00     0.060 A 
BRANCH  70  71
ATOM     71  S   UNL A   1      39.231  37.421  40.307  1.00  0.00     0.124 S 
ATOM     72  O   UNL A   1      38.503  36.672  41.325  1.00  0.00    -0.237 OA
ATOM     73  O   UNL A   1      40.606  37.780  40.645  1.00  0.00    -0.237 OA
ATOM     74  O   UNL A   1      38.469  38.464  39.626  1.00  0.00    -0.744 OA
ENDBRANCH  70  71
ENDBRANCH  38  63
ENDBRANCH  12  13
ENDBRANCH   5   7
ENDBRANCH   2   3
ENDBRANCH   1   2
BRANCH   1  75
ATOM     75  C   UNL A   1      36.353  23.892  25.968  1.00  0.00     0.023 C 
BRANCH  75  76
ATOM     76  C   UNL A   1      35.472  23.765  24.732  1.00  0.00     0.116 C 
BRANCH  76  77
ATOM     77  N   UNL A   1      34.914  22.445  24.541  1.00  0.00    -0.356 N 
ATOM     78  C   UNL A   1      33.658  21.961  24.398  1.00  0.00     0.224 C 
ATOM     79  H   UNL A   1      35.601  21.741  24.507  1.00  0.00     0.163 HD
ATOM     80  O   UNL A   1      33.596  20.763  24.083  1.00  0.00    -0.275 OA
BRANCH  78  81
ATOM     81  C   UNL A   1      32.352  22.694  24.728  1.00  0.00     0.094 C 
ATOM     82  C   UNL A   1      31.793  22.161  26.084  1.00  0.00     0.002 C 
ATOM     83  C   UNL A   1      32.263  24.254  24.656  1.00  0.00     0.094 C 
ATOM     84  C   UNL A   1      32.640  22.685  27.246  1.00  0.00     0.005 C 
ATOM     85  C   UNL A   1      30.353  22.686  26.267  1.00  0.00     0.005 C 
ATOM     86  C   UNL A   1      31.773  24.732  26.058  1.00  0.00     0.002 C 
ATOM     87  C   UNL A   1      32.680  24.208  27.193  1.00  0.00     0.005 C 
ATOM     88  C   UNL A   1      30.354  24.214  26.319  1.00  0.00     0.005 C 
BRANCH  83  89
ATOM     89  C   UNL A   1      31.442  24.698  23.410  1.00  0.00     0.229 C 
ATOM     90  O   UNL A   1      30.770  23.874  22.776  1.00  0.00    -0.274 OA
ATOM     91  N   UNL A   1      31.477  25.957  22.866  1.00  0.00    -0.317 N 
ATOM     92  H   UNL A   1      31.193  26.049  21.929  1.00  0.00     0.170 HD
BRANCH  91  93
ATOM     93  C   UNL A   1      31.875  27.098  23.516  1.00  0.00     0.108 A 
ATOM     94  S   UNL A   1      33.518  27.260  23.907  1.00  0.00    -0.122 S 
ATOM     95  C   UNL A   1      31.101  28.207  23.841  1.00  0.00     0.078 A 
ATOM     96  C   UNL A   1      33.131  28.512  24.993  1.00  0.00     0.011 A 
ATOM     97  C   UNL A   1      31.845  29.006  24.807  1.00  0.00    -0.019 A 
ATOM     98  C   UNL A   1      34.080  28.936  26.071  1.00  0.00     0.047 C 
ATOM     99  C   UNL A   1      31.326  30.118  25.674  1.00  0.00     0.037 C 
ATOM    100  C   UNL A   1      33.297  29.611  27.207  1.00  0.00     0.006 C 
ATOM    101  C   UNL A   1      32.369  30.689  26.647  1.00  0.00     0.005 C 
BRANCH  95 102
ATOM    102  C   UNL A   1      29.694  28.271  23.394  1.00  0.00     0.257 C 
ATOM    103  O   UNL A   1      28.964  27.278  23.423  1.00  0.00    -0.269 OA
ATOM    104  N   UNL A   1      29.168  29.508  23.034  1.00  0.00    -0.339 N 
ATOM    105  C   UNL A   1      27.812  29.778  23.497  1.00  0.00     0.120 C 
ATOM    106  C   UNL A   1      29.458  30.027  21.705  1.00  0.00     0.120 C 
ATOM    107  C   UNL A   1      27.541  31.275  23.517  1.00  0.00     0.022 C 
ATOM    108  C   UNL A   1      29.200  31.531  21.631  1.00  0.00     0.022 C 
ATOM    109  C   UNL A   1      27.808  31.897  22.147  1.00  0.00     0.004 C 
ENDBRANCH  95 102
ENDBRANCH  91  93
ENDBRANCH  83  89
ENDBRANCH  78  81
ENDBRANCH  76  77
ENDBRANCH  75  76
ENDBRANCH   1  75
TORSDOF 17
ENDMDL
MODEL 3
REMARK VINA RESULT:     -13.3      1.860      2.375
REMARK SMILES O=C(NCCCCNC(=O)[C@H]1[C@H]2CC[C@H](CC2)[C@@H]1C(=O)Nc1sc2c(c1C(=O)N1CCCCC1)CCCC2)c1ccc(-c2c3nc(c(-c4c(F)cc(S(=O)(=O)[O-])cc4F)c4ccc([nH]4)c(-c4c(F)cc(S(=O)(=O)[O-])cc4F)c4nc(c(-c5c(F)cc(S(=O)(=O)[O-])cc5F)c5ccc2[nH]5)C=C4)C=C3)cc1
REMARK SMILES IDX 5 1 4 2 3 3 1 4 2 5 39 7 40 8 104 9 41 10 103 11 42 12 43 13
REMARK SMILES IDX 44 14 97 15 45 16 102 17 96 18 98 19 46 20 101 21 95 22
REMARK SMILES IDX 94 23 47 25 81 26 60 27 80 28 61 29 64 30 79 31 99 32 62 33
REMARK SMILES IDX 63 34 78 36 100 37 65 38 48 39 49 40 58 41 50 42 51 43 57 44
REMARK SMILES IDX 59 45 52 46 53 47 54 48 55 49 56 50 82 51 83 52 92 53 84 54
REMARK SMILES IDX 85 55 91 56 93 57 86 58 87 59 88 60 89 61 90 62 66 63 67 64
REMARK SMILES IDX 76 65 68 66 69 67 75 68 77 69 70 70 71 71 72 72 73 73 74 74
REMARK SMILES IDX 6 75 7 76 8 77 9 78 10 80 11 81 12 82 18 83 13 84 17 85
REMARK SMILES IDX 15 86 14 87 16 88 19 89 20 90 21 91 22 93 23 94 26 95 24 96
REMARK SMILES IDX 25 97 38 98 35 99 37 100 36 101 27 102 28 103 29 104 30 105
REMARK SMILES IDX 34 106 31 107 33 108 32 109
REMARK H PARENT 3 6 98 24 64 35 8 79 21 92
REMARK Flexibility Score: inf
ROOT
ATOM      1  C   UNL A   1      36.042  22.902  24.843  1.00  0.00     0.023 C 
ENDROOT
BRANCH   1   2
ATOM      2  C   UNL A   1      37.154  23.682  25.525  1.00  0.00     0.116 C 
BRANCH   2   3
ATOM      3  N   UNL A   1      38.413  22.947  25.631  1.00  0.00    -0.352 N 
ATOM      4  O   UNL A   1      40.577  22.600  26.190  1.00  0.00    -0.269 OA
ATOM      5  C   UNL A   1      39.582  23.306  26.267  1.00  0.00     0.251 C 
ATOM      6  H   UNL A   1      38.428  22.070  25.184  1.00  0.00     0.163 HD
BRANCH   5   7
ATOM      7  C   UNL A   1      39.616  24.587  26.997  1.00  0.00     0.039 A 
ATOM      8  C   UNL A   1      40.349  25.654  26.481  1.00  0.00     0.014 A 
ATOM      9  C   UNL A   1      39.021  24.675  28.257  1.00  0.00     0.014 A 
ATOM     10  C   UNL A   1      40.689  26.704  27.318  1.00  0.00     0.010 A 
ATOM     11  C   UNL A   1      39.260  25.800  29.051  1.00  0.00     0.010 A 
ATOM     12  C   UNL A   1      40.148  26.794  28.612  1.00  0.00    -0.014 A 
BRANCH  12  13
ATOM     13  C   UNL A   1      40.525  27.953  29.462  1.00  0.00     0.031 A 
ATOM     14  C   UNL A   1      39.582  29.108  29.680  1.00  0.00     0.074 A 
ATOM     15  C   UNL A   1      41.711  27.916  30.099  1.00  0.00     0.049 A 
ATOM     16  N   UNL A   1      39.748  30.173  30.424  1.00  0.00    -0.248 NA
ATOM     17  C   UNL A   1      38.295  29.077  28.968  1.00  0.00     0.031 C 
ATOM     18  C   UNL A   1      42.707  26.849  29.957  1.00  0.00     0.029 A 
ATOM     19  N   UNL A   1      42.266  28.762  31.023  1.00  0.00    -0.354 N 
ATOM     20  C   UNL A   1      38.615  30.957  30.235  1.00  0.00     0.074 A 
ATOM     21  C   UNL A   1      37.767  30.248  29.300  1.00  0.00     0.031 C 
ATOM     22  C   UNL A   1      43.704  27.056  30.827  1.00  0.00     0.029 A 
ATOM     23  C   UNL A   1      43.463  28.313  31.525  1.00  0.00     0.049 A 
ATOM     24  H   UNL A   1      41.848  29.609  31.299  1.00  0.00     0.167 HD
ATOM     25  C   UNL A   1      38.313  32.156  30.792  1.00  0.00     0.037 A 
ATOM     26  C   UNL A   1      44.288  28.854  32.439  1.00  0.00     0.037 A 
ATOM     27  C   UNL A   1      39.143  32.828  31.758  1.00  0.00     0.049 A 
ATOM     28  C   UNL A   1      43.918  30.169  33.056  1.00  0.00     0.074 A 
ATOM     29  C   UNL A   1      38.909  34.026  32.412  1.00  0.00     0.029 A 
ATOM     30  N   UNL A   1      40.367  32.359  32.216  1.00  0.00    -0.354 N 
ATOM     31  N   UNL A   1      42.842  30.894  32.862  1.00  0.00    -0.248 NA
ATOM     32  C   UNL A   1      44.877  30.746  34.004  1.00  0.00     0.031 C 
ATOM     33  C   UNL A   1      40.006  34.298  33.238  1.00  0.00     0.029 A 
ATOM     34  C   UNL A   1      40.906  33.250  33.130  1.00  0.00     0.049 A 
ATOM     35  H   UNL A   1      40.790  31.517  31.931  1.00  0.00     0.167 HD
ATOM     36  C   UNL A   1      42.991  32.013  33.669  1.00  0.00     0.074 A 
ATOM     37  C   UNL A   1      44.250  31.856  34.370  1.00  0.00     0.031 C 
ATOM     38  C   UNL A   1      42.164  33.076  33.813  1.00  0.00     0.037 A 
BRANCH  25  39
ATOM     39  C   UNL A   1      37.044  32.838  30.349  1.00  0.00     0.058 A 
ATOM     40  C   UNL A   1      35.847  32.730  31.072  1.00  0.00     0.135 A 
ATOM     41  C   UNL A   1      37.041  33.643  29.198  1.00  0.00     0.135 A 
ATOM     42  F   UNL A   1      35.787  31.962  32.172  1.00  0.00    -0.206 F 
ATOM     43  C   UNL A   1      34.685  33.375  30.656  1.00  0.00     0.059 A 
ATOM     44  C   UNL A   1      35.897  34.315  28.776  1.00  0.00     0.059 A 
ATOM     45  F   UNL A   1      38.160  33.785  28.469  1.00  0.00    -0.206 F 
ATOM     46  C   UNL A   1      34.718  34.162  29.503  1.00  0.00     0.060 A 
BRANCH  46  47
ATOM     47  S   UNL A   1      33.204  34.987  28.969  1.00  0.00     0.124 S 
ATOM     48  O   UNL A   1      32.477  35.104  30.232  1.00  0.00    -0.237 OA
ATOM     49  O   UNL A   1      33.705  36.239  28.411  1.00  0.00    -0.237 OA
ATOM     50  O   UNL A   1      32.632  34.057  28.001  1.00  0.00    -0.744 OA
ENDBRANCH  46  47
ENDBRANCH  25  39
BRANCH  26  51
ATOM     51  C   UNL A   1      45.538  28.145  32.812  1.00  0.00     0.058 A 
ATOM     52  C   UNL A   1      46.745  28.419  32.154  1.00  0.00     0.135 A 
ATOM     53  C   UNL A   1      45.561  27.219  33.866  1.00  0.00     0.135 A 
ATOM     54  F   UNL A   1      46.772  29.298  31.140  1.00  0.00    -0.206 F 
ATOM     55  C   UNL A   1      47.932  27.798  32.525  1.00  0.00     0.059 A 
ATOM     56  C   UNL A   1      46.739  26.604  34.273  1.00  0.00     0.059 A 
ATOM     57  F   UNL A   1      44.434  26.939  34.539  1.00  0.00    -0.206 F 
ATOM     58  C   UNL A   1      47.919  26.893  33.590  1.00  0.00     0.060 A 
BRANCH  58  59
ATOM     59  S   UNL A   1      49.474  26.139  34.111  1.00  0.00     0.124 S 
ATOM     60  O   UNL A   1      49.139  24.721  34.069  1.00  0.00    -0.237 OA
ATOM     61  O   UNL A   1      50.405  26.607  33.089  1.00  0.00    -0.237 OA
ATOM     62  O   UNL A   1      49.686  26.700  35.442  1.00  0.00    -0.744 OA
ENDBRANCH  58  59
ENDBRANCH  26  51
BRANCH  38  63
ATOM     63  C   UNL A   1      42.593  34.138  34.783  1.00  0.00     0.058 A 
ATOM     64  C   UNL A   1      42.350  34.016  36.160  1.00  0.00     0.135 A 
ATOM     65  C   UNL A   1      43.264  35.285  34.331  1.00  0.00     0.135 A 
ATOM     66  F   UNL A   1      41.703  32.942  36.638  1.00  0.00    -0.206 F 
ATOM     67  C   UNL A   1      42.730  35.011  37.053  1.00  0.00     0.059 A 
ATOM     68  C   UNL A   1      43.674  36.281  35.210  1.00  0.00     0.059 A 
ATOM     69  F   UNL A   1      43.527  35.443  33.024  1.00  0.00    -0.206 F 
ATOM     70  C   UNL A   1      43.387  36.142  36.567  1.00  0.00     0.060 A 
BRANCH  70  71
ATOM     71  S   UNL A   1      43.885  37.427  37.735  1.00  0.00     0.124 S 
ATOM     72  O   UNL A   1      44.925  36.743  38.496  1.00  0.00    -0.237 OA
ATOM     73  O   UNL A   1      44.345  38.495  36.852  1.00  0.00    -0.237 OA
ATOM     74  O   UNL A   1      42.654  37.714  38.466  1.00  0.00    -0.744 OA
ENDBRANCH  70  71
ENDBRANCH  38  63
ENDBRANCH  12  13
ENDBRANCH   5   7
ENDBRANCH   2   3
ENDBRANCH   1   2
BRANCH   1  75
ATOM     75  C   UNL A   1      35.554  23.497  23.533  1.00  0.00     0.023 C 
BRANCH  75  76
ATOM     76  C   UNL A   1      34.319  22.833  22.937  1.00  0.00     0.116 C 
BRANCH  76  77
ATOM     77  N   UNL A   1      33.785  21.755  23.740  1.00  0.00    -0.356 N 
ATOM     78  C   UNL A   1      32.627  21.561  24.413  1.00  0.00     0.224 C 
ATOM     79  H   UNL A   1      34.401  20.992  23.813  1.00  0.00     0.163 HD
ATOM     80  O   UNL A   1      32.468  20.413  24.855  1.00  0.00    -0.275 OA
BRANCH  78  81
ATOM     81  C   UNL A   1      31.601  22.635  24.797  1.00  0.00     0.094 C 
ATOM     82  C   UNL A   1      31.162  22.418  26.278  1.00  0.00     0.002 C 
ATOM     83  C   UNL A   1      31.870  24.148  24.506  1.00  0.00     0.094 C 
ATOM     84  C   UNL A   1      32.286  22.836  27.230  1.00  0.00     0.005 C 
ATOM     85  C   UNL A   1      29.935  23.309  26.568  1.00  0.00     0.005 C 
ATOM     86  C   UNL A   1      31.741  24.890  25.872  1.00  0.00     0.002 C 
ATOM     87  C   UNL A   1      32.673  24.284  26.945  1.00  0.00     0.005 C 
ATOM     88  C   UNL A   1      30.302  24.782  26.390  1.00  0.00     0.005 C 
BRANCH  83  89
ATOM     89  C   UNL A   1      30.984  24.643  23.325  1.00  0.00     0.229 C 
ATOM     90  O   UNL A   1      30.211  23.865  22.752  1.00  0.00    -0.274 OA
ATOM     91  N   UNL A   1      31.059  25.895  22.770  1.00  0.00    -0.317 N 
ATOM     92  H   UNL A   1      30.708  26.004  21.858  1.00  0.00     0.170 HD
BRANCH  91  93
ATOM     93  C   UNL A   1      31.582  27.009  23.378  1.00  0.00     0.108 A 
ATOM     94  S   UNL A   1      33.254  27.050  23.663  1.00  0.00    -0.122 S 
ATOM     95  C   UNL A   1      30.916  28.176  23.736  1.00  0.00     0.078 A 
ATOM     96  C   UNL A   1      33.032  28.338  24.754  1.00  0.00     0.011 A 
ATOM     97  C   UNL A   1      31.777  28.925  24.642  1.00  0.00    -0.019 A 
ATOM     98  C   UNL A   1      34.077  28.698  25.764  1.00  0.00     0.047 C 
ATOM     99  C   UNL A   1      31.399  30.081  25.525  1.00  0.00     0.037 C 
ATOM    100  C   UNL A   1      33.421  29.440  26.938  1.00  0.00     0.006 C 
ATOM    101  C   UNL A   1      32.542  30.580  26.422  1.00  0.00     0.005 C 
BRANCH  95 102
ATOM    102  C   UNL A   1      29.491  28.342  23.378  1.00  0.00     0.257 C 
ATOM    103  O   UNL A   1      28.685  27.417  23.502  1.00  0.00    -0.269 OA
ATOM    104  N   UNL A   1      29.046  29.603  22.995  1.00  0.00    -0.339 N 
ATOM    105  C   UNL A   1      27.752  30.008  23.531  1.00  0.00     0.120 C 
ATOM    106  C   UNL A   1      29.287  30.040  21.627  1.00  0.00     0.120 C 
ATOM    107  C   UNL A   1      27.609  31.523  23.497  1.00  0.00     0.022 C 
ATOM    108  C   UNL A   1      29.150  31.556  21.499  1.00  0.00     0.022 C 
ATOM    109  C   UNL A   1      27.832  32.061  22.085  1.00  0.00     0.004 C 
ENDBRANCH  95 102
ENDBRANCH  91  93
ENDBRANCH  83  89
ENDBRANCH  78  81
ENDBRANCH  76  77
ENDBRANCH  75  76
ENDBRANCH   1  75
TORSDOF 17
ENDMDL
