MODEL 1
REMARK VINA RESULT:     -12.3      0.000      0.000
REMARK SMILES CC(C)Cc1cc2c(cc1Cl)C=C(C(=O)NCCCCNC(=O)c1ccc(-c3c4nc(c(-c5c(F)cc(S(=O)(=O)[O-])cc5F)c5ccc([nH]5)c(-c5c(F)cc(S(=O)(=O)[O-])cc5F)c5nc(c(-c6c(F)cc(S(=O)(=O)[O-])cc6F)c6ccc3[nH]6)C=C5)C=C4)cc1)[C@H](C(F)(F)F)O2
REMARK SMILES IDX 19 1 18 2 17 3 16 4 14 5 15 6 13 8 5 9 6 10 10 11 7 12 9 13
REMARK SMILES IDX 11 14 8 15 95 16 12 17 90 18 4 19 2 20 1 21 3 22 91 23 92 24
REMARK SMILES IDX 93 25 94 26 20 27 21 28 22 29 23 31 24 32 25 33 89 34 26 35
REMARK SMILES IDX 88 36 27 37 28 38 29 39 82 40 30 41 87 42 81 43 83 44 31 45
REMARK SMILES IDX 86 46 80 47 79 48 32 50 66 51 45 52 65 53 46 54 49 55 64 56
REMARK SMILES IDX 84 57 47 58 48 59 63 61 85 62 50 63 33 64 34 65 43 66 35 67
REMARK SMILES IDX 36 68 42 69 44 70 37 71 38 72 39 73 40 74 41 75 67 76 68 77
REMARK SMILES IDX 77 78 69 79 70 80 76 81 78 82 71 83 72 84 73 85 74 86 75 87
REMARK SMILES IDX 51 88 52 89 61 90 53 91 54 92 60 93 62 94 55 95 56 96 57 97
REMARK SMILES IDX 58 98 59 99
REMARK H PARENT 16 7 21 30 83 49 49 60
REMARK Flexibility Score: inf
ROOT
ATOM      1  C   UNL A   1      32.350  28.128  27.189  1.00  0.00     0.023 C 
ENDROOT
BRANCH   1   2
ATOM      2  C   UNL A   1      31.461  29.021  26.322  1.00  0.00     0.023 C 
BRANCH   2   3
ATOM      3  C   UNL A   1      31.375  28.602  24.855  1.00  0.00     0.116 C 
BRANCH   3   4
ATOM      4  N   UNL A   1      32.582  28.950  24.130  1.00  0.00    -0.352 N 
ATOM      5  C   UNL A   1      33.549  28.274  23.469  1.00  0.00     0.251 C 
ATOM      6  O   UNL A   1      34.381  28.971  22.880  1.00  0.00    -0.270 OA
ATOM      7  H   UNL A   1      32.738  29.922  24.116  1.00  0.00     0.163 HD
BRANCH   5   8
ATOM      8  C   UNL A   1      33.668  26.787  23.409  1.00  0.00     0.067 C 
ATOM      9  C   UNL A   1      33.985  21.916  24.757  1.00  0.00    -0.025 A 
ATOM     10  C   UNL A   1      33.939  22.607  23.531  1.00  0.00     0.052 A 
ATOM     11  C   UNL A   1      34.022  22.676  25.939  1.00  0.00     0.045 A 
ATOM     12  C   UNL A   1      33.900  24.001  23.490  1.00  0.00     0.128 A 
ATOM     13  C   UNL A   1      33.971  24.075  25.892  1.00  0.00     0.032 A 
ATOM     14  Cl  UNL A   1      34.185  21.949  27.498  1.00  0.00    -0.084 Cl
ATOM     15  C   UNL A   1      33.911  24.741  24.666  1.00  0.00     0.019 A 
ATOM     16  O   UNL A   1      33.904  24.579  22.252  1.00  0.00    -0.475 OA
ATOM     17  C   UNL A   1      33.892  26.194  24.596  1.00  0.00     0.025 C 
ATOM     18  C   UNL A   1      33.434  25.957  22.173  1.00  0.00     0.314 C 
BRANCH   9  19
ATOM     19  C   UNL A   1      34.038  20.403  24.720  1.00  0.00     0.040 C 
BRANCH  19  20
ATOM     20  C   UNL A   1      32.691  19.654  24.609  1.00  0.00    -0.013 C 
ATOM     21  C   UNL A   1      32.306  19.315  23.169  1.00  0.00     0.008 C 
ATOM     22  C   UNL A   1      32.754  18.371  25.444  1.00  0.00     0.008 C 
ENDBRANCH  19  20
ENDBRANCH   9  19
BRANCH  18  23
ATOM     23  C   UNL A   1      31.979  25.966  21.678  1.00  0.00     0.429 C 
ATOM     24  F   UNL A   1      31.189  25.112  22.369  1.00  0.00    -0.167 F 
ATOM     25  F   UNL A   1      31.403  27.185  21.753  1.00  0.00    -0.167 F 
ATOM     26  F   UNL A   1      31.932  25.585  20.375  1.00  0.00    -0.167 F 
ENDBRANCH  18  23
ENDBRANCH   5   8
ENDBRANCH   3   4
ENDBRANCH   2   3
ENDBRANCH   1   2
BRANCH   1  27
ATOM     27  C   UNL A   1      33.745  28.675  27.467  1.00  0.00     0.116 C 
BRANCH  27  28
ATOM     28  N   UNL A   1      33.755  30.048  27.956  1.00  0.00    -0.352 N 
ATOM     29  C   UNL A   1      34.814  30.747  28.489  1.00  0.00     0.251 C 
ATOM     30  H   UNL A   1      32.901  30.534  27.898  1.00  0.00     0.163 HD
ATOM     31  O   UNL A   1      34.659  31.883  28.926  1.00  0.00    -0.269 OA
BRANCH  29  32
ATOM     32  C   UNL A   1      36.127  30.077  28.571  1.00  0.00     0.039 A 
ATOM     33  C   UNL A   1      36.548  29.521  29.779  1.00  0.00     0.014 A 
ATOM     34  C   UNL A   1      36.982  30.115  27.466  1.00  0.00     0.014 A 
ATOM     35  C   UNL A   1      37.883  29.175  29.938  1.00  0.00     0.010 A 
ATOM     36  C   UNL A   1      38.304  29.683  27.606  1.00  0.00     0.010 A 
ATOM     37  C   UNL A   1      38.779  29.267  28.858  1.00  0.00    -0.014 A 
BRANCH  37  38
ATOM     38  C   UNL A   1      40.212  28.945  29.086  1.00  0.00     0.031 A 
ATOM     39  C   UNL A   1      40.779  27.612  28.674  1.00  0.00     0.074 A 
ATOM     40  C   UNL A   1      41.020  29.902  29.583  1.00  0.00     0.049 A 
ATOM     41  N   UNL A   1      42.014  27.186  28.751  1.00  0.00    -0.248 NA
ATOM     42  C   UNL A   1      39.844  26.627  28.106  1.00  0.00     0.031 C 
ATOM     43  C   UNL A   1      40.584  31.235  30.003  1.00  0.00     0.029 A 
ATOM     44  N   UNL A   1      42.377  29.920  29.777  1.00  0.00    -0.354 N 
ATOM     45  C   UNL A   1      42.001  25.882  28.268  1.00  0.00     0.074 A 
ATOM     46  C   UNL A   1      40.631  25.577  27.915  1.00  0.00     0.031 C 
ATOM     47  C   UNL A   1      41.660  31.966  30.332  1.00  0.00     0.029 A 
ATOM     48  C   UNL A   1      42.853  31.135  30.207  1.00  0.00     0.049 A 
ATOM     49  H   UNL A   1      42.955  29.138  29.623  1.00  0.00     0.167 HD
ATOM     50  C   UNL A   1      43.039  25.024  28.123  1.00  0.00     0.037 A 
ATOM     51  C   UNL A   1      44.108  31.540  30.475  1.00  0.00     0.037 A 
ATOM     52  C   UNL A   1      44.406  25.346  28.440  1.00  0.00     0.049 A 
ATOM     53  C   UNL A   1      45.237  30.566  30.317  1.00  0.00     0.074 A 
ATOM     54  C   UNL A   1      45.530  24.547  28.315  1.00  0.00     0.029 A 
ATOM     55  N   UNL A   1      44.837  26.568  28.935  1.00  0.00    -0.354 N 
ATOM     56  N   UNL A   1      45.200  29.330  29.881  1.00  0.00    -0.248 NA
ATOM     57  C   UNL A   1      46.576  31.031  30.706  1.00  0.00     0.031 C 
ATOM     58  C   UNL A   1      46.637  25.278  28.760  1.00  0.00     0.029 A 
ATOM     59  C   UNL A   1      46.207  26.541  29.133  1.00  0.00     0.049 A 
ATOM     60  H   UNL A   1      44.255  27.341  29.119  1.00  0.00     0.167 HD
ATOM     61  C   UNL A   1      46.508  28.866  29.947  1.00  0.00     0.074 A 
ATOM     62  C   UNL A   1      47.316  29.963  30.443  1.00  0.00     0.031 C 
ATOM     63  C   UNL A   1      46.992  27.639  29.636  1.00  0.00     0.037 A 
BRANCH  50  64
ATOM     64  C   UNL A   1      42.742  23.645  27.603  1.00  0.00     0.058 A 
ATOM     65  C   UNL A   1      42.734  23.361  26.229  1.00  0.00     0.135 A 
ATOM     66  C   UNL A   1      42.522  22.581  28.493  1.00  0.00     0.135 A 
ATOM     67  F   UNL A   1      42.921  24.346  25.335  1.00  0.00    -0.206 F 
ATOM     68  C   UNL A   1      42.504  22.074  25.754  1.00  0.00     0.059 A 
ATOM     69  C   UNL A   1      42.309  21.281  28.041  1.00  0.00     0.059 A 
ATOM     70  F   UNL A   1      42.518  22.798  29.818  1.00  0.00    -0.206 F 
ATOM     71  C   UNL A   1      42.293  21.040  26.668  1.00  0.00     0.060 A 
BRANCH  71  72
ATOM     72  S   UNL A   1      42.009  19.372  26.036  1.00  0.00     0.124 S 
ATOM     73  O   UNL A   1      42.810  19.384  24.815  1.00  0.00    -0.237 OA
ATOM     74  O   UNL A   1      42.519  18.537  27.119  1.00  0.00    -0.237 OA
ATOM     75  O   UNL A   1      40.564  19.324  25.838  1.00  0.00    -0.744 OA
ENDBRANCH  71  72
ENDBRANCH  50  64
BRANCH  51  76
ATOM     76  C   UNL A   1      44.347  32.936  30.918  1.00  0.00     0.058 A 
ATOM     77  C   UNL A   1      44.574  33.957  29.986  1.00  0.00     0.135 A 
ATOM     78  C   UNL A   1      44.293  33.286  32.276  1.00  0.00     0.135 A 
ATOM     79  F   UNL A   1      44.637  33.669  28.677  1.00  0.00    -0.206 F 
ATOM     80  C   UNL A   1      44.733  35.280  30.382  1.00  0.00     0.059 A 
ATOM     81  C   UNL A   1      44.428  34.604  32.696  1.00  0.00     0.059 A 
ATOM     82  F   UNL A   1      44.063  32.343  33.205  1.00  0.00    -0.206 F 
ATOM     83  C   UNL A   1      44.651  35.594  31.740  1.00  0.00     0.060 A 
BRANCH  83  84
ATOM     84  S   UNL A   1      44.772  37.325  32.241  1.00  0.00     0.124 S 
ATOM     85  O   UNL A   1      46.215  37.501  32.342  1.00  0.00    -0.237 OA
ATOM     86  O   UNL A   1      44.120  38.015  31.131  1.00  0.00    -0.237 OA
ATOM     87  O   UNL A   1      44.039  37.359  33.504  1.00  0.00    -0.744 OA
ENDBRANCH  83  84
ENDBRANCH  51  76
BRANCH  63  88
ATOM     88  C   UNL A   1      48.462  27.411  29.832  1.00  0.00     0.058 A 
ATOM     89  C   UNL A   1      49.390  27.789  28.851  1.00  0.00     0.135 A 
ATOM     90  C   UNL A   1      48.949  26.875  31.033  1.00  0.00     0.135 A 
ATOM     91  F   UNL A   1      48.969  28.300  27.683  1.00  0.00    -0.206 F 
ATOM     92  C   UNL A   1      50.757  27.636  29.051  1.00  0.00     0.059 A 
ATOM     93  C   UNL A   1      50.313  26.728  31.262  1.00  0.00     0.059 A 
ATOM     94  F   UNL A   1      48.098  26.504  32.003  1.00  0.00    -0.206 F 
ATOM     95  C   UNL A   1      51.209  27.107  30.262  1.00  0.00     0.060 A 
BRANCH  95  96
ATOM     96  S   UNL A   1      52.988  26.959  30.529  1.00  0.00     0.124 S 
ATOM     97  O   UNL A   1      53.361  28.341  30.809  1.00  0.00    -0.237 OA
ATOM     98  O   UNL A   1      53.059  26.040  31.661  1.00  0.00    -0.237 OA
ATOM     99  O   UNL A   1      53.477  26.421  29.262  1.00  0.00    -0.744 OA
ENDBRANCH  95  96
ENDBRANCH  63  88
ENDBRANCH  37  38
ENDBRANCH  29  32
ENDBRANCH  27  28
ENDBRANCH   1  27
TORSDOF 17
ENDMDL
MODEL 2
REMARK VINA RESULT:     -12.1      1.489      2.129
REMARK SMILES CC(C)Cc1cc2c(cc1Cl)C=C(C(=O)NCCCCNC(=O)c1ccc(-c3c4nc(c(-c5c(F)cc(S(=O)(=O)[O-])cc5F)c5ccc([nH]5)c(-c5c(F)cc(S(=O)(=O)[O-])cc5F)c5nc(c(-c6c(F)cc(S(=O)(=O)[O-])cc6F)c6ccc3[nH]6)C=C5)C=C4)cc1)[C@H](C(F)(F)F)O2
REMARK SMILES IDX 19 1 18 2 17 3 16 4 14 5 15 6 13 8 5 9 6 10 10 11 7 12 9 13
REMARK SMILES IDX 11 14 8 15 95 16 12 17 90 18 4 19 2 20 1 21 3 22 91 23 92 24
REMARK SMILES IDX 93 25 94 26 20 27 21 28 22 29 23 31 24 32 25 33 89 34 26 35
REMARK SMILES IDX 88 36 27 37 28 38 29 39 82 40 30 41 87 42 81 43 83 44 31 45
REMARK SMILES IDX 86 46 80 47 79 48 32 50 66 51 45 52 65 53 46 54 49 55 64 56
REMARK SMILES IDX 84 57 47 58 48 59 63 61 85 62 50 63 33 64 34 65 43 66 35 67
REMARK SMILES IDX 36 68 42 69 44 70 37 71 38 72 39 73 40 74 41 75 67 76 68 77
REMARK SMILES IDX 77 78 69 79 70 80 76 81 78 82 71 83 72 84 73 85 74 86 75 87
REMARK SMILES IDX 51 88 52 89 61 90 53 91 54 92 60 93 62 94 55 95 56 96 57 97
REMARK SMILES IDX 58 98 59 99
REMARK H PARENT 16 7 21 30 83 49 49 60
REMARK Flexibility Score: inf
ROOT
ATOM      1  C   UNL A   1      33.484  28.544  25.705  1.00  0.00     0.023 C 
ENDROOT
BRANCH   1   2
ATOM      2  C   UNL A   1      32.056  28.416  25.168  1.00  0.00     0.023 C 
BRANCH   2   3
ATOM      3  C   UNL A   1      31.696  27.027  24.643  1.00  0.00     0.116 C 
BRANCH   3   4
ATOM      4  N   UNL A   1      32.538  26.644  23.526  1.00  0.00    -0.352 N 
ATOM      5  C   UNL A   1      33.050  25.489  23.044  1.00  0.00     0.251 C 
ATOM      6  O   UNL A   1      33.656  25.579  21.972  1.00  0.00    -0.270 OA
ATOM      7  H   UNL A   1      32.806  27.421  22.982  1.00  0.00     0.163 HD
BRANCH   5   8
ATOM      8  C   UNL A   1      32.930  24.156  23.705  1.00  0.00     0.067 C 
ATOM      9  C   UNL A   1      32.478  19.168  24.458  1.00  0.00    -0.025 A 
ATOM     10  C   UNL A   1      32.634  20.290  25.294  1.00  0.00     0.052 A 
ATOM     11  C   UNL A   1      32.341  19.393  23.077  1.00  0.00     0.045 A 
ATOM     12  C   UNL A   1      32.682  21.581  24.769  1.00  0.00     0.128 A 
ATOM     13  C   UNL A   1      32.401  20.691  22.553  1.00  0.00     0.032 A 
ATOM     14  Cl  UNL A   1      32.039  18.110  21.959  1.00  0.00    -0.084 Cl
ATOM     15  C   UNL A   1      32.571  21.788  23.400  1.00  0.00     0.019 A 
ATOM     16  O   UNL A   1      32.787  22.605  25.666  1.00  0.00    -0.475 OA
ATOM     17  C   UNL A   1      32.601  23.146  22.878  1.00  0.00     0.025 C 
ATOM     18  C   UNL A   1      33.268  23.881  25.148  1.00  0.00     0.314 C 
BRANCH   9  19
ATOM     19  C   UNL A   1      32.423  17.800  25.104  1.00  0.00     0.040 C 
BRANCH  19  20
ATOM     20  C   UNL A   1      33.356  16.712  24.528  1.00  0.00    -0.013 C 
ATOM     21  C   UNL A   1      34.833  17.105  24.557  1.00  0.00     0.008 C 
ATOM     22  C   UNL A   1      33.152  15.406  25.305  1.00  0.00     0.008 C 
ENDBRANCH  19  20
ENDBRANCH   9  19
BRANCH  18  23
ATOM     23  C   UNL A   1      34.761  24.031  25.482  1.00  0.00     0.429 C 
ATOM     24  F   UNL A   1      35.126  25.320  25.669  1.00  0.00    -0.167 F 
ATOM     25  F   UNL A   1      35.124  23.353  26.593  1.00  0.00    -0.167 F 
ATOM     26  F   UNL A   1      35.514  23.548  24.459  1.00  0.00    -0.167 F 
ENDBRANCH  18  23
ENDBRANCH   5   8
ENDBRANCH   3   4
ENDBRANCH   2   3
ENDBRANCH   1   2
BRANCH   1  27
ATOM     27  C   UNL A   1      33.603  28.610  27.222  1.00  0.00     0.116 C 
BRANCH  27  28
ATOM     28  N   UNL A   1      33.560  29.964  27.761  1.00  0.00    -0.352 N 
ATOM     29  C   UNL A   1      34.581  30.667  28.360  1.00  0.00     0.251 C 
ATOM     30  H   UNL A   1      32.698  30.432  27.687  1.00  0.00     0.163 HD
ATOM     31  O   UNL A   1      34.381  31.782  28.832  1.00  0.00    -0.269 OA
BRANCH  29  32
ATOM     32  C   UNL A   1      35.905  30.025  28.470  1.00  0.00     0.039 A 
ATOM     33  C   UNL A   1      36.316  29.485  29.688  1.00  0.00     0.014 A 
ATOM     34  C   UNL A   1      36.779  30.075  27.380  1.00  0.00     0.014 A 
ATOM     35  C   UNL A   1      37.654  29.167  29.873  1.00  0.00     0.010 A 
ATOM     36  C   UNL A   1      38.107  29.672  27.546  1.00  0.00     0.010 A 
ATOM     37  C   UNL A   1      38.568  29.272  28.809  1.00  0.00    -0.014 A 
BRANCH  37  38
ATOM     38  C   UNL A   1      40.003  28.982  29.065  1.00  0.00     0.031 A 
ATOM     39  C   UNL A   1      40.606  27.661  28.665  1.00  0.00     0.074 A 
ATOM     40  C   UNL A   1      40.781  29.956  29.576  1.00  0.00     0.049 A 
ATOM     41  N   UNL A   1      41.848  27.261  28.766  1.00  0.00    -0.248 NA
ATOM     42  C   UNL A   1      39.704  26.655  28.080  1.00  0.00     0.031 C 
ATOM     43  C   UNL A   1      40.308  31.280  29.985  1.00  0.00     0.029 A 
ATOM     44  N   UNL A   1      42.133  30.004  29.795  1.00  0.00    -0.354 N 
ATOM     45  C   UNL A   1      41.873  25.957  28.285  1.00  0.00     0.074 A 
ATOM     46  C   UNL A   1      40.517  25.622  27.906  1.00  0.00     0.031 C 
ATOM     47  C   UNL A   1      41.361  32.034  30.333  1.00  0.00     0.029 A 
ATOM     48  C   UNL A   1      42.574  31.229  30.232  1.00  0.00     0.049 A 
ATOM     49  H   UNL A   1      42.730  29.234  29.653  1.00  0.00     0.167 HD
ATOM     50  C   UNL A   1      42.932  25.122  28.160  1.00  0.00     0.037 A 
ATOM     51  C   UNL A   1      43.815  31.661  30.524  1.00  0.00     0.037 A 
ATOM     52  C   UNL A   1      44.285  25.473  28.503  1.00  0.00     0.049 A 
ATOM     53  C   UNL A   1      44.968  30.712  30.388  1.00  0.00     0.074 A 
ATOM     54  C   UNL A   1      45.428  24.699  28.400  1.00  0.00     0.029 A 
ATOM     55  N   UNL A   1      44.680  26.705  29.004  1.00  0.00    -0.354 N 
ATOM     56  N   UNL A   1      44.965  29.475  29.953  1.00  0.00    -0.248 NA
ATOM     57  C   UNL A   1      46.288  31.206  30.802  1.00  0.00     0.031 C 
ATOM     58  C   UNL A   1      46.511  25.454  28.865  1.00  0.00     0.029 A 
ATOM     59  C   UNL A   1      46.047  26.707  29.228  1.00  0.00     0.049 A 
ATOM     60  H   UNL A   1      44.078  27.465  29.176  1.00  0.00     0.167 HD
ATOM     61  C   UNL A   1      46.282  29.039  30.045  1.00  0.00     0.074 A 
ATOM     62  C   UNL A   1      47.056  30.154  30.554  1.00  0.00     0.031 C 
ATOM     63  C   UNL A   1      46.798  27.823  29.745  1.00  0.00     0.037 A 
BRANCH  50  64
ATOM     64  C   UNL A   1      42.674  23.736  27.636  1.00  0.00     0.058 A 
ATOM     65  C   UNL A   1      42.647  23.462  26.260  1.00  0.00     0.135 A 
ATOM     66  C   UNL A   1      42.514  22.658  28.523  1.00  0.00     0.135 A 
ATOM     67  F   UNL A   1      42.777  24.458  25.371  1.00  0.00    -0.206 F 
ATOM     68  C   UNL A   1      42.454  22.169  25.781  1.00  0.00     0.059 A 
ATOM     69  C   UNL A   1      42.340  21.355  28.066  1.00  0.00     0.059 A 
ATOM     70  F   UNL A   1      42.532  22.866  29.849  1.00  0.00    -0.206 F 
ATOM     71  C   UNL A   1      42.302  21.123  26.692  1.00  0.00     0.060 A 
BRANCH  71  72
ATOM     72  S   UNL A   1      42.066  19.449  26.053  1.00  0.00     0.124 S 
ATOM     73  O   UNL A   1      42.446  18.642  27.209  1.00  0.00    -0.237 OA
ATOM     74  O   UNL A   1      40.646  19.442  25.715  1.00  0.00    -0.237 OA
ATOM     75  O   UNL A   1      42.979  19.387  24.916  1.00  0.00    -0.744 OA
ENDBRANCH  71  72
ENDBRANCH  50  64
BRANCH  51  76
ATOM     76  C   UNL A   1      44.016  33.062  30.969  1.00  0.00     0.058 A 
ATOM     77  C   UNL A   1      44.153  34.100  30.038  1.00  0.00     0.135 A 
ATOM     78  C   UNL A   1      44.012  33.398  32.332  1.00  0.00     0.135 A 
ATOM     79  F   UNL A   1      44.166  33.826  28.725  1.00  0.00    -0.206 F 
ATOM     80  C   UNL A   1      44.275  35.426  30.441  1.00  0.00     0.059 A 
ATOM     81  C   UNL A   1      44.111  34.718  32.759  1.00  0.00     0.059 A 
ATOM     82  F   UNL A   1      43.867  32.439  33.261  1.00  0.00    -0.206 F 
ATOM     83  C   UNL A   1      44.245  35.724  31.804  1.00  0.00     0.060 A 
BRANCH  83  84
ATOM     84  S   UNL A   1      44.316  37.455  32.316  1.00  0.00     0.124 S 
ATOM     85  O   UNL A   1      45.700  37.572  32.760  1.00  0.00    -0.237 OA
ATOM     86  O   UNL A   1      43.980  38.157  31.081  1.00  0.00    -0.237 OA
ATOM     87  O   UNL A   1      43.304  37.533  33.366  1.00  0.00    -0.744 OA
ENDBRANCH  83  84
ENDBRANCH  51  76
BRANCH  63  88
ATOM     88  C   UNL A   1      48.268  27.627  29.969  1.00  0.00     0.058 A 
ATOM     89  C   UNL A   1      49.203  27.965  28.979  1.00  0.00     0.135 A 
ATOM     90  C   UNL A   1      48.749  27.162  31.202  1.00  0.00     0.135 A 
ATOM     91  F   UNL A   1      48.789  28.407  27.781  1.00  0.00    -0.206 F 
ATOM     92  C   UNL A   1      50.570  27.843  29.203  1.00  0.00     0.059 A 
ATOM     93  C   UNL A   1      50.112  27.048  31.453  1.00  0.00     0.059 A 
ATOM     94  F   UNL A   1      47.891  26.831  32.181  1.00  0.00    -0.206 F 
ATOM     95  C   UNL A   1      51.014  27.386  30.445  1.00  0.00     0.060 A 
BRANCH  95  96
ATOM     96  S   UNL A   1      52.792  27.277  30.738  1.00  0.00     0.124 S 
ATOM     97  O   UNL A   1      53.224  28.638  30.439  1.00  0.00    -0.237 OA
ATOM     98  O   UNL A   1      52.854  26.886  32.144  1.00  0.00    -0.237 OA
ATOM     99  O   UNL A   1      53.231  26.256  29.791  1.00  0.00    -0.744 OA
ENDBRANCH  95  96
ENDBRANCH  63  88
ENDBRANCH  37  38
ENDBRANCH  29  32
ENDBRANCH  27  28
ENDBRANCH   1  27
TORSDOF 17
ENDMDL
MODEL 3
REMARK VINA RESULT:     -12.1      3.785      9.612
REMARK SMILES CC(C)Cc1cc2c(cc1Cl)C=C(C(=O)NCCCCNC(=O)c1ccc(-c3c4nc(c(-c5c(F)cc(S(=O)(=O)[O-])cc5F)c5ccc([nH]5)c(-c5c(F)cc(S(=O)(=O)[O-])cc5F)c5nc(c(-c6c(F)cc(S(=O)(=O)[O-])cc6F)c6ccc3[nH]6)C=C5)C=C4)cc1)[C@H](C(F)(F)F)O2
REMARK SMILES IDX 19 1 18 2 17 3 16 4 14 5 15 6 13 8 5 9 6 10 10 11 7 12 9 13
REMARK SMILES IDX 11 14 8 15 95 16 12 17 90 18 4 19 2 20 1 21 3 22 91 23 92 24
REMARK SMILES IDX 93 25 94 26 20 27 21 28 22 29 23 31 24 32 25 33 89 34 26 35
REMARK SMILES IDX 88 36 27 37 28 38 29 39 82 40 30 41 87 42 81 43 83 44 31 45
REMARK SMILES IDX 86 46 80 47 79 48 32 50 66 51 45 52 65 53 46 54 49 55 64 56
REMARK SMILES IDX 84 57 47 58 48 59 63 61 85 62 50 63 33 64 34 65 43 66 35 67
REMARK SMILES IDX 36 68 42 69 44 70 37 71 38 72 39 73 40 74 41 75 67 76 68 77
REMARK SMILES IDX 77 78 69 79 70 80 76 81 78 82 71 83 72 84 73 85 74 86 75 87
REMARK SMILES IDX 51 88 52 89 61 90 53 91 54 92 60 93 62 94 55 95 56 96 57 97
REMARK SMILES IDX 58 98 59 99
REMARK H PARENT 16 7 21 30 83 49 49 60
REMARK Flexibility Score: inf
ROOT
ATOM      1  C   UNL A   1      35.675  23.007  25.282  1.00  0.00     0.023 C 
ENDROOT
BRANCH   1   2
ATOM      2  C   UNL A   1      34.747  22.999  24.067  1.00  0.00     0.023 C 
BRANCH   2   3
ATOM      3  C   UNL A   1      33.369  22.390  24.322  1.00  0.00     0.116 C 
BRANCH   3   4
ATOM      4  N   UNL A   1      32.800  22.862  25.570  1.00  0.00    -0.352 N 
ATOM      5  C   UNL A   1      32.039  23.910  25.958  1.00  0.00     0.251 C 
ATOM      6  O   UNL A   1      31.670  23.895  27.136  1.00  0.00    -0.270 OA
ATOM      7  H   UNL A   1      33.025  22.271  26.325  1.00  0.00     0.163 HD
BRANCH   5   8
ATOM      8  C   UNL A   1      31.633  25.047  25.079  1.00  0.00     0.067 C 
ATOM      9  C   UNL A   1      28.868  28.599  22.758  1.00  0.00    -0.025 A 
ATOM     10  C   UNL A   1      30.229  28.239  22.755  1.00  0.00     0.052 A 
ATOM     11  C   UNL A   1      27.980  27.803  23.501  1.00  0.00     0.045 A 
ATOM     12  C   UNL A   1      30.688  27.145  23.489  1.00  0.00     0.128 A 
ATOM     13  C   UNL A   1      28.447  26.712  24.246  1.00  0.00     0.032 A 
ATOM     14  Cl  UNL A   1      26.274  28.078  23.501  1.00  0.00    -0.084 Cl
ATOM     15  C   UNL A   1      29.804  26.380  24.240  1.00  0.00     0.019 A 
ATOM     16  O   UNL A   1      32.017  26.848  23.383  1.00  0.00    -0.475 OA
ATOM     17  C   UNL A   1      30.303  25.231  24.980  1.00  0.00     0.025 C 
ATOM     18  C   UNL A   1      32.588  26.021  24.440  1.00  0.00     0.314 C 
BRANCH   9  19
ATOM     19  C   UNL A   1      28.446  29.791  21.927  1.00  0.00     0.040 C 
BRANCH  19  20
ATOM     20  C   UNL A   1      28.622  31.189  22.560  1.00  0.00    -0.013 C 
ATOM     21  C   UNL A   1      28.408  32.333  21.568  1.00  0.00     0.008 C 
ATOM     22  C   UNL A   1      27.654  31.339  23.738  1.00  0.00     0.008 C 
ENDBRANCH  19  20
ENDBRANCH   9  19
BRANCH  18  23
ATOM     23  C   UNL A   1      33.329  26.922  25.441  1.00  0.00     0.429 C 
ATOM     24  F   UNL A   1      33.929  27.978  24.845  1.00  0.00    -0.167 F 
ATOM     25  F   UNL A   1      32.521  27.418  26.403  1.00  0.00    -0.167 F 
ATOM     26  F   UNL A   1      34.303  26.212  26.068  1.00  0.00    -0.167 F 
ENDBRANCH  18  23
ENDBRANCH   5   8
ENDBRANCH   3   4
ENDBRANCH   2   3
ENDBRANCH   1   2
BRANCH   1  27
ATOM     27  C   UNL A   1      37.037  23.651  25.054  1.00  0.00     0.116 C 
BRANCH  27  28
ATOM     28  N   UNL A   1      38.162  22.758  25.304  1.00  0.00    -0.352 N 
ATOM     29  C   UNL A   1      39.283  23.004  26.064  1.00  0.00     0.251 C 
ATOM     30  H   UNL A   1      38.115  21.874  24.877  1.00  0.00     0.163 HD
ATOM     31  O   UNL A   1      40.189  22.180  26.130  1.00  0.00    -0.269 OA
BRANCH  29  32
ATOM     32  C   UNL A   1      39.392  24.305  26.754  1.00  0.00     0.039 A 
ATOM     33  C   UNL A   1      40.155  25.327  26.190  1.00  0.00     0.014 A 
ATOM     34  C   UNL A   1      38.826  24.453  28.023  1.00  0.00     0.014 A 
ATOM     35  C   UNL A   1      40.508  26.420  26.970  1.00  0.00     0.010 A 
ATOM     36  C   UNL A   1      39.113  25.596  28.773  1.00  0.00     0.010 A 
ATOM     37  C   UNL A   1      40.004  26.559  28.276  1.00  0.00    -0.014 A 
BRANCH  37  38
ATOM     38  C   UNL A   1      40.455  27.711  29.100  1.00  0.00     0.031 A 
ATOM     39  C   UNL A   1      39.556  28.899  29.323  1.00  0.00     0.074 A 
ATOM     40  C   UNL A   1      41.647  27.636  29.723  1.00  0.00     0.049 A 
ATOM     41  N   UNL A   1      39.769  29.964  30.054  1.00  0.00    -0.248 NA
ATOM     42  C   UNL A   1      38.253  28.898  28.638  1.00  0.00     0.031 C 
ATOM     43  C   UNL A   1      42.594  26.526  29.591  1.00  0.00     0.029 A 
ATOM     44  N   UNL A   1      42.246  28.479  30.621  1.00  0.00    -0.354 N 
ATOM     45  C   UNL A   1      38.645  30.767  29.898  1.00  0.00     0.074 A 
ATOM     46  C   UNL A   1      37.756  30.077  28.989  1.00  0.00     0.031 C 
ATOM     47  C   UNL A   1      43.618  26.720  30.437  1.00  0.00     0.029 A 
ATOM     48  C   UNL A   1      43.431  27.995  31.122  1.00  0.00     0.049 A 
ATOM     49  H   UNL A   1      41.864  29.349  30.883  1.00  0.00     0.167 HD
ATOM     50  C   UNL A   1      38.376  31.964  30.471  1.00  0.00     0.037 A 
ATOM     51  C   UNL A   1      44.277  28.517  32.029  1.00  0.00     0.037 A 
ATOM     52  C   UNL A   1      39.247  32.629  31.405  1.00  0.00     0.049 A 
ATOM     53  C   UNL A   1      43.961  29.850  32.639  1.00  0.00     0.074 A 
ATOM     54  C   UNL A   1      39.056  33.839  32.049  1.00  0.00     0.029 A 
ATOM     55  N   UNL A   1      40.470  32.135  31.837  1.00  0.00    -0.354 N 
ATOM     56  N   UNL A   1      42.903  30.604  32.461  1.00  0.00    -0.248 NA
ATOM     57  C   UNL A   1      44.960  30.415  33.557  1.00  0.00     0.031 C 
ATOM     58  C   UNL A   1      40.176  34.090  32.850  1.00  0.00     0.029 A 
ATOM     59  C   UNL A   1      41.049  33.022  32.728  1.00  0.00     0.049 A 
ATOM     60  H   UNL A   1      40.866  31.280  31.552  1.00  0.00     0.167 HD
ATOM     61  C   UNL A   1      43.110  31.736  33.239  1.00  0.00     0.074 A 
ATOM     62  C   UNL A   1      44.383  31.556  33.909  1.00  0.00     0.031 C 
ATOM     63  C   UNL A   1      42.322  32.829  33.377  1.00  0.00     0.037 A 
BRANCH  50  64
ATOM     64  C   UNL A   1      37.088  32.646  30.102  1.00  0.00     0.058 A 
ATOM     65  C   UNL A   1      35.896  32.397  30.800  1.00  0.00     0.135 A 
ATOM     66  C   UNL A   1      37.058  33.605  29.076  1.00  0.00     0.135 A 
ATOM     67  F   UNL A   1      35.866  31.477  31.778  1.00  0.00    -0.206 F 
ATOM     68  C   UNL A   1      34.716  33.064  30.484  1.00  0.00     0.059 A 
ATOM     69  C   UNL A   1      35.894  34.298  28.756  1.00  0.00     0.059 A 
ATOM     70  F   UNL A   1      38.170  33.880  28.376  1.00  0.00    -0.206 F 
ATOM     71  C   UNL A   1      34.725  34.013  29.461  1.00  0.00     0.060 A 
BRANCH  71  72
ATOM     72  S   UNL A   1      33.189  34.879  29.072  1.00  0.00     0.124 S 
ATOM     73  O   UNL A   1      32.556  34.951  30.386  1.00  0.00    -0.237 OA
ATOM     74  O   UNL A   1      33.673  36.147  28.533  1.00  0.00    -0.237 OA
ATOM     75  O   UNL A   1      32.536  33.999  28.108  1.00  0.00    -0.744 OA
ENDBRANCH  71  72
ENDBRANCH  50  64
BRANCH  51  76
ATOM     76  C   UNL A   1      45.499  27.764  32.407  1.00  0.00     0.058 A 
ATOM     77  C   UNL A   1      45.481  26.849  33.467  1.00  0.00     0.135 A 
ATOM     78  C   UNL A   1      46.690  27.901  31.676  1.00  0.00     0.135 A 
ATOM     79  F   UNL A   1      44.366  26.688  34.196  1.00  0.00    -0.206 F 
ATOM     80  C   UNL A   1      46.600  26.088  33.789  1.00  0.00     0.059 A 
ATOM     81  C   UNL A   1      47.815  27.136  31.964  1.00  0.00     0.059 A 
ATOM     82  F   UNL A   1      46.750  28.754  30.641  1.00  0.00    -0.206 F 
ATOM     83  C   UNL A   1      47.760  26.235  33.026  1.00  0.00     0.060 A 
BRANCH  83  84
ATOM     84  S   UNL A   1      49.181  25.182  33.394  1.00  0.00     0.124 S 
ATOM     85  O   UNL A   1      48.544  24.056  34.066  1.00  0.00    -0.237 OA
ATOM     86  O   UNL A   1      49.718  24.911  32.063  1.00  0.00    -0.237 OA
ATOM     87  O   UNL A   1      50.016  26.033  34.236  1.00  0.00    -0.744 OA
ENDBRANCH  83  84
ENDBRANCH  51  76
BRANCH  63  88
ATOM     88  C   UNL A   1      42.815  33.923  34.278  1.00  0.00     0.058 A 
ATOM     89  C   UNL A   1      43.556  35.000  33.769  1.00  0.00     0.135 A 
ATOM     90  C   UNL A   1      42.490  33.928  35.642  1.00  0.00     0.135 A 
ATOM     91  F   UNL A   1      43.897  35.033  32.471  1.00  0.00    -0.206 F 
ATOM     92  C   UNL A   1      43.965  36.047  34.588  1.00  0.00     0.059 A 
ATOM     93  C   UNL A   1      42.874  34.973  36.476  1.00  0.00     0.059 A 
ATOM     94  F   UNL A   1      41.778  32.921  36.172  1.00  0.00    -0.206 F 
ATOM     95  C   UNL A   1      43.616  36.026  35.939  1.00  0.00     0.060 A 
BRANCH  95  96
ATOM     96  S   UNL A   1      44.112  37.415  36.980  1.00  0.00     0.124 S 
ATOM     97  O   UNL A   1      44.157  38.506  36.014  1.00  0.00    -0.237 OA
ATOM     98  O   UNL A   1      43.028  37.477  37.957  1.00  0.00    -0.237 OA
ATOM     99  O   UNL A   1      45.404  36.994  37.515  1.00  0.00    -0.744 OA
ENDBRANCH  95  96
ENDBRANCH  63  88
ENDBRANCH  37  38
ENDBRANCH  29  32
ENDBRANCH  27  28
ENDBRANCH   1  27
TORSDOF 17
ENDMDL
