MODEL 1
REMARK VINA RESULT:     -11.6      0.000      0.000
REMARK SMILES C[C@H]1[C@@H](C(=O)NCCCCNC(=O)c2ccc(-c3c4nc(c(-c5c(F)cc(S(=O)(=O)[O-])cc5F)c5ccc([nH]5)c(-c5c(F)cc(S(=O)(=O)[O-])cc5F)c5nc(c(-c6c(F)cc(S(=O)(=O)[O-])cc6F)c6ccc3[nH]6)C=C5)C=C4)cc2)CC[N@@H+]1CC1(O)CCCC1
REMARK SMILES IDX 8 1 7 2 6 3 4 4 5 5 3 7 1 8 2 9 82 10 80 11 81 12 83 14
REMARK SMILES IDX 84 15 86 16 89 17 87 18 88 19 85 20 9 22 10 23 11 24 12 25
REMARK SMILES IDX 13 27 14 28 15 29 79 30 16 31 78 32 17 33 18 34 19 35 72 36
REMARK SMILES IDX 20 37 77 38 71 39 73 40 21 41 76 42 70 43 69 44 22 46 56 47
REMARK SMILES IDX 35 48 55 49 36 50 39 51 54 52 74 53 37 54 38 55 53 57 75 58
REMARK SMILES IDX 40 59 23 60 24 61 33 62 25 63 26 64 32 65 34 66 27 67 28 68
REMARK SMILES IDX 29 69 30 70 31 71 57 72 58 73 67 74 59 75 60 76 66 77 68 78
REMARK SMILES IDX 61 79 62 80 63 81 64 82 65 83 41 84 42 85 51 86 43 87 44 88
REMARK SMILES IDX 50 89 52 90 45 91 46 92 47 93 48 94 49 95
REMARK H PARENT 6 6 82 13 85 21 11 26 73 45 39 56
REMARK Flexibility Score: inf
ROOT
ATOM      1  C   UNL A   1      34.204  32.948  28.001  1.00  0.00     0.023 C 
ENDROOT
BRANCH   1   2
ATOM      2  C   UNL A   1      33.370  31.762  27.507  1.00  0.00     0.116 C 
BRANCH   2   3
ATOM      3  N   UNL A   1      34.265  30.697  27.121  1.00  0.00    -0.356 N 
ATOM      4  C   UNL A   1      33.974  29.524  26.492  1.00  0.00     0.229 C 
ATOM      5  O   UNL A   1      34.779  28.602  26.644  1.00  0.00    -0.275 OA
ATOM      6  H   UNL A   1      35.215  30.836  27.343  1.00  0.00     0.163 HD
BRANCH   4   7
ATOM      7  C   UNL A   1      32.800  29.439  25.515  1.00  0.00     0.142 C 
ATOM      8  C   UNL A   1      31.471  27.773  27.099  1.00  0.00     0.076 C 
ATOM      9  C   UNL A   1      31.552  28.576  25.812  1.00  0.00     0.193 C 
ATOM     10  N   UNL A   1      31.461  27.586  24.738  1.00  0.00    -0.330 N 
ATOM     11  C   UNL A   1      33.290  28.921  24.150  1.00  0.00     0.081 C 
ATOM     12  C   UNL A   1      32.737  27.517  24.055  1.00  0.00     0.263 C 
ATOM     13  H   UNL A   1      31.303  26.670  25.158  1.00  0.00     0.348 HD
BRANCH  10  14
ATOM     14  C   UNL A   1      30.237  27.575  23.937  1.00  0.00     0.297 C 
BRANCH  14  15
ATOM     15  C   UNL A   1      29.811  28.811  23.107  1.00  0.00     0.113 C 
ATOM     16  C   UNL A   1      29.873  30.164  23.822  1.00  0.00     0.041 C 
ATOM     17  C   UNL A   1      28.320  28.739  22.752  1.00  0.00     0.041 C 
ATOM     18  C   UNL A   1      28.963  31.075  22.999  1.00  0.00     0.003 C 
ATOM     19  C   UNL A   1      27.987  30.151  22.273  1.00  0.00     0.003 C 
BRANCH  15  20
ATOM     20  O   UNL A   1      30.518  28.846  21.862  1.00  0.00    -0.384 OA
ATOM     21  H   UNL A   1      30.952  29.708  21.760  1.00  0.00     0.211 HD
ENDBRANCH  15  20
ENDBRANCH  14  15
ENDBRANCH  10  14
ENDBRANCH   4   7
ENDBRANCH   2   3
ENDBRANCH   1   2
BRANCH   1  22
ATOM     22  C   UNL A   1      35.705  32.710  28.027  1.00  0.00     0.023 C 
BRANCH  22  23
ATOM     23  C   UNL A   1      36.287  32.616  29.422  1.00  0.00     0.116 C 
BRANCH  23  24
ATOM     24  N   UNL A   1      35.806  31.460  30.171  1.00  0.00    -0.352 N 
ATOM     25  C   UNL A   1      36.471  30.288  30.446  1.00  0.00     0.251 C 
ATOM     26  H   UNL A   1      34.889  31.527  30.525  1.00  0.00     0.163 HD
ATOM     27  O   UNL A   1      35.902  29.355  31.001  1.00  0.00    -0.269 OA
BRANCH  25  28
ATOM     28  C   UNL A   1      37.875  30.176  30.013  1.00  0.00     0.039 A 
ATOM     29  C   UNL A   1      38.883  30.135  30.976  1.00  0.00     0.014 A 
ATOM     30  C   UNL A   1      38.161  29.968  28.662  1.00  0.00     0.014 A 
ATOM     31  C   UNL A   1      40.178  29.797  30.587  1.00  0.00     0.010 A 
ATOM     32  C   UNL A   1      39.421  29.524  28.297  1.00  0.00     0.010 A 
ATOM     33  C   UNL A   1      40.446  29.442  29.254  1.00  0.00    -0.014 A 
BRANCH  33  34
ATOM     34  C   UNL A   1      41.792  29.001  28.820  1.00  0.00     0.031 A 
ATOM     35  C   UNL A   1      42.907  30.009  28.751  1.00  0.00     0.074 A 
ATOM     36  C   UNL A   1      41.987  27.734  28.404  1.00  0.00     0.049 A 
ATOM     37  N   UNL A   1      44.121  29.868  28.288  1.00  0.00    -0.248 NA
ATOM     38  C   UNL A   1      42.599  31.371  29.220  1.00  0.00     0.031 C 
ATOM     39  C   UNL A   1      40.962  26.687  28.353  1.00  0.00     0.029 A 
ATOM     40  N   UNL A   1      43.116  27.112  27.935  1.00  0.00    -0.354 N 
ATOM     41  C   UNL A   1      44.704  31.126  28.376  1.00  0.00     0.074 A 
ATOM     42  C   UNL A   1      43.695  32.030  28.878  1.00  0.00     0.031 C 
ATOM     43  C   UNL A   1      41.518  25.547  27.910  1.00  0.00     0.029 A 
ATOM     44  C   UNL A   1      42.927  25.787  27.616  1.00  0.00     0.049 A 
ATOM     45  H   UNL A   1      43.981  27.572  27.836  1.00  0.00     0.167 HD
ATOM     46  C   UNL A   1      45.977  31.489  28.098  1.00  0.00     0.037 A 
ATOM     47  C   UNL A   1      43.796  24.874  27.144  1.00  0.00     0.037 A 
ATOM     48  C   UNL A   1      46.993  30.569  27.666  1.00  0.00     0.049 A 
ATOM     49  C   UNL A   1      45.223  25.284  26.907  1.00  0.00     0.074 A 
ATOM     50  C   UNL A   1      48.334  30.812  27.433  1.00  0.00     0.029 A 
ATOM     51  N   UNL A   1      46.778  29.221  27.417  1.00  0.00    -0.354 N 
ATOM     52  N   UNL A   1      45.776  26.465  27.054  1.00  0.00    -0.248 NA
ATOM     53  C   UNL A   1      46.149  24.238  26.448  1.00  0.00     0.031 C 
ATOM     54  C   UNL A   1      48.928  29.613  27.024  1.00  0.00     0.029 A 
ATOM     55  C   UNL A   1      47.962  28.618  27.032  1.00  0.00     0.049 A 
ATOM     56  H   UNL A   1      45.911  28.762  27.503  1.00  0.00     0.167 HD
ATOM     57  C   UNL A   1      47.117  26.301  26.729  1.00  0.00     0.074 A 
ATOM     58  C   UNL A   1      47.295  24.903  26.387  1.00  0.00     0.031 C 
ATOM     59  C   UNL A   1      48.112  27.221  26.711  1.00  0.00     0.037 A 
BRANCH  46  60
ATOM     60  C   UNL A   1      46.338  32.936  28.280  1.00  0.00     0.058 A 
ATOM     61  C   UNL A   1      46.199  33.865  27.236  1.00  0.00     0.135 A 
ATOM     62  C   UNL A   1      46.829  33.402  29.510  1.00  0.00     0.135 A 
ATOM     63  F   UNL A   1      45.754  33.467  26.033  1.00  0.00    -0.206 F 
ATOM     64  C   UNL A   1      46.571  35.194  27.391  1.00  0.00     0.059 A 
ATOM     65  C   UNL A   1      47.182  34.736  29.696  1.00  0.00     0.059 A 
ATOM     66  F   UNL A   1      46.985  32.556  30.541  1.00  0.00    -0.206 F 
ATOM     67  C   UNL A   1      47.066  35.620  28.624  1.00  0.00     0.060 A 
BRANCH  67  68
ATOM     68  S   UNL A   1      47.555  37.348  28.809  1.00  0.00     0.124 S 
ATOM     69  O   UNL A   1      48.165  37.616  27.510  1.00  0.00    -0.237 OA
ATOM     70  O   UNL A   1      46.279  38.011  29.057  1.00  0.00    -0.237 OA
ATOM     71  O   UNL A   1      48.474  37.320  29.942  1.00  0.00    -0.744 OA
ENDBRANCH  67  68
ENDBRANCH  46  60
BRANCH  47  72
ATOM     72  C   UNL A   1      43.353  23.475  26.910  1.00  0.00     0.058 A 
ATOM     73  C   UNL A   1      43.213  22.977  25.606  1.00  0.00     0.135 A 
ATOM     74  C   UNL A   1      43.078  22.605  27.976  1.00  0.00     0.135 A 
ATOM     75  F   UNL A   1      43.461  23.772  24.555  1.00  0.00    -0.206 F 
ATOM     76  C   UNL A   1      42.799  21.671  25.364  1.00  0.00     0.059 A 
ATOM     77  C   UNL A   1      42.682  21.288  27.759  1.00  0.00     0.059 A 
ATOM     78  F   UNL A   1      43.216  23.028  29.242  1.00  0.00    -0.206 F 
ATOM     79  C   UNL A   1      42.536  20.833  26.449  1.00  0.00     0.060 A 
BRANCH  79  80
ATOM     80  S   UNL A   1      42.046  19.125  26.126  1.00  0.00     0.124 S 
ATOM     81  O   UNL A   1      42.353  18.485  27.399  1.00  0.00    -0.237 OA
ATOM     82  O   UNL A   1      40.629  19.266  25.806  1.00  0.00    -0.237 OA
ATOM     83  O   UNL A   1      42.897  18.741  25.002  1.00  0.00    -0.744 OA
ENDBRANCH  79  80
ENDBRANCH  47  72
BRANCH  59  84
ATOM     84  C   UNL A   1      49.485  26.742  26.341  1.00  0.00     0.058 A 
ATOM     85  C   UNL A   1      50.264  25.991  27.234  1.00  0.00     0.135 A 
ATOM     86  C   UNL A   1      50.000  26.987  25.058  1.00  0.00     0.135 A 
ATOM     87  F   UNL A   1      49.815  25.738  28.474  1.00  0.00    -0.206 F 
ATOM     88  C   UNL A   1      51.518  25.510  26.873  1.00  0.00     0.059 A 
ATOM     89  C   UNL A   1      51.241  26.496  24.669  1.00  0.00     0.059 A 
ATOM     90  F   UNL A   1      49.287  27.691  24.166  1.00  0.00    -0.206 F 
ATOM     91  C   UNL A   1      51.997  25.767  25.586  1.00  0.00     0.060 A 
BRANCH  91  92
ATOM     92  S   UNL A   1      53.607  25.103  25.112  1.00  0.00     0.124 S 
ATOM     93  O   UNL A   1      53.745  25.613  23.752  1.00  0.00    -0.237 OA
ATOM     94  O   UNL A   1      54.497  25.697  26.106  1.00  0.00    -0.237 OA
ATOM     95  O   UNL A   1      53.425  23.659  25.227  1.00  0.00    -0.744 OA
ENDBRANCH  91  92
ENDBRANCH  59  84
ENDBRANCH  33  34
ENDBRANCH  25  28
ENDBRANCH  23  24
ENDBRANCH  22  23
ENDBRANCH   1  22
TORSDOF 17
ENDMDL
MODEL 2
REMARK VINA RESULT:     -11.5      6.771     12.065
REMARK SMILES C[C@H]1[C@@H](C(=O)NCCCCNC(=O)c2ccc(-c3c4nc(c(-c5c(F)cc(S(=O)(=O)[O-])cc5F)c5ccc([nH]5)c(-c5c(F)cc(S(=O)(=O)[O-])cc5F)c5nc(c(-c6c(F)cc(S(=O)(=O)[O-])cc6F)c6ccc3[nH]6)C=C5)C=C4)cc2)CC[N@@H+]1CC1(O)CCCC1
REMARK SMILES IDX 8 1 7 2 6 3 4 4 5 5 3 7 1 8 2 9 82 10 80 11 81 12 83 14
REMARK SMILES IDX 84 15 86 16 89 17 87 18 88 19 85 20 9 22 10 23 11 24 12 25
REMARK SMILES IDX 13 27 14 28 15 29 79 30 16 31 78 32 17 33 18 34 19 35 72 36
REMARK SMILES IDX 20 37 77 38 71 39 73 40 21 41 76 42 70 43 69 44 22 46 56 47
REMARK SMILES IDX 35 48 55 49 36 50 39 51 54 52 74 53 37 54 38 55 53 57 75 58
REMARK SMILES IDX 40 59 23 60 24 61 33 62 25 63 26 64 32 65 34 66 27 67 28 68
REMARK SMILES IDX 29 69 30 70 31 71 57 72 58 73 67 74 59 75 60 76 66 77 68 78
REMARK SMILES IDX 61 79 62 80 63 81 64 82 65 83 41 84 42 85 51 86 43 87 44 88
REMARK SMILES IDX 50 89 52 90 45 91 46 92 47 93 48 94 49 95
REMARK H PARENT 6 6 82 13 85 21 11 26 73 45 39 56
REMARK Flexibility Score: inf
ROOT
ATOM      1  C   UNL A   1      36.022  23.231  26.064  1.00  0.00     0.023 C 
ENDROOT
BRANCH   1   2
ATOM      2  C   UNL A   1      34.859  24.161  25.707  1.00  0.00     0.116 C 
BRANCH   2   3
ATOM      3  N   UNL A   1      34.895  24.421  24.287  1.00  0.00    -0.356 N 
ATOM      4  C   UNL A   1      34.041  25.170  23.535  1.00  0.00     0.229 C 
ATOM      5  O   UNL A   1      33.998  24.915  22.330  1.00  0.00    -0.275 OA
ATOM      6  H   UNL A   1      35.637  24.000  23.795  1.00  0.00     0.163 HD
BRANCH   4   7
ATOM      7  C   UNL A   1      33.319  26.372  24.148  1.00  0.00     0.142 C 
ATOM      8  C   UNL A   1      31.035  25.739  22.952  1.00  0.00     0.076 C 
ATOM      9  C   UNL A   1      31.826  26.658  23.867  1.00  0.00     0.193 C 
ATOM     10  N   UNL A   1      31.762  27.976  23.233  1.00  0.00    -0.330 N 
ATOM     11  C   UNL A   1      34.028  27.676  23.736  1.00  0.00     0.081 C 
ATOM     12  C   UNL A   1      33.084  28.327  22.752  1.00  0.00     0.263 C 
ATOM     13  H   UNL A   1      31.159  27.909  22.413  1.00  0.00     0.348 HD
BRANCH  10  14
ATOM     14  C   UNL A   1      30.964  29.004  23.900  1.00  0.00     0.297 C 
BRANCH  14  15
ATOM     15  C   UNL A   1      29.903  29.823  23.124  1.00  0.00     0.113 C 
ATOM     16  C   UNL A   1      29.290  31.015  23.865  1.00  0.00     0.041 C 
ATOM     17  C   UNL A   1      28.652  28.975  22.854  1.00  0.00     0.041 C 
ATOM     18  C   UNL A   1      27.989  31.304  23.117  1.00  0.00     0.003 C 
ATOM     19  C   UNL A   1      27.600  29.997  22.429  1.00  0.00     0.003 C 
BRANCH  15  20
ATOM     20  O   UNL A   1      30.409  30.211  21.841  1.00  0.00    -0.384 OA
ATOM     21  H   UNL A   1      31.313  30.548  21.938  1.00  0.00     0.211 HD
ENDBRANCH  15  20
ENDBRANCH  14  15
ENDBRANCH  10  14
ENDBRANCH   4   7
ENDBRANCH   2   3
ENDBRANCH   1   2
BRANCH   1  22
ATOM     22  C   UNL A   1      37.394  23.727  25.639  1.00  0.00     0.023 C 
BRANCH  22  23
ATOM     23  C   UNL A   1      38.421  23.721  26.752  1.00  0.00     0.116 C 
BRANCH  23  24
ATOM     24  N   UNL A   1      39.797  23.744  26.268  1.00  0.00    -0.352 N 
ATOM     25  C   UNL A   1      40.767  24.690  26.504  1.00  0.00     0.251 C 
ATOM     26  H   UNL A   1      40.067  22.985  25.701  1.00  0.00     0.163 HD
ATOM     27  O   UNL A   1      41.855  24.632  25.943  1.00  0.00    -0.269 OA
BRANCH  25  28
ATOM     28  C   UNL A   1      40.439  25.798  27.417  1.00  0.00     0.039 A 
ATOM     29  C   UNL A   1      39.574  25.566  28.486  1.00  0.00     0.014 A 
ATOM     30  C   UNL A   1      41.108  27.017  27.284  1.00  0.00     0.014 A 
ATOM     31  C   UNL A   1      39.446  26.538  29.478  1.00  0.00     0.010 A 
ATOM     32  C   UNL A   1      41.064  27.930  28.325  1.00  0.00     0.010 A 
ATOM     33  C   UNL A   1      40.227  27.705  29.429  1.00  0.00    -0.014 A 
BRANCH  33  34
ATOM     34  C   UNL A   1      40.176  28.723  30.504  1.00  0.00     0.031 A 
ATOM     35  C   UNL A   1      41.090  28.582  31.691  1.00  0.00     0.074 A 
ATOM     36  C   UNL A   1      39.257  29.708  30.459  1.00  0.00     0.049 A 
ATOM     37  N   UNL A   1      41.128  29.285  32.792  1.00  0.00    -0.248 NA
ATOM     38  C   UNL A   1      42.057  27.472  31.655  1.00  0.00     0.031 C 
ATOM     39  C   UNL A   1      38.267  29.901  29.396  1.00  0.00     0.029 A 
ATOM     40  N   UNL A   1      39.000  30.729  31.338  1.00  0.00    -0.354 N 
ATOM     41  C   UNL A   1      42.092  28.680  33.590  1.00  0.00     0.074 A 
ATOM     42  C   UNL A   1      42.571  27.519  32.874  1.00  0.00     0.031 C 
ATOM     43  C   UNL A   1      37.533  30.993  29.671  1.00  0.00     0.029 A 
ATOM     44  C   UNL A   1      37.977  31.558  30.940  1.00  0.00     0.049 A 
ATOM     45  H   UNL A   1      39.502  30.857  32.175  1.00  0.00     0.167 HD
ATOM     46  C   UNL A   1      42.563  29.075  34.795  1.00  0.00     0.037 A 
ATOM     47  C   UNL A   1      37.462  32.651  31.534  1.00  0.00     0.037 A 
ATOM     48  C   UNL A   1      42.130  30.269  35.467  1.00  0.00     0.049 A 
ATOM     49  C   UNL A   1      38.047  33.111  32.841  1.00  0.00     0.074 A 
ATOM     50  C   UNL A   1      42.596  30.809  36.652  1.00  0.00     0.029 A 
ATOM     51  N   UNL A   1      41.137  31.119  35.000  1.00  0.00    -0.354 N 
ATOM     52  N   UNL A   1      39.003  32.562  33.554  1.00  0.00    -0.248 NA
ATOM     53  C   UNL A   1      37.493  34.342  33.421  1.00  0.00     0.031 C 
ATOM     54  C   UNL A   1      41.870  31.977  36.912  1.00  0.00     0.029 A 
ATOM     55  C   UNL A   1      40.974  32.179  35.873  1.00  0.00     0.049 A 
ATOM     56  H   UNL A   1      40.625  30.987  34.169  1.00  0.00     0.167 HD
ATOM     57  C   UNL A   1      39.180  33.392  34.654  1.00  0.00     0.074 A 
ATOM     58  C   UNL A   1      38.241  34.486  34.508  1.00  0.00     0.031 C 
ATOM     59  C   UNL A   1      40.040  33.262  35.694  1.00  0.00     0.037 A 
BRANCH  46  60
ATOM     60  C   UNL A   1      43.614  28.218  35.441  1.00  0.00     0.058 A 
ATOM     61  C   UNL A   1      43.276  27.207  36.355  1.00  0.00     0.135 A 
ATOM     62  C   UNL A   1      44.973  28.409  35.146  1.00  0.00     0.135 A 
ATOM     63  F   UNL A   1      41.992  26.997  36.688  1.00  0.00    -0.206 F 
ATOM     64  C   UNL A   1      44.251  26.441  36.984  1.00  0.00     0.059 A 
ATOM     65  C   UNL A   1      45.963  27.635  35.744  1.00  0.00     0.059 A 
ATOM     66  F   UNL A   1      45.350  29.364  34.282  1.00  0.00    -0.206 F 
ATOM     67  C   UNL A   1      45.593  26.666  36.675  1.00  0.00     0.060 A 
BRANCH  67  68
ATOM     68  S   UNL A   1      46.849  25.671  37.507  1.00  0.00     0.124 S 
ATOM     69  O   UNL A   1      48.068  26.399  37.165  1.00  0.00    -0.237 OA
ATOM     70  O   UNL A   1      46.437  25.749  38.905  1.00  0.00    -0.237 OA
ATOM     71  O   UNL A   1      46.706  24.359  36.887  1.00  0.00    -0.744 OA
ENDBRANCH  67  68
ENDBRANCH  46  60
BRANCH  47  72
ATOM     72  C   UNL A   1      36.366  33.410  30.876  1.00  0.00     0.058 A 
ATOM     73  C   UNL A   1      35.067  33.390  31.403  1.00  0.00     0.135 A 
ATOM     74  C   UNL A   1      36.595  34.180  29.727  1.00  0.00     0.135 A 
ATOM     75  F   UNL A   1      34.799  32.665  32.500  1.00  0.00    -0.206 F 
ATOM     76  C   UNL A   1      34.026  34.092  30.804  1.00  0.00     0.059 A 
ATOM     77  C   UNL A   1      35.574  34.908  29.121  1.00  0.00     0.059 A 
ATOM     78  F   UNL A   1      37.826  34.247  29.196  1.00  0.00    -0.206 F 
ATOM     79  C   UNL A   1      34.290  34.849  29.662  1.00  0.00     0.060 A 
BRANCH  79  80
ATOM     80  S   UNL A   1      32.944  35.797  28.919  1.00  0.00     0.124 S 
ATOM     81  O   UNL A   1      32.153  36.152  30.091  1.00  0.00    -0.237 OA
ATOM     82  O   UNL A   1      33.658  36.894  28.274  1.00  0.00    -0.237 OA
ATOM     83  O   UNL A   1      32.327  34.839  28.005  1.00  0.00    -0.744 OA
ENDBRANCH  79  80
ENDBRANCH  47  72
BRANCH  59  84
ATOM     84  C   UNL A   1      40.027  34.341  36.736  1.00  0.00     0.058 A 
ATOM     85  C   UNL A   1      39.252  34.227  37.899  1.00  0.00     0.135 A 
ATOM     86  C   UNL A   1      40.848  35.472  36.596  1.00  0.00     0.135 A 
ATOM     87  F   UNL A   1      38.447  33.166  38.074  1.00  0.00    -0.206 F 
ATOM     88  C   UNL A   1      39.277  35.208  38.885  1.00  0.00     0.059 A 
ATOM     89  C   UNL A   1      40.905  36.453  37.580  1.00  0.00     0.059 A 
ATOM     90  F   UNL A   1      41.616  35.619  35.506  1.00  0.00    -0.206 F 
ATOM     91  C   UNL A   1      40.109  36.317  38.716  1.00  0.00     0.060 A 
BRANCH  91  92
ATOM     92  S   UNL A   1      40.167  37.563  40.020  1.00  0.00     0.124 S 
ATOM     93  O   UNL A   1      40.254  36.733  41.216  1.00  0.00    -0.237 OA
ATOM     94  O   UNL A   1      41.372  38.316  39.682  1.00  0.00    -0.237 OA
ATOM     95  O   UNL A   1      38.913  38.291  39.849  1.00  0.00    -0.744 OA
ENDBRANCH  91  92
ENDBRANCH  59  84
ENDBRANCH  33  34
ENDBRANCH  25  28
ENDBRANCH  23  24
ENDBRANCH  22  23
ENDBRANCH   1  22
TORSDOF 17
ENDMDL
MODEL 3
REMARK VINA RESULT:     -11.4      6.833     12.265
REMARK SMILES C[C@H]1[C@@H](C(=O)NCCCCNC(=O)c2ccc(-c3c4nc(c(-c5c(F)cc(S(=O)(=O)[O-])cc5F)c5ccc([nH]5)c(-c5c(F)cc(S(=O)(=O)[O-])cc5F)c5nc(c(-c6c(F)cc(S(=O)(=O)[O-])cc6F)c6ccc3[nH]6)C=C5)C=C4)cc2)CC[N@@H+]1CC1(O)CCCC1
REMARK SMILES IDX 8 1 7 2 6 3 4 4 5 5 3 7 1 8 2 9 82 10 80 11 81 12 83 14
REMARK SMILES IDX 84 15 86 16 89 17 87 18 88 19 85 20 9 22 10 23 11 24 12 25
REMARK SMILES IDX 13 27 14 28 15 29 79 30 16 31 78 32 17 33 18 34 19 35 72 36
REMARK SMILES IDX 20 37 77 38 71 39 73 40 21 41 76 42 70 43 69 44 22 46 56 47
REMARK SMILES IDX 35 48 55 49 36 50 39 51 54 52 74 53 37 54 38 55 53 57 75 58
REMARK SMILES IDX 40 59 23 60 24 61 33 62 25 63 26 64 32 65 34 66 27 67 28 68
REMARK SMILES IDX 29 69 30 70 31 71 57 72 58 73 67 74 59 75 60 76 66 77 68 78
REMARK SMILES IDX 61 79 62 80 63 81 64 82 65 83 41 84 42 85 51 86 43 87 44 88
REMARK SMILES IDX 50 89 52 90 45 91 46 92 47 93 48 94 49 95
REMARK H PARENT 6 6 82 13 85 21 11 26 73 45 39 56
REMARK Flexibility Score: inf
ROOT
ATOM      1  C   UNL A   1      38.808  22.759  26.457  1.00  0.00     0.023 C 
ENDROOT
BRANCH   1   2
ATOM      2  C   UNL A   1      38.014  21.904  25.465  1.00  0.00     0.116 C 
BRANCH   2   3
ATOM      3  N   UNL A   1      36.821  21.423  26.121  1.00  0.00    -0.356 N 
ATOM      4  C   UNL A   1      35.520  21.734  25.863  1.00  0.00     0.229 C 
ATOM      5  O   UNL A   1      34.718  21.561  26.783  1.00  0.00    -0.275 OA
ATOM      6  H   UNL A   1      36.968  20.782  26.855  1.00  0.00     0.163 HD
BRANCH   4   7
ATOM      7  C   UNL A   1      35.079  22.106  24.446  1.00  0.00     0.142 C 
ATOM      8  C   UNL A   1      35.199  24.704  24.984  1.00  0.00     0.076 C 
ATOM      9  C   UNL A   1      34.923  23.579  24.001  1.00  0.00     0.193 C 
ATOM     10  N   UNL A   1      33.524  23.752  23.606  1.00  0.00    -0.330 N 
ATOM     11  C   UNL A   1      33.705  21.481  24.143  1.00  0.00     0.081 C 
ATOM     12  C   UNL A   1      32.747  22.651  24.141  1.00  0.00     0.263 C 
ATOM     13  H   UNL A   1      33.169  24.602  24.044  1.00  0.00     0.348 HD
BRANCH  10  14
ATOM     14  C   UNL A   1      33.263  24.192  22.236  1.00  0.00     0.297 C 
BRANCH  14  15
ATOM     15  C   UNL A   1      32.833  25.648  21.930  1.00  0.00     0.113 C 
ATOM     16  C   UNL A   1      33.527  26.746  22.741  1.00  0.00     0.041 C 
ATOM     17  C   UNL A   1      31.368  25.876  22.326  1.00  0.00     0.041 C 
ATOM     18  C   UNL A   1      32.602  27.956  22.619  1.00  0.00     0.003 C 
ATOM     19  C   UNL A   1      31.215  27.396  22.307  1.00  0.00     0.003 C 
BRANCH  15  20
ATOM     20  O   UNL A   1      32.914  25.909  20.524  1.00  0.00    -0.384 OA
ATOM     21  H   UNL A   1      32.034  25.813  20.125  1.00  0.00     0.211 HD
ENDBRANCH  15  20
ENDBRANCH  14  15
ENDBRANCH  10  14
ENDBRANCH   4   7
ENDBRANCH   2   3
ENDBRANCH   1   2
BRANCH   1  22
ATOM     22  C   UNL A   1      40.037  22.085  27.044  1.00  0.00     0.023 C 
BRANCH  22  23
ATOM     23  C   UNL A   1      41.209  23.022  27.253  1.00  0.00     0.116 C 
BRANCH  23  24
ATOM     24  N   UNL A   1      41.476  23.878  26.102  1.00  0.00    -0.352 N 
ATOM     25  C   UNL A   1      41.608  25.246  26.071  1.00  0.00     0.251 C 
ATOM     26  H   UNL A   1      41.575  23.417  25.237  1.00  0.00     0.163 HD
ATOM     27  O   UNL A   1      41.729  25.845  25.008  1.00  0.00    -0.269 OA
BRANCH  25  28
ATOM     28  C   UNL A   1      41.556  25.971  27.352  1.00  0.00     0.039 A 
ATOM     29  C   UNL A   1      42.601  26.828  27.692  1.00  0.00     0.014 A 
ATOM     30  C   UNL A   1      40.400  25.899  28.134  1.00  0.00     0.014 A 
ATOM     31  C   UNL A   1      42.448  27.686  28.781  1.00  0.00     0.010 A 
ATOM     32  C   UNL A   1      40.207  26.828  29.143  1.00  0.00     0.010 A 
ATOM     33  C   UNL A   1      41.232  27.725  29.483  1.00  0.00    -0.014 A 
BRANCH  33  34
ATOM     34  C   UNL A   1      41.004  28.678  30.595  1.00  0.00     0.031 A 
ATOM     35  C   UNL A   1      41.846  28.571  31.837  1.00  0.00     0.074 A 
ATOM     36  C   UNL A   1      39.993  29.566  30.528  1.00  0.00     0.049 A 
ATOM     37  N   UNL A   1      41.738  29.217  32.968  1.00  0.00    -0.248 NA
ATOM     38  C   UNL A   1      42.924  27.566  31.822  1.00  0.00     0.031 C 
ATOM     39  C   UNL A   1      39.060  29.712  29.406  1.00  0.00     0.029 A 
ATOM     40  N   UNL A   1      39.573  30.511  31.429  1.00  0.00    -0.354 N 
ATOM     41  C   UNL A   1      42.705  28.674  33.805  1.00  0.00     0.074 A 
ATOM     42  C   UNL A   1      43.348  27.604  33.076  1.00  0.00     0.031 C 
ATOM     43  C   UNL A   1      38.201  30.709  29.674  1.00  0.00     0.029 A 
ATOM     44  C   UNL A   1      38.498  31.252  30.995  1.00  0.00     0.049 A 
ATOM     45  H   UNL A   1      40.002  30.647  32.305  1.00  0.00     0.167 HD
ATOM     46  C   UNL A   1      43.050  29.053  35.056  1.00  0.00     0.037 A 
ATOM     47  C   UNL A   1      37.834  32.256  31.598  1.00  0.00     0.037 A 
ATOM     48  C   UNL A   1      42.452  30.162  35.747  1.00  0.00     0.049 A 
ATOM     49  C   UNL A   1      38.280  32.707  32.961  1.00  0.00     0.074 A 
ATOM     50  C   UNL A   1      42.780  30.686  36.984  1.00  0.00     0.029 A 
ATOM     51  N   UNL A   1      41.409  30.930  35.247  1.00  0.00    -0.354 N 
ATOM     52  N   UNL A   1      39.238  32.222  33.716  1.00  0.00    -0.248 NA
ATOM     53  C   UNL A   1      37.564  33.846  33.553  1.00  0.00     0.031 C 
ATOM     54  C   UNL A   1      41.921  31.761  37.241  1.00  0.00     0.029 A 
ATOM     55  C   UNL A   1      41.080  31.924  36.151  1.00  0.00     0.049 A 
ATOM     56  H   UNL A   1      40.971  30.789  34.377  1.00  0.00     0.167 HD
ATOM     57  C   UNL A   1      39.255  33.009  34.861  1.00  0.00     0.074 A 
ATOM     58  C   UNL A   1      38.219  34.009  34.695  1.00  0.00     0.031 C 
ATOM     59  C   UNL A   1      40.052  32.914  35.953  1.00  0.00     0.037 A 
BRANCH  46  60
ATOM     60  C   UNL A   1      44.140  28.275  35.738  1.00  0.00     0.058 A 
ATOM     61  C   UNL A   1      43.851  27.176  36.563  1.00  0.00     0.135 A 
ATOM     62  C   UNL A   1      45.487  28.630  35.567  1.00  0.00     0.135 A 
ATOM     63  F   UNL A   1      42.577  26.808  36.777  1.00  0.00    -0.206 F 
ATOM     64  C   UNL A   1      44.855  26.481  37.227  1.00  0.00     0.059 A 
ATOM     65  C   UNL A   1      46.510  27.931  36.200  1.00  0.00     0.059 A 
ATOM     66  F   UNL A   1      45.819  29.675  34.792  1.00  0.00    -0.206 F 
ATOM     67  C   UNL A   1      46.183  26.870  37.043  1.00  0.00     0.060 A 
BRANCH  67  68
ATOM     68  S   UNL A   1      47.476  25.965  37.918  1.00  0.00     0.124 S 
ATOM     69  O   UNL A   1      46.888  24.632  38.007  1.00  0.00    -0.237 OA
ATOM     70  O   UNL A   1      48.617  26.094  37.017  1.00  0.00    -0.237 OA
ATOM     71  O   UNL A   1      47.596  26.684  39.182  1.00  0.00    -0.744 OA
ENDBRANCH  67  68
ENDBRANCH  46  60
BRANCH  47  72
ATOM     72  C   UNL A   1      36.712  32.933  30.897  1.00  0.00     0.058 A 
ATOM     73  C   UNL A   1      35.383  32.691  31.275  1.00  0.00     0.135 A 
ATOM     74  C   UNL A   1      36.940  33.843  29.855  1.00  0.00     0.135 A 
ATOM     75  F   UNL A   1      35.114  31.825  32.264  1.00  0.00    -0.206 F 
ATOM     76  C   UNL A   1      34.317  33.312  30.632  1.00  0.00     0.059 A 
ATOM     77  C   UNL A   1      35.891  34.494  29.210  1.00  0.00     0.059 A 
ATOM     78  F   UNL A   1      38.194  34.124  29.470  1.00  0.00    -0.206 F 
ATOM     79  C   UNL A   1      34.581  34.214  29.601  1.00  0.00     0.060 A 
BRANCH  79  80
ATOM     80  S   UNL A   1      33.193  35.053  28.806  1.00  0.00     0.124 S 
ATOM     81  O   UNL A   1      32.673  34.003  27.939  1.00  0.00    -0.237 OA
ATOM     82  O   UNL A   1      32.357  35.414  29.947  1.00  0.00    -0.237 OA
ATOM     83  O   UNL A   1      33.830  36.179  28.126  1.00  0.00    -0.744 OA
ENDBRANCH  79  80
ENDBRANCH  47  72
BRANCH  59  84
ATOM     84  C   UNL A   1      39.859  33.933  37.037  1.00  0.00     0.058 A 
ATOM     85  C   UNL A   1      39.049  33.671  38.152  1.00  0.00     0.135 A 
ATOM     86  C   UNL A   1      40.540  35.160  36.988  1.00  0.00     0.135 A 
ATOM     87  F   UNL A   1      38.374  32.514  38.240  1.00  0.00    -0.206 F 
ATOM     88  C   UNL A   1      38.907  34.599  39.178  1.00  0.00     0.059 A 
ATOM     89  C   UNL A   1      40.430  36.093  38.013  1.00  0.00     0.059 A 
ATOM     90  F   UNL A   1      41.334  35.451  35.946  1.00  0.00    -0.206 F 
ATOM     91  C   UNL A   1      39.604  35.807  39.099  1.00  0.00     0.060 A 
BRANCH  91  92
ATOM     92  S   UNL A   1      39.447  36.988  40.455  1.00  0.00     0.124 S 
ATOM     93  O   UNL A   1      38.879  38.145  39.772  1.00  0.00    -0.237 OA
ATOM     94  O   UNL A   1      38.551  36.293  41.376  1.00  0.00    -0.237 OA
ATOM     95  O   UNL A   1      40.819  37.146  40.927  1.00  0.00    -0.744 OA
ENDBRANCH  91  92
ENDBRANCH  59  84
ENDBRANCH  33  34
ENDBRANCH  25  28
ENDBRANCH  23  24
ENDBRANCH  22  23
ENDBRANCH   1  22
TORSDOF 17
ENDMDL
