MODEL 1
REMARK VINA RESULT:     -11.0      0.000      0.000
REMARK SMILES O=C(NCCCCNC(=O)c1ncc2ccccc2n1)c1ccc(-c2c3nc(c(-c4c(F)cc(S(=O)(=O)[O-])cc4F)c4ccc([nH]4)c(-c4c(F)cc(S(=O)(=O)[O-])cc4F)c4nc(c(-c5c(F)cc(S(=O)(=O)[O-])cc5F)c5ccc2[nH]5)C=C4)C=C3)cc1
REMARK SMILES IDX 4 1 3 2 1 3 2 4 21 6 22 7 86 8 23 9 85 10 24 11 25 12 26 13
REMARK SMILES IDX 79 14 27 15 84 16 78 17 80 18 28 19 83 20 77 21 76 22 29 24
REMARK SMILES IDX 63 25 42 26 62 27 43 28 46 29 61 30 81 31 44 32 45 33 60 35
REMARK SMILES IDX 82 36 47 37 30 38 31 39 40 40 32 41 33 42 39 43 41 44 34 45
REMARK SMILES IDX 35 46 36 47 37 48 38 49 64 50 65 51 74 52 66 53 67 54 73 55
REMARK SMILES IDX 75 56 68 57 69 58 70 59 71 60 72 61 48 62 49 63 58 64 50 65
REMARK SMILES IDX 51 66 57 67 59 68 52 69 53 70 54 71 55 72 56 73 5 74 6 75
REMARK SMILES IDX 7 76 8 77 9 78 10 80 11 81 12 82 20 83 13 84 19 85 14 86
REMARK SMILES IDX 18 87 15 88 17 89 16 90
REMARK H PARENT 3 5 80 23 46 34 8 79
REMARK Flexibility Score: inf
ROOT
ATOM      1  C   UNL A   1      34.672  32.787  29.045  1.00  0.00     0.116 C 
ENDROOT
BRANCH   1   2
ATOM      2  N   UNL A   1      33.918  31.667  28.505  1.00  0.00    -0.352 N 
ATOM      3  O   UNL A   1      33.623  29.655  27.529  1.00  0.00    -0.269 OA
ATOM      4  C   UNL A   1      34.378  30.437  28.100  1.00  0.00     0.251 C 
ATOM      5  H   UNL A   1      32.948  31.810  28.417  1.00  0.00     0.163 HD
BRANCH   4   6
ATOM      6  C   UNL A   1      35.792  30.073  28.336  1.00  0.00     0.039 A 
ATOM      7  C   UNL A   1      36.727  30.152  27.302  1.00  0.00     0.014 A 
ATOM      8  C   UNL A   1      36.186  29.652  29.610  1.00  0.00     0.014 A 
ATOM      9  C   UNL A   1      38.026  29.698  27.506  1.00  0.00     0.010 A 
ATOM     10  C   UNL A   1      37.512  29.269  29.835  1.00  0.00     0.010 A 
ATOM     11  C   UNL A   1      38.437  29.274  28.780  1.00  0.00    -0.014 A 
BRANCH  11  12
ATOM     12  C   UNL A   1      39.867  28.951  29.006  1.00  0.00     0.031 A 
ATOM     13  C   UNL A   1      40.446  27.623  28.610  1.00  0.00     0.074 A 
ATOM     14  C   UNL A   1      40.645  29.894  29.577  1.00  0.00     0.049 A 
ATOM     15  N   UNL A   1      41.676  27.194  28.742  1.00  0.00    -0.248 NA
ATOM     16  C   UNL A   1      39.535  26.646  27.994  1.00  0.00     0.031 C 
ATOM     17  C   UNL A   1      40.178  31.209  30.028  1.00  0.00     0.029 A 
ATOM     18  N   UNL A   1      41.983  29.901  29.870  1.00  0.00    -0.354 N 
ATOM     19  C   UNL A   1      41.685  25.896  28.247  1.00  0.00     0.074 A 
ATOM     20  C   UNL A   1      40.334  25.599  27.821  1.00  0.00     0.031 C 
ATOM     21  C   UNL A   1      41.216  31.903  30.514  1.00  0.00     0.029 A 
ATOM     22  C   UNL A   1      42.409  31.068  30.461  1.00  0.00     0.049 A 
ATOM     23  H   UNL A   1      42.583  29.145  29.677  1.00  0.00     0.167 HD
ATOM     24  C   UNL A   1      42.729  25.038  28.157  1.00  0.00     0.037 A 
ATOM     25  C   UNL A   1      43.617  31.417  30.937  1.00  0.00     0.037 A 
ATOM     26  C   UNL A   1      44.077  25.358  28.559  1.00  0.00     0.049 A 
ATOM     27  C   UNL A   1      44.752  30.441  30.827  1.00  0.00     0.074 A 
ATOM     28  C   UNL A   1      45.217  24.582  28.432  1.00  0.00     0.029 A 
ATOM     29  N   UNL A   1      44.465  26.540  29.170  1.00  0.00    -0.354 N 
ATOM     30  N   UNL A   1      44.753  29.240  30.299  1.00  0.00    -0.248 NA
ATOM     31  C   UNL A   1      46.044  30.860  31.384  1.00  0.00     0.031 C 
ATOM     32  C   UNL A   1      46.286  25.278  29.008  1.00  0.00     0.029 A 
ATOM     33  C   UNL A   1      45.820  26.503  29.458  1.00  0.00     0.049 A 
ATOM     34  H   UNL A   1      43.867  27.296  29.370  1.00  0.00     0.167 HD
ATOM     35  C   UNL A   1      46.046  28.760  30.461  1.00  0.00     0.074 A 
ATOM     36  C   UNL A   1      46.806  29.810  31.108  1.00  0.00     0.031 C 
ATOM     37  C   UNL A   1      46.555  27.553  30.113  1.00  0.00     0.037 A 
BRANCH  24  38
ATOM     38  C   UNL A   1      42.478  23.660  27.611  1.00  0.00     0.058 A 
ATOM     39  C   UNL A   1      42.511  23.397  26.233  1.00  0.00     0.135 A 
ATOM     40  C   UNL A   1      42.313  22.571  28.483  1.00  0.00     0.135 A 
ATOM     41  F   UNL A   1      42.654  24.403  25.355  1.00  0.00    -0.206 F 
ATOM     42  C   UNL A   1      42.390  22.101  25.739  1.00  0.00     0.059 A 
ATOM     43  C   UNL A   1      42.208  21.266  28.012  1.00  0.00     0.059 A 
ATOM     44  F   UNL A   1      42.273  22.770  29.810  1.00  0.00    -0.206 F 
ATOM     45  C   UNL A   1      42.246  21.041  26.636  1.00  0.00     0.060 A 
BRANCH  45  46
ATOM     46  S   UNL A   1      42.145  19.361  25.981  1.00  0.00     0.124 S 
ATOM     47  O   UNL A   1      40.718  19.245  25.697  1.00  0.00    -0.237 OA
ATOM     48  O   UNL A   1      43.019  19.426  24.815  1.00  0.00    -0.237 OA
ATOM     49  O   UNL A   1      42.634  18.535  27.082  1.00  0.00    -0.744 OA
ENDBRANCH  45  46
ENDBRANCH  24  38
BRANCH  25  50
ATOM     50  C   UNL A   1      43.802  32.738  31.592  1.00  0.00     0.058 A 
ATOM     51  C   UNL A   1      43.582  32.906  32.965  1.00  0.00     0.135 A 
ATOM     52  C   UNL A   1      44.210  33.857  30.849  1.00  0.00     0.135 A 
ATOM     53  F   UNL A   1      43.189  31.865  33.714  1.00  0.00    -0.206 F 
ATOM     54  C   UNL A   1      43.738  34.146  33.578  1.00  0.00     0.059 A 
ATOM     55  C   UNL A   1      44.398  35.099  31.443  1.00  0.00     0.059 A 
ATOM     56  F   UNL A   1      44.452  33.742  29.534  1.00  0.00    -0.206 F 
ATOM     57  C   UNL A   1      44.143  35.237  32.808  1.00  0.00     0.060 A 
BRANCH  57  58
ATOM     58  S   UNL A   1      44.373  36.837  33.611  1.00  0.00     0.124 S 
ATOM     59  O   UNL A   1      44.959  37.623  32.531  1.00  0.00    -0.237 OA
ATOM     60  O   UNL A   1      43.011  37.192  33.994  1.00  0.00    -0.237 OA
ATOM     61  O   UNL A   1      45.267  36.525  34.723  1.00  0.00    -0.744 OA
ENDBRANCH  57  58
ENDBRANCH  25  50
BRANCH  37  62
ATOM     62  C   UNL A   1      48.002  27.311  30.430  1.00  0.00     0.058 A 
ATOM     63  C   UNL A   1      48.395  26.755  31.657  1.00  0.00     0.135 A 
ATOM     64  C   UNL A   1      49.001  27.609  29.491  1.00  0.00     0.135 A 
ATOM     65  F   UNL A   1      47.476  26.464  32.592  1.00  0.00    -0.206 F 
ATOM     66  C   UNL A   1      49.733  26.524  31.953  1.00  0.00     0.059 A 
ATOM     67  C   UNL A   1      50.345  27.364  29.756  1.00  0.00     0.059 A 
ATOM     68  F   UNL A   1      48.675  28.135  28.300  1.00  0.00    -0.206 F 
ATOM     69  C   UNL A   1      50.702  26.833  30.995  1.00  0.00     0.060 A 
BRANCH  69  70
ATOM     70  S   UNL A   1      52.435  26.505  31.378  1.00  0.00     0.124 S 
ATOM     71  O   UNL A   1      53.067  26.722  30.080  1.00  0.00    -0.237 OA
ATOM     72  O   UNL A   1      52.727  27.504  32.400  1.00  0.00    -0.237 OA
ATOM     73  O   UNL A   1      52.422  25.123  31.848  1.00  0.00    -0.744 OA
ENDBRANCH  69  70
ENDBRANCH  37  62
ENDBRANCH  11  12
ENDBRANCH   4   6
ENDBRANCH   1   2
BRANCH   1  74
ATOM     74  C   UNL A   1      34.767  33.959  28.077  1.00  0.00     0.023 C 
BRANCH  74  75
ATOM     75  C   UNL A   1      34.338  35.307  28.651  1.00  0.00     0.023 C 
BRANCH  75  76
ATOM     76  C   UNL A   1      32.960  35.323  29.306  1.00  0.00     0.116 C 
BRANCH  76  77
ATOM     77  N   UNL A   1      32.803  36.423  30.244  1.00  0.00    -0.349 N 
ATOM     78  C   UNL A   1      33.214  36.487  31.565  1.00  0.00     0.289 C 
ATOM     79  H   UNL A   1      32.345  37.223  29.896  1.00  0.00     0.163 HD
ATOM     80  O   UNL A   1      32.897  37.458  32.249  1.00  0.00    -0.266 OA
BRANCH  78  81
ATOM     81  C   UNL A   1      34.021  35.359  32.143  1.00  0.00     0.218 A 
ATOM     82  N   UNL A   1      33.338  34.274  32.554  1.00  0.00    -0.232 NA
ATOM     83  N   UNL A   1      35.365  35.469  32.054  1.00  0.00    -0.224 NA
ATOM     84  C   UNL A   1      34.095  33.207  32.862  1.00  0.00     0.124 A 
ATOM     85  C   UNL A   1      36.076  34.379  32.345  1.00  0.00     0.074 A 
ATOM     86  C   UNL A   1      35.480  33.180  32.754  1.00  0.00     0.019 A 
ATOM     87  C   UNL A   1      37.456  34.411  32.201  1.00  0.00     0.029 A 
ATOM     88  C   UNL A   1      36.260  32.037  33.007  1.00  0.00     0.012 A 
ATOM     89  C   UNL A   1      38.241  33.280  32.438  1.00  0.00     0.002 A 
ATOM     90  C   UNL A   1      37.643  32.090  32.840  1.00  0.00     0.001 A 
ENDBRANCH  78  81
ENDBRANCH  76  77
ENDBRANCH  75  76
ENDBRANCH  74  75
ENDBRANCH   1  74
TORSDOF 14
ENDMDL
MODEL 2
REMARK VINA RESULT:     -10.8      4.862     12.383
REMARK SMILES O=C(NCCCCNC(=O)c1ncc2ccccc2n1)c1ccc(-c2c3nc(c(-c4c(F)cc(S(=O)(=O)[O-])cc4F)c4ccc([nH]4)c(-c4c(F)cc(S(=O)(=O)[O-])cc4F)c4nc(c(-c5c(F)cc(S(=O)(=O)[O-])cc5F)c5ccc2[nH]5)C=C4)C=C3)cc1
REMARK SMILES IDX 4 1 3 2 1 3 2 4 21 6 22 7 86 8 23 9 85 10 24 11 25 12 26 13
REMARK SMILES IDX 79 14 27 15 84 16 78 17 80 18 28 19 83 20 77 21 76 22 29 24
REMARK SMILES IDX 63 25 42 26 62 27 43 28 46 29 61 30 81 31 44 32 45 33 60 35
REMARK SMILES IDX 82 36 47 37 30 38 31 39 40 40 32 41 33 42 39 43 41 44 34 45
REMARK SMILES IDX 35 46 36 47 37 48 38 49 64 50 65 51 74 52 66 53 67 54 73 55
REMARK SMILES IDX 75 56 68 57 69 58 70 59 71 60 72 61 48 62 49 63 58 64 50 65
REMARK SMILES IDX 51 66 57 67 59 68 52 69 53 70 54 71 55 72 56 73 5 74 6 75
REMARK SMILES IDX 7 76 8 77 9 78 10 80 11 81 12 82 20 83 13 84 19 85 14 86
REMARK SMILES IDX 18 87 15 88 17 89 16 90
REMARK H PARENT 3 5 80 23 46 34 8 79
REMARK Flexibility Score: inf
ROOT
ATOM      1  C   UNL A   1      41.858  22.888  27.899  1.00  0.00     0.116 C 
ENDROOT
BRANCH   1   2
ATOM      2  N   UNL A   1      41.949  23.594  26.631  1.00  0.00    -0.352 N 
ATOM      3  O   UNL A   1      41.742  25.344  25.223  1.00  0.00    -0.269 OA
ATOM      4  C   UNL A   1      41.772  24.934  26.380  1.00  0.00     0.251 C 
ATOM      5  H   UNL A   1      42.166  23.038  25.848  1.00  0.00     0.163 HD
BRANCH   4   6
ATOM      6  C   UNL A   1      41.597  25.872  27.511  1.00  0.00     0.039 A 
ATOM      7  C   UNL A   1      40.487  25.770  28.352  1.00  0.00     0.014 A 
ATOM      8  C   UNL A   1      42.560  26.861  27.734  1.00  0.00     0.014 A 
ATOM      9  C   UNL A   1      40.276  26.726  29.338  1.00  0.00     0.010 A 
ATOM     10  C   UNL A   1      42.386  27.777  28.776  1.00  0.00     0.010 A 
ATOM     11  C   UNL A   1      41.234  27.725  29.575  1.00  0.00    -0.014 A 
BRANCH  11  12
ATOM     12  C   UNL A   1      41.061  28.630  30.738  1.00  0.00     0.031 A 
ATOM     13  C   UNL A   1      41.926  28.516  31.961  1.00  0.00     0.074 A 
ATOM     14  C   UNL A   1      40.100  29.574  30.666  1.00  0.00     0.049 A 
ATOM     15  N   UNL A   1      41.896  29.233  33.055  1.00  0.00    -0.248 NA
ATOM     16  C   UNL A   1      42.952  27.461  31.966  1.00  0.00     0.031 C 
ATOM     17  C   UNL A   1      39.182  29.754  29.536  1.00  0.00     0.029 A 
ATOM     18  N   UNL A   1      39.736  30.559  31.546  1.00  0.00    -0.354 N 
ATOM     19  C   UNL A   1      42.879  28.710  33.885  1.00  0.00     0.074 A 
ATOM     20  C   UNL A   1      43.484  27.603  33.174  1.00  0.00     0.031 C 
ATOM     21  C   UNL A   1      38.382  30.801  29.780  1.00  0.00     0.029 A 
ATOM     22  C   UNL A   1      38.689  31.332  31.103  1.00  0.00     0.049 A 
ATOM     23  H   UNL A   1      40.180  30.699  32.413  1.00  0.00     0.167 HD
ATOM     24  C   UNL A   1      43.240  29.121  35.124  1.00  0.00     0.037 A 
ATOM     25  C   UNL A   1      38.028  32.337  31.703  1.00  0.00     0.037 A 
ATOM     26  C   UNL A   1      42.648  30.244  35.808  1.00  0.00     0.049 A 
ATOM     27  C   UNL A   1      38.449  32.765  33.078  1.00  0.00     0.074 A 
ATOM     28  C   UNL A   1      43.002  30.787  37.033  1.00  0.00     0.029 A 
ATOM     29  N   UNL A   1      41.579  30.990  35.336  1.00  0.00    -0.354 N 
ATOM     30  N   UNL A   1      39.423  32.296  33.822  1.00  0.00    -0.248 NA
ATOM     31  C   UNL A   1      37.680  33.850  33.701  1.00  0.00     0.031 C 
ATOM     32  C   UNL A   1      42.118  31.832  37.321  1.00  0.00     0.029 A 
ATOM     33  C   UNL A   1      41.238  31.966  36.259  1.00  0.00     0.049 A 
ATOM     34  H   UNL A   1      41.129  30.848  34.472  1.00  0.00     0.167 HD
ATOM     35  C   UNL A   1      39.383  33.028  35.001  1.00  0.00     0.074 A 
ATOM     36  C   UNL A   1      38.309  33.991  34.860  1.00  0.00     0.031 C 
ATOM     37  C   UNL A   1      40.159  32.907  36.105  1.00  0.00     0.037 A 
BRANCH  24  38
ATOM     38  C   UNL A   1      44.321  28.363  35.843  1.00  0.00     0.058 A 
ATOM     39  C   UNL A   1      45.675  28.703  35.706  1.00  0.00     0.135 A 
ATOM     40  C   UNL A   1      43.987  27.357  36.765  1.00  0.00     0.135 A 
ATOM     41  F   UNL A   1      46.050  29.649  34.830  1.00  0.00    -0.206 F 
ATOM     42  C   UNL A   1      46.661  28.073  36.459  1.00  0.00     0.059 A 
ATOM     43  C   UNL A   1      44.955  26.726  37.541  1.00  0.00     0.059 A 
ATOM     44  F   UNL A   1      42.706  26.994  36.933  1.00  0.00    -0.206 F 
ATOM     45  C   UNL A   1      46.291  27.090  37.380  1.00  0.00     0.060 A 
BRANCH  45  46
ATOM     46  S   UNL A   1      47.577  26.320  38.388  1.00  0.00     0.124 S 
ATOM     47  O   UNL A   1      48.698  27.230  38.175  1.00  0.00    -0.237 OA
ATOM     48  O   UNL A   1      46.986  26.344  39.722  1.00  0.00    -0.237 OA
ATOM     49  O   UNL A   1      47.725  24.993  37.795  1.00  0.00    -0.744 OA
ENDBRANCH  45  46
ENDBRANCH  24  38
BRANCH  25  50
ATOM     50  C   UNL A   1      36.877  32.980  31.018  1.00  0.00     0.058 A 
ATOM     51  C   UNL A   1      37.071  33.913  29.991  1.00  0.00     0.135 A 
ATOM     52  C   UNL A   1      35.558  32.665  31.380  1.00  0.00     0.135 A 
ATOM     53  F   UNL A   1      38.314  34.248  29.613  1.00  0.00    -0.206 F 
ATOM     54  C   UNL A   1      35.995  34.530  29.359  1.00  0.00     0.059 A 
ATOM     55  C   UNL A   1      34.467  33.247  30.746  1.00  0.00     0.059 A 
ATOM     56  F   UNL A   1      35.321  31.762  32.345  1.00  0.00    -0.206 F 
ATOM     57  C   UNL A   1      34.697  34.192  29.746  1.00  0.00     0.060 A 
BRANCH  57  58
ATOM     58  S   UNL A   1      33.304  34.971  28.904  1.00  0.00     0.124 S 
ATOM     59  O   UNL A   1      32.414  35.263  30.023  1.00  0.00    -0.237 OA
ATOM     60  O   UNL A   1      33.930  36.126  28.268  1.00  0.00    -0.237 OA
ATOM     61  O   UNL A   1      32.846  33.932  27.986  1.00  0.00    -0.744 OA
ENDBRANCH  57  58
ENDBRANCH  25  50
BRANCH  37  62
ATOM     62  C   UNL A   1      39.869  33.841  37.244  1.00  0.00     0.058 A 
ATOM     63  C   UNL A   1      40.461  35.111  37.313  1.00  0.00     0.135 A 
ATOM     64  C   UNL A   1      38.971  33.475  38.259  1.00  0.00     0.135 A 
ATOM     65  F   UNL A   1      41.335  35.500  36.372  1.00  0.00    -0.206 F 
ATOM     66  C   UNL A   1      40.191  35.981  38.363  1.00  0.00     0.059 A 
ATOM     67  C   UNL A   1      38.668  34.338  39.307  1.00  0.00     0.059 A 
ATOM     68  F   UNL A   1      38.374  32.273  38.233  1.00  0.00    -0.206 F 
ATOM     69  C   UNL A   1      39.293  35.584  39.357  1.00  0.00     0.060 A 
BRANCH  69  70
ATOM     70  S   UNL A   1      38.928  36.730  40.702  1.00  0.00     0.124 S 
ATOM     71  O   UNL A   1      40.265  37.013  41.216  1.00  0.00    -0.237 OA
ATOM     72  O   UNL A   1      38.270  37.832  40.009  1.00  0.00    -0.237 OA
ATOM     73  O   UNL A   1      38.066  35.951  41.586  1.00  0.00    -0.744 OA
ENDBRANCH  69  70
ENDBRANCH  37  62
ENDBRANCH  11  12
ENDBRANCH   4   6
ENDBRANCH   1   2
BRANCH   1  74
ATOM     74  C   UNL A   1      41.050  21.600  27.802  1.00  0.00     0.023 C 
BRANCH  74  75
ATOM     75  C   UNL A   1      41.857  20.358  27.436  1.00  0.00     0.023 C 
BRANCH  75  76
ATOM     76  C   UNL A   1      41.866  20.005  25.950  1.00  0.00     0.116 C 
BRANCH  76  77
ATOM     77  N   UNL A   1      42.909  19.052  25.611  1.00  0.00    -0.349 N 
ATOM     78  C   UNL A   1      44.180  19.311  25.127  1.00  0.00     0.289 C 
ATOM     79  H   UNL A   1      42.683  18.102  25.741  1.00  0.00     0.163 HD
ATOM     80  O   UNL A   1      44.898  18.373  24.784  1.00  0.00    -0.266 OA
BRANCH  78  81
ATOM     81  C   UNL A   1      44.650  20.733  25.008  1.00  0.00     0.218 A 
ATOM     82  N   UNL A   1      44.482  21.329  23.812  1.00  0.00    -0.232 NA
ATOM     83  N   UNL A   1      45.054  21.335  26.149  1.00  0.00    -0.224 NA
ATOM     84  C   UNL A   1      44.711  22.653  23.799  1.00  0.00     0.124 A 
ATOM     85  C   UNL A   1      45.245  22.653  26.097  1.00  0.00     0.074 A 
ATOM     86  C   UNL A   1      45.071  23.391  24.920  1.00  0.00     0.019 A 
ATOM     87  C   UNL A   1      45.587  23.336  27.255  1.00  0.00     0.029 A 
ATOM     88  C   UNL A   1      45.236  24.789  24.914  1.00  0.00     0.012 A 
ATOM     89  C   UNL A   1      45.743  24.724  27.266  1.00  0.00     0.002 A 
ATOM     90  C   UNL A   1      45.566  25.452  26.094  1.00  0.00     0.001 A 
ENDBRANCH  78  81
ENDBRANCH  76  77
ENDBRANCH  75  76
ENDBRANCH  74  75
ENDBRANCH   1  74
TORSDOF 14
ENDMDL
MODEL 3
REMARK VINA RESULT:     -10.6      3.048      5.512
REMARK SMILES O=C(NCCCCNC(=O)c1ncc2ccccc2n1)c1ccc(-c2c3nc(c(-c4c(F)cc(S(=O)(=O)[O-])cc4F)c4ccc([nH]4)c(-c4c(F)cc(S(=O)(=O)[O-])cc4F)c4nc(c(-c5c(F)cc(S(=O)(=O)[O-])cc5F)c5ccc2[nH]5)C=C4)C=C3)cc1
REMARK SMILES IDX 4 1 3 2 1 3 2 4 21 6 22 7 86 8 23 9 85 10 24 11 25 12 26 13
REMARK SMILES IDX 79 14 27 15 84 16 78 17 80 18 28 19 83 20 77 21 76 22 29 24
REMARK SMILES IDX 63 25 42 26 62 27 43 28 46 29 61 30 81 31 44 32 45 33 60 35
REMARK SMILES IDX 82 36 47 37 30 38 31 39 40 40 32 41 33 42 39 43 41 44 34 45
REMARK SMILES IDX 35 46 36 47 37 48 38 49 64 50 65 51 74 52 66 53 67 54 73 55
REMARK SMILES IDX 75 56 68 57 69 58 70 59 71 60 72 61 48 62 49 63 58 64 50 65
REMARK SMILES IDX 51 66 57 67 59 68 52 69 53 70 54 71 55 72 56 73 5 74 6 75
REMARK SMILES IDX 7 76 8 77 9 78 10 80 11 81 12 82 20 83 13 84 19 85 14 86
REMARK SMILES IDX 18 87 15 88 17 89 16 90
REMARK H PARENT 3 5 80 23 46 34 8 79
REMARK Flexibility Score: inf
ROOT
ATOM      1  C   UNL A   1      33.974  28.310  26.872  1.00  0.00     0.116 C 
ENDROOT
BRANCH   1   2
ATOM      2  N   UNL A   1      33.697  29.647  27.373  1.00  0.00    -0.352 N 
ATOM      3  O   UNL A   1      34.069  31.521  28.572  1.00  0.00    -0.269 OA
ATOM      4  C   UNL A   1      34.514  30.477  28.102  1.00  0.00     0.251 C 
ATOM      5  H   UNL A   1      32.804  30.004  27.163  1.00  0.00     0.163 HD
BRANCH   4   6
ATOM      6  C   UNL A   1      35.924  30.095  28.333  1.00  0.00     0.039 A 
ATOM      7  C   UNL A   1      36.865  30.200  27.307  1.00  0.00     0.014 A 
ATOM      8  C   UNL A   1      36.308  29.630  29.595  1.00  0.00     0.014 A 
ATOM      9  C   UNL A   1      38.159  29.731  27.503  1.00  0.00     0.010 A 
ATOM     10  C   UNL A   1      37.630  29.230  29.814  1.00  0.00     0.010 A 
ATOM     11  C   UNL A   1      38.561  29.263  28.764  1.00  0.00    -0.014 A 
BRANCH  11  12
ATOM     12  C   UNL A   1      39.987  28.922  28.987  1.00  0.00     0.031 A 
ATOM     13  C   UNL A   1      40.550  27.588  28.585  1.00  0.00     0.074 A 
ATOM     14  C   UNL A   1      40.777  29.853  29.559  1.00  0.00     0.049 A 
ATOM     15  N   UNL A   1      41.774  27.144  28.714  1.00  0.00    -0.248 NA
ATOM     16  C   UNL A   1      39.626  26.624  27.967  1.00  0.00     0.031 C 
ATOM     17  C   UNL A   1      40.327  31.172  30.016  1.00  0.00     0.029 A 
ATOM     18  N   UNL A   1      42.116  29.843  29.850  1.00  0.00    -0.354 N 
ATOM     19  C   UNL A   1      41.768  25.847  28.215  1.00  0.00     0.074 A 
ATOM     20  C   UNL A   1      40.412  25.569  27.789  1.00  0.00     0.031 C 
ATOM     21  C   UNL A   1      41.374  31.852  30.503  1.00  0.00     0.029 A 
ATOM     22  C   UNL A   1      42.556  31.002  30.445  1.00  0.00     0.049 A 
ATOM     23  H   UNL A   1      42.706  29.081  29.654  1.00  0.00     0.167 HD
ATOM     24  C   UNL A   1      42.801  24.978  28.120  1.00  0.00     0.037 A 
ATOM     25  C   UNL A   1      43.770  31.336  30.920  1.00  0.00     0.037 A 
ATOM     26  C   UNL A   1      44.153  25.280  28.520  1.00  0.00     0.049 A 
ATOM     27  C   UNL A   1      44.892  30.347  30.805  1.00  0.00     0.074 A 
ATOM     28  C   UNL A   1      45.284  24.491  28.389  1.00  0.00     0.029 A 
ATOM     29  N   UNL A   1      44.556  26.456  29.135  1.00  0.00    -0.354 N 
ATOM     30  N   UNL A   1      44.878  29.148  30.273  1.00  0.00    -0.248 NA
ATOM     31  C   UNL A   1      46.191  30.748  31.361  1.00  0.00     0.031 C 
ATOM     32  C   UNL A   1      46.362  25.172  28.965  1.00  0.00     0.029 A 
ATOM     33  C   UNL A   1      45.911  26.401  29.420  1.00  0.00     0.049 A 
ATOM     34  H   UNL A   1      43.967  27.218  29.339  1.00  0.00     0.167 HD
ATOM     35  C   UNL A   1      46.166  28.652  30.430  1.00  0.00     0.074 A 
ATOM     36  C   UNL A   1      46.939  29.690  31.080  1.00  0.00     0.031 C 
ATOM     37  C   UNL A   1      46.660  27.440  30.078  1.00  0.00     0.037 A 
BRANCH  24  38
ATOM     38  C   UNL A   1      42.533  23.604  27.569  1.00  0.00     0.058 A 
ATOM     39  C   UNL A   1      42.595  23.338  26.193  1.00  0.00     0.135 A 
ATOM     40  C   UNL A   1      42.320  22.522  28.438  1.00  0.00     0.135 A 
ATOM     41  F   UNL A   1      42.784  24.339  25.317  1.00  0.00    -0.206 F 
ATOM     42  C   UNL A   1      42.457  22.044  25.697  1.00  0.00     0.059 A 
ATOM     43  C   UNL A   1      42.197  21.218  27.966  1.00  0.00     0.059 A 
ATOM     44  F   UNL A   1      42.251  22.724  29.763  1.00  0.00    -0.206 F 
ATOM     45  C   UNL A   1      42.266  20.990  26.592  1.00  0.00     0.060 A 
BRANCH  45  46
ATOM     46  S   UNL A   1      42.143  19.311  25.937  1.00  0.00     0.124 S 
ATOM     47  O   UNL A   1      42.623  18.521  27.066  1.00  0.00    -0.237 OA
ATOM     48  O   UNL A   1      40.719  19.194  25.641  1.00  0.00    -0.237 OA
ATOM     49  O   UNL A   1      43.022  19.335  24.770  1.00  0.00    -0.744 OA
ENDBRANCH  45  46
ENDBRANCH  24  38
BRANCH  25  50
ATOM     50  C   UNL A   1      43.971  32.652  31.579  1.00  0.00     0.058 A 
ATOM     51  C   UNL A   1      43.772  32.814  32.956  1.00  0.00     0.135 A 
ATOM     52  C   UNL A   1      44.374  33.773  30.836  1.00  0.00     0.135 A 
ATOM     53  F   UNL A   1      43.385  31.771  33.706  1.00  0.00    -0.206 F 
ATOM     54  C   UNL A   1      43.944  34.049  33.574  1.00  0.00     0.059 A 
ATOM     55  C   UNL A   1      44.578  35.011  31.435  1.00  0.00     0.059 A 
ATOM     56  F   UNL A   1      44.596  33.664  29.517  1.00  0.00    -0.206 F 
ATOM     57  C   UNL A   1      44.344  35.142  32.803  1.00  0.00     0.060 A 
BRANCH  57  58
ATOM     58  S   UNL A   1      44.595  36.737  33.612  1.00  0.00     0.124 S 
ATOM     59  O   UNL A   1      43.439  36.798  34.499  1.00  0.00    -0.237 OA
ATOM     60  O   UNL A   1      45.890  36.557  34.260  1.00  0.00    -0.237 OA
ATOM     61  O   UNL A   1      44.587  37.680  32.497  1.00  0.00    -0.744 OA
ENDBRANCH  57  58
ENDBRANCH  25  50
BRANCH  37  62
ATOM     62  C   UNL A   1      48.105  27.179  30.392  1.00  0.00     0.058 A 
ATOM     63  C   UNL A   1      48.485  26.504  31.561  1.00  0.00     0.135 A 
ATOM     64  C   UNL A   1      49.115  27.581  29.504  1.00  0.00     0.135 A 
ATOM     65  F   UNL A   1      47.555  26.110  32.446  1.00  0.00    -0.206 F 
ATOM     66  C   UNL A   1      49.821  26.255  31.853  1.00  0.00     0.059 A 
ATOM     67  C   UNL A   1      50.457  27.323  29.764  1.00  0.00     0.059 A 
ATOM     68  F   UNL A   1      48.801  28.225  28.369  1.00  0.00    -0.206 F 
ATOM     69  C   UNL A   1      50.800  26.670  30.948  1.00  0.00     0.060 A 
BRANCH  69  70
ATOM     70  S   UNL A   1      52.530  26.320  31.323  1.00  0.00     0.124 S 
ATOM     71  O   UNL A   1      52.895  27.479  32.132  1.00  0.00    -0.237 OA
ATOM     72  O   UNL A   1      52.448  25.050  32.038  1.00  0.00    -0.237 OA
ATOM     73  O   UNL A   1      53.155  26.250  30.006  1.00  0.00    -0.744 OA
ENDBRANCH  69  70
ENDBRANCH  37  62
ENDBRANCH  11  12
ENDBRANCH   4   6
ENDBRANCH   1   2
BRANCH   1  74
ATOM     74  C   UNL A   1      32.949  27.836  25.850  1.00  0.00     0.023 C 
BRANCH  74  75
ATOM     75  C   UNL A   1      31.611  27.396  26.436  1.00  0.00     0.023 C 
BRANCH  75  76
ATOM     76  C   UNL A   1      30.909  26.274  25.675  1.00  0.00     0.116 C 
BRANCH  76  77
ATOM     77  N   UNL A   1      30.409  25.232  26.557  1.00  0.00    -0.349 N 
ATOM     78  C   UNL A   1      30.823  23.914  26.646  1.00  0.00     0.289 C 
ATOM     79  H   UNL A   1      29.683  25.498  27.169  1.00  0.00     0.163 HD
ATOM     80  O   UNL A   1      30.209  23.136  27.374  1.00  0.00    -0.266 OA
BRANCH  78  81
ATOM     81  C   UNL A   1      32.000  23.453  25.834  1.00  0.00     0.218 A 
ATOM     82  N   UNL A   1      31.742  23.007  24.590  1.00  0.00    -0.232 NA
ATOM     83  N   UNL A   1      33.224  23.674  26.364  1.00  0.00    -0.224 NA
ATOM     84  C   UNL A   1      32.824  22.807  23.820  1.00  0.00     0.124 A 
ATOM     85  C   UNL A   1      34.269  23.488  25.557  1.00  0.00     0.074 A 
ATOM     86  C   UNL A   1      34.128  23.056  24.232  1.00  0.00     0.019 A 
ATOM     87  C   UNL A   1      35.545  23.769  26.023  1.00  0.00     0.029 A 
ATOM     88  C   UNL A   1      35.251  22.916  23.396  1.00  0.00     0.012 A 
ATOM     89  C   UNL A   1      36.668  23.646  25.200  1.00  0.00     0.002 A 
ATOM     90  C   UNL A   1      36.520  23.220  23.884  1.00  0.00     0.001 A 
ENDBRANCH  78  81
ENDBRANCH  76  77
ENDBRANCH  75  76
ENDBRANCH  74  75
ENDBRANCH   1  74
TORSDOF 14
ENDMDL
