MODEL 1
REMARK VINA RESULT:     -12.3      0.000      0.000
REMARK SMILES O=C(NCCCCNC(=O)[C@@H]1[C@H](C(=O)Nc2cccc(Cl)c2F)[C@@H]2C=C[C@H]1C2)c1ccc(-c2c3nc(c(-c4c(F)cc(S(=O)(=O)[O-])cc4F)c4ccc([nH]4)c(-c4c(F)cc(S(=O)(=O)[O-])cc4F)c4nc(c(-c5c(F)cc(S(=O)(=O)[O-])cc5F)c5ccc2[nH]5)C=C4)C=C3)cc1
REMARK SMILES IDX 5 1 4 2 3 3 1 4 2 5 29 7 30 8 94 9 31 10 93 11 32 12 33 13
REMARK SMILES IDX 34 14 87 15 35 16 92 17 86 18 88 19 36 20 91 21 85 22 84 23
REMARK SMILES IDX 37 25 71 26 50 27 70 28 51 29 54 30 69 31 89 32 52 33 53 34
REMARK SMILES IDX 68 36 90 37 55 38 38 39 39 40 48 41 40 42 41 43 47 44 49 45
REMARK SMILES IDX 42 46 43 47 44 48 45 49 46 50 72 51 73 52 82 53 74 54 75 55
REMARK SMILES IDX 81 56 83 57 76 58 77 59 78 60 79 61 80 62 56 63 57 64 66 65
REMARK SMILES IDX 58 66 59 67 65 68 67 69 60 70 61 71 62 72 63 73 64 74 6 75
REMARK SMILES IDX 7 76 8 77 9 78 10 80 11 81 12 82 27 83 24 84 26 85 28 86
REMARK SMILES IDX 25 87 13 88 14 89 15 90 16 92 17 93 22 94 18 95 20 96 23 97
REMARK SMILES IDX 19 98 21 99
REMARK H PARENT 3 6 88 24 54 35 8 79 15 91
REMARK Flexibility Score: inf
ROOT
ATOM      1  C   UNL A   1      37.497  23.182  26.001  1.00  0.00     0.023 C 
ENDROOT
BRANCH   1   2
ATOM      2  C   UNL A   1      38.400  24.270  26.568  1.00  0.00     0.116 C 
BRANCH   2   3
ATOM      3  N   UNL A   1      39.778  24.166  26.104  1.00  0.00    -0.352 N 
ATOM      4  O   UNL A   1      41.930  24.812  25.876  1.00  0.00    -0.269 OA
ATOM      5  C   UNL A   1      40.856  24.939  26.459  1.00  0.00     0.251 C 
ATOM      6  H   UNL A   1      39.958  23.450  25.454  1.00  0.00     0.163 HD
BRANCH   5   7
ATOM      7  C   UNL A   1      40.691  25.941  27.528  1.00  0.00     0.039 A 
ATOM      8  C   UNL A   1      41.509  27.073  27.554  1.00  0.00     0.014 A 
ATOM      9  C   UNL A   1      39.748  25.722  28.534  1.00  0.00     0.014 A 
ATOM     10  C   UNL A   1      41.484  27.911  28.660  1.00  0.00     0.010 A 
ATOM     11  C   UNL A   1      39.662  26.618  29.601  1.00  0.00     0.010 A 
ATOM     12  C   UNL A   1      40.547  27.704  29.686  1.00  0.00    -0.014 A 
BRANCH  12  13
ATOM     13  C   UNL A   1      40.465  28.686  30.795  1.00  0.00     0.031 A 
ATOM     14  C   UNL A   1      41.392  28.610  31.975  1.00  0.00     0.074 A 
ATOM     15  C   UNL A   1      39.547  29.668  30.707  1.00  0.00     0.049 A 
ATOM     16  N   UNL A   1      41.445  29.387  33.026  1.00  0.00    -0.248 NA
ATOM     17  C   UNL A   1      42.381  27.521  31.985  1.00  0.00     0.031 C 
ATOM     18  C   UNL A   1      38.589  29.827  29.607  1.00  0.00     0.029 A 
ATOM     19  N   UNL A   1      39.272  30.721  31.538  1.00  0.00    -0.354 N 
ATOM     20  C   UNL A   1      42.456  28.875  33.831  1.00  0.00     0.074 A 
ATOM     21  C   UNL A   1      42.977  27.705  33.157  1.00  0.00     0.031 C 
ATOM     22  C   UNL A   1      37.862  30.934  29.811  1.00  0.00     0.029 A 
ATOM     23  C   UNL A   1      38.253  31.525  31.086  1.00  0.00     0.049 A 
ATOM     24  H   UNL A   1      39.757  30.886  32.378  1.00  0.00     0.167 HD
ATOM     25  C   UNL A   1      42.906  29.345  35.020  1.00  0.00     0.037 A 
ATOM     26  C   UNL A   1      37.677  32.605  31.643  1.00  0.00     0.037 A 
ATOM     27  C   UNL A   1      42.386  30.523  35.670  1.00  0.00     0.049 A 
ATOM     28  C   UNL A   1      38.185  33.092  32.969  1.00  0.00     0.074 A 
ATOM     29  C   UNL A   1      42.796  31.100  36.860  1.00  0.00     0.029 A 
ATOM     30  N   UNL A   1      41.341  31.301  35.191  1.00  0.00    -0.354 N 
ATOM     31  N   UNL A   1      39.158  32.609  33.703  1.00  0.00    -0.248 NA
ATOM     32  C   UNL A   1      37.515  34.264  33.545  1.00  0.00     0.031 C 
ATOM     33  C   UNL A   1      41.971  32.200  37.121  1.00  0.00     0.029 A 
ATOM     34  C   UNL A   1      41.080  32.339  36.070  1.00  0.00     0.049 A 
ATOM     35  H   UNL A   1      40.857  31.138  34.349  1.00  0.00     0.167 HD
ATOM     36  C   UNL A   1      39.231  33.430  34.821  1.00  0.00     0.074 A 
ATOM     37  C   UNL A   1      38.214  34.449  34.656  1.00  0.00     0.031 C 
ATOM     38  C   UNL A   1      40.064  33.346  35.888  1.00  0.00     0.037 A 
BRANCH  25  39
ATOM     39  C   UNL A   1      44.005  28.585  35.711  1.00  0.00     0.058 A 
ATOM     40  C   UNL A   1      43.733  27.543  36.612  1.00  0.00     0.135 A 
ATOM     41  C   UNL A   1      45.351  28.858  35.417  1.00  0.00     0.135 A 
ATOM     42  F   UNL A   1      42.465  27.247  36.940  1.00  0.00    -0.206 F 
ATOM     43  C   UNL A   1      44.755  26.812  37.210  1.00  0.00     0.059 A 
ATOM     44  C   UNL A   1      46.390  28.125  35.985  1.00  0.00     0.059 A 
ATOM     45  F   UNL A   1      45.670  29.843  34.563  1.00  0.00    -0.206 F 
ATOM     46  C   UNL A   1      46.082  27.109  36.890  1.00  0.00     0.060 A 
BRANCH  46  47
ATOM     47  S   UNL A   1      47.395  26.140  37.661  1.00  0.00     0.124 S 
ATOM     48  O   UNL A   1      48.296  25.922  36.534  1.00  0.00    -0.237 OA
ATOM     49  O   UNL A   1      47.884  27.043  38.698  1.00  0.00    -0.237 OA
ATOM     50  O   UNL A   1      46.701  24.951  38.147  1.00  0.00    -0.744 OA
ENDBRANCH  46  47
ENDBRANCH  25  39
BRANCH  26  51
ATOM     51  C   UNL A   1      36.550  33.281  30.949  1.00  0.00     0.058 A 
ATOM     52  C   UNL A   1      35.232  33.142  31.403  1.00  0.00     0.135 A 
ATOM     53  C   UNL A   1      36.777  34.104  29.835  1.00  0.00     0.135 A 
ATOM     54  F   UNL A   1      34.966  32.366  32.466  1.00  0.00    -0.206 F 
ATOM     55  C   UNL A   1      34.173  33.780  30.767  1.00  0.00     0.059 A 
ATOM     56  C   UNL A   1      35.739  34.776  29.199  1.00  0.00     0.059 A 
ATOM     57  F   UNL A   1      38.025  34.287  29.375  1.00  0.00    -0.206 F 
ATOM     58  C   UNL A   1      34.438  34.597  29.666  1.00  0.00     0.060 A 
BRANCH  58  59
ATOM     59  S   UNL A   1      33.063  35.456  28.871  1.00  0.00     0.124 S 
ATOM     60  O   UNL A   1      32.441  34.375  28.116  1.00  0.00    -0.237 OA
ATOM     61  O   UNL A   1      32.307  35.953  30.016  1.00  0.00    -0.237 OA
ATOM     62  O   UNL A   1      33.726  36.484  28.074  1.00  0.00    -0.744 OA
ENDBRANCH  58  59
ENDBRANCH  26  51
BRANCH  38  63
ATOM     63  C   UNL A   1      39.928  34.406  36.945  1.00  0.00     0.058 A 
ATOM     64  C   UNL A   1      40.669  35.597  36.893  1.00  0.00     0.135 A 
ATOM     65  C   UNL A   1      39.018  34.242  38.000  1.00  0.00     0.135 A 
ATOM     66  F   UNL A   1      41.559  35.798  35.909  1.00  0.00    -0.206 F 
ATOM     67  C   UNL A   1      40.528  36.581  37.867  1.00  0.00     0.059 A 
ATOM     68  C   UNL A   1      38.841  35.223  38.969  1.00  0.00     0.059 A 
ATOM     69  F   UNL A   1      38.280  33.124  38.089  1.00  0.00    -0.206 F 
ATOM     70  C   UNL A   1      39.611  36.384  38.902  1.00  0.00     0.060 A 
BRANCH  70  71
ATOM     71  S   UNL A   1      39.415  37.680  40.142  1.00  0.00     0.124 S 
ATOM     72  O   UNL A   1      40.700  38.366  40.056  1.00  0.00    -0.237 OA
ATOM     73  O   UNL A   1      38.265  38.424  39.639  1.00  0.00    -0.237 OA
ATOM     74  O   UNL A   1      39.180  36.936  41.376  1.00  0.00    -0.744 OA
ENDBRANCH  70  71
ENDBRANCH  38  63
ENDBRANCH  12  13
ENDBRANCH   5   7
ENDBRANCH   2   3
ENDBRANCH   1   2
BRANCH   1  75
ATOM     75  C   UNL A   1      36.642  23.622  24.818  1.00  0.00     0.023 C 
BRANCH  75  76
ATOM     76  C   UNL A   1      35.322  24.280  25.211  1.00  0.00     0.116 C 
BRANCH  76  77
ATOM     77  N   UNL A   1      34.563  24.680  24.041  1.00  0.00    -0.356 N 
ATOM     78  C   UNL A   1      33.523  25.565  24.004  1.00  0.00     0.224 C 
ATOM     79  H   UNL A   1      34.826  24.272  23.184  1.00  0.00     0.163 HD
ATOM     80  O   UNL A   1      32.611  25.360  23.206  1.00  0.00    -0.275 OA
BRANCH  78  81
ATOM     81  C   UNL A   1      33.435  26.621  25.076  1.00  0.00     0.098 C 
ATOM     82  C   UNL A   1      32.274  26.557  26.100  1.00  0.00     0.099 C 
ATOM     83  C   UNL A   1      33.509  28.140  24.757  1.00  0.00     0.025 C 
ATOM     84  C   UNL A   1      32.034  28.059  26.445  1.00  0.00     0.025 C 
ATOM     85  C   UNL A   1      32.217  28.749  24.274  1.00  0.00    -0.027 C 
ATOM     86  C   UNL A   1      33.432  28.661  26.206  1.00  0.00     0.017 C 
ATOM     87  C   UNL A   1      31.362  28.763  25.306  1.00  0.00    -0.027 C 
BRANCH  82  88
ATOM     88  C   UNL A   1      31.036  25.653  25.961  1.00  0.00     0.228 C 
ATOM     89  O   UNL A   1      29.962  26.217  25.681  1.00  0.00    -0.274 OA
ATOM     90  N   UNL A   1      30.975  24.296  25.915  1.00  0.00    -0.323 N 
ATOM     91  H   UNL A   1      30.085  23.969  25.646  1.00  0.00     0.170 HD
BRANCH  90  92
ATOM     92  C   UNL A   1      31.877  23.251  26.159  1.00  0.00     0.078 A 
ATOM     93  C   UNL A   1      32.554  23.269  27.386  1.00  0.00     0.029 A 
ATOM     94  C   UNL A   1      32.223  22.266  25.230  1.00  0.00     0.165 A 
ATOM     95  C   UNL A   1      33.437  22.239  27.731  1.00  0.00     0.004 A 
ATOM     96  C   UNL A   1      33.113  21.244  25.566  1.00  0.00     0.078 A 
ATOM     97  F   UNL A   1      31.794  22.334  23.970  1.00  0.00    -0.203 F 
ATOM     98  C   UNL A   1      33.701  21.212  26.826  1.00  0.00     0.024 A 
ATOM     99  Cl  UNL A   1      33.487  20.005  24.429  1.00  0.00    -0.081 Cl
ENDBRANCH  90  92
ENDBRANCH  82  88
ENDBRANCH  78  81
ENDBRANCH  76  77
ENDBRANCH  75  76
ENDBRANCH   1  75
TORSDOF 16
ENDMDL
MODEL 2
REMARK VINA RESULT:     -12.3      6.673     11.973
REMARK SMILES O=C(NCCCCNC(=O)[C@@H]1[C@H](C(=O)Nc2cccc(Cl)c2F)[C@@H]2C=C[C@H]1C2)c1ccc(-c2c3nc(c(-c4c(F)cc(S(=O)(=O)[O-])cc4F)c4ccc([nH]4)c(-c4c(F)cc(S(=O)(=O)[O-])cc4F)c4nc(c(-c5c(F)cc(S(=O)(=O)[O-])cc5F)c5ccc2[nH]5)C=C4)C=C3)cc1
REMARK SMILES IDX 5 1 4 2 3 3 1 4 2 5 29 7 30 8 94 9 31 10 93 11 32 12 33 13
REMARK SMILES IDX 34 14 87 15 35 16 92 17 86 18 88 19 36 20 91 21 85 22 84 23
REMARK SMILES IDX 37 25 71 26 50 27 70 28 51 29 54 30 69 31 89 32 52 33 53 34
REMARK SMILES IDX 68 36 90 37 55 38 38 39 39 40 48 41 40 42 41 43 47 44 49 45
REMARK SMILES IDX 42 46 43 47 44 48 45 49 46 50 72 51 73 52 82 53 74 54 75 55
REMARK SMILES IDX 81 56 83 57 76 58 77 59 78 60 79 61 80 62 56 63 57 64 66 65
REMARK SMILES IDX 58 66 59 67 65 68 67 69 60 70 61 71 62 72 63 73 64 74 6 75
REMARK SMILES IDX 7 76 8 77 9 78 10 80 11 81 12 82 27 83 24 84 26 85 28 86
REMARK SMILES IDX 25 87 13 88 14 89 15 90 16 92 17 93 22 94 18 95 20 96 23 97
REMARK SMILES IDX 19 98 21 99
REMARK H PARENT 3 6 88 24 54 35 8 79 15 91
REMARK Flexibility Score: inf
ROOT
ATOM      1  C   UNL A   1      34.045  29.606  26.844  1.00  0.00     0.023 C 
ENDROOT
BRANCH   1   2
ATOM      2  C   UNL A   1      35.344  29.413  27.616  1.00  0.00     0.116 C 
BRANCH   2   3
ATOM      3  N   UNL A   1      35.313  30.014  28.943  1.00  0.00    -0.352 N 
ATOM      4  O   UNL A   1      36.112  30.529  30.991  1.00  0.00    -0.269 OA
ATOM      5  C   UNL A   1      36.333  30.113  29.857  1.00  0.00     0.251 C 
ATOM      6  H   UNL A   1      34.449  30.397  29.220  1.00  0.00     0.163 HD
BRANCH   5   7
ATOM      7  C   UNL A   1      37.687  29.684  29.460  1.00  0.00     0.039 A 
ATOM      8  C   UNL A   1      38.554  29.143  30.413  1.00  0.00     0.014 A 
ATOM      9  C   UNL A   1      38.106  29.868  28.140  1.00  0.00     0.014 A 
ATOM     10  C   UNL A   1      39.882  28.920  30.081  1.00  0.00     0.010 A 
ATOM     11  C   UNL A   1      39.420  29.557  27.788  1.00  0.00     0.010 A 
ATOM     12  C   UNL A   1      40.325  29.107  28.762  1.00  0.00    -0.014 A 
BRANCH  12  13
ATOM     13  C   UNL A   1      41.721  28.746  28.413  1.00  0.00     0.031 A 
ATOM     14  C   UNL A   1      42.821  29.771  28.434  1.00  0.00     0.074 A 
ATOM     15  C   UNL A   1      41.986  27.464  28.096  1.00  0.00     0.049 A 
ATOM     16  N   UNL A   1      44.089  29.617  28.152  1.00  0.00    -0.248 NA
ATOM     17  C   UNL A   1      42.454  31.143  28.812  1.00  0.00     0.031 C 
ATOM     18  C   UNL A   1      40.988  26.390  28.034  1.00  0.00     0.029 A 
ATOM     19  N   UNL A   1      43.162  26.838  27.780  1.00  0.00    -0.354 N 
ATOM     20  C   UNL A   1      44.670  30.871  28.298  1.00  0.00     0.074 A 
ATOM     21  C   UNL A   1      43.610  31.782  28.675  1.00  0.00     0.031 C 
ATOM     22  C   UNL A   1      41.600  25.234  27.742  1.00  0.00     0.029 A 
ATOM     23  C   UNL A   1      43.019  25.495  27.529  1.00  0.00     0.049 A 
ATOM     24  H   UNL A   1      44.027  27.306  27.737  1.00  0.00     0.167 HD
ATOM     25  C   UNL A   1      45.969  31.222  28.137  1.00  0.00     0.037 A 
ATOM     26  C   UNL A   1      43.922  24.574  27.146  1.00  0.00     0.037 A 
ATOM     27  C   UNL A   1      47.015  30.298  27.777  1.00  0.00     0.049 A 
ATOM     28  C   UNL A   1      45.349  24.997  26.957  1.00  0.00     0.074 A 
ATOM     29  C   UNL A   1      48.369  30.548  27.621  1.00  0.00     0.029 A 
ATOM     30  N   UNL A   1      46.829  28.948  27.513  1.00  0.00    -0.354 N 
ATOM     31  N   UNL A   1      45.884  26.182  27.125  1.00  0.00    -0.248 NA
ATOM     32  C   UNL A   1      46.295  23.962  26.523  1.00  0.00     0.031 C 
ATOM     33  C   UNL A   1      48.991  29.361  27.221  1.00  0.00     0.029 A 
ATOM     34  C   UNL A   1      48.036  28.358  27.175  1.00  0.00     0.049 A 
ATOM     35  H   UNL A   1      45.964  28.478  27.560  1.00  0.00     0.167 HD
ATOM     36  C   UNL A   1      47.234  26.033  26.835  1.00  0.00     0.074 A 
ATOM     37  C   UNL A   1      47.435  24.638  26.498  1.00  0.00     0.031 C 
ATOM     38  C   UNL A   1      48.217  26.966  26.846  1.00  0.00     0.037 A 
BRANCH  25  39
ATOM     39  C   UNL A   1      46.340  32.668  28.331  1.00  0.00     0.058 A 
ATOM     40  C   UNL A   1      46.240  33.605  27.290  1.00  0.00     0.135 A 
ATOM     41  C   UNL A   1      46.739  33.136  29.594  1.00  0.00     0.135 A 
ATOM     42  F   UNL A   1      45.877  33.211  26.059  1.00  0.00    -0.206 F 
ATOM     43  C   UNL A   1      46.539  34.949  27.490  1.00  0.00     0.059 A 
ATOM     44  C   UNL A   1      47.019  34.480  29.823  1.00  0.00     0.059 A 
ATOM     45  F   UNL A   1      46.851  32.284  30.626  1.00  0.00    -0.206 F 
ATOM     46  C   UNL A   1      46.927  35.379  28.761  1.00  0.00     0.060 A 
BRANCH  46  47
ATOM     47  S   UNL A   1      47.294  37.129  29.007  1.00  0.00     0.124 S 
ATOM     48  O   UNL A   1      46.270  37.760  28.179  1.00  0.00    -0.237 OA
ATOM     49  O   UNL A   1      47.128  37.285  30.448  1.00  0.00    -0.237 OA
ATOM     50  O   UNL A   1      48.663  37.262  28.519  1.00  0.00    -0.744 OA
ENDBRANCH  46  47
ENDBRANCH  25  39
BRANCH  26  51
ATOM     51  C   UNL A   1      43.490  23.173  26.904  1.00  0.00     0.058 A 
ATOM     52  C   UNL A   1      43.455  22.639  25.610  1.00  0.00     0.135 A 
ATOM     53  C   UNL A   1      43.132  22.333  27.971  1.00  0.00     0.135 A 
ATOM     54  F   UNL A   1      43.789  23.404  24.558  1.00  0.00    -0.206 F 
ATOM     55  C   UNL A   1      43.063  21.325  25.375  1.00  0.00     0.059 A 
ATOM     56  C   UNL A   1      42.765  21.008  27.765  1.00  0.00     0.059 A 
ATOM     57  F   UNL A   1      43.171  22.791  29.232  1.00  0.00    -0.206 F 
ATOM     58  C   UNL A   1      42.722  20.517  26.462  1.00  0.00     0.060 A 
BRANCH  58  59
ATOM     59  S   UNL A   1      42.256  18.800  26.154  1.00  0.00     0.124 S 
ATOM     60  O   UNL A   1      40.846  18.938  25.809  1.00  0.00    -0.237 OA
ATOM     61  O   UNL A   1      43.148  18.430  25.060  1.00  0.00    -0.237 OA
ATOM     62  O   UNL A   1      42.533  18.144  27.428  1.00  0.00    -0.744 OA
ENDBRANCH  58  59
ENDBRANCH  26  51
BRANCH  38  63
ATOM     63  C   UNL A   1      49.606  26.499  26.512  1.00  0.00     0.058 A 
ATOM     64  C   UNL A   1      50.139  26.635  25.221  1.00  0.00     0.135 A 
ATOM     65  C   UNL A   1      50.425  25.942  27.507  1.00  0.00     0.135 A 
ATOM     66  F   UNL A   1      49.393  27.153  24.233  1.00  0.00    -0.206 F 
ATOM     67  C   UNL A   1      51.431  26.213  24.922  1.00  0.00     0.059 A 
ATOM     68  C   UNL A   1      51.727  25.538  27.236  1.00  0.00     0.059 A 
ATOM     69  F   UNL A   1      49.965  25.797  28.759  1.00  0.00    -0.206 F 
ATOM     70  C   UNL A   1      52.217  25.665  25.937  1.00  0.00     0.060 A 
BRANCH  70  71
ATOM     71  S   UNL A   1      53.901  25.149  25.544  1.00  0.00     0.124 S 
ATOM     72  O   UNL A   1      54.652  25.724  26.655  1.00  0.00    -0.237 OA
ATOM     73  O   UNL A   1      53.790  23.694  25.541  1.00  0.00    -0.237 OA
ATOM     74  O   UNL A   1      54.147  25.755  24.239  1.00  0.00    -0.744 OA
ENDBRANCH  70  71
ENDBRANCH  38  63
ENDBRANCH  12  13
ENDBRANCH   5   7
ENDBRANCH   2   3
ENDBRANCH   1   2
BRANCH   1  75
ATOM     75  C   UNL A   1      33.116  28.396  26.857  1.00  0.00     0.023 C 
BRANCH  75  76
ATOM     76  C   UNL A   1      33.668  27.177  26.122  1.00  0.00     0.116 C 
BRANCH  76  77
ATOM     77  N   UNL A   1      32.805  26.023  26.293  1.00  0.00    -0.356 N 
ATOM     78  C   UNL A   1      33.006  24.770  25.787  1.00  0.00     0.224 C 
ATOM     79  H   UNL A   1      31.992  26.157  26.831  1.00  0.00     0.163 HD
ATOM     80  O   UNL A   1      32.023  24.115  25.445  1.00  0.00    -0.275 OA
BRANCH  78  81
ATOM     81  C   UNL A   1      34.414  24.334  25.475  1.00  0.00     0.098 C 
ATOM     82  C   UNL A   1      34.808  24.063  24.001  1.00  0.00     0.099 C 
ATOM     83  C   UNL A   1      35.108  23.161  26.220  1.00  0.00     0.025 C 
ATOM     84  C   UNL A   1      35.897  22.955  24.132  1.00  0.00     0.025 C 
ATOM     85  C   UNL A   1      34.742  21.787  25.719  1.00  0.00    -0.027 C 
ATOM     86  C   UNL A   1      36.481  23.254  25.525  1.00  0.00     0.017 C 
ATOM     87  C   UNL A   1      35.275  21.643  24.498  1.00  0.00    -0.027 C 
BRANCH  82  88
ATOM     88  C   UNL A   1      33.807  23.943  22.838  1.00  0.00     0.228 C 
ATOM     89  O   UNL A   1      33.631  22.803  22.368  1.00  0.00    -0.274 OA
ATOM     90  N   UNL A   1      32.937  24.874  22.364  1.00  0.00    -0.323 N 
ATOM     91  H   UNL A   1      32.285  24.492  21.730  1.00  0.00     0.170 HD
BRANCH  90  92
ATOM     92  C   UNL A   1      32.746  26.248  22.562  1.00  0.00     0.078 A 
ATOM     93  C   UNL A   1      33.871  27.073  22.425  1.00  0.00     0.029 A 
ATOM     94  C   UNL A   1      31.550  26.832  22.989  1.00  0.00     0.165 A 
ATOM     95  C   UNL A   1      33.761  28.462  22.559  1.00  0.00     0.004 A 
ATOM     96  C   UNL A   1      31.440  28.215  23.136  1.00  0.00     0.078 A 
ATOM     97  F   UNL A   1      30.517  26.078  23.364  1.00  0.00    -0.203 F 
ATOM     98  C   UNL A   1      32.537  29.037  22.895  1.00  0.00     0.024 A 
ATOM     99  Cl  UNL A   1      29.942  28.926  23.608  1.00  0.00    -0.081 Cl
ENDBRANCH  90  92
ENDBRANCH  82  88
ENDBRANCH  78  81
ENDBRANCH  76  77
ENDBRANCH  75  76
ENDBRANCH   1  75
TORSDOF 16
ENDMDL
MODEL 3
REMARK VINA RESULT:     -12.2      6.872     12.113
REMARK SMILES O=C(NCCCCNC(=O)[C@@H]1[C@H](C(=O)Nc2cccc(Cl)c2F)[C@@H]2C=C[C@H]1C2)c1ccc(-c2c3nc(c(-c4c(F)cc(S(=O)(=O)[O-])cc4F)c4ccc([nH]4)c(-c4c(F)cc(S(=O)(=O)[O-])cc4F)c4nc(c(-c5c(F)cc(S(=O)(=O)[O-])cc5F)c5ccc2[nH]5)C=C4)C=C3)cc1
REMARK SMILES IDX 5 1 4 2 3 3 1 4 2 5 29 7 30 8 94 9 31 10 93 11 32 12 33 13
REMARK SMILES IDX 34 14 87 15 35 16 92 17 86 18 88 19 36 20 91 21 85 22 84 23
REMARK SMILES IDX 37 25 71 26 50 27 70 28 51 29 54 30 69 31 89 32 52 33 53 34
REMARK SMILES IDX 68 36 90 37 55 38 38 39 39 40 48 41 40 42 41 43 47 44 49 45
REMARK SMILES IDX 42 46 43 47 44 48 45 49 46 50 72 51 73 52 82 53 74 54 75 55
REMARK SMILES IDX 81 56 83 57 76 58 77 59 78 60 79 61 80 62 56 63 57 64 66 65
REMARK SMILES IDX 58 66 59 67 65 68 67 69 60 70 61 71 62 72 63 73 64 74 6 75
REMARK SMILES IDX 7 76 8 77 9 78 10 80 11 81 12 82 27 83 24 84 26 85 28 86
REMARK SMILES IDX 25 87 13 88 14 89 15 90 16 92 17 93 22 94 18 95 20 96 23 97
REMARK SMILES IDX 19 98 21 99
REMARK H PARENT 3 6 88 24 54 35 8 79 15 91
REMARK Flexibility Score: inf
ROOT
ATOM      1  C   UNL A   1      34.339  29.930  27.198  1.00  0.00     0.023 C 
ENDROOT
BRANCH   1   2
ATOM      2  C   UNL A   1      35.564  30.613  27.793  1.00  0.00     0.116 C 
BRANCH   2   3
ATOM      3  N   UNL A   1      35.455  30.830  29.229  1.00  0.00    -0.352 N 
ATOM      4  O   UNL A   1      36.086  30.673  31.392  1.00  0.00    -0.269 OA
ATOM      5  C   UNL A   1      36.381  30.557  30.205  1.00  0.00     0.251 C 
ATOM      6  H   UNL A   1      34.607  31.223  29.540  1.00  0.00     0.163 HD
BRANCH   5   7
ATOM      7  C   UNL A   1      37.723  30.095  29.801  1.00  0.00     0.039 A 
ATOM      8  C   UNL A   1      38.702  29.866  30.772  1.00  0.00     0.014 A 
ATOM      9  C   UNL A   1      38.015  29.936  28.445  1.00  0.00     0.014 A 
ATOM     10  C   UNL A   1      40.009  29.620  30.380  1.00  0.00     0.010 A 
ATOM     11  C   UNL A   1      39.312  29.598  28.058  1.00  0.00     0.010 A 
ATOM     12  C   UNL A   1      40.325  29.465  29.020  1.00  0.00    -0.014 A 
BRANCH  12  13
ATOM     13  C   UNL A   1      41.708  29.083  28.641  1.00  0.00     0.031 A 
ATOM     14  C   UNL A   1      42.829  30.084  28.666  1.00  0.00     0.074 A 
ATOM     15  C   UNL A   1      41.941  27.803  28.292  1.00  0.00     0.049 A 
ATOM     16  N   UNL A   1      44.089  29.911  28.360  1.00  0.00    -0.248 NA
ATOM     17  C   UNL A   1      42.496  31.456  29.080  1.00  0.00     0.031 C 
ATOM     18  C   UNL A   1      40.919  26.751  28.225  1.00  0.00     0.029 A 
ATOM     19  N   UNL A   1      43.099  27.161  27.944  1.00  0.00    -0.354 N 
ATOM     20  C   UNL A   1      44.697  31.149  28.524  1.00  0.00     0.074 A 
ATOM     21  C   UNL A   1      43.663  32.074  28.938  1.00  0.00     0.031 C 
ATOM     22  C   UNL A   1      41.503  25.590  27.898  1.00  0.00     0.029 A 
ATOM     23  C   UNL A   1      42.924  25.826  27.667  1.00  0.00     0.049 A 
ATOM     24  H   UNL A   1      43.972  27.611  27.897  1.00  0.00     0.167 HD
ATOM     25  C   UNL A   1      46.001  31.478  28.349  1.00  0.00     0.037 A 
ATOM     26  C   UNL A   1      43.801  24.896  27.249  1.00  0.00     0.037 A 
ATOM     27  C   UNL A   1      47.022  30.540  27.953  1.00  0.00     0.049 A 
ATOM     28  C   UNL A   1      45.234  25.293  27.047  1.00  0.00     0.074 A 
ATOM     29  C   UNL A   1      48.377  30.766  27.779  1.00  0.00     0.029 A 
ATOM     30  N   UNL A   1      46.803  29.200  27.662  1.00  0.00    -0.354 N 
ATOM     31  N   UNL A   1      45.796  26.464  27.231  1.00  0.00    -0.248 NA
ATOM     32  C   UNL A   1      46.151  24.249  26.575  1.00  0.00     0.031 C 
ATOM     33  C   UNL A   1      48.968  29.576  27.344  1.00  0.00     0.029 A 
ATOM     34  C   UNL A   1      47.992  28.594  27.293  1.00  0.00     0.049 A 
ATOM     35  H   UNL A   1      45.930  28.747  27.713  1.00  0.00     0.167 HD
ATOM     36  C   UNL A   1      47.138  26.293  26.916  1.00  0.00     0.074 A 
ATOM     37  C   UNL A   1      47.304  24.902  26.546  1.00  0.00     0.031 C 
ATOM     38  C   UNL A   1      48.140  27.206  26.930  1.00  0.00     0.037 A 
BRANCH  25  39
ATOM     39  C   UNL A   1      46.404  32.911  28.568  1.00  0.00     0.058 A 
ATOM     40  C   UNL A   1      46.816  33.381  29.825  1.00  0.00     0.135 A 
ATOM     41  C   UNL A   1      46.441  33.811  27.490  1.00  0.00     0.135 A 
ATOM     42  F   UNL A   1      46.787  32.568  30.893  1.00  0.00    -0.206 F 
ATOM     43  C   UNL A   1      47.233  34.696  30.009  1.00  0.00     0.059 A 
ATOM     44  C   UNL A   1      46.878  35.124  27.646  1.00  0.00     0.059 A 
ATOM     45  F   UNL A   1      46.059  33.416  26.266  1.00  0.00    -0.206 F 
ATOM     46  C   UNL A   1      47.262  35.561  28.913  1.00  0.00     0.060 A 
BRANCH  46  47
ATOM     47  S   UNL A   1      47.822  37.258  29.166  1.00  0.00     0.124 S 
ATOM     48  O   UNL A   1      46.645  37.865  29.781  1.00  0.00    -0.237 OA
ATOM     49  O   UNL A   1      48.975  37.081  30.044  1.00  0.00    -0.237 OA
ATOM     50  O   UNL A   1      48.132  37.720  27.817  1.00  0.00    -0.744 OA
ENDBRANCH  46  47
ENDBRANCH  25  39
BRANCH  26  51
ATOM     51  C   UNL A   1      43.337  23.509  26.985  1.00  0.00     0.058 A 
ATOM     52  C   UNL A   1      43.076  23.069  25.681  1.00  0.00     0.135 A 
ATOM     53  C   UNL A   1      43.174  22.589  28.033  1.00  0.00     0.135 A 
ATOM     54  F   UNL A   1      43.217  23.913  24.647  1.00  0.00    -0.206 F 
ATOM     55  C   UNL A   1      42.652  21.770  25.423  1.00  0.00     0.059 A 
ATOM     56  C   UNL A   1      42.780  21.277  27.799  1.00  0.00     0.059 A 
ATOM     57  F   UNL A   1      43.433  22.956  29.298  1.00  0.00    -0.206 F 
ATOM     58  C   UNL A   1      42.509  20.881  26.490  1.00  0.00     0.060 A 
BRANCH  58  59
ATOM     59  S   UNL A   1      41.999  19.183  26.144  1.00  0.00     0.124 S 
ATOM     60  O   UNL A   1      40.573  19.353  25.890  1.00  0.00    -0.237 OA
ATOM     61  O   UNL A   1      42.820  18.846  24.985  1.00  0.00    -0.237 OA
ATOM     62  O   UNL A   1      42.342  18.473  27.372  1.00  0.00    -0.744 OA
ENDBRANCH  58  59
ENDBRANCH  26  51
BRANCH  38  63
ATOM     63  C   UNL A   1      49.513  26.717  26.564  1.00  0.00     0.058 A 
ATOM     64  C   UNL A   1      50.382  26.174  27.522  1.00  0.00     0.135 A 
ATOM     65  C   UNL A   1      49.948  26.761  25.230  1.00  0.00     0.135 A 
ATOM     66  F   UNL A   1      50.016  26.119  28.813  1.00  0.00    -0.206 F 
ATOM     67  C   UNL A   1      51.647  25.710  27.174  1.00  0.00     0.059 A 
ATOM     68  C   UNL A   1      51.197  26.279  24.855  1.00  0.00     0.059 A 
ATOM     69  F   UNL A   1      49.151  27.264  24.274  1.00  0.00    -0.206 F 
ATOM     70  C   UNL A   1      52.045  25.767  25.837  1.00  0.00     0.060 A 
BRANCH  70  71
ATOM     71  S   UNL A   1      53.676  25.136  25.392  1.00  0.00     0.124 S 
ATOM     72  O   UNL A   1      54.482  25.579  26.525  1.00  0.00    -0.237 OA
ATOM     73  O   UNL A   1      53.443  23.697  25.306  1.00  0.00    -0.237 OA
ATOM     74  O   UNL A   1      53.961  25.794  24.122  1.00  0.00    -0.744 OA
ENDBRANCH  70  71
ENDBRANCH  38  63
ENDBRANCH  12  13
ENDBRANCH   5   7
ENDBRANCH   2   3
ENDBRANCH   1   2
BRANCH   1  75
ATOM     75  C   UNL A   1      33.073  30.781  27.210  1.00  0.00     0.023 C 
BRANCH  75  76
ATOM     76  C   UNL A   1      31.902  30.169  26.446  1.00  0.00     0.116 C 
BRANCH  76  77
ATOM     77  N   UNL A   1      31.730  28.767  26.777  1.00  0.00    -0.356 N 
ATOM     78  C   UNL A   1      31.569  27.733  25.899  1.00  0.00     0.224 C 
ATOM     79  H   UNL A   1      31.731  28.538  27.735  1.00  0.00     0.163 HD
ATOM     80  O   UNL A   1      30.842  26.798  26.227  1.00  0.00    -0.275 OA
BRANCH  78  81
ATOM     81  C   UNL A   1      32.112  27.882  24.501  1.00  0.00     0.098 C 
ATOM     82  C   UNL A   1      31.120  28.078  23.327  1.00  0.00     0.099 C 
ATOM     83  C   UNL A   1      33.142  26.888  23.897  1.00  0.00     0.025 C 
ATOM     84  C   UNL A   1      31.863  27.409  22.131  1.00  0.00     0.025 C 
ATOM     85  C   UNL A   1      32.550  25.610  23.360  1.00  0.00    -0.027 C 
ATOM     86  C   UNL A   1      33.338  27.590  22.538  1.00  0.00     0.017 C 
ATOM     87  C   UNL A   1      31.844  25.917  22.264  1.00  0.00    -0.027 C 
BRANCH  82  88
ATOM     88  C   UNL A   1      29.598  27.869  23.425  1.00  0.00     0.228 C 
ATOM     89  O   UNL A   1      29.213  26.806  23.947  1.00  0.00    -0.274 OA
ATOM     90  N   UNL A   1      28.600  28.763  23.195  1.00  0.00    -0.323 N 
ATOM     91  H   UNL A   1      27.722  28.433  23.497  1.00  0.00     0.170 HD
BRANCH  90  92
ATOM     92  C   UNL A   1      28.523  30.044  22.630  1.00  0.00     0.078 A 
ATOM     93  C   UNL A   1      28.062  30.129  21.308  1.00  0.00     0.029 A 
ATOM     94  C   UNL A   1      28.971  31.214  23.248  1.00  0.00     0.165 A 
ATOM     95  C   UNL A   1      27.909  31.372  20.683  1.00  0.00     0.004 A 
ATOM     96  C   UNL A   1      28.831  32.454  22.622  1.00  0.00     0.078 A 
ATOM     97  F   UNL A   1      29.634  31.166  24.403  1.00  0.00    -0.203 F 
ATOM     98  C   UNL A   1      28.275  32.540  21.350  1.00  0.00     0.024 A 
ATOM     99  Cl  UNL A   1      29.337  33.895  23.420  1.00  0.00    -0.081 Cl
ENDBRANCH  90  92
ENDBRANCH  82  88
ENDBRANCH  78  81
ENDBRANCH  76  77
ENDBRANCH  75  76
ENDBRANCH   1  75
TORSDOF 16
ENDMDL
