MODEL 1
REMARK VINA RESULT:     -12.4      0.000      0.000
REMARK SMILES Cc1cc2c(cc1C(=O)c1ccccc1C(=O)NCCCCNC(=O)c1ccc(-c3c4nc(c(-c5c(F)cc(S(=O)(=O)[O-])cc5F)c5ccc([nH]5)c(-c5c(F)cc(S(=O)(=O)[O-])cc5F)c5nc(c(-c6c(F)cc(S(=O)(=O)[O-])cc6F)c6ccc3[nH]6)C=C5)C=C4)cc1)CCCC2
REMARK SMILES IDX 21 1 20 2 19 3 18 4 16 5 17 6 15 8 10 9 11 10 12 11 14 12
REMARK SMILES IDX 13 13 8 14 9 15 7 16 1 17 2 18 3 19 4 20 6 21 5 22 95 23
REMARK SMILES IDX 92 24 94 25 93 26 22 27 23 28 24 29 25 31 26 32 27 33 91 34
REMARK SMILES IDX 28 35 90 36 29 37 30 38 31 39 84 40 32 41 89 42 83 43 85 44
REMARK SMILES IDX 33 45 88 46 82 47 81 48 34 50 68 51 47 52 67 53 48 54 51 55
REMARK SMILES IDX 66 56 86 57 49 58 50 59 65 61 87 62 52 63 35 64 36 65 45 66
REMARK SMILES IDX 37 67 38 68 44 69 46 70 39 71 40 72 41 73 42 74 43 75 69 76
REMARK SMILES IDX 70 77 79 78 71 79 72 80 78 81 80 82 73 83 74 84 75 85 76 86
REMARK SMILES IDX 77 87 53 88 54 89 63 90 55 91 56 92 62 93 64 94 57 95 58 96
REMARK SMILES IDX 59 97 60 98 61 99
REMARK H PARENT 18 7 23 30 85 49 51 60
REMARK Flexibility Score: inf
ROOT
ATOM      1  C   UNL A   1      33.936  28.535  25.852  1.00  0.00     0.023 C 
ENDROOT
BRANCH   1   2
ATOM      2  C   UNL A   1      33.273  29.209  24.656  1.00  0.00     0.023 C 
BRANCH   2   3
ATOM      3  C   UNL A   1      33.703  28.745  23.275  1.00  0.00     0.116 C 
BRANCH   3   4
ATOM      4  N   UNL A   1      32.681  28.282  22.384  1.00  0.00    -0.352 N 
ATOM      5  C   UNL A   1      31.682  27.363  22.587  1.00  0.00     0.252 C 
ATOM      6  O   UNL A   1      30.884  27.216  21.655  1.00  0.00    -0.269 OA
ATOM      7  H   UNL A   1      32.699  28.684  21.485  1.00  0.00     0.163 HD
BRANCH   5   8
ATOM      8  C   UNL A   1      31.519  26.463  23.778  1.00  0.00     0.050 A 
ATOM      9  C   UNL A   1      32.364  25.456  24.278  1.00  0.00     0.035 A 
ATOM     10  C   UNL A   1      32.159  24.925  25.570  1.00  0.00     0.013 A 
ATOM     11  C   UNL A   1      31.052  25.292  26.331  1.00  0.00     0.001 A 
ATOM     12  C   UNL A   1      30.398  26.804  24.573  1.00  0.00     0.014 A 
ATOM     13  C   UNL A   1      30.155  26.215  25.819  1.00  0.00     0.001 A 
BRANCH   9  14
ATOM     14  C   UNL A   1      33.546  24.912  23.604  1.00  0.00     0.194 C 
ATOM     15  O   UNL A   1      33.837  25.420  22.524  1.00  0.00    -0.289 OA
BRANCH  14  16
ATOM     16  C   UNL A   1      34.381  23.783  24.187  1.00  0.00     0.026 A 
ATOM     17  C   UNL A   1      33.068  21.754  23.233  1.00  0.00     0.045 C 
ATOM     18  C   UNL A   1      34.207  22.395  23.976  1.00  0.00    -0.040 A 
ATOM     19  C   UNL A   1      35.203  21.507  24.440  1.00  0.00     0.008 A 
ATOM     20  C   UNL A   1      36.386  21.956  25.038  1.00  0.00    -0.044 A 
ATOM     21  C   UNL A   1      35.551  24.215  24.854  1.00  0.00     0.016 A 
ATOM     22  C   UNL A   1      36.565  23.325  25.246  1.00  0.00    -0.044 A 
ATOM     23  C   UNL A   1      37.421  20.946  25.471  1.00  0.00     0.036 C 
ATOM     24  C   UNL A   1      37.884  23.871  25.739  1.00  0.00     0.036 C 
ATOM     25  C   UNL A   1      38.815  21.548  25.632  1.00  0.00     0.005 C 
ATOM     26  C   UNL A   1      38.750  22.832  26.448  1.00  0.00     0.005 C 
ENDBRANCH  14  16
ENDBRANCH   9  14
ENDBRANCH   5   8
ENDBRANCH   3   4
ENDBRANCH   2   3
ENDBRANCH   1   2
BRANCH   1  27
ATOM     27  C   UNL A   1      33.338  28.805  27.229  1.00  0.00     0.116 C 
BRANCH  27  28
ATOM     28  N   UNL A   1      33.548  30.157  27.740  1.00  0.00    -0.352 N 
ATOM     29  C   UNL A   1      34.676  30.771  28.245  1.00  0.00     0.251 C 
ATOM     30  H   UNL A   1      32.748  30.729  27.720  1.00  0.00     0.163 HD
ATOM     31  O   UNL A   1      34.616  31.927  28.657  1.00  0.00    -0.269 OA
BRANCH  29  32
ATOM     32  C   UNL A   1      35.946  30.021  28.355  1.00  0.00     0.039 A 
ATOM     33  C   UNL A   1      36.293  29.390  29.544  1.00  0.00     0.014 A 
ATOM     34  C   UNL A   1      36.835  30.013  27.276  1.00  0.00     0.014 A 
ATOM     35  C   UNL A   1      37.615  29.017  29.752  1.00  0.00     0.010 A 
ATOM     36  C   UNL A   1      38.133  29.517  27.449  1.00  0.00     0.010 A 
ATOM     37  C   UNL A   1      38.562  29.103  28.719  1.00  0.00    -0.014 A 
BRANCH  37  38
ATOM     38  C   UNL A   1      39.994  28.824  29.025  1.00  0.00     0.031 A 
ATOM     39  C   UNL A   1      40.628  27.513  28.618  1.00  0.00     0.074 A 
ATOM     40  C   UNL A   1      40.758  29.797  29.560  1.00  0.00     0.049 A 
ATOM     41  N   UNL A   1      41.873  27.125  28.748  1.00  0.00    -0.248 NA
ATOM     42  C   UNL A   1      39.759  26.504  27.990  1.00  0.00     0.031 C 
ATOM     43  C   UNL A   1      40.270  31.113  29.980  1.00  0.00     0.029 A 
ATOM     44  N   UNL A   1      42.109  29.856  29.795  1.00  0.00    -0.354 N 
ATOM     45  C   UNL A   1      41.927  25.827  28.250  1.00  0.00     0.074 A 
ATOM     46  C   UNL A   1      40.586  25.479  27.837  1.00  0.00     0.031 C 
ATOM     47  C   UNL A   1      41.314  31.879  30.330  1.00  0.00     0.029 A 
ATOM     48  C   UNL A   1      42.536  31.087  30.237  1.00  0.00     0.049 A 
ATOM     49  H   UNL A   1      42.713  29.091  29.660  1.00  0.00     0.167 HD
ATOM     50  C   UNL A   1      42.997  25.004  28.133  1.00  0.00     0.037 A 
ATOM     51  C   UNL A   1      43.770  31.532  30.540  1.00  0.00     0.037 A 
ATOM     52  C   UNL A   1      44.341  25.368  28.499  1.00  0.00     0.049 A 
ATOM     53  C   UNL A   1      44.936  30.595  30.420  1.00  0.00     0.074 A 
ATOM     54  C   UNL A   1      45.495  24.608  28.400  1.00  0.00     0.029 A 
ATOM     55  N   UNL A   1      44.716  26.597  29.017  1.00  0.00    -0.354 N 
ATOM     56  N   UNL A   1      44.957  29.362  29.975  1.00  0.00    -0.248 NA
ATOM     57  C   UNL A   1      46.241  31.101  30.866  1.00  0.00     0.031 C 
ATOM     58  C   UNL A   1      46.562  25.367  28.889  1.00  0.00     0.029 A 
ATOM     59  C   UNL A   1      46.079  26.612  29.261  1.00  0.00     0.049 A 
ATOM     60  H   UNL A   1      44.104  27.349  29.188  1.00  0.00     0.167 HD
ATOM     61  C   UNL A   1      46.275  28.940  30.096  1.00  0.00     0.074 A 
ATOM     62  C   UNL A   1      47.027  30.058  30.628  1.00  0.00     0.031 C 
ATOM     63  C   UNL A   1      46.810  27.729  29.803  1.00  0.00     0.037 A 
BRANCH  50  64
ATOM     64  C   UNL A   1      42.764  23.619  27.594  1.00  0.00     0.058 A 
ATOM     65  C   UNL A   1      42.855  23.336  26.222  1.00  0.00     0.135 A 
ATOM     66  C   UNL A   1      42.499  22.550  28.466  1.00  0.00     0.135 A 
ATOM     67  F   UNL A   1      43.089  24.323  25.343  1.00  0.00    -0.206 F 
ATOM     68  C   UNL A   1      42.675  22.047  25.732  1.00  0.00     0.059 A 
ATOM     69  C   UNL A   1      42.337  21.248  27.999  1.00  0.00     0.059 A 
ATOM     70  F   UNL A   1      42.401  22.765  29.787  1.00  0.00    -0.206 F 
ATOM     71  C   UNL A   1      42.416  21.008  26.628  1.00  0.00     0.060 A 
BRANCH  71  72
ATOM     72  S   UNL A   1      42.193  19.339  25.976  1.00  0.00     0.124 S 
ATOM     73  O   UNL A   1      42.718  18.528  27.070  1.00  0.00    -0.237 OA
ATOM     74  O   UNL A   1      40.750  19.271  25.775  1.00  0.00    -0.237 OA
ATOM     75  O   UNL A   1      42.994  19.340  24.756  1.00  0.00    -0.744 OA
ENDBRANCH  71  72
ENDBRANCH  50  64
BRANCH  51  76
ATOM     76  C   UNL A   1      43.951  32.934  30.995  1.00  0.00     0.058 A 
ATOM     77  C   UNL A   1      44.020  33.990  30.074  1.00  0.00     0.135 A 
ATOM     78  C   UNL A   1      44.006  33.251  32.362  1.00  0.00     0.135 A 
ATOM     79  F   UNL A   1      43.981  33.734  28.758  1.00  0.00    -0.206 F 
ATOM     80  C   UNL A   1      44.132  35.312  30.491  1.00  0.00     0.059 A 
ATOM     81  C   UNL A   1      44.092  34.567  32.803  1.00  0.00     0.059 A 
ATOM     82  F   UNL A   1      43.930  32.277  33.281  1.00  0.00    -0.206 F 
ATOM     83  C   UNL A   1      44.159  35.591  31.859  1.00  0.00     0.060 A 
BRANCH  83  84
ATOM     84  S   UNL A   1      44.221  37.315  32.394  1.00  0.00     0.124 S 
ATOM     85  O   UNL A   1      43.146  37.354  33.378  1.00  0.00    -0.237 OA
ATOM     86  O   UNL A   1      45.577  37.424  32.924  1.00  0.00    -0.237 OA
ATOM     87  O   UNL A   1      43.978  38.057  31.160  1.00  0.00    -0.744 OA
ENDBRANCH  83  84
ENDBRANCH  51  76
BRANCH  63  88
ATOM     88  C   UNL A   1      48.274  27.542  30.066  1.00  0.00     0.058 A 
ATOM     89  C   UNL A   1      48.734  27.070  31.305  1.00  0.00     0.135 A 
ATOM     90  C   UNL A   1      49.220  27.771  29.055  1.00  0.00     0.135 A 
ATOM     91  F   UNL A   1      47.868  26.843  32.305  1.00  0.00    -0.206 F 
ATOM     92  C   UNL A   1      50.085  26.835  31.535  1.00  0.00     0.059 A 
ATOM     93  C   UNL A   1      50.576  27.525  29.257  1.00  0.00     0.059 A 
ATOM     94  F   UNL A   1      48.829  28.217  27.851  1.00  0.00    -0.206 F 
ATOM     95  C   UNL A   1      50.998  27.062  30.504  1.00  0.00     0.060 A 
BRANCH  95  96
ATOM     96  S   UNL A   1      52.742  26.706  30.801  1.00  0.00     0.124 S 
ATOM     97  O   UNL A   1      53.173  27.910  31.504  1.00  0.00    -0.237 OA
ATOM     98  O   UNL A   1      52.679  25.490  31.606  1.00  0.00    -0.237 OA
ATOM     99  O   UNL A   1      53.287  26.533  29.459  1.00  0.00    -0.744 OA
ENDBRANCH  95  96
ENDBRANCH  63  88
ENDBRANCH  37  38
ENDBRANCH  29  32
ENDBRANCH  27  28
ENDBRANCH   1  27
TORSDOF 16
ENDMDL
MODEL 2
REMARK VINA RESULT:     -12.0      1.473      3.596
REMARK SMILES Cc1cc2c(cc1C(=O)c1ccccc1C(=O)NCCCCNC(=O)c1ccc(-c3c4nc(c(-c5c(F)cc(S(=O)(=O)[O-])cc5F)c5ccc([nH]5)c(-c5c(F)cc(S(=O)(=O)[O-])cc5F)c5nc(c(-c6c(F)cc(S(=O)(=O)[O-])cc6F)c6ccc3[nH]6)C=C5)C=C4)cc1)CCCC2
REMARK SMILES IDX 21 1 20 2 19 3 18 4 16 5 17 6 15 8 10 9 11 10 12 11 14 12
REMARK SMILES IDX 13 13 8 14 9 15 7 16 1 17 2 18 3 19 4 20 6 21 5 22 95 23
REMARK SMILES IDX 92 24 94 25 93 26 22 27 23 28 24 29 25 31 26 32 27 33 91 34
REMARK SMILES IDX 28 35 90 36 29 37 30 38 31 39 84 40 32 41 89 42 83 43 85 44
REMARK SMILES IDX 33 45 88 46 82 47 81 48 34 50 68 51 47 52 67 53 48 54 51 55
REMARK SMILES IDX 66 56 86 57 49 58 50 59 65 61 87 62 52 63 35 64 36 65 45 66
REMARK SMILES IDX 37 67 38 68 44 69 46 70 39 71 40 72 41 73 42 74 43 75 69 76
REMARK SMILES IDX 70 77 79 78 71 79 72 80 78 81 80 82 73 83 74 84 75 85 76 86
REMARK SMILES IDX 77 87 53 88 54 89 63 90 55 91 56 92 62 93 64 94 57 95 58 96
REMARK SMILES IDX 59 97 60 98 61 99
REMARK H PARENT 18 7 23 30 85 49 51 60
REMARK Flexibility Score: inf
ROOT
ATOM      1  C   UNL A   1      32.201  28.842  27.127  1.00  0.00     0.023 C 
ENDROOT
BRANCH   1   2
ATOM      2  C   UNL A   1      31.943  27.750  26.095  1.00  0.00     0.023 C 
BRANCH   2   3
ATOM      3  C   UNL A   1      32.431  26.351  26.433  1.00  0.00     0.116 C 
BRANCH   3   4
ATOM      4  N   UNL A   1      31.467  25.413  26.927  1.00  0.00    -0.352 N 
ATOM      5  C   UNL A   1      31.371  24.059  26.728  1.00  0.00     0.252 C 
ATOM      6  O   UNL A   1      30.472  23.484  27.349  1.00  0.00    -0.269 OA
ATOM      7  H   UNL A   1      30.763  25.801  27.496  1.00  0.00     0.163 HD
BRANCH   5   8
ATOM      8  C   UNL A   1      32.181  23.232  25.772  1.00  0.00     0.050 A 
ATOM      9  C   UNL A   1      32.174  23.202  24.366  1.00  0.00     0.035 A 
ATOM     10  C   UNL A   1      33.213  22.560  23.657  1.00  0.00     0.013 A 
ATOM     11  C   UNL A   1      34.199  21.840  24.325  1.00  0.00     0.001 A 
ATOM     12  C   UNL A   1      33.193  22.481  26.418  1.00  0.00     0.014 A 
ATOM     13  C   UNL A   1      34.174  21.779  25.710  1.00  0.00     0.001 A 
BRANCH   9  14
ATOM     14  C   UNL A   1      31.195  23.860  23.496  1.00  0.00     0.194 C 
ATOM     15  O   UNL A   1      30.389  23.125  22.932  1.00  0.00    -0.289 OA
BRANCH  14  16
ATOM     16  C   UNL A   1      31.159  25.366  23.286  1.00  0.00     0.026 A 
ATOM     17  C   UNL A   1      33.526  25.704  22.268  1.00  0.00     0.045 C 
ATOM     18  C   UNL A   1      32.160  26.169  22.691  1.00  0.00    -0.040 A 
ATOM     19  C   UNL A   1      31.864  27.519  22.400  1.00  0.00     0.008 A 
ATOM     20  C   UNL A   1      30.595  28.070  22.616  1.00  0.00    -0.044 A 
ATOM     21  C   UNL A   1      29.904  25.956  23.560  1.00  0.00     0.016 A 
ATOM     22  C   UNL A   1      29.603  27.281  23.199  1.00  0.00    -0.044 A 
ATOM     23  C   UNL A   1      30.345  29.511  22.242  1.00  0.00     0.036 C 
ATOM     24  C   UNL A   1      28.179  27.775  23.307  1.00  0.00     0.036 C 
ATOM     25  C   UNL A   1      28.864  29.833  22.055  1.00  0.00     0.005 C 
ATOM     26  C   UNL A   1      28.051  29.294  23.224  1.00  0.00     0.005 C 
ENDBRANCH  14  16
ENDBRANCH   9  14
ENDBRANCH   5   8
ENDBRANCH   3   4
ENDBRANCH   2   3
ENDBRANCH   1   2
BRANCH   1  27
ATOM     27  C   UNL A   1      33.576  29.503  27.117  1.00  0.00     0.116 C 
BRANCH  27  28
ATOM     28  N   UNL A   1      33.719  30.647  28.012  1.00  0.00    -0.352 N 
ATOM     29  C   UNL A   1      34.787  31.075  28.775  1.00  0.00     0.251 C 
ATOM     30  H   UNL A   1      32.916  31.212  28.084  1.00  0.00     0.163 HD
ATOM     31  O   UNL A   1      34.674  32.064  29.495  1.00  0.00    -0.269 OA
BRANCH  29  32
ATOM     32  C   UNL A   1      36.051  30.307  28.782  1.00  0.00     0.039 A 
ATOM     33  C   UNL A   1      36.500  29.695  29.947  1.00  0.00     0.014 A 
ATOM     34  C   UNL A   1      36.835  30.263  27.625  1.00  0.00     0.014 A 
ATOM     35  C   UNL A   1      37.829  29.306  30.039  1.00  0.00     0.010 A 
ATOM     36  C   UNL A   1      38.136  29.750  27.687  1.00  0.00     0.010 A 
ATOM     37  C   UNL A   1      38.677  29.356  28.919  1.00  0.00    -0.014 A 
BRANCH  37  38
ATOM     38  C   UNL A   1      40.127  29.061  29.096  1.00  0.00     0.031 A 
ATOM     39  C   UNL A   1      40.701  27.730  28.666  1.00  0.00     0.074 A 
ATOM     40  C   UNL A   1      40.952  30.034  29.532  1.00  0.00     0.049 A 
ATOM     41  N   UNL A   1      41.947  27.324  28.688  1.00  0.00    -0.248 NA
ATOM     42  C   UNL A   1      39.762  26.720  28.149  1.00  0.00     0.031 C 
ATOM     43  C   UNL A   1      40.525  31.368  29.961  1.00  0.00     0.029 A 
ATOM     44  N   UNL A   1      42.320  30.076  29.637  1.00  0.00    -0.354 N 
ATOM     45  C   UNL A   1      41.935  26.014  28.221  1.00  0.00     0.074 A 
ATOM     46  C   UNL A   1      40.556  25.678  27.945  1.00  0.00     0.031 C 
ATOM     47  C   UNL A   1      41.608  32.124  30.192  1.00  0.00     0.029 A 
ATOM     48  C   UNL A   1      42.804  31.310  30.004  1.00  0.00     0.049 A 
ATOM     49  H   UNL A   1      42.898  29.298  29.465  1.00  0.00     0.167 HD
ATOM     50  C   UNL A   1      42.977  25.170  28.025  1.00  0.00     0.037 A 
ATOM     51  C   UNL A   1      44.068  31.742  30.177  1.00  0.00     0.037 A 
ATOM     52  C   UNL A   1      44.355  25.520  28.253  1.00  0.00     0.049 A 
ATOM     53  C   UNL A   1      45.204  30.783  29.972  1.00  0.00     0.074 A 
ATOM     54  C   UNL A   1      45.483  24.740  28.065  1.00  0.00     0.029 A 
ATOM     55  N   UNL A   1      44.795  26.756  28.701  1.00  0.00    -0.354 N 
ATOM     56  N   UNL A   1      45.165  29.539  29.559  1.00  0.00    -0.248 NA
ATOM     57  C   UNL A   1      46.552  31.278  30.280  1.00  0.00     0.031 C 
ATOM     58  C   UNL A   1      46.603  25.493  28.432  1.00  0.00     0.029 A 
ATOM     59  C   UNL A   1      46.175  26.754  28.814  1.00  0.00     0.049 A 
ATOM     60  H   UNL A   1      44.212  27.522  28.910  1.00  0.00     0.167 HD
ATOM     61  C   UNL A   1      46.482  29.098  29.567  1.00  0.00     0.074 A 
ATOM     62  C   UNL A   1      47.297  30.216  29.996  1.00  0.00     0.031 C 
ATOM     63  C   UNL A   1      46.970  27.872  29.256  1.00  0.00     0.037 A 
BRANCH  50  64
ATOM     64  C   UNL A   1      42.674  23.777  27.546  1.00  0.00     0.058 A 
ATOM     65  C   UNL A   1      42.590  23.467  26.179  1.00  0.00     0.135 A 
ATOM     66  C   UNL A   1      42.521  22.725  28.465  1.00  0.00     0.135 A 
ATOM     67  F   UNL A   1      42.712  24.437  25.259  1.00  0.00    -0.206 F 
ATOM     68  C   UNL A   1      42.346  22.170  25.741  1.00  0.00     0.059 A 
ATOM     69  C   UNL A   1      42.298  21.416  28.048  1.00  0.00     0.059 A 
ATOM     70  F   UNL A   1      42.593  22.966  29.784  1.00  0.00    -0.206 F 
ATOM     71  C   UNL A   1      42.201  21.150  26.683  1.00  0.00     0.060 A 
BRANCH  71  72
ATOM     72  S   UNL A   1      41.893  19.470  26.096  1.00  0.00     0.124 S 
ATOM     73  O   UNL A   1      42.240  18.683  27.276  1.00  0.00    -0.237 OA
ATOM     74  O   UNL A   1      40.475  19.511  25.758  1.00  0.00    -0.237 OA
ATOM     75  O   UNL A   1      42.802  19.332  24.962  1.00  0.00    -0.744 OA
ENDBRANCH  71  72
ENDBRANCH  50  64
BRANCH  51  76
ATOM     76  C   UNL A   1      44.311  33.152  30.577  1.00  0.00     0.058 A 
ATOM     77  C   UNL A   1      44.318  34.181  29.625  1.00  0.00     0.135 A 
ATOM     78  C   UNL A   1      44.490  33.502  31.924  1.00  0.00     0.135 A 
ATOM     79  F   UNL A   1      44.161  33.893  28.324  1.00  0.00    -0.206 F 
ATOM     80  C   UNL A   1      44.487  35.511  29.995  1.00  0.00     0.059 A 
ATOM     81  C   UNL A   1      44.636  34.827  32.321  1.00  0.00     0.059 A 
ATOM     82  F   UNL A   1      44.478  32.554  32.873  1.00  0.00    -0.206 F 
ATOM     83  C   UNL A   1      44.638  35.825  31.347  1.00  0.00     0.060 A 
BRANCH  83  84
ATOM     84  S   UNL A   1      44.775  37.561  31.827  1.00  0.00     0.124 S 
ATOM     85  O   UNL A   1      44.995  38.204  30.537  1.00  0.00    -0.237 OA
ATOM     86  O   UNL A   1      43.481  37.810  32.455  1.00  0.00    -0.237 OA
ATOM     87  O   UNL A   1      45.916  37.566  32.739  1.00  0.00    -0.744 OA
ENDBRANCH  83  84
ENDBRANCH  51  76
BRANCH  63  88
ATOM     88  C   UNL A   1      48.450  27.667  29.384  1.00  0.00     0.058 A 
ATOM     89  C   UNL A   1      48.999  27.038  30.512  1.00  0.00     0.135 A 
ATOM     90  C   UNL A   1      49.319  28.039  28.347  1.00  0.00     0.135 A 
ATOM     91  F   UNL A   1      48.209  26.671  31.533  1.00  0.00    -0.206 F 
ATOM     92  C   UNL A   1      50.364  26.790  30.610  1.00  0.00     0.059 A 
ATOM     93  C   UNL A   1      50.685  27.783  28.416  1.00  0.00     0.059 A 
ATOM     94  F   UNL A   1      48.839  28.637  27.245  1.00  0.00    -0.206 F 
ATOM     95  C   UNL A   1      51.198  27.162  29.555  1.00  0.00     0.060 A 
BRANCH  95  96
ATOM     96  S   UNL A   1      52.960  26.788  29.674  1.00  0.00     0.124 S 
ATOM     97  O   UNL A   1      53.197  26.078  28.422  1.00  0.00    -0.237 OA
ATOM     98  O   UNL A   1      53.555  28.117  29.773  1.00  0.00    -0.237 OA
ATOM     99  O   UNL A   1      53.053  25.976  30.884  1.00  0.00    -0.744 OA
ENDBRANCH  95  96
ENDBRANCH  63  88
ENDBRANCH  37  38
ENDBRANCH  29  32
ENDBRANCH  27  28
ENDBRANCH   1  27
TORSDOF 16
ENDMDL
MODEL 3
REMARK VINA RESULT:     -11.9      1.095      2.242
REMARK SMILES Cc1cc2c(cc1C(=O)c1ccccc1C(=O)NCCCCNC(=O)c1ccc(-c3c4nc(c(-c5c(F)cc(S(=O)(=O)[O-])cc5F)c5ccc([nH]5)c(-c5c(F)cc(S(=O)(=O)[O-])cc5F)c5nc(c(-c6c(F)cc(S(=O)(=O)[O-])cc6F)c6ccc3[nH]6)C=C5)C=C4)cc1)CCCC2
REMARK SMILES IDX 21 1 20 2 19 3 18 4 16 5 17 6 15 8 10 9 11 10 12 11 14 12
REMARK SMILES IDX 13 13 8 14 9 15 7 16 1 17 2 18 3 19 4 20 6 21 5 22 95 23
REMARK SMILES IDX 92 24 94 25 93 26 22 27 23 28 24 29 25 31 26 32 27 33 91 34
REMARK SMILES IDX 28 35 90 36 29 37 30 38 31 39 84 40 32 41 89 42 83 43 85 44
REMARK SMILES IDX 33 45 88 46 82 47 81 48 34 50 68 51 47 52 67 53 48 54 51 55
REMARK SMILES IDX 66 56 86 57 49 58 50 59 65 61 87 62 52 63 35 64 36 65 45 66
REMARK SMILES IDX 37 67 38 68 44 69 46 70 39 71 40 72 41 73 42 74 43 75 69 76
REMARK SMILES IDX 70 77 79 78 71 79 72 80 78 81 80 82 73 83 74 84 75 85 76 86
REMARK SMILES IDX 77 87 53 88 54 89 63 90 55 91 56 92 62 93 64 94 57 95 58 96
REMARK SMILES IDX 59 97 60 98 61 99
REMARK H PARENT 18 7 23 30 85 49 51 60
REMARK Flexibility Score: inf
ROOT
ATOM      1  C   UNL A   1      31.989  28.328  27.252  1.00  0.00     0.023 C 
ENDROOT
BRANCH   1   2
ATOM      2  C   UNL A   1      31.879  26.884  26.774  1.00  0.00     0.023 C 
BRANCH   2   3
ATOM      3  C   UNL A   1      30.479  26.314  26.614  1.00  0.00     0.116 C 
BRANCH   3   4
ATOM      4  N   UNL A   1      30.219  25.509  25.458  1.00  0.00    -0.352 N 
ATOM      5  C   UNL A   1      30.167  25.859  24.132  1.00  0.00     0.252 C 
ATOM      6  O   UNL A   1      30.000  24.931  23.334  1.00  0.00    -0.269 OA
ATOM      7  H   UNL A   1      30.051  24.557  25.643  1.00  0.00     0.163 HD
BRANCH   5   8
ATOM      8  C   UNL A   1      30.199  27.251  23.569  1.00  0.00     0.050 A 
ATOM      9  C   UNL A   1      31.283  28.021  23.112  1.00  0.00     0.035 A 
ATOM     10  C   UNL A   1      31.062  29.195  22.359  1.00  0.00     0.013 A 
ATOM     11  C   UNL A   1      29.775  29.686  22.156  1.00  0.00     0.001 A 
ATOM     12  C   UNL A   1      28.906  27.785  23.354  1.00  0.00     0.014 A 
ATOM     13  C   UNL A   1      28.695  28.992  22.678  1.00  0.00     0.001 A 
BRANCH   9  14
ATOM     14  C   UNL A   1      32.702  27.689  23.271  1.00  0.00     0.194 C 
ATOM     15  O   UNL A   1      33.468  28.638  23.418  1.00  0.00    -0.289 OA
BRANCH  14  16
ATOM     16  C   UNL A   1      33.222  26.260  23.256  1.00  0.00     0.026 A 
ATOM     17  C   UNL A   1      32.579  25.605  20.824  1.00  0.00     0.045 C 
ATOM     18  C   UNL A   1      33.222  25.363  22.162  1.00  0.00    -0.040 A 
ATOM     19  C   UNL A   1      33.930  24.146  22.282  1.00  0.00     0.008 A 
ATOM     20  C   UNL A   1      34.686  23.828  23.415  1.00  0.00    -0.044 A 
ATOM     21  C   UNL A   1      33.935  25.893  24.421  1.00  0.00     0.016 A 
ATOM     22  C   UNL A   1      34.692  24.712  24.497  1.00  0.00    -0.044 A 
ATOM     23  C   UNL A   1      35.447  22.525  23.452  1.00  0.00     0.036 C 
ATOM     24  C   UNL A   1      35.613  24.494  25.674  1.00  0.00     0.036 C 
ATOM     25  C   UNL A   1      36.585  22.525  24.470  1.00  0.00     0.005 C 
ATOM     26  C   UNL A   1      36.099  23.053  25.813  1.00  0.00     0.005 C 
ENDBRANCH  14  16
ENDBRANCH   9  14
ENDBRANCH   5   8
ENDBRANCH   3   4
ENDBRANCH   2   3
ENDBRANCH   1   2
BRANCH   1  27
ATOM     27  C   UNL A   1      33.321  29.038  27.031  1.00  0.00     0.116 C 
BRANCH  27  28
ATOM     28  N   UNL A   1      33.471  30.306  27.739  1.00  0.00    -0.352 N 
ATOM     29  C   UNL A   1      34.552  30.855  28.399  1.00  0.00     0.251 C 
ATOM     30  H   UNL A   1      32.662  30.866  27.748  1.00  0.00     0.163 HD
ATOM     31  O   UNL A   1      34.444  31.940  28.964  1.00  0.00    -0.269 OA
BRANCH  29  32
ATOM     32  C   UNL A   1      35.827  30.110  28.484  1.00  0.00     0.039 A 
ATOM     33  C   UNL A   1      36.216  29.509  29.676  1.00  0.00     0.014 A 
ATOM     34  C   UNL A   1      36.680  30.077  27.377  1.00  0.00     0.014 A 
ATOM     35  C   UNL A   1      37.545  29.145  29.850  1.00  0.00     0.010 A 
ATOM     36  C   UNL A   1      37.985  29.589  27.519  1.00  0.00     0.010 A 
ATOM     37  C   UNL A   1      38.457  29.208  28.783  1.00  0.00    -0.014 A 
BRANCH  37  38
ATOM     38  C   UNL A   1      39.899  28.939  29.048  1.00  0.00     0.031 A 
ATOM     39  C   UNL A   1      40.528  27.627  28.638  1.00  0.00     0.074 A 
ATOM     40  C   UNL A   1      40.674  29.923  29.549  1.00  0.00     0.049 A 
ATOM     41  N   UNL A   1      41.778  27.246  28.734  1.00  0.00    -0.248 NA
ATOM     42  C   UNL A   1      39.645  26.606  28.048  1.00  0.00     0.031 C 
ATOM     43  C   UNL A   1      40.192  31.241  29.968  1.00  0.00     0.029 A 
ATOM     44  N   UNL A   1      42.031  29.991  29.741  1.00  0.00    -0.354 N 
ATOM     45  C   UNL A   1      41.824  25.943  28.249  1.00  0.00     0.074 A 
ATOM     46  C   UNL A   1      40.472  25.584  27.881  1.00  0.00     0.031 C 
ATOM     47  C   UNL A   1      41.242  32.015  30.277  1.00  0.00     0.029 A 
ATOM     48  C   UNL A   1      42.465  31.229  30.155  1.00  0.00     0.049 A 
ATOM     49  H   UNL A   1      42.635  29.227  29.596  1.00  0.00     0.167 HD
ATOM     50  C   UNL A   1      42.894  25.124  28.109  1.00  0.00     0.037 A 
ATOM     51  C   UNL A   1      43.705  31.684  30.415  1.00  0.00     0.037 A 
ATOM     52  C   UNL A   1      44.247  25.499  28.429  1.00  0.00     0.049 A 
ATOM     53  C   UNL A   1      44.872  30.752  30.270  1.00  0.00     0.074 A 
ATOM     54  C   UNL A   1      45.401  24.744  28.303  1.00  0.00     0.029 A 
ATOM     55  N   UNL A   1      44.631  26.736  28.921  1.00  0.00    -0.354 N 
ATOM     56  N   UNL A   1      44.886  29.514  29.839  1.00  0.00    -0.248 NA
ATOM     57  C   UNL A   1      46.187  31.269  30.670  1.00  0.00     0.031 C 
ATOM     58  C   UNL A   1      46.479  25.514  28.750  1.00  0.00     0.029 A 
ATOM     59  C   UNL A   1      46.001  26.761  29.122  1.00  0.00     0.049 A 
ATOM     60  H   UNL A   1      44.020  27.487  29.102  1.00  0.00     0.167 HD
ATOM     61  C   UNL A   1      46.209  29.099  29.924  1.00  0.00     0.074 A 
ATOM     62  C   UNL A   1      46.971  30.227  30.420  1.00  0.00     0.031 C 
ATOM     63  C   UNL A   1      46.742  27.888  29.629  1.00  0.00     0.037 A 
BRANCH  50  64
ATOM     64  C   UNL A   1      42.652  23.732  27.593  1.00  0.00     0.058 A 
ATOM     65  C   UNL A   1      42.647  23.444  26.219  1.00  0.00     0.135 A 
ATOM     66  C   UNL A   1      42.477  22.661  28.486  1.00  0.00     0.135 A 
ATOM     67  F   UNL A   1      42.794  24.431  25.321  1.00  0.00    -0.206 F 
ATOM     68  C   UNL A   1      42.460  22.149  25.748  1.00  0.00     0.059 A 
ATOM     69  C   UNL A   1      42.309  21.354  28.037  1.00  0.00     0.059 A 
ATOM     70  F   UNL A   1      42.473  22.881  29.810  1.00  0.00    -0.206 F 
ATOM     71  C   UNL A   1      42.291  21.109  26.665  1.00  0.00     0.060 A 
BRANCH  71  72
ATOM     72  S   UNL A   1      42.057  19.432  26.036  1.00  0.00     0.124 S 
ATOM     73  O   UNL A   1      42.517  18.632  27.167  1.00  0.00    -0.237 OA
ATOM     74  O   UNL A   1      40.622  19.393  25.777  1.00  0.00    -0.237 OA
ATOM     75  O   UNL A   1      42.907  19.390  24.851  1.00  0.00    -0.744 OA
ENDBRANCH  71  72
ENDBRANCH  50  64
BRANCH  51  76
ATOM     76  C   UNL A   1      43.893  33.092  30.849  1.00  0.00     0.058 A 
ATOM     77  C   UNL A   1      43.949  33.428  32.209  1.00  0.00     0.135 A 
ATOM     78  C   UNL A   1      44.072  34.121  29.911  1.00  0.00     0.135 A 
ATOM     79  F   UNL A   1      43.773  32.479  33.141  1.00  0.00    -0.206 F 
ATOM     80  C   UNL A   1      44.182  34.734  32.626  1.00  0.00     0.059 A 
ATOM     81  C   UNL A   1      44.331  35.430  30.304  1.00  0.00     0.059 A 
ATOM     82  F   UNL A   1      44.040  33.848  28.598  1.00  0.00    -0.206 F 
ATOM     83  C   UNL A   1      44.380  35.727  31.665  1.00  0.00     0.060 A 
BRANCH  83  84
ATOM     84  S   UNL A   1      44.764  37.404  32.214  1.00  0.00     0.124 S 
ATOM     85  O   UNL A   1      44.378  38.189  31.047  1.00  0.00    -0.237 OA
ATOM     86  O   UNL A   1      43.911  37.546  33.391  1.00  0.00    -0.237 OA
ATOM     87  O   UNL A   1      46.196  37.346  32.492  1.00  0.00    -0.744 OA
ENDBRANCH  83  84
ENDBRANCH  51  76
BRANCH  63  88
ATOM     88  C   UNL A   1      48.215  27.712  29.848  1.00  0.00     0.058 A 
ATOM     89  C   UNL A   1      49.140  28.036  28.845  1.00  0.00     0.135 A 
ATOM     90  C   UNL A   1      48.710  27.281  31.089  1.00  0.00     0.135 A 
ATOM     91  F   UNL A   1      48.715  28.445  27.639  1.00  0.00    -0.206 F 
ATOM     92  C   UNL A   1      50.510  27.934  29.062  1.00  0.00     0.059 A 
ATOM     93  C   UNL A   1      50.077  27.190  31.335  1.00  0.00     0.059 A 
ATOM     94  F   UNL A   1      47.864  26.966  32.082  1.00  0.00    -0.206 F 
ATOM     95  C   UNL A   1      50.969  27.514  30.312  1.00  0.00     0.060 A 
BRANCH  95  96
ATOM     96  S   UNL A   1      52.750  27.434  30.595  1.00  0.00     0.124 S 
ATOM     97  O   UNL A   1      52.897  28.268  31.783  1.00  0.00    -0.237 OA
ATOM     98  O   UNL A   1      52.970  26.004  30.792  1.00  0.00    -0.237 OA
ATOM     99  O   UNL A   1      53.314  27.984  29.367  1.00  0.00    -0.744 OA
ENDBRANCH  95  96
ENDBRANCH  63  88
ENDBRANCH  37  38
ENDBRANCH  29  32
ENDBRANCH  27  28
ENDBRANCH   1  27
TORSDOF 16
ENDMDL
