MODEL 1
REMARK VINA RESULT:     -11.6      0.000      0.000
REMARK SMILES CC(C)=CC[N@H+]1CCCC[C@H]1C(=O)NCCCCNC(=O)c1ccc(-c2c3nc(c(-c4c(F)cc(S(=O)(=O)[O-])cc4F)c4ccc([nH]4)c(-c4c(F)cc(S(=O)(=O)[O-])cc4F)c4nc(c(-c5c(F)cc(S(=O)(=O)[O-])cc5F)c5ccc2[nH]5)C=C4)C=C3)cc1
REMARK SMILES IDX 17 1 16 2 15 3 14 4 12 5 13 6 11 8 6 9 7 10 8 12 10 13 9 14
REMARK SMILES IDX 5 15 4 16 1 17 2 18 3 19 18 20 19 21 20 22 21 24 22 25 23 26
REMARK SMILES IDX 87 27 24 28 86 29 25 30 26 31 27 32 80 33 28 34 85 35 79 36
REMARK SMILES IDX 81 37 29 38 84 39 78 40 77 41 30 43 64 44 43 45 63 46 44 47
REMARK SMILES IDX 47 48 62 49 82 50 45 51 46 52 61 54 83 55 48 56 31 57 32 58
REMARK SMILES IDX 41 59 33 60 34 61 40 62 42 63 35 64 36 65 37 66 38 67 39 68
REMARK SMILES IDX 65 69 66 70 75 71 67 72 68 73 74 74 76 75 69 76 70 77 71 78
REMARK SMILES IDX 72 79 73 80 49 81 50 82 59 83 51 84 52 85 58 86 60 87 53 88
REMARK SMILES IDX 54 89 55 90 56 91 57 92
REMARK H PARENT 14 7 6 11 19 23 81 42 47 53
REMARK Flexibility Score: inf
ROOT
ATOM      1  C   UNL A   1      39.753  21.947  26.814  1.00  0.00     0.023 C 
ENDROOT
BRANCH   1   2
ATOM      2  C   UNL A   1      38.788  22.400  25.715  1.00  0.00     0.023 C 
BRANCH   2   3
ATOM      3  C   UNL A   1      37.585  21.481  25.513  1.00  0.00     0.116 C 
BRANCH   3   4
ATOM      4  N   UNL A   1      36.409  22.001  26.186  1.00  0.00    -0.351 N 
ATOM      5  C   UNL A   1      35.162  22.285  25.710  1.00  0.00     0.278 C 
ATOM      6  O   UNL A   1      34.377  22.835  26.486  1.00  0.00    -0.268 OA
ATOM      7  H   UNL A   1      36.532  22.179  27.146  1.00  0.00     0.163 HD
BRANCH   5   8
ATOM      8  C   UNL A   1      34.771  21.881  24.270  1.00  0.00     0.274 C 
ATOM      9  N   UNL A   1      33.397  21.337  24.197  1.00  0.00    -0.321 N 
ATOM     10  C   UNL A   1      32.345  22.352  24.293  1.00  0.00     0.263 C 
ATOM     11  H   UNL A   1      33.300  20.992  23.242  1.00  0.00     0.349 HD
ATOM     12  C   UNL A   1      32.524  23.461  23.259  1.00  0.00     0.062 C 
ATOM     13  C   UNL A   1      34.992  23.044  23.292  1.00  0.00     0.076 C 
ATOM     14  C   UNL A   1      33.900  24.104  23.356  1.00  0.00     0.012 C 
BRANCH   9  15
ATOM     15  C   UNL A   1      33.189  20.136  25.021  1.00  0.00     0.291 C 
BRANCH  15  16
ATOM     16  C   UNL A   1      33.903  18.887  24.573  1.00  0.00     0.032 C 
ATOM     17  C   UNL A   1      32.326  18.336  22.705  1.00  0.00     0.039 C 
ATOM     18  C   UNL A   1      33.518  18.060  23.578  1.00  0.00    -0.075 C 
ATOM     19  C   UNL A   1      34.267  16.781  23.330  1.00  0.00     0.039 C 
ENDBRANCH  15  16
ENDBRANCH   9  15
ENDBRANCH   5   8
ENDBRANCH   3   4
ENDBRANCH   2   3
ENDBRANCH   1   2
BRANCH   1  20
ATOM     20  C   UNL A   1      40.739  23.010  27.288  1.00  0.00     0.116 C 
BRANCH  20  21
ATOM     21  N   UNL A   1      41.304  23.783  26.192  1.00  0.00    -0.352 N 
ATOM     22  C   UNL A   1      41.569  25.130  26.135  1.00  0.00     0.251 C 
ATOM     23  H   UNL A   1      41.526  23.271  25.382  1.00  0.00     0.163 HD
ATOM     24  O   UNL A   1      41.908  25.639  25.070  1.00  0.00    -0.269 OA
BRANCH  22  25
ATOM     25  C   UNL A   1      41.415  25.963  27.347  1.00  0.00     0.039 A 
ATOM     26  C   UNL A   1      42.392  26.918  27.637  1.00  0.00     0.014 A 
ATOM     27  C   UNL A   1      40.305  25.817  28.184  1.00  0.00     0.014 A 
ATOM     28  C   UNL A   1      42.227  27.762  28.736  1.00  0.00     0.010 A 
ATOM     29  C   UNL A   1      40.103  26.714  29.229  1.00  0.00     0.010 A 
ATOM     30  C   UNL A   1      41.065  27.690  29.523  1.00  0.00    -0.014 A 
BRANCH  30  31
ATOM     31  C   UNL A   1      40.847  28.637  30.648  1.00  0.00     0.031 A 
ATOM     32  C   UNL A   1      41.672  28.536  31.902  1.00  0.00     0.074 A 
ATOM     33  C   UNL A   1      39.864  29.553  30.563  1.00  0.00     0.049 A 
ATOM     34  N   UNL A   1      41.624  29.270  32.984  1.00  0.00    -0.248 NA
ATOM     35  C   UNL A   1      42.659  27.446  31.963  1.00  0.00     0.031 C 
ATOM     36  C   UNL A   1      38.942  29.699  29.435  1.00  0.00     0.029 A 
ATOM     37  N   UNL A   1      39.467  30.529  31.444  1.00  0.00    -0.354 N 
ATOM     38  C   UNL A   1      42.557  28.725  33.857  1.00  0.00     0.074 A 
ATOM     39  C   UNL A   1      43.111  27.560  33.203  1.00  0.00     0.031 C 
ATOM     40  C   UNL A   1      38.105  30.719  29.680  1.00  0.00     0.029 A 
ATOM     41  C   UNL A   1      38.406  31.279  30.994  1.00  0.00     0.049 A 
ATOM     42  H   UNL A   1      39.902  30.677  32.315  1.00  0.00     0.167 HD
ATOM     43  C   UNL A   1      42.936  29.166  35.080  1.00  0.00     0.037 A 
ATOM     44  C   UNL A   1      37.746  32.302  31.573  1.00  0.00     0.037 A 
ATOM     45  C   UNL A   1      42.389  30.336  35.716  1.00  0.00     0.049 A 
ATOM     46  C   UNL A   1      38.200  32.800  32.916  1.00  0.00     0.074 A 
ATOM     47  C   UNL A   1      42.761  30.919  36.914  1.00  0.00     0.029 A 
ATOM     48  N   UNL A   1      41.339  31.094  35.214  1.00  0.00    -0.354 N 
ATOM     49  N   UNL A   1      39.159  32.338  33.684  1.00  0.00    -0.248 NA
ATOM     50  C   UNL A   1      37.496  33.965  33.467  1.00  0.00     0.031 C 
ATOM     51  C   UNL A   1      41.900  31.993  37.165  1.00  0.00     0.029 A 
ATOM     52  C   UNL A   1      41.029  32.120  36.094  1.00  0.00     0.049 A 
ATOM     53  H   UNL A   1      40.881  30.928  34.359  1.00  0.00     0.167 HD
ATOM     54  C   UNL A   1      39.186  33.167  34.800  1.00  0.00     0.074 A 
ATOM     55  C   UNL A   1      38.156  34.167  34.600  1.00  0.00     0.031 C 
ATOM     56  C   UNL A   1      39.994  33.105  35.889  1.00  0.00     0.037 A 
BRANCH  43  57
ATOM     57  C   UNL A   1      43.984  28.367  35.811  1.00  0.00     0.058 A 
ATOM     58  C   UNL A   1      45.358  28.562  35.588  1.00  0.00     0.135 A 
ATOM     59  C   UNL A   1      43.609  27.381  36.739  1.00  0.00     0.135 A 
ATOM     60  F   UNL A   1      45.776  29.484  34.706  1.00  0.00    -0.206 F 
ATOM     61  C   UNL A   1      46.317  27.772  36.212  1.00  0.00     0.059 A 
ATOM     62  C   UNL A   1      44.555  26.603  37.402  1.00  0.00     0.059 A 
ATOM     63  F   UNL A   1      42.313  27.155  37.000  1.00  0.00    -0.206 F 
ATOM     64  C   UNL A   1      45.905  26.787  37.111  1.00  0.00     0.060 A 
BRANCH  64  65
ATOM     65  S   UNL A   1      47.158  25.740  37.878  1.00  0.00     0.124 S 
ATOM     66  O   UNL A   1      48.261  25.863  36.928  1.00  0.00    -0.237 OA
ATOM     67  O   UNL A   1      47.361  26.387  39.169  1.00  0.00    -0.237 OA
ATOM     68  O   UNL A   1      46.521  24.428  37.930  1.00  0.00    -0.744 OA
ENDBRANCH  64  65
ENDBRANCH  43  57
BRANCH  44  69
ATOM     69  C   UNL A   1      36.609  32.931  30.852  1.00  0.00     0.058 A 
ATOM     70  C   UNL A   1      35.286  32.736  31.272  1.00  0.00     0.135 A 
ATOM     71  C   UNL A   1      36.832  33.807  29.777  1.00  0.00     0.135 A 
ATOM     72  F   UNL A   1      35.021  31.902  32.290  1.00  0.00    -0.206 F 
ATOM     73  C   UNL A   1      34.222  33.392  30.660  1.00  0.00     0.059 A 
ATOM     74  C   UNL A   1      35.788  34.493  29.165  1.00  0.00     0.059 A 
ATOM     75  F   UNL A   1      38.081  34.040  29.349  1.00  0.00    -0.206 F 
ATOM     76  C   UNL A   1      34.486  34.280  29.615  1.00  0.00     0.060 A 
BRANCH  76  77
ATOM     77  S   UNL A   1      33.110  35.208  28.900  1.00  0.00     0.124 S 
ATOM     78  O   UNL A   1      33.794  36.365  28.338  1.00  0.00    -0.237 OA
ATOM     79  O   UNL A   1      32.569  34.254  27.936  1.00  0.00    -0.237 OA
ATOM     80  O   UNL A   1      32.253  35.475  30.051  1.00  0.00    -0.744 OA
ENDBRANCH  76  77
ENDBRANCH  44  69
BRANCH  56  81
ATOM     81  C   UNL A   1      39.816  34.161  36.947  1.00  0.00     0.058 A 
ATOM     82  C   UNL A   1      39.103  33.912  38.130  1.00  0.00     0.135 A 
ATOM     83  C   UNL A   1      40.420  35.421  36.800  1.00  0.00     0.135 A 
ATOM     84  F   UNL A   1      38.500  32.727  38.318  1.00  0.00    -0.206 F 
ATOM     85  C   UNL A   1      38.975  34.881  39.119  1.00  0.00     0.059 A 
ATOM     86  C   UNL A   1      40.330  36.395  37.790  1.00  0.00     0.059 A 
ATOM     87  F   UNL A   1      41.123  35.710  35.694  1.00  0.00    -0.206 F 
ATOM     88  C   UNL A   1      39.596  36.119  38.943  1.00  0.00     0.060 A 
BRANCH  88  89
ATOM     89  S   UNL A   1      39.453  37.355  40.251  1.00  0.00     0.124 S 
ATOM     90  O   UNL A   1      40.853  37.592  40.586  1.00  0.00    -0.237 OA
ATOM     91  O   UNL A   1      38.770  38.451  39.571  1.00  0.00    -0.237 OA
ATOM     92  O   UNL A   1      38.668  36.675  41.277  1.00  0.00    -0.744 OA
ENDBRANCH  88  89
ENDBRANCH  56  81
ENDBRANCH  30  31
ENDBRANCH  22  25
ENDBRANCH  20  21
ENDBRANCH   1  20
TORSDOF 16
ENDMDL
MODEL 2
REMARK VINA RESULT:     -11.6      5.539     11.723
REMARK SMILES CC(C)=CC[N@H+]1CCCC[C@H]1C(=O)NCCCCNC(=O)c1ccc(-c2c3nc(c(-c4c(F)cc(S(=O)(=O)[O-])cc4F)c4ccc([nH]4)c(-c4c(F)cc(S(=O)(=O)[O-])cc4F)c4nc(c(-c5c(F)cc(S(=O)(=O)[O-])cc5F)c5ccc2[nH]5)C=C4)C=C3)cc1
REMARK SMILES IDX 17 1 16 2 15 3 14 4 12 5 13 6 11 8 6 9 7 10 8 12 10 13 9 14
REMARK SMILES IDX 5 15 4 16 1 17 2 18 3 19 18 20 19 21 20 22 21 24 22 25 23 26
REMARK SMILES IDX 87 27 24 28 86 29 25 30 26 31 27 32 80 33 28 34 85 35 79 36
REMARK SMILES IDX 81 37 29 38 84 39 78 40 77 41 30 43 64 44 43 45 63 46 44 47
REMARK SMILES IDX 47 48 62 49 82 50 45 51 46 52 61 54 83 55 48 56 31 57 32 58
REMARK SMILES IDX 41 59 33 60 34 61 40 62 42 63 35 64 36 65 37 66 38 67 39 68
REMARK SMILES IDX 65 69 66 70 75 71 67 72 68 73 74 74 76 75 69 76 70 77 71 78
REMARK SMILES IDX 72 79 73 80 49 81 50 82 59 83 51 84 52 85 58 86 60 87 53 88
REMARK SMILES IDX 54 89 55 90 56 91 57 92
REMARK H PARENT 14 7 6 11 19 23 81 42 47 53
REMARK Flexibility Score: inf
ROOT
ATOM      1  C   UNL A   1      35.401  33.546  28.590  1.00  0.00     0.023 C 
ENDROOT
BRANCH   1   2
ATOM      2  C   UNL A   1      36.909  33.739  28.769  1.00  0.00     0.023 C 
BRANCH   2   3
ATOM      3  C   UNL A   1      37.512  32.963  29.938  1.00  0.00     0.116 C 
BRANCH   3   4
ATOM      4  N   UNL A   1      38.029  33.862  30.953  1.00  0.00    -0.351 N 
ATOM      5  C   UNL A   1      37.763  33.944  32.289  1.00  0.00     0.278 C 
ATOM      6  O   UNL A   1      38.260  34.891  32.903  1.00  0.00    -0.268 OA
ATOM      7  H   UNL A   1      38.679  34.522  30.623  1.00  0.00     0.163 HD
BRANCH   5   8
ATOM      8  C   UNL A   1      36.908  32.855  32.978  1.00  0.00     0.274 C 
ATOM      9  N   UNL A   1      37.615  32.229  34.117  1.00  0.00    -0.321 N 
ATOM     10  C   UNL A   1      37.678  33.066  35.317  1.00  0.00     0.263 C 
ATOM     11  H   UNL A   1      37.018  31.455  34.405  1.00  0.00     0.349 HD
ATOM     12  C   UNL A   1      36.294  33.539  35.757  1.00  0.00     0.062 C 
ATOM     13  C   UNL A   1      35.532  33.406  33.377  1.00  0.00     0.076 C 
ATOM     14  C   UNL A   1      35.564  34.264  34.636  1.00  0.00     0.012 C 
BRANCH   9  15
ATOM     15  C   UNL A   1      38.877  31.571  33.742  1.00  0.00     0.291 C 
BRANCH  15  16
ATOM     16  C   UNL A   1      38.769  30.154  33.242  1.00  0.00     0.032 C 
ATOM     17  C   UNL A   1      41.189  29.580  33.546  1.00  0.00     0.039 C 
ATOM     18  C   UNL A   1      39.783  29.273  33.113  1.00  0.00    -0.075 C 
ATOM     19  C   UNL A   1      39.539  27.931  32.480  1.00  0.00     0.039 C 
ENDBRANCH  15  16
ENDBRANCH   9  15
ENDBRANCH   5   8
ENDBRANCH   3   4
ENDBRANCH   2   3
ENDBRANCH   1   2
BRANCH   1  20
ATOM     20  C   UNL A   1      34.779  32.462  29.465  1.00  0.00     0.116 C 
BRANCH  20  21
ATOM     21  N   UNL A   1      34.045  31.470  28.695  1.00  0.00    -0.352 N 
ATOM     22  C   UNL A   1      34.516  30.333  28.083  1.00  0.00     0.251 C 
ATOM     23  H   UNL A   1      33.080  31.635  28.599  1.00  0.00     0.163 HD
ATOM     24  O   UNL A   1      33.777  29.687  27.345  1.00  0.00    -0.269 OA
BRANCH  22  25
ATOM     25  C   UNL A   1      35.918  29.912  28.292  1.00  0.00     0.039 A 
ATOM     26  C   UNL A   1      36.829  30.057  27.243  1.00  0.00     0.014 A 
ATOM     27  C   UNL A   1      36.338  29.394  29.520  1.00  0.00     0.014 A 
ATOM     28  C   UNL A   1      38.171  29.732  27.445  1.00  0.00     0.010 A 
ATOM     29  C   UNL A   1      37.691  29.151  29.744  1.00  0.00     0.010 A 
ATOM     30  C   UNL A   1      38.621  29.308  28.707  1.00  0.00    -0.014 A 
BRANCH  30  31
ATOM     31  C   UNL A   1      40.062  29.035  28.950  1.00  0.00     0.031 A 
ATOM     32  C   UNL A   1      40.658  27.702  28.588  1.00  0.00     0.074 A 
ATOM     33  C   UNL A   1      40.822  29.969  29.552  1.00  0.00     0.049 A 
ATOM     34  N   UNL A   1      41.890  27.283  28.727  1.00  0.00    -0.248 NA
ATOM     35  C   UNL A   1      39.744  26.695  28.027  1.00  0.00     0.031 C 
ATOM     36  C   UNL A   1      40.343  31.269  30.025  1.00  0.00     0.029 A 
ATOM     37  N   UNL A   1      42.155  29.969  29.879  1.00  0.00    -0.354 N 
ATOM     38  C   UNL A   1      41.897  25.965  28.287  1.00  0.00     0.074 A 
ATOM     39  C   UNL A   1      40.533  25.634  27.937  1.00  0.00     0.031 C 
ATOM     40  C   UNL A   1      41.369  31.950  30.559  1.00  0.00     0.029 A 
ATOM     41  C   UNL A   1      42.572  31.124  30.497  1.00  0.00     0.049 A 
ATOM     42  H   UNL A   1      42.755  29.211  29.690  1.00  0.00     0.167 HD
ATOM     43  C   UNL A   1      42.945  25.116  28.163  1.00  0.00     0.037 A 
ATOM     44  C   UNL A   1      43.785  31.482  30.964  1.00  0.00     0.037 A 
ATOM     45  C   UNL A   1      44.301  25.461  28.500  1.00  0.00     0.049 A 
ATOM     46  C   UNL A   1      44.944  30.541  30.789  1.00  0.00     0.074 A 
ATOM     47  C   UNL A   1      45.449  24.706  28.333  1.00  0.00     0.029 A 
ATOM     48  N   UNL A   1      44.693  26.655  29.090  1.00  0.00    -0.354 N 
ATOM     49  N   UNL A   1      44.954  29.335  30.271  1.00  0.00    -0.248 NA
ATOM     50  C   UNL A   1      46.258  31.011  31.246  1.00  0.00     0.031 C 
ATOM     51  C   UNL A   1      46.524  25.419  28.874  1.00  0.00     0.029 A 
ATOM     52  C   UNL A   1      46.060  26.646  29.323  1.00  0.00     0.049 A 
ATOM     53  H   UNL A   1      44.089  27.401  29.311  1.00  0.00     0.167 HD
ATOM     54  C   UNL A   1      46.276  28.908  30.323  1.00  0.00     0.074 A 
ATOM     55  C   UNL A   1      47.039  29.992  30.910  1.00  0.00     0.031 C 
ATOM     56  C   UNL A   1      46.808  27.728  29.918  1.00  0.00     0.037 A 
BRANCH  43  57
ATOM     57  C   UNL A   1      42.654  23.728  27.653  1.00  0.00     0.058 A 
ATOM     58  C   UNL A   1      42.494  22.635  28.521  1.00  0.00     0.135 A 
ATOM     59  C   UNL A   1      42.548  23.484  26.274  1.00  0.00     0.135 A 
ATOM     60  F   UNL A   1      42.593  22.805  29.849  1.00  0.00    -0.206 F 
ATOM     61  C   UNL A   1      42.298  21.344  28.040  1.00  0.00     0.059 A 
ATOM     62  C   UNL A   1      42.316  22.206  25.772  1.00  0.00     0.059 A 
ATOM     63  F   UNL A   1      42.684  24.490  25.396  1.00  0.00    -0.206 F 
ATOM     64  C   UNL A   1      42.220  21.138  26.663  1.00  0.00     0.060 A 
BRANCH  64  65
ATOM     65  S   UNL A   1      42.011  19.453  26.052  1.00  0.00     0.124 S 
ATOM     66  O   UNL A   1      42.468  18.671  27.198  1.00  0.00    -0.237 OA
ATOM     67  O   UNL A   1      40.580  19.394  25.778  1.00  0.00    -0.237 OA
ATOM     68  O   UNL A   1      42.876  19.406  24.877  1.00  0.00    -0.744 OA
ENDBRANCH  64  65
ENDBRANCH  43  57
BRANCH  44  69
ATOM     69  C   UNL A   1      43.950  32.811  31.608  1.00  0.00     0.058 A 
ATOM     70  C   UNL A   1      44.126  33.972  30.844  1.00  0.00     0.135 A 
ATOM     71  C   UNL A   1      43.851  32.954  33.002  1.00  0.00     0.135 A 
ATOM     72  F   UNL A   1      44.234  33.887  29.508  1.00  0.00    -0.206 F 
ATOM     73  C   UNL A   1      44.191  35.231  31.434  1.00  0.00     0.059 A 
ATOM     74  C   UNL A   1      43.889  34.202  33.614  1.00  0.00     0.059 A 
ATOM     75  F   UNL A   1      43.665  31.874  33.776  1.00  0.00    -0.206 F 
ATOM     76  C   UNL A   1      44.057  35.336  32.821  1.00  0.00     0.060 A 
BRANCH  76  77
ATOM     77  S   UNL A   1      44.034  36.982  33.564  1.00  0.00     0.124 S 
ATOM     78  O   UNL A   1      45.143  36.896  34.506  1.00  0.00    -0.237 OA
ATOM     79  O   UNL A   1      44.245  37.843  32.404  1.00  0.00    -0.237 OA
ATOM     80  O   UNL A   1      42.703  37.063  34.158  1.00  0.00    -0.744 OA
ENDBRANCH  76  77
ENDBRANCH  44  69
BRANCH  56  81
ATOM     81  C   UNL A   1      48.295  27.545  30.073  1.00  0.00     0.058 A 
ATOM     82  C   UNL A   1      48.853  26.964  31.222  1.00  0.00     0.135 A 
ATOM     83  C   UNL A   1      49.165  27.903  29.031  1.00  0.00     0.135 A 
ATOM     84  F   UNL A   1      48.067  26.609  32.251  1.00  0.00    -0.206 F 
ATOM     85  C   UNL A   1      50.225  26.765  31.342  1.00  0.00     0.059 A 
ATOM     86  C   UNL A   1      50.537  27.686  29.117  1.00  0.00     0.059 A 
ATOM     87  F   UNL A   1      48.684  28.454  27.905  1.00  0.00    -0.206 F 
ATOM     88  C   UNL A   1      51.059  27.125  30.282  1.00  0.00     0.060 A 
BRANCH  88  89
ATOM     89  S   UNL A   1      52.833  26.827  30.435  1.00  0.00     0.124 S 
ATOM     90  O   UNL A   1      53.301  28.104  30.964  1.00  0.00    -0.237 OA
ATOM     91  O   UNL A   1      52.881  25.701  31.363  1.00  0.00    -0.237 OA
ATOM     92  O   UNL A   1      53.247  26.525  29.069  1.00  0.00    -0.744 OA
ENDBRANCH  88  89
ENDBRANCH  56  81
ENDBRANCH  30  31
ENDBRANCH  22  25
ENDBRANCH  20  21
ENDBRANCH   1  20
TORSDOF 16
ENDMDL
MODEL 3
REMARK VINA RESULT:     -11.6      6.886     13.798
REMARK SMILES CC(C)=CC[N@H+]1CCCC[C@H]1C(=O)NCCCCNC(=O)c1ccc(-c2c3nc(c(-c4c(F)cc(S(=O)(=O)[O-])cc4F)c4ccc([nH]4)c(-c4c(F)cc(S(=O)(=O)[O-])cc4F)c4nc(c(-c5c(F)cc(S(=O)(=O)[O-])cc5F)c5ccc2[nH]5)C=C4)C=C3)cc1
REMARK SMILES IDX 17 1 16 2 15 3 14 4 12 5 13 6 11 8 6 9 7 10 8 12 10 13 9 14
REMARK SMILES IDX 5 15 4 16 1 17 2 18 3 19 18 20 19 21 20 22 21 24 22 25 23 26
REMARK SMILES IDX 87 27 24 28 86 29 25 30 26 31 27 32 80 33 28 34 85 35 79 36
REMARK SMILES IDX 81 37 29 38 84 39 78 40 77 41 30 43 64 44 43 45 63 46 44 47
REMARK SMILES IDX 47 48 62 49 82 50 45 51 46 52 61 54 83 55 48 56 31 57 32 58
REMARK SMILES IDX 41 59 33 60 34 61 40 62 42 63 35 64 36 65 37 66 38 67 39 68
REMARK SMILES IDX 65 69 66 70 75 71 67 72 68 73 74 74 76 75 69 76 70 77 71 78
REMARK SMILES IDX 72 79 73 80 49 81 50 82 59 83 51 84 52 85 58 86 60 87 53 88
REMARK SMILES IDX 54 89 55 90 56 91 57 92
REMARK H PARENT 14 7 6 11 19 23 81 42 47 53
REMARK Flexibility Score: inf
ROOT
ATOM      1  C   UNL A   1      37.401  32.280  35.140  1.00  0.00     0.023 C 
ENDROOT
BRANCH   1   2
ATOM      2  C   UNL A   1      37.236  33.775  34.854  1.00  0.00     0.023 C 
BRANCH   2   3
ATOM      3  C   UNL A   1      35.852  34.332  35.181  1.00  0.00     0.116 C 
BRANCH   3   4
ATOM      4  N   UNL A   1      34.820  33.653  34.419  1.00  0.00    -0.351 N 
ATOM      5  C   UNL A   1      34.205  33.996  33.250  1.00  0.00     0.278 C 
ATOM      6  O   UNL A   1      33.267  33.285  32.881  1.00  0.00    -0.268 OA
ATOM      7  H   UNL A   1      34.514  32.804  34.811  1.00  0.00     0.163 HD
BRANCH   5   8
ATOM      8  C   UNL A   1      34.716  35.202  32.429  1.00  0.00     0.274 C 
ATOM      9  N   UNL A   1      35.148  34.808  31.070  1.00  0.00    -0.321 N 
ATOM     10  C   UNL A   1      34.045  34.532  30.146  1.00  0.00     0.263 C 
ATOM     11  H   UNL A   1      35.577  35.645  30.676  1.00  0.00     0.349 HD
ATOM     12  C   UNL A   1      33.062  35.699  30.065  1.00  0.00     0.062 C 
ATOM     13  C   UNL A   1      33.678  36.333  32.407  1.00  0.00     0.076 C 
ATOM     14  C   UNL A   1      32.529  36.082  31.438  1.00  0.00     0.012 C 
BRANCH   9  15
ATOM     15  C   UNL A   1      36.240  33.822  31.057  1.00  0.00     0.291 C 
BRANCH  15  16
ATOM     16  C   UNL A   1      37.355  34.073  30.075  1.00  0.00     0.032 C 
ATOM     17  C   UNL A   1      39.209  34.020  31.761  1.00  0.00     0.039 C 
ATOM     18  C   UNL A   1      38.666  34.201  30.372  1.00  0.00    -0.075 C 
ATOM     19  C   UNL A   1      39.648  34.577  29.297  1.00  0.00     0.039 C 
ENDBRANCH  15  16
ENDBRANCH   9  15
ENDBRANCH   5   8
ENDBRANCH   3   4
ENDBRANCH   2   3
ENDBRANCH   1   2
BRANCH   1  20
ATOM     20  C   UNL A   1      37.947  31.455  33.979  1.00  0.00     0.116 C 
BRANCH  20  21
ATOM     21  N   UNL A   1      36.896  30.858  33.170  1.00  0.00    -0.352 N 
ATOM     22  C   UNL A   1      36.986  30.294  31.920  1.00  0.00     0.251 C 
ATOM     23  H   UNL A   1      35.999  30.856  33.573  1.00  0.00     0.163 HD
ATOM     24  O   UNL A   1      35.962  29.972  31.322  1.00  0.00    -0.269 OA
BRANCH  22  25
ATOM     25  C   UNL A   1      38.310  30.107  31.290  1.00  0.00     0.039 A 
ATOM     26  C   UNL A   1      39.353  29.584  32.058  1.00  0.00     0.014 A 
ATOM     27  C   UNL A   1      38.520  30.429  29.947  1.00  0.00     0.014 A 
ATOM     28  C   UNL A   1      40.591  29.333  31.461  1.00  0.00     0.010 A 
ATOM     29  C   UNL A   1      39.727  30.101  29.335  1.00  0.00     0.010 A 
ATOM     30  C   UNL A   1      40.778  29.558  30.087  1.00  0.00    -0.014 A 
BRANCH  30  31
ATOM     31  C   UNL A   1      42.068  29.221  29.429  1.00  0.00     0.031 A 
ATOM     32  C   UNL A   1      43.127  30.274  29.240  1.00  0.00     0.074 A 
ATOM     33  C   UNL A   1      42.264  27.978  28.949  1.00  0.00     0.049 A 
ATOM     34  N   UNL A   1      44.310  30.166  28.689  1.00  0.00    -0.248 NA
ATOM     35  C   UNL A   1      42.803  31.633  29.700  1.00  0.00     0.031 C 
ATOM     36  C   UNL A   1      41.283  26.893  28.996  1.00  0.00     0.029 A 
ATOM     37  N   UNL A   1      43.347  27.420  28.317  1.00  0.00    -0.354 N 
ATOM     38  C   UNL A   1      44.862  31.441  28.721  1.00  0.00     0.074 A 
ATOM     39  C   UNL A   1      43.861  32.317  29.288  1.00  0.00     0.031 C 
ATOM     40  C   UNL A   1      41.816  25.793  28.442  1.00  0.00     0.029 A 
ATOM     41  C   UNL A   1      43.163  26.102  27.969  1.00  0.00     0.049 A 
ATOM     42  H   UNL A   1      44.176  27.916  28.130  1.00  0.00     0.167 HD
ATOM     43  C   UNL A   1      46.098  31.841  28.338  1.00  0.00     0.037 A 
ATOM     44  C   UNL A   1      43.983  25.238  27.340  1.00  0.00     0.037 A 
ATOM     45  C   UNL A   1      47.093  30.957  27.789  1.00  0.00     0.049 A 
ATOM     46  C   UNL A   1      45.363  25.688  26.950  1.00  0.00     0.074 A 
ATOM     47  C   UNL A   1      48.403  31.241  27.447  1.00  0.00     0.029 A 
ATOM     48  N   UNL A   1      46.884  29.619  27.484  1.00  0.00    -0.354 N 
ATOM     49  N   UNL A   1      45.910  26.873  27.085  1.00  0.00    -0.248 NA
ATOM     50  C   UNL A   1      46.243  24.686  26.335  1.00  0.00     0.031 C 
ATOM     51  C   UNL A   1      48.968  30.092  26.883  1.00  0.00     0.029 A 
ATOM     52  C   UNL A   1      48.031  29.072  26.929  1.00  0.00     0.049 A 
ATOM     53  H   UNL A   1      46.045  29.128  27.640  1.00  0.00     0.167 HD
ATOM     54  C   UNL A   1      47.204  26.755  26.590  1.00  0.00     0.074 A 
ATOM     55  C   UNL A   1      47.361  25.378  26.165  1.00  0.00     0.031 C 
ATOM     56  C   UNL A   1      48.173  27.701  26.501  1.00  0.00     0.037 A 
BRANCH  43  57
ATOM     57  C   UNL A   1      46.430  33.303  28.489  1.00  0.00     0.058 A 
ATOM     58  C   UNL A   1      46.220  34.225  27.449  1.00  0.00     0.135 A 
ATOM     59  C   UNL A   1      46.980  33.788  29.687  1.00  0.00     0.135 A 
ATOM     60  F   UNL A   1      45.705  33.818  26.278  1.00  0.00    -0.206 F 
ATOM     61  C   UNL A   1      46.596  35.559  27.570  1.00  0.00     0.059 A 
ATOM     62  C   UNL A   1      47.330  35.127  29.842  1.00  0.00     0.059 A 
ATOM     63  F   UNL A   1      47.196  32.957  30.718  1.00  0.00    -0.206 F 
ATOM     64  C   UNL A   1      47.159  35.999  28.768  1.00  0.00     0.060 A 
BRANCH  64  65
ATOM     65  S   UNL A   1      47.684  37.721  28.894  1.00  0.00     0.124 S 
ATOM     66  O   UNL A   1      49.028  37.656  28.327  1.00  0.00    -0.237 OA
ATOM     67  O   UNL A   1      46.687  38.412  28.083  1.00  0.00    -0.237 OA
ATOM     68  O   UNL A   1      47.620  37.993  30.327  1.00  0.00    -0.744 OA
ENDBRANCH  64  65
ENDBRANCH  43  57
BRANCH  44  69
ATOM     69  C   UNL A   1      43.513  23.852  27.078  1.00  0.00     0.058 A 
ATOM     70  C   UNL A   1      43.415  22.912  28.112  1.00  0.00     0.135 A 
ATOM     71  C   UNL A   1      43.073  23.469  25.800  1.00  0.00     0.135 A 
ATOM     72  F   UNL A   1      43.829  23.227  29.349  1.00  0.00    -0.206 F 
ATOM     73  C   UNL A   1      42.890  21.641  27.894  1.00  0.00     0.059 A 
ATOM     74  C   UNL A   1      42.523  22.214  25.562  1.00  0.00     0.059 A 
ATOM     75  F   UNL A   1      43.131  24.340  24.781  1.00  0.00    -0.206 F 
ATOM     76  C   UNL A   1      42.434  21.307  26.616  1.00  0.00     0.060 A 
BRANCH  76  77
ATOM     77  S   UNL A   1      41.656  19.695  26.371  1.00  0.00     0.124 S 
ATOM     78  O   UNL A   1      40.257  20.064  26.197  1.00  0.00    -0.237 OA
ATOM     79  O   UNL A   1      42.342  19.205  25.178  1.00  0.00    -0.237 OA
ATOM     80  O   UNL A   1      41.974  18.978  27.603  1.00  0.00    -0.744 OA
ENDBRANCH  76  77
ENDBRANCH  44  69
BRANCH  56  81
ATOM     81  C   UNL A   1      49.505  27.280  25.939  1.00  0.00     0.058 A 
ATOM     82  C   UNL A   1      50.518  26.750  26.752  1.00  0.00     0.135 A 
ATOM     83  C   UNL A   1      49.747  27.353  24.557  1.00  0.00     0.135 A 
ATOM     84  F   UNL A   1      50.342  26.663  28.081  1.00  0.00    -0.206 F 
ATOM     85  C   UNL A   1      51.732  26.328  26.220  1.00  0.00     0.059 A 
ATOM     86  C   UNL A   1      50.942  26.909  23.999  1.00  0.00     0.059 A 
ATOM     87  F   UNL A   1      48.809  27.842  23.731  1.00  0.00    -0.206 F 
ATOM     88  C   UNL A   1      51.934  26.408  24.840  1.00  0.00     0.060 A 
BRANCH  88  89
ATOM     89  S   UNL A   1      53.500  25.824  24.158  1.00  0.00     0.124 S 
ATOM     90  O   UNL A   1      53.262  25.954  22.724  1.00  0.00    -0.237 OA
ATOM     91  O   UNL A   1      54.459  26.763  24.729  1.00  0.00    -0.237 OA
ATOM     92  O   UNL A   1      53.598  24.455  24.656  1.00  0.00    -0.744 OA
ENDBRANCH  88  89
ENDBRANCH  56  81
ENDBRANCH  30  31
ENDBRANCH  22  25
ENDBRANCH  20  21
ENDBRANCH   1  20
TORSDOF 16
ENDMDL
