MODEL 1
REMARK VINA RESULT:     -11.5      0.000      0.000
REMARK SMILES [NH3+][C@@H](Cc1c[nH]c2ccccc12)C(=O)N[C@@H](CS)C(=O)N[C@@H](CO)C(=O)NCCCCNC(=O)c1ccc(-c2c3nc(c(-c4c(F)cc(S(=O)(=O)[O-])cc4F)c4ccc([nH]4)c(-c4c(F)cc(S(=O)(=O)[O-])cc4F)c4nc(c(-c5c(F)cc(S(=O)(=O)[O-])cc5F)c5ccc2[nH]5)C=C4)C=C3)cc1
REMARK SMILES IDX 28 1 27 2 25 3 26 4 22 6 21 7 19 8 20 9 16 11 15 12 13 13
REMARK SMILES IDX 14 14 2 16 1 17 3 21 4 22 5 23 12 24 6 25 7 26 11 27 8 29
REMARK SMILES IDX 10 30 9 31 17 32 18 33 23 35 24 36 29 38 30 39 31 40 32 41
REMARK SMILES IDX 33 42 34 44 35 45 36 46 100 47 37 48 99 49 38 50 39 51 40 52
REMARK SMILES IDX 93 53 41 54 98 55 92 56 94 57 42 58 97 59 91 60 90 61 43 63
REMARK SMILES IDX 77 64 56 65 76 66 57 67 60 68 75 69 95 70 58 71 59 72 74 74
REMARK SMILES IDX 96 75 61 76 44 77 45 78 54 79 46 80 47 81 53 82 55 83 48 84
REMARK SMILES IDX 49 85 50 86 51 87 52 88 78 89 79 90 88 91 80 92 81 93 87 94
REMARK SMILES IDX 89 95 82 96 83 97 84 98 85 99 86 100 62 101 63 102 72 103
REMARK SMILES IDX 64 104 65 105 71 106 73 107 66 108 67 109 68 110 69 111
REMARK SMILES IDX 70 112
REMARK H PARENT 27 5 21 10 15 15 1 18 1 19 1 20 6 28 18 34 24 37 32 43 94 62
REMARK H PARENT 60 73
REMARK Flexibility Score: inf
ROOT
ATOM      1  C   UNL A   1      31.360  28.301  25.696  1.00  0.00     0.116 C 
ENDROOT
BRANCH   1   2
ATOM      2  N   UNL A   1      30.483  27.335  25.064  1.00  0.00    -0.354 N 
ATOM      3  C   UNL A   1      30.316  26.999  23.758  1.00  0.00     0.244 C 
ATOM      4  O   UNL A   1      29.660  25.981  23.511  1.00  0.00    -0.273 OA
ATOM      5  H   UNL A   1      29.910  26.835  25.690  1.00  0.00     0.163 HD
BRANCH   3   6
ATOM      6  C   UNL A   1      30.964  27.772  22.601  1.00  0.00     0.197 C 
BRANCH   6   7
ATOM      7  N   UNL A   1      31.476  26.922  21.534  1.00  0.00    -0.340 N 
ATOM      8  C   UNL A   1      32.506  26.051  21.549  1.00  0.00     0.244 C 
ATOM      9  O   UNL A   1      33.161  26.004  20.502  1.00  0.00    -0.273 OA
ATOM     10  H   UNL A   1      30.999  26.994  20.676  1.00  0.00     0.164 HD
BRANCH   8  11
ATOM     11  C   UNL A   1      32.951  25.256  22.791  1.00  0.00     0.181 C 
BRANCH  11  12
ATOM     12  N   UNL A   1      33.116  23.863  22.419  1.00  0.00    -0.338 N 
ATOM     13  C   UNL A   1      32.468  22.774  22.933  1.00  0.00     0.279 C 
ATOM     14  O   UNL A   1      32.445  21.762  22.221  1.00  0.00    -0.268 OA
ATOM     15  H   UNL A   1      33.774  23.679  21.710  1.00  0.00     0.164 HD
BRANCH  13  16
ATOM     16  C   UNL A   1      31.856  22.751  24.366  1.00  0.00     0.275 C 
BRANCH  16  17
ATOM     17  N   UNL A   1      30.501  23.343  24.363  1.00  0.00    -0.347 N 
ATOM     18  H   UNL A   1      30.489  24.166  24.965  1.00  0.00     0.345 HD
ATOM     19  H   UNL A   1      29.830  22.658  24.709  1.00  0.00     0.345 HD
ATOM     20  H   UNL A   1      30.251  23.613  23.412  1.00  0.00     0.345 HD
ENDBRANCH  16  17
BRANCH  16  21
ATOM     21  C   UNL A   1      32.092  21.492  25.234  1.00  0.00     0.113 C 
BRANCH  21  22
ATOM     22  C   UNL A   1      33.329  20.634  25.076  1.00  0.00    -0.016 A 
ATOM     23  C   UNL A   1      34.638  20.864  25.469  1.00  0.00     0.087 A 
ATOM     24  C   UNL A   1      33.347  19.358  24.403  1.00  0.00     0.003 A 
ATOM     25  N   UNL A   1      35.367  19.722  25.253  1.00  0.00    -0.361 N 
ATOM     26  C   UNL A   1      34.607  18.792  24.591  1.00  0.00     0.046 A 
ATOM     27  C   UNL A   1      32.390  18.619  23.676  1.00  0.00     0.010 A 
ATOM     28  H   UNL A   1      36.302  19.589  25.533  1.00  0.00     0.166 HD
ATOM     29  C   UNL A   1      34.941  17.507  24.146  1.00  0.00     0.026 A 
ATOM     30  C   UNL A   1      32.719  17.351  23.181  1.00  0.00     0.001 A 
ATOM     31  C   UNL A   1      33.972  16.798  23.429  1.00  0.00     0.002 A 
ENDBRANCH  21  22
ENDBRANCH  16  21
ENDBRANCH  13  16
ENDBRANCH  11  12
BRANCH  11  32
ATOM     32  C   UNL A   1      33.969  25.869  23.766  1.00  0.00     0.101 C 
BRANCH  32  33
ATOM     33  S   UNL A   1      34.773  24.727  24.943  1.00  0.00    -0.177 SA
ATOM     34  H   UNL A   1      34.074  24.715  26.110  1.00  0.00     0.102 HD
ENDBRANCH  32  33
ENDBRANCH  11  32
ENDBRANCH   8  11
ENDBRANCH   6   7
BRANCH   6  35
ATOM     35  C   UNL A   1      30.063  28.893  22.059  1.00  0.00     0.191 C 
BRANCH  35  36
ATOM     36  O   UNL A   1      30.792  29.906  21.371  1.00  0.00    -0.394 OA
ATOM     37  H   UNL A   1      30.176  30.472  20.881  1.00  0.00     0.210 HD
ENDBRANCH  35  36
ENDBRANCH   6  35
ENDBRANCH   3   6
ENDBRANCH   1   2
BRANCH   1  38
ATOM     38  C   UNL A   1      31.651  27.957  27.154  1.00  0.00     0.023 C 
BRANCH  38  39
ATOM     39  C   UNL A   1      33.105  28.151  27.584  1.00  0.00     0.023 C 
BRANCH  39  40
ATOM     40  C   UNL A   1      33.815  29.348  26.962  1.00  0.00     0.116 C 
BRANCH  40  41
ATOM     41  N   UNL A   1      33.764  30.545  27.790  1.00  0.00    -0.352 N 
ATOM     42  C   UNL A   1      34.731  31.038  28.634  1.00  0.00     0.251 C 
ATOM     43  H   UNL A   1      32.932  31.068  27.738  1.00  0.00     0.163 HD
ATOM     44  O   UNL A   1      34.512  32.023  29.333  1.00  0.00    -0.269 OA
BRANCH  42  45
ATOM     45  C   UNL A   1      36.019  30.327  28.719  1.00  0.00     0.039 A 
ATOM     46  C   UNL A   1      36.859  30.320  27.604  1.00  0.00     0.014 A 
ATOM     47  C   UNL A   1      36.436  29.776  29.934  1.00  0.00     0.014 A 
ATOM     48  C   UNL A   1      38.164  29.847  27.736  1.00  0.00     0.010 A 
ATOM     49  C   UNL A   1      37.756  29.367  30.079  1.00  0.00     0.010 A 
ATOM     50  C   UNL A   1      38.637  29.420  28.987  1.00  0.00    -0.014 A 
BRANCH  50  51
ATOM     51  C   UNL A   1      40.064  29.072  29.197  1.00  0.00     0.031 A 
ATOM     52  C   UNL A   1      41.029  30.121  29.670  1.00  0.00     0.074 A 
ATOM     53  C   UNL A   1      40.504  27.842  28.863  1.00  0.00     0.049 A 
ATOM     54  N   UNL A   1      42.329  30.051  29.787  1.00  0.00    -0.248 NA
ATOM     55  C   UNL A   1      40.461  31.429  30.030  1.00  0.00     0.031 C 
ATOM     56  C   UNL A   1      39.667  26.755  28.347  1.00  0.00     0.029 A 
ATOM     57  N   UNL A   1      41.766  27.304  28.884  1.00  0.00    -0.354 N 
ATOM     58  C   UNL A   1      42.737  31.307  30.217  1.00  0.00     0.074 A 
ATOM     59  C   UNL A   1      41.551  32.133  30.298  1.00  0.00     0.031 C 
ATOM     60  C   UNL A   1      40.437  25.679  28.112  1.00  0.00     0.029 A 
ATOM     61  C   UNL A   1      41.825  26.012  28.418  1.00  0.00     0.049 A 
ATOM     62  H   UNL A   1      42.556  27.798  29.204  1.00  0.00     0.167 HD
ATOM     63  C   UNL A   1      43.984  31.726  30.534  1.00  0.00     0.037 A 
ATOM     64  C   UNL A   1      42.880  25.192  28.238  1.00  0.00     0.037 A 
ATOM     65  C   UNL A   1      45.154  30.890  30.477  1.00  0.00     0.049 A 
ATOM     66  C   UNL A   1      44.257  25.685  28.584  1.00  0.00     0.074 A 
ATOM     67  C   UNL A   1      46.450  31.199  30.850  1.00  0.00     0.029 A 
ATOM     68  N   UNL A   1      45.170  29.583  30.015  1.00  0.00    -0.354 N 
ATOM     69  N   UNL A   1      44.616  26.857  29.055  1.00  0.00    -0.248 NA
ATOM     70  C   UNL A   1      45.373  24.753  28.372  1.00  0.00     0.031 C 
ATOM     71  C   UNL A   1      47.258  30.091  30.575  1.00  0.00     0.029 A 
ATOM     72  C   UNL A   1      46.458  29.079  30.067  1.00  0.00     0.049 A 
ATOM     73  H   UNL A   1      44.381  29.086  29.696  1.00  0.00     0.167 HD
ATOM     74  C   UNL A   1      45.996  26.797  29.208  1.00  0.00     0.074 A 
ATOM     75  C   UNL A   1      46.406  25.470  28.793  1.00  0.00     0.031 C 
ATOM     76  C   UNL A   1      46.847  27.755  29.649  1.00  0.00     0.037 A 
BRANCH  63  77
ATOM     77  C   UNL A   1      44.145  33.154  30.974  1.00  0.00     0.058 A 
ATOM     78  C   UNL A   1      44.051  33.519  32.327  1.00  0.00     0.135 A 
ATOM     79  C   UNL A   1      44.427  34.162  30.040  1.00  0.00     0.135 A 
ATOM     80  F   UNL A   1      43.767  32.595  33.258  1.00  0.00    -0.206 F 
ATOM     81  C   UNL A   1      44.201  34.840  32.735  1.00  0.00     0.059 A 
ATOM     82  C   UNL A   1      44.605  35.488  30.428  1.00  0.00     0.059 A 
ATOM     83  F   UNL A   1      44.526  33.867  28.735  1.00  0.00    -0.206 F 
ATOM     84  C   UNL A   1      44.475  35.817  31.776  1.00  0.00     0.060 A 
BRANCH  84  85
ATOM     85  S   UNL A   1      44.668  37.528  32.322  1.00  0.00     0.124 S 
ATOM     86  O   UNL A   1      44.303  38.260  31.114  1.00  0.00    -0.237 OA
ATOM     87  O   UNL A   1      43.718  37.613  33.427  1.00  0.00    -0.237 OA
ATOM     88  O   UNL A   1      46.075  37.606  32.703  1.00  0.00    -0.744 OA
ENDBRANCH  84  85
ENDBRANCH  63  77
BRANCH  64  89
ATOM     89  C   UNL A   1      42.670  23.820  27.706  1.00  0.00     0.058 A 
ATOM     90  C   UNL A   1      42.695  22.706  28.559  1.00  0.00     0.135 A 
ATOM     91  C   UNL A   1      42.421  23.596  26.343  1.00  0.00     0.135 A 
ATOM     92  F   UNL A   1      42.936  22.871  29.868  1.00  0.00    -0.206 F 
ATOM     93  C   UNL A   1      42.486  21.418  28.079  1.00  0.00     0.059 A 
ATOM     94  C   UNL A   1      42.190  22.318  25.843  1.00  0.00     0.059 A 
ATOM     95  F   UNL A   1      42.372  24.630  25.489  1.00  0.00    -0.206 F 
ATOM     96  C   UNL A   1      42.232  21.234  26.720  1.00  0.00     0.060 A 
BRANCH  96  97
ATOM     97  S   UNL A   1      41.901  19.564  26.115  1.00  0.00     0.124 S 
ATOM     98  O   UNL A   1      40.484  19.648  25.782  1.00  0.00    -0.237 OA
ATOM     99  O   UNL A   1      42.819  19.458  24.985  1.00  0.00    -0.237 OA
ATOM    100  O   UNL A   1      42.232  18.723  27.262  1.00  0.00    -0.744 OA
ENDBRANCH  96  97
ENDBRANCH  64  89
BRANCH  76 101
ATOM    101  C   UNL A   1      48.306  27.407  29.721  1.00  0.00     0.058 A 
ATOM    102  C   UNL A   1      49.167  27.646  28.639  1.00  0.00     0.135 A 
ATOM    103  C   UNL A   1      48.863  26.906  30.909  1.00  0.00     0.135 A 
ATOM    104  F   UNL A   1      48.681  28.114  27.480  1.00  0.00    -0.206 F 
ATOM    105  C   UNL A   1      50.532  27.395  28.731  1.00  0.00     0.059 A 
ATOM    106  C   UNL A   1      50.228  26.670  31.030  1.00  0.00     0.059 A 
ATOM    107  F   UNL A   1      48.082  26.668  31.974  1.00  0.00    -0.206 F 
ATOM    108  C   UNL A   1      51.054  26.913  29.933  1.00  0.00     0.060 A 
BRANCH 108 109
ATOM    109  S   UNL A   1      52.836  26.653  30.059  1.00  0.00     0.124 S 
ATOM    110  O   UNL A   1      53.164  26.201  28.711  1.00  0.00    -0.237 OA
ATOM    111  O   UNL A   1      53.322  27.983  30.418  1.00  0.00    -0.237 OA
ATOM    112  O   UNL A   1      52.959  25.646  31.108  1.00  0.00    -0.744 OA
ENDBRANCH 108 109
ENDBRANCH  76 101
ENDBRANCH  50  51
ENDBRANCH  42  45
ENDBRANCH  40  41
ENDBRANCH  39  40
ENDBRANCH  38  39
ENDBRANCH   1  38
TORSDOF 25
ENDMDL
MODEL 2
REMARK VINA RESULT:     -11.5      0.922      1.939
REMARK SMILES [NH3+][C@@H](Cc1c[nH]c2ccccc12)C(=O)N[C@@H](CS)C(=O)N[C@@H](CO)C(=O)NCCCCNC(=O)c1ccc(-c2c3nc(c(-c4c(F)cc(S(=O)(=O)[O-])cc4F)c4ccc([nH]4)c(-c4c(F)cc(S(=O)(=O)[O-])cc4F)c4nc(c(-c5c(F)cc(S(=O)(=O)[O-])cc5F)c5ccc2[nH]5)C=C4)C=C3)cc1
REMARK SMILES IDX 28 1 27 2 25 3 26 4 22 6 21 7 19 8 20 9 16 11 15 12 13 13
REMARK SMILES IDX 14 14 2 16 1 17 3 21 4 22 5 23 12 24 6 25 7 26 11 27 8 29
REMARK SMILES IDX 10 30 9 31 17 32 18 33 23 35 24 36 29 38 30 39 31 40 32 41
REMARK SMILES IDX 33 42 34 44 35 45 36 46 100 47 37 48 99 49 38 50 39 51 40 52
REMARK SMILES IDX 93 53 41 54 98 55 92 56 94 57 42 58 97 59 91 60 90 61 43 63
REMARK SMILES IDX 77 64 56 65 76 66 57 67 60 68 75 69 95 70 58 71 59 72 74 74
REMARK SMILES IDX 96 75 61 76 44 77 45 78 54 79 46 80 47 81 53 82 55 83 48 84
REMARK SMILES IDX 49 85 50 86 51 87 52 88 78 89 79 90 88 91 80 92 81 93 87 94
REMARK SMILES IDX 89 95 82 96 83 97 84 98 85 99 86 100 62 101 63 102 72 103
REMARK SMILES IDX 64 104 65 105 71 106 73 107 66 108 67 109 68 110 69 111
REMARK SMILES IDX 70 112
REMARK H PARENT 27 5 21 10 15 15 1 18 1 19 1 20 6 28 18 34 24 37 32 43 94 62
REMARK H PARENT 60 73
REMARK Flexibility Score: inf
ROOT
ATOM      1  C   UNL A   1      31.710  28.717  25.654  1.00  0.00     0.116 C 
ENDROOT
BRANCH   1   2
ATOM      2  N   UNL A   1      30.862  27.642  25.180  1.00  0.00    -0.354 N 
ATOM      3  C   UNL A   1      30.669  27.139  23.932  1.00  0.00     0.244 C 
ATOM      4  O   UNL A   1      30.056  26.070  23.838  1.00  0.00    -0.273 OA
ATOM      5  H   UNL A   1      30.335  27.199  25.884  1.00  0.00     0.163 HD
BRANCH   3   6
ATOM      6  C   UNL A   1      31.239  27.790  22.665  1.00  0.00     0.197 C 
BRANCH   6   7
ATOM      7  N   UNL A   1      31.503  26.850  21.583  1.00  0.00    -0.340 N 
ATOM      8  C   UNL A   1      32.437  25.881  21.496  1.00  0.00     0.244 C 
ATOM      9  O   UNL A   1      32.920  25.725  20.370  1.00  0.00    -0.273 OA
ATOM     10  H   UNL A   1      30.912  26.935  20.801  1.00  0.00     0.164 HD
BRANCH   8  11
ATOM     11  C   UNL A   1      32.986  25.096  22.703  1.00  0.00     0.181 C 
BRANCH  11  12
ATOM     12  N   UNL A   1      33.033  23.686  22.360  1.00  0.00    -0.338 N 
ATOM     13  C   UNL A   1      32.402  22.648  22.986  1.00  0.00     0.279 C 
ATOM     14  O   UNL A   1      32.239  21.620  22.317  1.00  0.00    -0.268 OA
ATOM     15  H   UNL A   1      33.588  23.448  21.582  1.00  0.00     0.164 HD
BRANCH  13  16
ATOM     16  C   UNL A   1      31.973  22.697  24.484  1.00  0.00     0.275 C 
BRANCH  16  17
ATOM     17  N   UNL A   1      30.662  23.366  24.629  1.00  0.00    -0.347 N 
ATOM     18  H   UNL A   1      30.644  23.890  25.504  1.00  0.00     0.345 HD
ATOM     19  H   UNL A   1      29.922  22.665  24.637  1.00  0.00     0.345 HD
ATOM     20  H   UNL A   1      30.519  24.005  23.847  1.00  0.00     0.345 HD
ENDBRANCH  16  17
BRANCH  16  21
ATOM     21  C   UNL A   1      32.247  21.449  25.356  1.00  0.00     0.113 C 
BRANCH  21  22
ATOM     22  C   UNL A   1      33.512  20.632  25.207  1.00  0.00    -0.016 A 
ATOM     23  C   UNL A   1      33.685  19.277  24.971  1.00  0.00     0.087 A 
ATOM     24  C   UNL A   1      34.844  21.174  25.336  1.00  0.00     0.003 A 
ATOM     25  N   UNL A   1      35.017  19.037  24.751  1.00  0.00    -0.361 N 
ATOM     26  C   UNL A   1      35.749  20.174  24.981  1.00  0.00     0.046 A 
ATOM     27  C   UNL A   1      35.358  22.438  25.693  1.00  0.00     0.010 A 
ATOM     28  H   UNL A   1      35.395  18.172  24.469  1.00  0.00     0.166 HD
ATOM     29  C   UNL A   1      37.131  20.388  24.905  1.00  0.00     0.026 A 
ATOM     30  C   UNL A   1      36.740  22.659  25.670  1.00  0.00     0.001 A 
ATOM     31  C   UNL A   1      37.611  21.651  25.265  1.00  0.00     0.002 A 
ENDBRANCH  21  22
ENDBRANCH  16  21
ENDBRANCH  13  16
ENDBRANCH  11  12
BRANCH  11  32
ATOM     32  C   UNL A   1      34.145  25.678  23.529  1.00  0.00     0.101 C 
BRANCH  32  33
ATOM     33  S   UNL A   1      33.946  25.671  25.344  1.00  0.00    -0.177 SA
ATOM     34  H   UNL A   1      32.695  26.099  25.665  1.00  0.00     0.102 HD
ENDBRANCH  32  33
ENDBRANCH  11  32
ENDBRANCH   8  11
ENDBRANCH   6   7
BRANCH   6  35
ATOM     35  C   UNL A   1      30.407  28.992  22.191  1.00  0.00     0.191 C 
BRANCH  35  36
ATOM     36  O   UNL A   1      31.191  29.983  21.532  1.00  0.00    -0.394 OA
ATOM     37  H   UNL A   1      30.695  30.339  20.778  1.00  0.00     0.210 HD
ENDBRANCH  35  36
ENDBRANCH   6  35
ENDBRANCH   3   6
ENDBRANCH   1   2
BRANCH   1  38
ATOM     38  C   UNL A   1      32.009  28.608  27.146  1.00  0.00     0.023 C 
BRANCH  38  39
ATOM     39  C   UNL A   1      33.494  28.628  27.509  1.00  0.00     0.023 C 
BRANCH  39  40
ATOM     40  C   UNL A   1      34.219  29.938  27.221  1.00  0.00     0.116 C 
BRANCH  40  41
ATOM     41  N   UNL A   1      34.158  30.887  28.324  1.00  0.00    -0.352 N 
ATOM     42  C   UNL A   1      35.110  31.140  29.283  1.00  0.00     0.251 C 
ATOM     43  H   UNL A   1      33.330  31.416  28.390  1.00  0.00     0.163 HD
ATOM     44  O   UNL A   1      34.883  31.919  30.204  1.00  0.00    -0.269 OA
BRANCH  42  45
ATOM     45  C   UNL A   1      36.392  30.416  29.209  1.00  0.00     0.039 A 
ATOM     46  C   UNL A   1      37.082  30.393  27.996  1.00  0.00     0.014 A 
ATOM     47  C   UNL A   1      36.955  29.871  30.366  1.00  0.00     0.014 A 
ATOM     48  C   UNL A   1      38.389  29.907  27.964  1.00  0.00     0.010 A 
ATOM     49  C   UNL A   1      38.280  29.450  30.345  1.00  0.00     0.010 A 
ATOM     50  C   UNL A   1      39.014  29.485  29.149  1.00  0.00    -0.014 A 
BRANCH  50  51
ATOM     51  C   UNL A   1      40.453  29.124  29.177  1.00  0.00     0.031 A 
ATOM     52  C   UNL A   1      41.482  30.173  29.484  1.00  0.00     0.074 A 
ATOM     53  C   UNL A   1      40.832  27.879  28.826  1.00  0.00     0.049 A 
ATOM     54  N   UNL A   1      42.786  30.089  29.430  1.00  0.00    -0.248 NA
ATOM     55  C   UNL A   1      40.980  31.499  29.877  1.00  0.00     0.031 C 
ATOM     56  C   UNL A   1      39.924  26.788  28.460  1.00  0.00     0.029 A 
ATOM     57  N   UNL A   1      42.081  27.325  28.696  1.00  0.00    -0.354 N 
ATOM     58  C   UNL A   1      43.259  31.352  29.763  1.00  0.00     0.074 A 
ATOM     59  C   UNL A   1      42.102  32.196  29.975  1.00  0.00     0.031 C 
ATOM     60  C   UNL A   1      40.646  25.696  28.158  1.00  0.00     0.029 A 
ATOM     61  C   UNL A   1      42.065  26.018  28.266  1.00  0.00     0.049 A 
ATOM     62  H   UNL A   1      42.911  27.817  28.892  1.00  0.00     0.167 HD
ATOM     63  C   UNL A   1      44.541  31.763  29.897  1.00  0.00     0.037 A 
ATOM     64  C   UNL A   1      43.079  25.180  27.974  1.00  0.00     0.037 A 
ATOM     65  C   UNL A   1      45.685  30.910  29.711  1.00  0.00     0.049 A 
ATOM     66  C   UNL A   1      44.494  25.664  28.117  1.00  0.00     0.074 A 
ATOM     67  C   UNL A   1      47.022  31.212  29.898  1.00  0.00     0.029 A 
ATOM     68  N   UNL A   1      45.627  29.590  29.292  1.00  0.00    -0.354 N 
ATOM     69  N   UNL A   1      44.924  26.844  28.499  1.00  0.00    -0.248 NA
ATOM     70  C   UNL A   1      45.563  24.711  27.788  1.00  0.00     0.031 C 
ATOM     71  C   UNL A   1      47.776  30.085  29.553  1.00  0.00     0.029 A 
ATOM     72  C   UNL A   1      46.906  29.070  29.188  1.00  0.00     0.049 A 
ATOM     73  H   UNL A   1      44.798  29.094  29.096  1.00  0.00     0.167 HD
ATOM     74  C   UNL A   1      46.312  26.770  28.469  1.00  0.00     0.074 A 
ATOM     75  C   UNL A   1      46.650  25.426  28.045  1.00  0.00     0.031 C 
ATOM     76  C   UNL A   1      47.223  27.729  28.764  1.00  0.00     0.037 A 
BRANCH  63  77
ATOM     77  C   UNL A   1      44.773  33.201  30.267  1.00  0.00     0.058 A 
ATOM     78  C   UNL A   1      44.907  34.198  29.288  1.00  0.00     0.135 A 
ATOM     79  C   UNL A   1      44.831  33.591  31.614  1.00  0.00     0.135 A 
ATOM     80  F   UNL A   1      44.876  33.875  27.986  1.00  0.00    -0.206 F 
ATOM     81  C   UNL A   1      45.121  35.529  29.632  1.00  0.00     0.059 A 
ATOM     82  C   UNL A   1      45.019  34.921  31.981  1.00  0.00     0.059 A 
ATOM     83  F   UNL A   1      44.710  32.677  32.589  1.00  0.00    -0.206 F 
ATOM     84  C   UNL A   1      45.177  35.879  30.982  1.00  0.00     0.060 A 
BRANCH  84  85
ATOM     85  S   UNL A   1      45.455  37.612  31.411  1.00  0.00     0.124 S 
ATOM     86  O   UNL A   1      44.492  38.282  30.543  1.00  0.00    -0.237 OA
ATOM     87  O   UNL A   1      45.147  37.634  32.837  1.00  0.00    -0.237 OA
ATOM     88  O   UNL A   1      46.859  37.824  31.072  1.00  0.00    -0.744 OA
ENDBRANCH  84  85
ENDBRANCH  63  77
BRANCH  64  89
ATOM     89  C   UNL A   1      42.787  23.795  27.517  1.00  0.00     0.058 A 
ATOM     90  C   UNL A   1      42.718  23.489  26.150  1.00  0.00     0.135 A 
ATOM     91  C   UNL A   1      42.594  22.750  28.433  1.00  0.00     0.135 A 
ATOM     92  F   UNL A   1      42.889  24.457  25.237  1.00  0.00    -0.206 F 
ATOM     93  C   UNL A   1      42.461  22.196  25.706  1.00  0.00     0.059 A 
ATOM     94  C   UNL A   1      42.355  21.445  28.013  1.00  0.00     0.059 A 
ATOM     95  F   UNL A   1      42.666  22.989  29.751  1.00  0.00    -0.206 F 
ATOM     96  C   UNL A   1      42.284  21.180  26.645  1.00  0.00     0.060 A 
BRANCH  96  97
ATOM     97  S   UNL A   1      42.012  19.493  26.060  1.00  0.00     0.124 S 
ATOM     98  O   UNL A   1      42.481  18.709  27.196  1.00  0.00    -0.237 OA
ATOM     99  O   UNL A   1      40.572  19.477  25.823  1.00  0.00    -0.237 OA
ATOM    100  O   UNL A   1      42.837  19.420  24.857  1.00  0.00    -0.744 OA
ENDBRANCH  96  97
ENDBRANCH  64  89
BRANCH  76 101
ATOM    101  C   UNL A   1      48.675  27.364  28.652  1.00  0.00     0.058 A 
ATOM    102  C   UNL A   1      49.380  27.537  27.451  1.00  0.00     0.135 A 
ATOM    103  C   UNL A   1      49.387  26.913  29.775  1.00  0.00     0.135 A 
ATOM    104  F   UNL A   1      48.742  27.956  26.347  1.00  0.00    -0.206 F 
ATOM    105  C   UNL A   1      50.743  27.271  27.367  1.00  0.00     0.059 A 
ATOM    106  C   UNL A   1      50.754  26.663  29.718  1.00  0.00     0.059 A 
ATOM    107  F   UNL A   1      48.758  26.738  30.948  1.00  0.00    -0.206 F 
ATOM    108  C   UNL A   1      51.422  26.840  28.507  1.00  0.00     0.060 A 
BRANCH 108 109
ATOM    109  S   UNL A   1      53.203  26.561  28.401  1.00  0.00     0.124 S 
ATOM    110  O   UNL A   1      53.687  27.888  28.038  1.00  0.00    -0.237 OA
ATOM    111  O   UNL A   1      53.531  26.113  29.752  1.00  0.00    -0.237 OA
ATOM    112  O   UNL A   1      53.325  25.541  27.363  1.00  0.00    -0.744 OA
ENDBRANCH 108 109
ENDBRANCH  76 101
ENDBRANCH  50  51
ENDBRANCH  42  45
ENDBRANCH  40  41
ENDBRANCH  39  40
ENDBRANCH  38  39
ENDBRANCH   1  38
TORSDOF 25
ENDMDL
MODEL 3
REMARK VINA RESULT:     -11.3      2.986      8.614
REMARK SMILES [NH3+][C@@H](Cc1c[nH]c2ccccc12)C(=O)N[C@@H](CS)C(=O)N[C@@H](CO)C(=O)NCCCCNC(=O)c1ccc(-c2c3nc(c(-c4c(F)cc(S(=O)(=O)[O-])cc4F)c4ccc([nH]4)c(-c4c(F)cc(S(=O)(=O)[O-])cc4F)c4nc(c(-c5c(F)cc(S(=O)(=O)[O-])cc5F)c5ccc2[nH]5)C=C4)C=C3)cc1
REMARK SMILES IDX 28 1 27 2 25 3 26 4 22 6 21 7 19 8 20 9 16 11 15 12 13 13
REMARK SMILES IDX 14 14 2 16 1 17 3 21 4 22 5 23 12 24 6 25 7 26 11 27 8 29
REMARK SMILES IDX 10 30 9 31 17 32 18 33 23 35 24 36 29 38 30 39 31 40 32 41
REMARK SMILES IDX 33 42 34 44 35 45 36 46 100 47 37 48 99 49 38 50 39 51 40 52
REMARK SMILES IDX 93 53 41 54 98 55 92 56 94 57 42 58 97 59 91 60 90 61 43 63
REMARK SMILES IDX 77 64 56 65 76 66 57 67 60 68 75 69 95 70 58 71 59 72 74 74
REMARK SMILES IDX 96 75 61 76 44 77 45 78 54 79 46 80 47 81 53 82 55 83 48 84
REMARK SMILES IDX 49 85 50 86 51 87 52 88 78 89 79 90 88 91 80 92 81 93 87 94
REMARK SMILES IDX 89 95 82 96 83 97 84 98 85 99 86 100 62 101 63 102 72 103
REMARK SMILES IDX 64 104 65 105 71 106 73 107 66 108 67 109 68 110 69 111
REMARK SMILES IDX 70 112
REMARK H PARENT 27 5 21 10 15 15 1 18 1 19 1 20 6 28 18 34 24 37 32 43 94 62
REMARK H PARENT 60 73
REMARK Flexibility Score: inf
ROOT
ATOM      1  C   UNL A   1      35.784  22.416  25.314  1.00  0.00     0.116 C 
ENDROOT
BRANCH   1   2
ATOM      2  N   UNL A   1      34.845  22.298  24.216  1.00  0.00    -0.354 N 
ATOM      3  C   UNL A   1      33.578  21.810  24.172  1.00  0.00     0.244 C 
ATOM      4  O   UNL A   1      32.917  22.033  23.152  1.00  0.00    -0.273 OA
ATOM      5  H   UNL A   1      35.184  22.629  23.353  1.00  0.00     0.163 HD
BRANCH   3   6
ATOM      6  C   UNL A   1      32.917  21.077  25.348  1.00  0.00     0.197 C 
BRANCH   6   7
ATOM      7  N   UNL A   1      31.501  21.378  25.513  1.00  0.00    -0.340 N 
ATOM      8  C   UNL A   1      30.906  22.522  25.906  1.00  0.00     0.244 C 
ATOM      9  O   UNL A   1      29.902  22.370  26.610  1.00  0.00    -0.273 OA
ATOM     10  H   UNL A   1      30.889  20.635  25.307  1.00  0.00     0.164 HD
BRANCH   8  11
ATOM     11  C   UNL A   1      31.471  23.930  25.636  1.00  0.00     0.181 C 
BRANCH  11  12
ATOM     12  N   UNL A   1      30.367  24.830  25.356  1.00  0.00    -0.338 N 
ATOM     13  C   UNL A   1      30.113  25.512  24.199  1.00  0.00     0.279 C 
ATOM     14  O   UNL A   1      28.946  25.883  24.024  1.00  0.00    -0.268 OA
ATOM     15  H   UNL A   1      29.723  24.966  26.088  1.00  0.00     0.164 HD
BRANCH  13  16
ATOM     16  C   UNL A   1      31.227  25.890  23.176  1.00  0.00     0.275 C 
BRANCH  16  17
ATOM     17  N   UNL A   1      31.563  24.732  22.320  1.00  0.00    -0.347 N 
ATOM     18  H   UNL A   1      31.568  25.023  21.343  1.00  0.00     0.345 HD
ATOM     19  H   UNL A   1      30.868  23.998  22.453  1.00  0.00     0.345 HD
ATOM     20  H   UNL A   1      32.485  24.377  22.574  1.00  0.00     0.345 HD
ENDBRANCH  16  17
BRANCH  16  21
ATOM     21  C   UNL A   1      31.155  27.284  22.509  1.00  0.00     0.113 C 
BRANCH  21  22
ATOM     22  C   UNL A   1      30.868  28.537  23.307  1.00  0.00    -0.016 A 
ATOM     23  C   UNL A   1      31.581  29.129  24.338  1.00  0.00     0.087 A 
ATOM     24  C   UNL A   1      29.692  29.356  23.133  1.00  0.00     0.003 A 
ATOM     25  N   UNL A   1      31.006  30.340  24.630  1.00  0.00    -0.361 N 
ATOM     26  C   UNL A   1      29.844  30.497  23.919  1.00  0.00     0.046 A 
ATOM     27  C   UNL A   1      28.524  29.239  22.350  1.00  0.00     0.010 A 
ATOM     28  H   UNL A   1      31.375  31.002  25.259  1.00  0.00     0.166 HD
ATOM     29  C   UNL A   1      28.924  31.553  23.917  1.00  0.00     0.026 A 
ATOM     30  C   UNL A   1      27.568  30.263  22.370  1.00  0.00     0.001 A 
ATOM     31  C   UNL A   1      27.776  31.410  23.131  1.00  0.00     0.002 A 
ENDBRANCH  21  22
ENDBRANCH  16  21
ENDBRANCH  13  16
ENDBRANCH  11  12
BRANCH  11  32
ATOM     32  C   UNL A   1      32.638  24.460  26.486  1.00  0.00     0.101 C 
BRANCH  32  33
ATOM     33  S   UNL A   1      33.646  25.797  25.757  1.00  0.00    -0.177 SA
ATOM     34  H   UNL A   1      34.039  26.654  26.737  1.00  0.00     0.102 HD
ENDBRANCH  32  33
ENDBRANCH  11  32
ENDBRANCH   8  11
ENDBRANCH   6   7
BRANCH   6  35
ATOM     35  C   UNL A   1      33.184  19.564  25.328  1.00  0.00     0.191 C 
BRANCH  35  36
ATOM     36  O   UNL A   1      32.710  18.903  26.498  1.00  0.00    -0.394 OA
ATOM     37  H   UNL A   1      33.462  18.533  26.988  1.00  0.00     0.210 HD
ENDBRANCH  35  36
ENDBRANCH   6  35
ENDBRANCH   3   6
ENDBRANCH   1   2
BRANCH   1  38
ATOM     38  C   UNL A   1      36.765  21.248  25.368  1.00  0.00     0.023 C 
BRANCH  38  39
ATOM     39  C   UNL A   1      38.223  21.618  25.092  1.00  0.00     0.023 C 
BRANCH  39  40
ATOM     40  C   UNL A   1      39.198  21.316  26.224  1.00  0.00     0.116 C 
BRANCH  40  41
ATOM     41  N   UNL A   1      39.902  20.051  26.059  1.00  0.00    -0.352 N 
ATOM     42  C   UNL A   1      41.256  19.818  26.104  1.00  0.00     0.251 C 
ATOM     43  H   UNL A   1      39.336  19.263  25.894  1.00  0.00     0.163 HD
ATOM     44  O   UNL A   1      41.710  18.703  25.865  1.00  0.00    -0.269 OA
BRANCH  42  45
ATOM     45  C   UNL A   1      42.155  20.950  26.395  1.00  0.00     0.039 A 
ATOM     46  C   UNL A   1      42.588  21.754  25.339  1.00  0.00     0.014 A 
ATOM     47  C   UNL A   1      42.464  21.275  27.718  1.00  0.00     0.014 A 
ATOM     48  C   UNL A   1      43.252  22.948  25.618  1.00  0.00     0.010 A 
ATOM     49  C   UNL A   1      43.066  22.497  27.996  1.00  0.00     0.010 A 
ATOM     50  C   UNL A   1      43.445  23.353  26.949  1.00  0.00    -0.014 A 
BRANCH  50  51
ATOM     51  C   UNL A   1      43.994  24.692  27.278  1.00  0.00     0.031 A 
ATOM     52  C   UNL A   1      43.070  25.793  27.715  1.00  0.00     0.074 A 
ATOM     53  C   UNL A   1      45.305  24.939  27.083  1.00  0.00     0.049 A 
ATOM     54  N   UNL A   1      43.334  27.056  27.919  1.00  0.00    -0.248 NA
ATOM     55  C   UNL A   1      41.659  25.431  27.921  1.00  0.00     0.031 C 
ATOM     56  C   UNL A   1      46.290  23.960  26.614  1.00  0.00     0.029 A 
ATOM     57  N   UNL A   1      46.032  26.093  27.231  1.00  0.00    -0.354 N 
ATOM     58  C   UNL A   1      42.123  27.644  28.261  1.00  0.00     0.074 A 
ATOM     59  C   UNL A   1      41.115  26.608  28.193  1.00  0.00     0.031 C 
ATOM     60  C   UNL A   1      47.492  24.553  26.525  1.00  0.00     0.029 A 
ATOM     61  C   UNL A   1      47.357  25.960  26.886  1.00  0.00     0.049 A 
ATOM     62  H   UNL A   1      45.641  26.937  27.555  1.00  0.00     0.167 HD
ATOM     63  C   UNL A   1      41.879  28.927  28.616  1.00  0.00     0.037 A 
ATOM     64  C   UNL A   1      48.347  26.873  26.847  1.00  0.00     0.037 A 
ATOM     65  C   UNL A   1      42.892  29.945  28.707  1.00  0.00     0.049 A 
ATOM     66  C   UNL A   1      48.048  28.295  27.233  1.00  0.00     0.074 A 
ATOM     67  C   UNL A   1      42.759  31.255  29.131  1.00  0.00     0.029 A 
ATOM     68  N   UNL A   1      44.224  29.767  28.365  1.00  0.00    -0.354 N 
ATOM     69  N   UNL A   1      46.908  28.819  27.619  1.00  0.00    -0.248 NA
ATOM     70  C   UNL A   1      49.162  29.251  27.175  1.00  0.00     0.031 C 
ATOM     71  C   UNL A   1      44.003  31.882  29.008  1.00  0.00     0.029 A 
ATOM     72  C   UNL A   1      44.920  30.951  28.543  1.00  0.00     0.049 A 
ATOM     73  H   UNL A   1      44.618  28.924  28.043  1.00  0.00     0.167 HD
ATOM     74  C   UNL A   1      47.172  30.162  27.863  1.00  0.00     0.074 A 
ATOM     75  C   UNL A   1      48.581  30.367  27.594  1.00  0.00     0.031 C 
ATOM     76  C   UNL A   1      46.323  31.137  28.270  1.00  0.00     0.037 A 
BRANCH  63  77
ATOM     77  C   UNL A   1      40.459  29.299  28.937  1.00  0.00     0.058 A 
ATOM     78  C   UNL A   1      40.033  29.493  30.260  1.00  0.00     0.135 A 
ATOM     79  C   UNL A   1      39.522  29.495  27.910  1.00  0.00     0.135 A 
ATOM     80  F   UNL A   1      40.885  29.302  31.280  1.00  0.00    -0.206 F 
ATOM     81  C   UNL A   1      38.719  29.838  30.557  1.00  0.00     0.059 A 
ATOM     82  C   UNL A   1      38.208  29.866  28.182  1.00  0.00     0.059 A 
ATOM     83  F   UNL A   1      39.878  29.322  26.628  1.00  0.00    -0.206 F 
ATOM     84  C   UNL A   1      37.813  30.020  29.510  1.00  0.00     0.060 A 
BRANCH  84  85
ATOM     85  S   UNL A   1      36.111  30.469  29.913  1.00  0.00     0.124 S 
ATOM     86  O   UNL A   1      36.128  31.909  29.675  1.00  0.00    -0.237 OA
ATOM     87  O   UNL A   1      35.344  29.678  28.957  1.00  0.00    -0.237 OA
ATOM     88  O   UNL A   1      35.975  30.064  31.309  1.00  0.00    -0.744 OA
ENDBRANCH  84  85
ENDBRANCH  63  77
BRANCH  64  89
ATOM     89  C   UNL A   1      49.714  26.467  26.427  1.00  0.00     0.058 A 
ATOM     90  C   UNL A   1      50.614  25.912  27.349  1.00  0.00     0.135 A 
ATOM     91  C   UNL A   1      50.140  26.604  25.097  1.00  0.00     0.135 A 
ATOM     92  F   UNL A   1      50.254  25.768  28.633  1.00  0.00    -0.206 F 
ATOM     93  C   UNL A   1      51.891  25.513  26.969  1.00  0.00     0.059 A 
ATOM     94  C   UNL A   1      51.405  26.193  24.688  1.00  0.00     0.059 A 
ATOM     95  F   UNL A   1      49.310  27.114  24.174  1.00  0.00    -0.206 F 
ATOM     96  C   UNL A   1      52.277  25.655  25.636  1.00  0.00     0.060 A 
BRANCH  96  97
ATOM     97  S   UNL A   1      53.914  25.078  25.138  1.00  0.00     0.124 S 
ATOM     98  O   UNL A   1      54.159  25.881  23.947  1.00  0.00    -0.237 OA
ATOM     99  O   UNL A   1      54.725  25.404  26.307  1.00  0.00    -0.237 OA
ATOM    100  O   UNL A   1      53.709  23.650  24.908  1.00  0.00    -0.744 OA
ENDBRANCH  96  97
ENDBRANCH  64  89
BRANCH  76 101
ATOM    101  C   UNL A   1      46.890  32.514  28.464  1.00  0.00     0.058 A 
ATOM    102  C   UNL A   1      47.468  32.899  29.683  1.00  0.00     0.135 A 
ATOM    103  C   UNL A   1      46.928  33.427  27.398  1.00  0.00     0.135 A 
ATOM    104  F   UNL A   1      47.449  32.065  30.734  1.00  0.00    -0.206 F 
ATOM    105  C   UNL A   1      48.062  34.147  29.840  1.00  0.00     0.059 A 
ATOM    106  C   UNL A   1      47.535  34.671  27.527  1.00  0.00     0.059 A 
ATOM    107  F   UNL A   1      46.394  33.102  26.210  1.00  0.00    -0.206 F 
ATOM    108  C   UNL A   1      48.096  35.024  28.754  1.00  0.00     0.060 A 
BRANCH 108 109
ATOM    109  S   UNL A   1      48.926  36.615  28.953  1.00  0.00     0.124 S 
ATOM    110  O   UNL A   1      50.256  36.320  28.430  1.00  0.00    -0.237 OA
ATOM    111  O   UNL A   1      48.104  37.501  28.132  1.00  0.00    -0.237 OA
ATOM    112  O   UNL A   1      48.854  36.859  30.390  1.00  0.00    -0.744 OA
ENDBRANCH 108 109
ENDBRANCH  76 101
ENDBRANCH  50  51
ENDBRANCH  42  45
ENDBRANCH  40  41
ENDBRANCH  39  40
ENDBRANCH  38  39
ENDBRANCH   1  38
TORSDOF 25
ENDMDL
