MODEL 1
REMARK VINA RESULT:     -14.3      0.000      0.000
REMARK SMILES Cc1ccc(C(=O)N2C[C@@H](C(=O)NCCCCNC(=O)c3ccc(-c4c5nc(c(-c6c(F)cc(S(=O)(=O)[O-])cc6F)c6ccc([nH]6)c(-c6c(F)cc(S(=O)(=O)[O-])cc6F)c6nc(c(-c7c(F)cc(S(=O)(=O)[O-])cc7F)c7ccc4[nH]7)C=C6)C=C5)cc3)C[C@H](C(=O)N3CCOCC3)C2)cc1F
REMARK SMILES IDX 16 1 15 2 14 3 13 4 11 5 12 6 10 8 8 9 9 10 97 11 88 12
REMARK SMILES IDX 87 13 6 14 7 15 5 16 1 17 2 18 3 19 99 20 4 21 98 22 100 23
REMARK SMILES IDX 89 24 90 25 91 26 92 27 96 28 93 29 95 30 94 31 17 32 18 33
REMARK SMILES IDX 19 34 20 36 21 37 22 38 86 39 23 40 85 41 24 42 25 43 26 44
REMARK SMILES IDX 79 45 27 46 84 47 78 48 80 49 28 50 83 51 77 52 76 53 29 55
REMARK SMILES IDX 63 56 42 57 62 58 43 59 46 60 61 61 81 62 44 63 45 64 60 66
REMARK SMILES IDX 82 67 47 68 30 69 31 70 40 71 32 72 33 73 39 74 41 75 34 76
REMARK SMILES IDX 35 77 36 78 37 79 38 80 64 81 65 82 74 83 66 84 67 85 73 86
REMARK SMILES IDX 75 87 68 88 69 89 70 90 71 91 72 92 48 93 49 94 58 95 50 96
REMARK SMILES IDX 51 97 57 98 59 99 52 100 53 101 54 102 55 103 56 104
REMARK H PARENT 13 7 18 35 80 54 46 65
REMARK Flexibility Score: inf
ROOT
ATOM      1  C   UNL A   1      33.150  30.846  27.153  1.00  0.00     0.023 C 
ENDROOT
BRANCH   1   2
ATOM      2  C   UNL A   1      32.485  30.009  26.058  1.00  0.00     0.023 C 
BRANCH   2   3
ATOM      3  C   UNL A   1      33.286  28.795  25.581  1.00  0.00     0.116 C 
BRANCH   3   4
ATOM      4  N   UNL A   1      33.517  28.829  24.147  1.00  0.00    -0.356 N 
ATOM      5  C   UNL A   1      33.672  27.835  23.237  1.00  0.00     0.224 C 
ATOM      6  O   UNL A   1      34.037  28.144  22.100  1.00  0.00    -0.275 OA
ATOM      7  H   UNL A   1      33.569  29.736  23.768  1.00  0.00     0.163 HD
BRANCH   5   8
ATOM      8  C   UNL A   1      33.402  26.378  23.571  1.00  0.00     0.099 C 
ATOM      9  N   UNL A   1      34.525  24.256  24.217  1.00  0.00    -0.337 N 
ATOM     10  C   UNL A   1      34.660  25.700  24.087  1.00  0.00     0.133 C 
ATOM     11  C   UNL A   1      33.985  23.534  23.070  1.00  0.00     0.133 C 
ATOM     12  C   UNL A   1      32.640  24.104  22.586  1.00  0.00     0.099 C 
ATOM     13  C   UNL A   1      32.634  25.627  22.478  1.00  0.00     0.030 C 
BRANCH   9  14
ATOM     14  C   UNL A   1      35.093  23.668  25.341  1.00  0.00     0.254 C 
ATOM     15  O   UNL A   1      34.724  23.930  26.484  1.00  0.00    -0.269 OA
BRANCH  14  16
ATOM     16  C   UNL A   1      36.265  22.773  25.200  1.00  0.00     0.042 A 
ATOM     17  C   UNL A   1      39.399  19.873  25.719  1.00  0.00     0.047 C 
ATOM     18  C   UNL A   1      38.345  20.908  25.467  1.00  0.00    -0.015 A 
ATOM     19  C   UNL A   1      38.570  22.259  25.759  1.00  0.00     0.007 A 
ATOM     20  C   UNL A   1      37.084  20.518  25.005  1.00  0.00     0.126 A 
ATOM     21  C   UNL A   1      37.532  23.189  25.632  1.00  0.00     0.014 A 
ATOM     22  C   UNL A   1      36.045  21.433  24.876  1.00  0.00     0.053 A 
ATOM     23  F   UNL A   1      36.848  19.228  24.729  1.00  0.00    -0.207 F 
ENDBRANCH  14  16
ENDBRANCH   9  14
BRANCH  12  24
ATOM     24  C   UNL A   1      31.491  23.354  23.276  1.00  0.00     0.227 C 
ATOM     25  O   UNL A   1      31.085  22.311  22.745  1.00  0.00    -0.275 OA
ATOM     26  N   UNL A   1      31.107  23.661  24.556  1.00  0.00    -0.338 N 
ATOM     27  C   UNL A   1      30.723  24.966  25.094  1.00  0.00     0.148 C 
ATOM     28  C   UNL A   1      30.820  22.572  25.487  1.00  0.00     0.148 C 
ATOM     29  C   UNL A   1      31.413  25.199  26.444  1.00  0.00     0.181 C 
ATOM     30  C   UNL A   1      31.518  22.863  26.822  1.00  0.00     0.181 C 
ATOM     31  O   UNL A   1      31.094  24.130  27.357  1.00  0.00    -0.378 OA
ENDBRANCH  12  24
ENDBRANCH   5   8
ENDBRANCH   3   4
ENDBRANCH   2   3
ENDBRANCH   1   2
BRANCH   1  32
ATOM     32  C   UNL A   1      34.353  30.190  27.796  1.00  0.00     0.116 C 
BRANCH  32  33
ATOM     33  N   UNL A   1      35.372  31.144  28.206  1.00  0.00    -0.352 N 
ATOM     34  C   UNL A   1      36.166  30.794  29.297  1.00  0.00     0.251 C 
ATOM     35  H   UNL A   1      35.496  31.998  27.733  1.00  0.00     0.163 HD
ATOM     36  O   UNL A   1      35.873  31.100  30.433  1.00  0.00    -0.269 OA
BRANCH  34  37
ATOM     37  C   UNL A   1      37.216  29.773  28.978  1.00  0.00     0.039 A 
ATOM     38  C   UNL A   1      37.975  29.896  27.810  1.00  0.00     0.014 A 
ATOM     39  C   UNL A   1      37.593  28.858  29.964  1.00  0.00     0.014 A 
ATOM     40  C   UNL A   1      39.177  29.193  27.694  1.00  0.00     0.010 A 
ATOM     41  C   UNL A   1      38.820  28.251  29.899  1.00  0.00     0.010 A 
ATOM     42  C   UNL A   1      39.620  28.417  28.771  1.00  0.00    -0.014 A 
BRANCH  42  43
ATOM     43  C   UNL A   1      40.925  27.772  28.855  1.00  0.00     0.031 A 
ATOM     44  C   UNL A   1      41.117  26.373  28.417  1.00  0.00     0.074 A 
ATOM     45  C   UNL A   1      41.972  28.520  29.270  1.00  0.00     0.049 A 
ATOM     46  N   UNL A   1      42.024  25.581  28.880  1.00  0.00    -0.248 NA
ATOM     47  C   UNL A   1      40.281  25.746  27.397  1.00  0.00     0.031 C 
ATOM     48  C   UNL A   1      43.390  28.192  29.278  1.00  0.00     0.029 A 
ATOM     49  N   UNL A   1      41.957  29.753  29.904  1.00  0.00    -0.354 N 
ATOM     50  C   UNL A   1      42.097  24.484  28.044  1.00  0.00     0.074 A 
ATOM     51  C   UNL A   1      40.927  24.590  27.199  1.00  0.00     0.031 C 
ATOM     52  C   UNL A   1      44.006  28.997  30.167  1.00  0.00     0.029 A 
ATOM     53  C   UNL A   1      42.966  29.752  30.854  1.00  0.00     0.049 A 
ATOM     54  H   UNL A   1      41.340  30.497  29.713  1.00  0.00     0.167 HD
ATOM     55  C   UNL A   1      43.225  23.710  28.061  1.00  0.00     0.037 A 
ATOM     56  C   UNL A   1      42.696  29.685  32.196  1.00  0.00     0.037 A 
ATOM     57  C   UNL A   1      44.168  24.217  29.063  1.00  0.00     0.049 A 
ATOM     58  C   UNL A   1      43.280  28.439  32.823  1.00  0.00     0.074 A 
ATOM     59  C   UNL A   1      45.259  25.065  28.949  1.00  0.00     0.029 A 
ATOM     60  N   UNL A   1      43.860  24.151  30.419  1.00  0.00    -0.354 N 
ATOM     61  N   UNL A   1      43.512  27.334  32.168  1.00  0.00    -0.248 NA
ATOM     62  C   UNL A   1      43.693  28.359  34.221  1.00  0.00     0.031 C 
ATOM     63  C   UNL A   1      45.546  25.585  30.234  1.00  0.00     0.029 A 
ATOM     64  C   UNL A   1      44.649  25.034  31.135  1.00  0.00     0.049 A 
ATOM     65  H   UNL A   1      43.179  23.560  30.812  1.00  0.00     0.167 HD
ATOM     66  C   UNL A   1      44.114  26.426  33.000  1.00  0.00     0.074 A 
ATOM     67  C   UNL A   1      44.206  27.117  34.274  1.00  0.00     0.031 C 
ATOM     68  C   UNL A   1      44.507  25.188  32.576  1.00  0.00     0.037 A 
BRANCH  55  69
ATOM     69  C   UNL A   1      43.631  22.721  26.974  1.00  0.00     0.058 A 
ATOM     70  C   UNL A   1      42.911  21.515  26.790  1.00  0.00     0.135 A 
ATOM     71  C   UNL A   1      44.732  22.870  26.106  1.00  0.00     0.135 A 
ATOM     72  F   UNL A   1      41.778  21.263  27.458  1.00  0.00    -0.206 F 
ATOM     73  C   UNL A   1      43.313  20.503  25.914  1.00  0.00     0.059 A 
ATOM     74  C   UNL A   1      45.181  21.853  25.250  1.00  0.00     0.059 A 
ATOM     75  F   UNL A   1      45.389  24.032  26.009  1.00  0.00    -0.206 F 
ATOM     76  C   UNL A   1      44.470  20.665  25.168  1.00  0.00     0.060 A 
BRANCH  76  77
ATOM     77  S   UNL A   1      44.997  19.326  24.080  1.00  0.00     0.124 S 
ATOM     78  O   UNL A   1      46.452  19.430  24.148  1.00  0.00    -0.237 OA
ATOM     79  O   UNL A   1      44.413  18.157  24.728  1.00  0.00    -0.237 OA
ATOM     80  O   UNL A   1      44.410  19.684  22.791  1.00  0.00    -0.744 OA
ENDBRANCH  76  77
ENDBRANCH  55  69
BRANCH  56  81
ATOM     81  C   UNL A   1      41.389  30.316  32.570  1.00  0.00     0.058 A 
ATOM     82  C   UNL A   1      40.357  29.454  32.993  1.00  0.00     0.135 A 
ATOM     83  C   UNL A   1      41.311  31.657  32.983  1.00  0.00     0.135 A 
ATOM     84  F   UNL A   1      40.363  28.167  32.609  1.00  0.00    -0.206 F 
ATOM     85  C   UNL A   1      39.413  29.846  33.937  1.00  0.00     0.059 A 
ATOM     86  C   UNL A   1      40.365  32.074  33.928  1.00  0.00     0.059 A 
ATOM     87  F   UNL A   1      42.237  32.542  32.586  1.00  0.00    -0.206 F 
ATOM     88  C   UNL A   1      39.472  31.138  34.455  1.00  0.00     0.060 A 
BRANCH  88  89
ATOM     89  S   UNL A   1      38.469  31.504  35.919  1.00  0.00     0.124 S 
ATOM     90  O   UNL A   1      39.341  32.398  36.674  1.00  0.00    -0.237 OA
ATOM     91  O   UNL A   1      37.289  32.137  35.331  1.00  0.00    -0.237 OA
ATOM     92  O   UNL A   1      38.243  30.194  36.515  1.00  0.00    -0.744 OA
ENDBRANCH  88  89
ENDBRANCH  56  81
BRANCH  68  93
ATOM     93  C   UNL A   1      44.919  24.055  33.483  1.00  0.00     0.058 A 
ATOM     94  C   UNL A   1      44.103  22.944  33.754  1.00  0.00     0.135 A 
ATOM     95  C   UNL A   1      46.234  23.988  34.006  1.00  0.00     0.135 A 
ATOM     96  F   UNL A   1      42.884  22.821  33.209  1.00  0.00    -0.206 F 
ATOM     97  C   UNL A   1      44.522  21.887  34.560  1.00  0.00     0.059 A 
ATOM     98  C   UNL A   1      46.693  22.913  34.762  1.00  0.00     0.059 A 
ATOM     99  F   UNL A   1      47.127  24.964  33.785  1.00  0.00    -0.206 F 
ATOM    100  C   UNL A   1      45.818  21.880  35.062  1.00  0.00     0.060 A 
BRANCH 100 101
ATOM    101  S   UNL A   1      46.375  20.489  36.060  1.00  0.00     0.124 S 
ATOM    102  O   UNL A   1      47.758  20.350  35.616  1.00  0.00    -0.237 OA
ATOM    103  O   UNL A   1      46.198  20.980  37.424  1.00  0.00    -0.237 OA
ATOM    104  O   UNL A   1      45.472  19.413  35.667  1.00  0.00    -0.744 OA
ENDBRANCH 100 101
ENDBRANCH  68  93
ENDBRANCH  42  43
ENDBRANCH  34  37
ENDBRANCH  32  33
ENDBRANCH   1  32
TORSDOF 17
ENDMDL
MODEL 2
REMARK VINA RESULT:     -14.2      1.344      2.327
REMARK SMILES Cc1ccc(C(=O)N2C[C@@H](C(=O)NCCCCNC(=O)c3ccc(-c4c5nc(c(-c6c(F)cc(S(=O)(=O)[O-])cc6F)c6ccc([nH]6)c(-c6c(F)cc(S(=O)(=O)[O-])cc6F)c6nc(c(-c7c(F)cc(S(=O)(=O)[O-])cc7F)c7ccc4[nH]7)C=C6)C=C5)cc3)C[C@H](C(=O)N3CCOCC3)C2)cc1F
REMARK SMILES IDX 16 1 15 2 14 3 13 4 11 5 12 6 10 8 8 9 9 10 97 11 88 12
REMARK SMILES IDX 87 13 6 14 7 15 5 16 1 17 2 18 3 19 99 20 4 21 98 22 100 23
REMARK SMILES IDX 89 24 90 25 91 26 92 27 96 28 93 29 95 30 94 31 17 32 18 33
REMARK SMILES IDX 19 34 20 36 21 37 22 38 86 39 23 40 85 41 24 42 25 43 26 44
REMARK SMILES IDX 79 45 27 46 84 47 78 48 80 49 28 50 83 51 77 52 76 53 29 55
REMARK SMILES IDX 63 56 42 57 62 58 43 59 46 60 61 61 81 62 44 63 45 64 60 66
REMARK SMILES IDX 82 67 47 68 30 69 31 70 40 71 32 72 33 73 39 74 41 75 34 76
REMARK SMILES IDX 35 77 36 78 37 79 38 80 64 81 65 82 74 83 66 84 67 85 73 86
REMARK SMILES IDX 75 87 68 88 69 89 70 90 71 91 72 92 48 93 49 94 58 95 50 96
REMARK SMILES IDX 51 97 57 98 59 99 52 100 53 101 54 102 55 103 56 104
REMARK H PARENT 13 7 18 35 80 54 46 65
REMARK Flexibility Score: inf
ROOT
ATOM      1  C   UNL A   1      33.074  30.910  26.963  1.00  0.00     0.023 C 
ENDROOT
BRANCH   1   2
ATOM      2  C   UNL A   1      32.116  30.046  26.139  1.00  0.00     0.023 C 
BRANCH   2   3
ATOM      3  C   UNL A   1      32.771  29.184  25.058  1.00  0.00     0.116 C 
BRANCH   3   4
ATOM      4  N   UNL A   1      31.881  28.959  23.933  1.00  0.00    -0.356 N 
ATOM      5  C   UNL A   1      31.461  27.817  23.333  1.00  0.00     0.224 C 
ATOM      6  O   UNL A   1      30.838  27.917  22.272  1.00  0.00    -0.275 OA
ATOM      7  H   UNL A   1      31.516  29.783  23.535  1.00  0.00     0.163 HD
BRANCH   5   8
ATOM      8  C   UNL A   1      31.720  26.444  23.927  1.00  0.00     0.099 C 
ATOM      9  N   UNL A   1      31.739  24.021  23.370  1.00  0.00    -0.337 N 
ATOM     10  C   UNL A   1      31.714  25.378  22.844  1.00  0.00     0.133 C 
ATOM     11  C   UNL A   1      30.774  23.697  24.416  1.00  0.00     0.133 C 
ATOM     12  C   UNL A   1      30.827  24.677  25.601  1.00  0.00     0.099 C 
ATOM     13  C   UNL A   1      30.879  26.141  25.172  1.00  0.00     0.030 C 
BRANCH   9  14
ATOM     14  C   UNL A   1      32.543  23.101  22.708  1.00  0.00     0.254 C 
ATOM     15  O   UNL A   1      33.383  23.434  21.874  1.00  0.00    -0.269 OA
BRANCH  14  16
ATOM     16  C   UNL A   1      32.332  21.648  22.906  1.00  0.00     0.042 A 
ATOM     17  C   UNL A   1      32.704  17.379  23.270  1.00  0.00     0.047 C 
ATOM     18  C   UNL A   1      32.490  18.858  23.151  1.00  0.00    -0.015 A 
ATOM     19  C   UNL A   1      32.065  19.434  21.948  1.00  0.00     0.007 A 
ATOM     20  C   UNL A   1      32.793  19.693  24.231  1.00  0.00     0.126 A 
ATOM     21  C   UNL A   1      31.992  20.826  21.823  1.00  0.00     0.014 A 
ATOM     22  C   UNL A   1      32.724  21.077  24.118  1.00  0.00     0.053 A 
ATOM     23  F   UNL A   1      33.210  19.158  25.388  1.00  0.00    -0.207 F 
ENDBRANCH  14  16
ENDBRANCH   9  14
BRANCH  12  24
ATOM     24  C   UNL A   1      31.784  24.130  26.670  1.00  0.00     0.227 C 
ATOM     25  O   UNL A   1      31.292  23.482  27.605  1.00  0.00    -0.275 OA
ATOM     26  N   UNL A   1      33.141  24.120  26.474  1.00  0.00    -0.338 N 
ATOM     27  C   UNL A   1      34.009  25.240  26.113  1.00  0.00     0.148 C 
ATOM     28  C   UNL A   1      33.901  22.932  26.861  1.00  0.00     0.148 C 
ATOM     29  C   UNL A   1      34.975  24.816  24.999  1.00  0.00     0.181 C 
ATOM     30  C   UNL A   1      34.859  22.563  25.721  1.00  0.00     0.181 C 
ATOM     31  O   UNL A   1      35.735  23.662  25.411  1.00  0.00    -0.378 OA
ENDBRANCH  12  24
ENDBRANCH   5   8
ENDBRANCH   3   4
ENDBRANCH   2   3
ENDBRANCH   1   2
BRANCH   1  32
ATOM     32  C   UNL A   1      34.398  30.246  27.278  1.00  0.00     0.116 C 
BRANCH  32  33
ATOM     33  N   UNL A   1      35.402  31.178  27.768  1.00  0.00    -0.352 N 
ATOM     34  C   UNL A   1      36.117  30.800  28.903  1.00  0.00     0.251 C 
ATOM     35  H   UNL A   1      35.568  32.037  27.318  1.00  0.00     0.163 HD
ATOM     36  O   UNL A   1      35.755  31.094  30.022  1.00  0.00    -0.269 OA
BRANCH  34  37
ATOM     37  C   UNL A   1      37.170  29.768  28.638  1.00  0.00     0.039 A 
ATOM     38  C   UNL A   1      37.930  29.834  27.465  1.00  0.00     0.014 A 
ATOM     39  C   UNL A   1      37.551  28.907  29.670  1.00  0.00     0.014 A 
ATOM     40  C   UNL A   1      39.135  29.130  27.386  1.00  0.00     0.010 A 
ATOM     41  C   UNL A   1      38.780  28.302  29.637  1.00  0.00     0.010 A 
ATOM     42  C   UNL A   1      39.580  28.412  28.501  1.00  0.00    -0.014 A 
BRANCH  42  43
ATOM     43  C   UNL A   1      40.888  27.778  28.618  1.00  0.00     0.031 A 
ATOM     44  C   UNL A   1      41.096  26.373  28.207  1.00  0.00     0.074 A 
ATOM     45  C   UNL A   1      41.922  28.540  29.040  1.00  0.00     0.049 A 
ATOM     46  N   UNL A   1      42.000  25.595  28.699  1.00  0.00    -0.248 NA
ATOM     47  C   UNL A   1      40.283  25.725  27.183  1.00  0.00     0.031 C 
ATOM     48  C   UNL A   1      43.342  28.221  29.078  1.00  0.00     0.029 A 
ATOM     49  N   UNL A   1      41.888  29.783  29.653  1.00  0.00    -0.354 N 
ATOM     50  C   UNL A   1      42.095  24.485  27.882  1.00  0.00     0.074 A 
ATOM     51  C   UNL A   1      40.940  24.570  27.015  1.00  0.00     0.031 C 
ATOM     52  C   UNL A   1      43.937  29.044  29.965  1.00  0.00     0.029 A 
ATOM     53  C   UNL A   1      42.881  29.804  30.621  1.00  0.00     0.049 A 
ATOM     54  H   UNL A   1      41.270  30.519  29.439  1.00  0.00     0.167 HD
ATOM     55  C   UNL A   1      43.228  23.720  27.931  1.00  0.00     0.037 A 
ATOM     56  C   UNL A   1      42.587  29.756  31.959  1.00  0.00     0.037 A 
ATOM     57  C   UNL A   1      44.150  24.249  28.941  1.00  0.00     0.049 A 
ATOM     58  C   UNL A   1      43.168  28.524  32.617  1.00  0.00     0.074 A 
ATOM     59  C   UNL A   1      45.237  25.102  28.832  1.00  0.00     0.029 A 
ATOM     60  N   UNL A   1      43.818  24.203  30.292  1.00  0.00    -0.354 N 
ATOM     61  N   UNL A   1      43.419  27.410  31.984  1.00  0.00    -0.248 NA
ATOM     62  C   UNL A   1      43.557  28.469  34.022  1.00  0.00     0.031 C 
ATOM     63  C   UNL A   1      45.497  25.644  30.114  1.00  0.00     0.029 A 
ATOM     64  C   UNL A   1      44.589  25.102  31.008  1.00  0.00     0.049 A 
ATOM     65  H   UNL A   1      43.134  23.614  30.683  1.00  0.00     0.167 HD
ATOM     66  C   UNL A   1      44.011  26.520  32.841  1.00  0.00     0.074 A 
ATOM     67  C   UNL A   1      44.077  27.232  34.104  1.00  0.00     0.031 C 
ATOM     68  C   UNL A   1      44.420  25.278  32.444  1.00  0.00     0.037 A 
BRANCH  55  69
ATOM     69  C   UNL A   1      43.659  22.715  26.867  1.00  0.00     0.058 A 
ATOM     70  C   UNL A   1      42.949  21.503  26.689  1.00  0.00     0.135 A 
ATOM     71  C   UNL A   1      44.776  22.857  26.018  1.00  0.00     0.135 A 
ATOM     72  F   UNL A   1      41.805  21.255  27.340  1.00  0.00    -0.206 F 
ATOM     73  C   UNL A   1      43.373  20.479  25.836  1.00  0.00     0.059 A 
ATOM     74  C   UNL A   1      45.246  21.829  25.187  1.00  0.00     0.059 A 
ATOM     75  F   UNL A   1      45.428  24.021  25.915  1.00  0.00    -0.206 F 
ATOM     76  C   UNL A   1      44.543  20.636  25.110  1.00  0.00     0.060 A 
BRANCH  76  77
ATOM     77  S   UNL A   1      45.097  19.284  24.054  1.00  0.00     0.124 S 
ATOM     78  O   UNL A   1      44.541  19.659  22.756  1.00  0.00    -0.237 OA
ATOM     79  O   UNL A   1      46.548  19.376  24.174  1.00  0.00    -0.237 OA
ATOM     80  O   UNL A   1      44.494  18.102  24.666  1.00  0.00    -0.744 OA
ENDBRANCH  76  77
ENDBRANCH  55  69
BRANCH  56  81
ATOM     81  C   UNL A   1      41.269  30.384  32.300  1.00  0.00     0.058 A 
ATOM     82  C   UNL A   1      40.244  29.526  32.745  1.00  0.00     0.135 A 
ATOM     83  C   UNL A   1      41.172  31.738  32.664  1.00  0.00     0.135 A 
ATOM     84  F   UNL A   1      40.268  28.226  32.408  1.00  0.00    -0.206 F 
ATOM     85  C   UNL A   1      39.287  29.939  33.667  1.00  0.00     0.059 A 
ATOM     86  C   UNL A   1      40.213  32.177  33.585  1.00  0.00     0.059 A 
ATOM     87  F   UNL A   1      42.091  32.619  32.243  1.00  0.00    -0.206 F 
ATOM     88  C   UNL A   1      39.327  31.250  34.139  1.00  0.00     0.060 A 
BRANCH  88  89
ATOM     89  S   UNL A   1      38.308  31.656  35.580  1.00  0.00     0.124 S 
ATOM     90  O   UNL A   1      39.091  32.704  36.227  1.00  0.00    -0.237 OA
ATOM     91  O   UNL A   1      37.062  32.104  34.958  1.00  0.00    -0.237 OA
ATOM     92  O   UNL A   1      38.224  30.396  36.307  1.00  0.00    -0.744 OA
ENDBRANCH  88  89
ENDBRANCH  56  81
BRANCH  68  93
ATOM     93  C   UNL A   1      44.824  24.163  33.376  1.00  0.00     0.058 A 
ATOM     94  C   UNL A   1      43.996  23.069  33.678  1.00  0.00     0.135 A 
ATOM     95  C   UNL A   1      46.140  24.093  33.893  1.00  0.00     0.135 A 
ATOM     96  F   UNL A   1      42.772  22.948  33.143  1.00  0.00    -0.206 F 
ATOM     97  C   UNL A   1      44.406  22.027  34.508  1.00  0.00     0.059 A 
ATOM     98  C   UNL A   1      46.591  23.031  34.672  1.00  0.00     0.059 A 
ATOM     99  F   UNL A   1      47.044  25.052  33.643  1.00  0.00    -0.206 F 
ATOM    100  C   UNL A   1      45.705  22.016  35.003  1.00  0.00     0.060 A 
BRANCH 100 101
ATOM    101  S   UNL A   1      46.250  20.643  36.031  1.00  0.00     0.124 S 
ATOM    102  O   UNL A   1      47.701  20.754  35.915  1.00  0.00    -0.237 OA
ATOM    103  O   UNL A   1      45.696  20.981  37.339  1.00  0.00    -0.237 OA
ATOM    104  O   UNL A   1      45.649  19.482  35.385  1.00  0.00    -0.744 OA
ENDBRANCH 100 101
ENDBRANCH  68  93
ENDBRANCH  42  43
ENDBRANCH  34  37
ENDBRANCH  32  33
ENDBRANCH   1  32
TORSDOF 17
ENDMDL
MODEL 3
REMARK VINA RESULT:     -14.1      2.017      3.256
REMARK SMILES Cc1ccc(C(=O)N2C[C@@H](C(=O)NCCCCNC(=O)c3ccc(-c4c5nc(c(-c6c(F)cc(S(=O)(=O)[O-])cc6F)c6ccc([nH]6)c(-c6c(F)cc(S(=O)(=O)[O-])cc6F)c6nc(c(-c7c(F)cc(S(=O)(=O)[O-])cc7F)c7ccc4[nH]7)C=C6)C=C5)cc3)C[C@H](C(=O)N3CCOCC3)C2)cc1F
REMARK SMILES IDX 16 1 15 2 14 3 13 4 11 5 12 6 10 8 8 9 9 10 97 11 88 12
REMARK SMILES IDX 87 13 6 14 7 15 5 16 1 17 2 18 3 19 99 20 4 21 98 22 100 23
REMARK SMILES IDX 89 24 90 25 91 26 92 27 96 28 93 29 95 30 94 31 17 32 18 33
REMARK SMILES IDX 19 34 20 36 21 37 22 38 86 39 23 40 85 41 24 42 25 43 26 44
REMARK SMILES IDX 79 45 27 46 84 47 78 48 80 49 28 50 83 51 77 52 76 53 29 55
REMARK SMILES IDX 63 56 42 57 62 58 43 59 46 60 61 61 81 62 44 63 45 64 60 66
REMARK SMILES IDX 82 67 47 68 30 69 31 70 40 71 32 72 33 73 39 74 41 75 34 76
REMARK SMILES IDX 35 77 36 78 37 79 38 80 64 81 65 82 74 83 66 84 67 85 73 86
REMARK SMILES IDX 75 87 68 88 69 89 70 90 71 91 72 92 48 93 49 94 58 95 50 96
REMARK SMILES IDX 51 97 57 98 59 99 52 100 53 101 54 102 55 103 56 104
REMARK H PARENT 13 7 18 35 80 54 46 65
REMARK Flexibility Score: inf
ROOT
ATOM      1  C   UNL A   1      33.866  31.458  27.875  1.00  0.00     0.023 C 
ENDROOT
BRANCH   1   2
ATOM      2  C   UNL A   1      32.943  30.485  27.138  1.00  0.00     0.023 C 
BRANCH   2   3
ATOM      3  C   UNL A   1      33.621  29.234  26.575  1.00  0.00     0.116 C 
BRANCH   3   4
ATOM      4  N   UNL A   1      33.973  29.394  25.175  1.00  0.00    -0.356 N 
ATOM      5  C   UNL A   1      33.363  28.972  24.040  1.00  0.00     0.224 C 
ATOM      6  O   UNL A   1      33.976  29.092  22.975  1.00  0.00    -0.275 OA
ATOM      7  H   UNL A   1      34.804  29.901  25.023  1.00  0.00     0.163 HD
BRANCH   5   8
ATOM      8  C   UNL A   1      31.966  28.377  24.041  1.00  0.00     0.099 C 
ATOM      9  N   UNL A   1      30.724  26.246  24.352  1.00  0.00    -0.337 N 
ATOM     10  C   UNL A   1      31.992  26.940  24.532  1.00  0.00     0.133 C 
ATOM     11  C   UNL A   1      30.104  26.328  23.034  1.00  0.00     0.133 C 
ATOM     12  C   UNL A   1      29.937  27.777  22.543  1.00  0.00     0.099 C 
ATOM     13  C   UNL A   1      31.185  28.632  22.746  1.00  0.00     0.030 C 
BRANCH   9  14
ATOM     14  C   UNL A   1      30.308  25.413  25.383  1.00  0.00     0.254 C 
ATOM     15  O   UNL A   1      29.458  25.750  26.206  1.00  0.00    -0.269 OA
BRANCH  14  16
ATOM     16  C   UNL A   1      30.972  24.106  25.600  1.00  0.00     0.042 A 
ATOM     17  C   UNL A   1      33.740  20.846  26.053  1.00  0.00     0.047 C 
ATOM     18  C   UNL A   1      32.712  21.926  25.900  1.00  0.00    -0.015 A 
ATOM     19  C   UNL A   1      32.079  22.156  24.672  1.00  0.00     0.007 A 
ATOM     20  C   UNL A   1      32.430  22.775  26.975  1.00  0.00     0.126 A 
ATOM     21  C   UNL A   1      31.216  23.247  24.520  1.00  0.00     0.014 A 
ATOM     22  C   UNL A   1      31.575  23.862  26.835  1.00  0.00     0.053 A 
ATOM     23  F   UNL A   1      33.034  22.574  28.155  1.00  0.00    -0.207 F 
ENDBRANCH  14  16
ENDBRANCH   9  14
BRANCH  12  24
ATOM     24  C   UNL A   1      28.548  28.294  22.946  1.00  0.00     0.227 C 
ATOM     25  O   UNL A   1      27.914  27.641  23.787  1.00  0.00    -0.275 OA
ATOM     26  N   UNL A   1      28.131  29.555  22.607  1.00  0.00    -0.338 N 
ATOM     27  C   UNL A   1      28.093  30.165  21.279  1.00  0.00     0.148 C 
ATOM     28  C   UNL A   1      27.434  30.361  23.607  1.00  0.00     0.148 C 
ATOM     29  C   UNL A   1      28.666  31.588  21.339  1.00  0.00     0.181 C 
ATOM     30  C   UNL A   1      28.033  31.773  23.614  1.00  0.00     0.181 C 
ATOM     31  O   UNL A   1      27.945  32.374  22.309  1.00  0.00    -0.378 OA
ENDBRANCH  12  24
ENDBRANCH   5   8
ENDBRANCH   3   4
ENDBRANCH   2   3
ENDBRANCH   1   2
BRANCH   1  32
ATOM     32  C   UNL A   1      35.341  31.235  27.618  1.00  0.00     0.116 C 
BRANCH  32  33
ATOM     33  N   UNL A   1      36.189  31.720  28.696  1.00  0.00    -0.352 N 
ATOM     34  C   UNL A   1      36.518  30.811  29.701  1.00  0.00     0.251 C 
ATOM     35  H   UNL A   1      36.515  32.648  28.715  1.00  0.00     0.163 HD
ATOM     36  O   UNL A   1      35.850  30.690  30.706  1.00  0.00    -0.269 OA
BRANCH  34  37
ATOM     37  C   UNL A   1      37.561  29.815  29.297  1.00  0.00     0.039 A 
ATOM     38  C   UNL A   1      38.366  30.063  28.181  1.00  0.00     0.014 A 
ATOM     39  C   UNL A   1      37.886  28.778  30.176  1.00  0.00     0.014 A 
ATOM     40  C   UNL A   1      39.560  29.353  28.022  1.00  0.00     0.010 A 
ATOM     41  C   UNL A   1      39.103  28.159  30.081  1.00  0.00     0.010 A 
ATOM     42  C   UNL A   1      39.949  28.443  29.011  1.00  0.00    -0.014 A 
BRANCH  42  43
ATOM     43  C   UNL A   1      41.239  27.765  29.061  1.00  0.00     0.031 A 
ATOM     44  C   UNL A   1      41.389  26.370  28.595  1.00  0.00     0.074 A 
ATOM     45  C   UNL A   1      42.310  28.480  29.473  1.00  0.00     0.049 A 
ATOM     46  N   UNL A   1      42.283  25.548  29.029  1.00  0.00    -0.248 NA
ATOM     47  C   UNL A   1      40.521  25.783  27.578  1.00  0.00     0.031 C 
ATOM     48  C   UNL A   1      43.719  28.117  29.451  1.00  0.00     0.029 A 
ATOM     49  N   UNL A   1      42.336  29.701  30.129  1.00  0.00    -0.354 N 
ATOM     50  C   UNL A   1      42.316  24.466  28.172  1.00  0.00     0.074 A 
ATOM     51  C   UNL A   1      41.136  24.616  27.349  1.00  0.00     0.031 C 
ATOM     52  C   UNL A   1      44.369  28.890  30.345  1.00  0.00     0.029 A 
ATOM     53  C   UNL A   1      43.360  29.658  31.062  1.00  0.00     0.049 A 
ATOM     54  H   UNL A   1      41.735  30.463  29.962  1.00  0.00     0.167 HD
ATOM     55  C   UNL A   1      43.425  23.664  28.156  1.00  0.00     0.037 A 
ATOM     56  C   UNL A   1      43.109  29.572  32.407  1.00  0.00     0.037 A 
ATOM     57  C   UNL A   1      44.396  24.129  29.151  1.00  0.00     0.049 A 
ATOM     58  C   UNL A   1      43.673  28.301  33.002  1.00  0.00     0.074 A 
ATOM     59  C   UNL A   1      45.505  24.953  29.035  1.00  0.00     0.029 A 
ATOM     60  N   UNL A   1      44.108  24.046  30.511  1.00  0.00    -0.354 N 
ATOM     61  N   UNL A   1      43.867  27.203  32.323  1.00  0.00    -0.248 NA
ATOM     62  C   UNL A   1      44.106  28.185  34.391  1.00  0.00     0.031 C 
ATOM     63  C   UNL A   1      45.826  25.441  30.324  1.00  0.00     0.029 A 
ATOM     64  C   UNL A   1      44.930  24.896  31.230  1.00  0.00     0.049 A 
ATOM     65  H   UNL A   1      43.419  23.465  30.905  1.00  0.00     0.167 HD
ATOM     66  C   UNL A   1      44.460  26.266  33.129  1.00  0.00     0.074 A 
ATOM     67  C   UNL A   1      44.589  26.930  34.413  1.00  0.00     0.031 C 
ATOM     68  C   UNL A   1      44.815  25.027  32.676  1.00  0.00     0.037 A 
BRANCH  55  69
ATOM     69  C   UNL A   1      43.789  22.685  27.044  1.00  0.00     0.058 A 
ATOM     70  C   UNL A   1      42.976  21.556  26.783  1.00  0.00     0.135 A 
ATOM     71  C   UNL A   1      44.934  22.770  26.227  1.00  0.00     0.135 A 
ATOM     72  F   UNL A   1      41.798  21.379  27.396  1.00  0.00    -0.206 F 
ATOM     73  C   UNL A   1      43.325  20.546  25.881  1.00  0.00     0.059 A 
ATOM     74  C   UNL A   1      45.328  21.751  25.347  1.00  0.00     0.059 A 
ATOM     75  F   UNL A   1      45.693  23.873  26.204  1.00  0.00    -0.206 F 
ATOM     76  C   UNL A   1      44.521  20.635  25.188  1.00  0.00     0.060 A 
BRANCH  76  77
ATOM     77  S   UNL A   1      44.976  19.298  24.065  1.00  0.00     0.124 S 
ATOM     78  O   UNL A   1      46.433  19.304  24.154  1.00  0.00    -0.237 OA
ATOM     79  O   UNL A   1      44.308  18.150  24.670  1.00  0.00    -0.237 OA
ATOM     80  O   UNL A   1      44.432  19.731  22.780  1.00  0.00    -0.744 OA
ENDBRANCH  76  77
ENDBRANCH  55  69
BRANCH  56  81
ATOM     81  C   UNL A   1      41.824  30.228  32.815  1.00  0.00     0.058 A 
ATOM     82  C   UNL A   1      40.770  29.382  33.214  1.00  0.00     0.135 A 
ATOM     83  C   UNL A   1      41.790  31.555  33.276  1.00  0.00     0.135 A 
ATOM     84  F   UNL A   1      40.735  28.110  32.784  1.00  0.00    -0.206 F 
ATOM     85  C   UNL A   1      39.845  29.767  34.179  1.00  0.00     0.059 A 
ATOM     86  C   UNL A   1      40.863  31.966  34.242  1.00  0.00     0.059 A 
ATOM     87  F   UNL A   1      42.739  32.426  32.903  1.00  0.00    -0.206 F 
ATOM     88  C   UNL A   1      39.946  31.038  34.743  1.00  0.00     0.060 A 
BRANCH  88  89
ATOM     89  S   UNL A   1      38.966  31.381  36.227  1.00  0.00     0.124 S 
ATOM     90  O   UNL A   1      39.967  31.921  37.141  1.00  0.00    -0.237 OA
ATOM     91  O   UNL A   1      37.989  32.350  35.731  1.00  0.00    -0.237 OA
ATOM     92  O   UNL A   1      38.423  30.078  36.588  1.00  0.00    -0.744 OA
ENDBRANCH  88  89
ENDBRANCH  56  81
BRANCH  68  93
ATOM     93  C   UNL A   1      45.214  23.867  33.555  1.00  0.00     0.058 A 
ATOM     94  C   UNL A   1      46.474  23.758  34.167  1.00  0.00     0.135 A 
ATOM     95  C   UNL A   1      44.268  22.881  33.926  1.00  0.00     0.135 A 
ATOM     96  F   UNL A   1      47.415  24.699  34.005  1.00  0.00    -0.206 F 
ATOM     97  C   UNL A   1      46.805  22.700  35.012  1.00  0.00     0.059 A 
ATOM     98  C   UNL A   1      44.559  21.850  34.815  1.00  0.00     0.059 A 
ATOM     99  F   UNL A   1      43.015  22.894  33.446  1.00  0.00    -0.206 F 
ATOM    100  C   UNL A   1      45.843  21.748  35.329  1.00  0.00     0.060 A 
BRANCH 100 101
ATOM    101  S   UNL A   1      46.257  20.411  36.461  1.00  0.00     0.124 S 
ATOM    102  O   UNL A   1      45.837  20.974  37.739  1.00  0.00    -0.237 OA
ATOM    103  O   UNL A   1      45.445  19.304  35.962  1.00  0.00    -0.237 OA
ATOM    104  O   UNL A   1      47.696  20.254  36.280  1.00  0.00    -0.744 OA
ENDBRANCH 100 101
ENDBRANCH  68  93
ENDBRANCH  42  43
ENDBRANCH  34  37
ENDBRANCH  32  33
ENDBRANCH   1  32
TORSDOF 17
ENDMDL
