MODEL 1
REMARK VINA RESULT:     -12.1      0.000      0.000
REMARK SMILES C[C@H]1[C@H](C(=O)NCCCCNC(=O)c2ccc(-c3c4nc(c(-c5c(F)cc(S(=O)(=O)[O-])cc5F)c5ccc([nH]5)c(-c5c(F)cc(S(=O)(=O)[O-])cc5F)c5nc(c(-c6c(F)cc(S(=O)(=O)[O-])cc6F)c6ccc3[nH]6)C=C5)C=C4)cc2)CC[N@@H+]1Cc1cnn(-c2ccccc2)c1
REMARK SMILES IDX 8 1 7 2 6 3 4 4 5 5 3 7 1 8 2 9 82 10 80 11 81 12 83 14
REMARK SMILES IDX 84 15 85 16 94 17 86 18 87 19 88 20 89 21 93 22 90 23 92 24
REMARK SMILES IDX 91 25 9 26 10 27 11 28 12 29 13 31 14 32 15 33 79 34 16 35
REMARK SMILES IDX 78 36 17 37 18 38 19 39 72 40 20 41 77 42 71 43 73 44 21 45
REMARK SMILES IDX 76 46 70 47 69 48 22 50 56 51 35 52 55 53 36 54 39 55 54 56
REMARK SMILES IDX 74 57 37 58 38 59 53 61 75 62 40 63 23 64 24 65 33 66 25 67
REMARK SMILES IDX 26 68 32 69 34 70 27 71 28 72 29 73 30 74 31 75 57 76 58 77
REMARK SMILES IDX 67 78 59 79 60 80 66 81 68 82 61 83 62 84 63 85 64 86 65 87
REMARK SMILES IDX 41 88 42 89 51 90 43 91 44 92 50 93 52 94 45 95 46 96 47 97
REMARK SMILES IDX 48 98 49 99
REMARK H PARENT 6 6 82 13 11 30 73 49 39 60
REMARK Flexibility Score: inf
ROOT
ATOM      1  C   UNL A   1      31.594  27.467  27.039  1.00  0.00     0.023 C 
ENDROOT
BRANCH   1   2
ATOM      2  C   UNL A   1      31.508  26.124  26.308  1.00  0.00     0.116 C 
BRANCH   2   3
ATOM      3  N   UNL A   1      31.137  24.891  26.963  1.00  0.00    -0.356 N 
ATOM      4  C   UNL A   1      31.787  23.686  26.812  1.00  0.00     0.229 C 
ATOM      5  O   UNL A   1      31.886  22.972  27.816  1.00  0.00    -0.275 OA
ATOM      6  H   UNL A   1      30.357  24.913  27.564  1.00  0.00     0.163 HD
BRANCH   4   7
ATOM      7  C   UNL A   1      32.340  23.165  25.476  1.00  0.00     0.142 C 
ATOM      8  C   UNL A   1      31.125  23.115  23.297  1.00  0.00     0.076 C 
ATOM      9  C   UNL A   1      32.063  23.960  24.191  1.00  0.00     0.193 C 
ATOM     10  N   UNL A   1      33.383  24.184  23.546  1.00  0.00    -0.328 N 
ATOM     11  C   UNL A   1      33.835  22.841  25.433  1.00  0.00     0.081 C 
ATOM     12  C   UNL A   1      34.215  23.062  23.973  1.00  0.00     0.263 C 
ATOM     13  H   UNL A   1      33.231  24.215  22.539  1.00  0.00     0.348 HD
BRANCH  10  14
ATOM     14  C   UNL A   1      34.042  25.520  23.660  1.00  0.00     0.302 C 
BRANCH  14  15
ATOM     15  C   UNL A   1      33.272  26.772  23.245  1.00  0.00     0.045 A 
ATOM     16  C   UNL A   1      33.671  28.134  23.246  1.00  0.00     0.145 A 
ATOM     17  C   UNL A   1      32.055  26.880  22.585  1.00  0.00     0.124 A 
ATOM     18  N   UNL A   1      32.721  28.987  22.836  1.00  0.00    -0.176 NA
ATOM     19  N   UNL A   1      31.633  28.202  22.649  1.00  0.00    -0.240 N 
BRANCH  19  20
ATOM     20  C   UNL A   1      30.308  28.745  22.500  1.00  0.00     0.065 A 
ATOM     21  C   UNL A   1      29.233  28.118  23.126  1.00  0.00     0.028 A 
ATOM     22  C   UNL A   1      30.022  29.904  21.750  1.00  0.00     0.028 A 
ATOM     23  C   UNL A   1      27.955  28.709  23.092  1.00  0.00     0.002 A 
ATOM     24  C   UNL A   1      28.762  30.509  21.738  1.00  0.00     0.002 A 
ATOM     25  C   UNL A   1      27.726  29.915  22.425  1.00  0.00     0.000 A 
ENDBRANCH  19  20
ENDBRANCH  14  15
ENDBRANCH  10  14
ENDBRANCH   4   7
ENDBRANCH   2   3
ENDBRANCH   1   2
BRANCH   1  26
ATOM     26  C   UNL A   1      32.329  28.706  26.441  1.00  0.00     0.023 C 
BRANCH  26  27
ATOM     27  C   UNL A   1      33.614  29.394  26.981  1.00  0.00     0.116 C 
BRANCH  27  28
ATOM     28  N   UNL A   1      33.544  30.529  27.885  1.00  0.00    -0.352 N 
ATOM     29  C   UNL A   1      34.625  31.087  28.571  1.00  0.00     0.251 C 
ATOM     30  H   UNL A   1      32.660  30.940  28.024  1.00  0.00     0.163 HD
ATOM     31  O   UNL A   1      34.500  32.158  29.160  1.00  0.00    -0.269 OA
BRANCH  29  32
ATOM     32  C   UNL A   1      35.936  30.375  28.625  1.00  0.00     0.039 A 
ATOM     33  C   UNL A   1      36.767  30.360  27.505  1.00  0.00     0.014 A 
ATOM     34  C   UNL A   1      36.350  29.697  29.769  1.00  0.00     0.014 A 
ATOM     35  C   UNL A   1      38.050  29.779  27.580  1.00  0.00     0.010 A 
ATOM     36  C   UNL A   1      37.661  29.177  29.859  1.00  0.00     0.010 A 
ATOM     37  C   UNL A   1      38.563  29.255  28.788  1.00  0.00    -0.014 A 
BRANCH  37  38
ATOM     38  C   UNL A   1      40.036  28.928  28.932  1.00  0.00     0.031 A 
ATOM     39  C   UNL A   1      40.655  27.594  28.540  1.00  0.00     0.074 A 
ATOM     40  C   UNL A   1      40.858  29.836  29.514  1.00  0.00     0.049 A 
ATOM     41  N   UNL A   1      41.915  27.218  28.602  1.00  0.00    -0.248 NA
ATOM     42  C   UNL A   1      39.755  26.537  28.065  1.00  0.00     0.031 C 
ATOM     43  C   UNL A   1      40.432  31.113  30.092  1.00  0.00     0.029 A 
ATOM     44  N   UNL A   1      42.224  29.837  29.715  1.00  0.00    -0.354 N 
ATOM     45  C   UNL A   1      41.953  25.885  28.197  1.00  0.00     0.074 A 
ATOM     46  C   UNL A   1      40.577  25.500  27.954  1.00  0.00     0.031 C 
ATOM     47  C   UNL A   1      41.507  31.803  30.500  1.00  0.00     0.029 A 
ATOM     48  C   UNL A   1      42.706  31.004  30.269  1.00  0.00     0.049 A 
ATOM     49  H   UNL A   1      42.801  29.074  29.483  1.00  0.00     0.167 HD
ATOM     50  C   UNL A   1      43.019  25.062  28.007  1.00  0.00     0.037 A 
ATOM     51  C   UNL A   1      43.960  31.411  30.559  1.00  0.00     0.037 A 
ATOM     52  C   UNL A   1      44.402  25.440  28.191  1.00  0.00     0.049 A 
ATOM     53  C   UNL A   1      45.135  30.517  30.270  1.00  0.00     0.074 A 
ATOM     54  C   UNL A   1      45.541  24.699  27.907  1.00  0.00     0.029 A 
ATOM     55  N   UNL A   1      44.841  26.649  28.704  1.00  0.00    -0.354 N 
ATOM     56  N   UNL A   1      45.144  29.308  29.765  1.00  0.00    -0.248 NA
ATOM     57  C   UNL A   1      46.473  31.045  30.583  1.00  0.00     0.031 C 
ATOM     58  C   UNL A   1      46.664  25.442  28.288  1.00  0.00     0.029 A 
ATOM     59  C   UNL A   1      46.229  26.668  28.761  1.00  0.00     0.049 A 
ATOM     60  H   UNL A   1      44.256  27.388  28.988  1.00  0.00     0.167 HD
ATOM     61  C   UNL A   1      46.485  28.944  29.677  1.00  0.00     0.074 A 
ATOM     62  C   UNL A   1      47.259  30.065  30.161  1.00  0.00     0.031 C 
ATOM     63  C   UNL A   1      47.017  27.780  29.231  1.00  0.00     0.037 A 
BRANCH  50  64
ATOM     64  C   UNL A   1      42.752  23.652  27.528  1.00  0.00     0.058 A 
ATOM     65  C   UNL A   1      42.762  23.327  26.161  1.00  0.00     0.135 A 
ATOM     66  C   UNL A   1      42.561  22.599  28.441  1.00  0.00     0.135 A 
ATOM     67  F   UNL A   1      42.949  24.287  25.240  1.00  0.00    -0.206 F 
ATOM     68  C   UNL A   1      42.546  22.028  25.715  1.00  0.00     0.059 A 
ATOM     69  C   UNL A   1      42.377  21.284  28.018  1.00  0.00     0.059 A 
ATOM     70  F   UNL A   1      42.565  22.840  29.761  1.00  0.00    -0.206 F 
ATOM     71  C   UNL A   1      42.350  21.011  26.652  1.00  0.00     0.060 A 
BRANCH  71  72
ATOM     72  S   UNL A   1      42.063  19.334  26.049  1.00  0.00     0.124 S 
ATOM     73  O   UNL A   1      42.895  19.310  24.851  1.00  0.00    -0.237 OA
ATOM     74  O   UNL A   1      42.529  18.516  27.161  1.00  0.00    -0.237 OA
ATOM     75  O   UNL A   1      40.620  19.300  25.811  1.00  0.00    -0.744 OA
ENDBRANCH  71  72
ENDBRANCH  50  64
BRANCH  51  76
ATOM     76  C   UNL A   1      44.185  32.773  31.125  1.00  0.00     0.058 A 
ATOM     77  C   UNL A   1      44.281  32.969  32.513  1.00  0.00     0.135 A 
ATOM     78  C   UNL A   1      44.312  33.899  30.297  1.00  0.00     0.135 A 
ATOM     79  F   UNL A   1      44.156  31.926  33.348  1.00  0.00    -0.206 F 
ATOM     80  C   UNL A   1      44.473  34.233  33.060  1.00  0.00     0.059 A 
ATOM     81  C   UNL A   1      44.536  35.169  30.820  1.00  0.00     0.059 A 
ATOM     82  F   UNL A   1      44.248  33.764  28.964  1.00  0.00    -0.206 F 
ATOM     83  C   UNL A   1      44.604  35.327  32.205  1.00  0.00     0.060 A 
BRANCH  83  84
ATOM     84  S   UNL A   1      44.909  36.956  32.923  1.00  0.00     0.124 S 
ATOM     85  O   UNL A   1      44.016  37.796  32.136  1.00  0.00    -0.237 OA
ATOM     86  O   UNL A   1      44.530  36.750  34.317  1.00  0.00    -0.237 OA
ATOM     87  O   UNL A   1      46.336  37.161  32.694  1.00  0.00    -0.744 OA
ENDBRANCH  83  84
ENDBRANCH  51  76
BRANCH  63  88
ATOM     88  C   UNL A   1      48.519  27.655  29.204  1.00  0.00     0.058 A 
ATOM     89  C   UNL A   1      49.283  28.116  28.118  1.00  0.00     0.135 A 
ATOM     90  C   UNL A   1      49.209  27.108  30.297  1.00  0.00     0.135 A 
ATOM     91  F   UNL A   1      48.680  28.640  27.040  1.00  0.00    -0.206 F 
ATOM     92  C   UNL A   1      50.674  28.019  28.111  1.00  0.00     0.059 A 
ATOM     93  C   UNL A   1      50.599  27.028  30.324  1.00  0.00     0.059 A 
ATOM     94  F   UNL A   1      48.533  26.657  31.366  1.00  0.00    -0.206 F 
ATOM     95  C   UNL A   1      51.323  27.476  29.221  1.00  0.00     0.060 A 
BRANCH  95  96
ATOM     96  S   UNL A   1      53.128  27.390  29.212  1.00  0.00     0.124 S 
ATOM     97  O   UNL A   1      53.374  26.448  28.125  1.00  0.00    -0.237 OA
ATOM     98  O   UNL A   1      53.505  28.775  28.949  1.00  0.00    -0.237 OA
ATOM     99  O   UNL A   1      53.451  26.901  30.549  1.00  0.00    -0.744 OA
ENDBRANCH  95  96
ENDBRANCH  63  88
ENDBRANCH  37  38
ENDBRANCH  29  32
ENDBRANCH  27  28
ENDBRANCH  26  27
ENDBRANCH   1  26
TORSDOF 17
ENDMDL
MODEL 2
REMARK VINA RESULT:     -11.9      2.460      9.097
REMARK SMILES C[C@H]1[C@H](C(=O)NCCCCNC(=O)c2ccc(-c3c4nc(c(-c5c(F)cc(S(=O)(=O)[O-])cc5F)c5ccc([nH]5)c(-c5c(F)cc(S(=O)(=O)[O-])cc5F)c5nc(c(-c6c(F)cc(S(=O)(=O)[O-])cc6F)c6ccc3[nH]6)C=C5)C=C4)cc2)CC[N@@H+]1Cc1cnn(-c2ccccc2)c1
REMARK SMILES IDX 8 1 7 2 6 3 4 4 5 5 3 7 1 8 2 9 82 10 80 11 81 12 83 14
REMARK SMILES IDX 84 15 85 16 94 17 86 18 87 19 88 20 89 21 93 22 90 23 92 24
REMARK SMILES IDX 91 25 9 26 10 27 11 28 12 29 13 31 14 32 15 33 79 34 16 35
REMARK SMILES IDX 78 36 17 37 18 38 19 39 72 40 20 41 77 42 71 43 73 44 21 45
REMARK SMILES IDX 76 46 70 47 69 48 22 50 56 51 35 52 55 53 36 54 39 55 54 56
REMARK SMILES IDX 74 57 37 58 38 59 53 61 75 62 40 63 23 64 24 65 33 66 25 67
REMARK SMILES IDX 26 68 32 69 34 70 27 71 28 72 29 73 30 74 31 75 57 76 58 77
REMARK SMILES IDX 67 78 59 79 60 80 66 81 68 82 61 83 62 84 63 85 64 86 65 87
REMARK SMILES IDX 41 88 42 89 51 90 43 91 44 92 50 93 52 94 45 95 46 96 47 97
REMARK SMILES IDX 48 98 49 99
REMARK H PARENT 6 6 82 13 11 30 73 49 39 60
REMARK Flexibility Score: inf
ROOT
ATOM      1  C   UNL A   1      35.357  31.489  27.978  1.00  0.00     0.023 C 
ENDROOT
BRANCH   1   2
ATOM      2  C   UNL A   1      33.988  30.960  27.539  1.00  0.00     0.116 C 
BRANCH   2   3
ATOM      3  N   UNL A   1      33.635  29.561  27.575  1.00  0.00    -0.356 N 
ATOM      4  C   UNL A   1      33.485  28.753  26.469  1.00  0.00     0.229 C 
ATOM      5  O   UNL A   1      33.875  27.584  26.569  1.00  0.00    -0.275 OA
ATOM      6  H   UNL A   1      33.490  29.151  28.458  1.00  0.00     0.163 HD
BRANCH   4   7
ATOM      7  C   UNL A   1      32.820  29.200  25.158  1.00  0.00     0.142 C 
ATOM      8  C   UNL A   1      33.562  28.605  22.851  1.00  0.00     0.076 C 
ATOM      9  C   UNL A   1      32.645  28.181  24.021  1.00  0.00     0.193 C 
ATOM     10  N   UNL A   1      31.209  28.224  23.639  1.00  0.00    -0.328 N 
ATOM     11  C   UNL A   1      31.464  29.900  25.281  1.00  0.00     0.081 C 
ATOM     12  C   UNL A   1      30.765  29.577  23.965  1.00  0.00     0.263 C 
ATOM     13  H   UNL A   1      31.150  28.006  22.646  1.00  0.00     0.348 HD
BRANCH  10  14
ATOM     14  C   UNL A   1      30.290  27.143  24.106  1.00  0.00     0.302 C 
BRANCH  14  15
ATOM     15  C   UNL A   1      30.853  25.983  24.926  1.00  0.00     0.045 A 
ATOM     16  C   UNL A   1      30.970  25.828  26.331  1.00  0.00     0.145 A 
ATOM     17  C   UNL A   1      31.219  24.708  24.513  1.00  0.00     0.124 A 
ATOM     18  N   UNL A   1      31.544  24.676  26.712  1.00  0.00    -0.176 NA
ATOM     19  N   UNL A   1      31.909  24.090  25.548  1.00  0.00    -0.240 N 
BRANCH  19  20
ATOM     20  C   UNL A   1      32.826  22.981  25.498  1.00  0.00     0.065 A 
ATOM     21  C   UNL A   1      33.747  22.802  26.527  1.00  0.00     0.028 A 
ATOM     22  C   UNL A   1      32.846  22.035  24.452  1.00  0.00     0.028 A 
ATOM     23  C   UNL A   1      34.561  21.653  26.553  1.00  0.00     0.002 A 
ATOM     24  C   UNL A   1      33.631  20.879  24.488  1.00  0.00     0.002 A 
ATOM     25  C   UNL A   1      34.483  20.680  25.553  1.00  0.00     0.000 A 
ENDBRANCH  19  20
ENDBRANCH  14  15
ENDBRANCH  10  14
ENDBRANCH   4   7
ENDBRANCH   2   3
ENDBRANCH   1   2
BRANCH   1  26
ATOM     26  C   UNL A   1      35.525  32.588  29.072  1.00  0.00     0.023 C 
BRANCH  26  27
ATOM     27  C   UNL A   1      36.091  32.412  30.510  1.00  0.00     0.116 C 
BRANCH  27  28
ATOM     28  N   UNL A   1      35.858  31.197  31.271  1.00  0.00    -0.352 N 
ATOM     29  C   UNL A   1      36.813  30.214  31.541  1.00  0.00     0.251 C 
ATOM     30  H   UNL A   1      34.952  31.056  31.629  1.00  0.00     0.163 HD
ATOM     31  O   UNL A   1      36.574  29.322  32.350  1.00  0.00    -0.269 OA
BRANCH  29  32
ATOM     32  C   UNL A   1      38.124  30.215  30.825  1.00  0.00     0.039 A 
ATOM     33  C   UNL A   1      39.295  30.519  31.519  1.00  0.00     0.014 A 
ATOM     34  C   UNL A   1      38.210  29.940  29.463  1.00  0.00     0.014 A 
ATOM     35  C   UNL A   1      40.546  30.423  30.875  1.00  0.00     0.010 A 
ATOM     36  C   UNL A   1      39.469  29.779  28.843  1.00  0.00     0.010 A 
ATOM     37  C   UNL A   1      40.669  29.960  29.547  1.00  0.00    -0.014 A 
BRANCH  37  38
ATOM     38  C   UNL A   1      42.018  29.563  28.981  1.00  0.00     0.031 A 
ATOM     39  C   UNL A   1      43.198  30.514  28.845  1.00  0.00     0.074 A 
ATOM     40  C   UNL A   1      42.183  28.309  28.489  1.00  0.00     0.049 A 
ATOM     41  N   UNL A   1      44.410  30.268  28.392  1.00  0.00    -0.248 NA
ATOM     42  C   UNL A   1      42.989  31.919  29.214  1.00  0.00     0.031 C 
ATOM     43  C   UNL A   1      41.131  27.295  28.392  1.00  0.00     0.029 A 
ATOM     44  N   UNL A   1      43.294  27.664  27.985  1.00  0.00    -0.354 N 
ATOM     45  C   UNL A   1      45.093  31.483  28.403  1.00  0.00     0.074 A 
ATOM     46  C   UNL A   1      44.137  32.477  28.847  1.00  0.00     0.031 C 
ATOM     47  C   UNL A   1      41.656  26.145  27.946  1.00  0.00     0.029 A 
ATOM     48  C   UNL A   1      43.075  26.340  27.667  1.00  0.00     0.049 A 
ATOM     49  H   UNL A   1      44.164  28.108  27.862  1.00  0.00     0.167 HD
ATOM     50  C   UNL A   1      46.394  31.754  28.111  1.00  0.00     0.037 A 
ATOM     51  C   UNL A   1      43.902  25.374  27.214  1.00  0.00     0.037 A 
ATOM     52  C   UNL A   1      47.378  30.771  27.719  1.00  0.00     0.049 A 
ATOM     53  C   UNL A   1      45.357  25.673  26.971  1.00  0.00     0.074 A 
ATOM     54  C   UNL A   1      48.740  30.950  27.521  1.00  0.00     0.029 A 
ATOM     55  N   UNL A   1      47.119  29.434  27.463  1.00  0.00    -0.354 N 
ATOM     56  N   UNL A   1      46.000  26.805  27.115  1.00  0.00    -0.248 NA
ATOM     57  C   UNL A   1      46.201  24.559  26.509  1.00  0.00     0.031 C 
ATOM     58  C   UNL A   1      49.294  29.734  27.103  1.00  0.00     0.029 A 
ATOM     59  C   UNL A   1      48.289  28.784  27.092  1.00  0.00     0.049 A 
ATOM     60  H   UNL A   1      46.235  29.008  27.532  1.00  0.00     0.167 HD
ATOM     61  C   UNL A   1      47.325  26.533  26.788  1.00  0.00     0.074 A 
ATOM     62  C   UNL A   1      47.398  25.128  26.456  1.00  0.00     0.031 C 
ATOM     63  C   UNL A   1      48.382  27.381  26.768  1.00  0.00     0.037 A 
BRANCH  50  64
ATOM     64  C   UNL A   1      46.868  33.184  28.243  1.00  0.00     0.058 A 
ATOM     65  C   UNL A   1      46.786  34.087  27.169  1.00  0.00     0.135 A 
ATOM     66  C   UNL A   1      47.337  33.683  29.472  1.00  0.00     0.135 A 
ATOM     67  F   UNL A   1      46.338  33.674  25.973  1.00  0.00    -0.206 F 
ATOM     68  C   UNL A   1      47.193  35.411  27.293  1.00  0.00     0.059 A 
ATOM     69  C   UNL A   1      47.718  35.014  29.628  1.00  0.00     0.059 A 
ATOM     70  F   UNL A   1      47.417  32.877  30.542  1.00  0.00    -0.206 F 
ATOM     71  C   UNL A   1      47.662  35.866  28.527  1.00  0.00     0.060 A 
BRANCH  71  72
ATOM     72  S   UNL A   1      48.192  37.587  28.660  1.00  0.00     0.124 S 
ATOM     73  O   UNL A   1      48.089  37.813  30.097  1.00  0.00    -0.237 OA
ATOM     74  O   UNL A   1      49.545  37.541  28.120  1.00  0.00    -0.237 OA
ATOM     75  O   UNL A   1      47.218  38.307  27.840  1.00  0.00    -0.744 OA
ENDBRANCH  71  72
ENDBRANCH  50  64
BRANCH  51  76
ATOM     76  C   UNL A   1      43.382  23.993  26.999  1.00  0.00     0.058 A 
ATOM     77  C   UNL A   1      43.074  23.533  25.708  1.00  0.00     0.135 A 
ATOM     78  C   UNL A   1      43.186  23.108  28.070  1.00  0.00     0.135 A 
ATOM     79  F   UNL A   1      43.234  24.344  24.651  1.00  0.00    -0.206 F 
ATOM     80  C   UNL A   1      42.571  22.255  25.489  1.00  0.00     0.059 A 
ATOM     81  C   UNL A   1      42.714  21.814  27.873  1.00  0.00     0.059 A 
ATOM     82  F   UNL A   1      43.483  23.491  29.322  1.00  0.00    -0.206 F 
ATOM     83  C   UNL A   1      42.399  21.400  26.579  1.00  0.00     0.060 A 
BRANCH  83  84
ATOM     84  S   UNL A   1      41.798  19.724  26.277  1.00  0.00     0.124 S 
ATOM     85  O   UNL A   1      40.370  19.951  26.100  1.00  0.00    -0.237 OA
ATOM     86  O   UNL A   1      42.540  19.345  25.079  1.00  0.00    -0.237 OA
ATOM     87  O   UNL A   1      42.180  19.009  27.492  1.00  0.00    -0.744 OA
ENDBRANCH  83  84
ENDBRANCH  51  76
BRANCH  63  88
ATOM     88  C   UNL A   1      49.733  26.818  26.410  1.00  0.00     0.058 A 
ATOM     89  C   UNL A   1      50.511  26.106  27.340  1.00  0.00     0.135 A 
ATOM     90  C   UNL A   1      50.239  26.951  25.107  1.00  0.00     0.135 A 
ATOM     91  F   UNL A   1      50.084  25.953  28.603  1.00  0.00    -0.206 F 
ATOM     92  C   UNL A   1      51.748  25.567  26.994  1.00  0.00     0.059 A 
ATOM     93  C   UNL A   1      51.460  26.396  24.732  1.00  0.00     0.059 A 
ATOM     94  F   UNL A   1      49.538  27.615  24.175  1.00  0.00    -0.206 F 
ATOM     95  C   UNL A   1      52.213  25.714  25.686  1.00  0.00     0.060 A 
BRANCH  95  96
ATOM     96  S   UNL A   1      53.804  24.979  25.244  1.00  0.00     0.124 S 
ATOM     97  O   UNL A   1      54.648  25.413  26.351  1.00  0.00    -0.237 OA
ATOM     98  O   UNL A   1      53.489  23.554  25.207  1.00  0.00    -0.237 OA
ATOM     99  O   UNL A   1      54.108  25.581  23.949  1.00  0.00    -0.744 OA
ENDBRANCH  95  96
ENDBRANCH  63  88
ENDBRANCH  37  38
ENDBRANCH  29  32
ENDBRANCH  27  28
ENDBRANCH  26  27
ENDBRANCH   1  26
TORSDOF 17
ENDMDL
MODEL 3
REMARK VINA RESULT:     -11.9      2.503      9.004
REMARK SMILES C[C@H]1[C@H](C(=O)NCCCCNC(=O)c2ccc(-c3c4nc(c(-c5c(F)cc(S(=O)(=O)[O-])cc5F)c5ccc([nH]5)c(-c5c(F)cc(S(=O)(=O)[O-])cc5F)c5nc(c(-c6c(F)cc(S(=O)(=O)[O-])cc6F)c6ccc3[nH]6)C=C5)C=C4)cc2)CC[N@@H+]1Cc1cnn(-c2ccccc2)c1
REMARK SMILES IDX 8 1 7 2 6 3 4 4 5 5 3 7 1 8 2 9 82 10 80 11 81 12 83 14
REMARK SMILES IDX 84 15 85 16 94 17 86 18 87 19 88 20 89 21 93 22 90 23 92 24
REMARK SMILES IDX 91 25 9 26 10 27 11 28 12 29 13 31 14 32 15 33 79 34 16 35
REMARK SMILES IDX 78 36 17 37 18 38 19 39 72 40 20 41 77 42 71 43 73 44 21 45
REMARK SMILES IDX 76 46 70 47 69 48 22 50 56 51 35 52 55 53 36 54 39 55 54 56
REMARK SMILES IDX 74 57 37 58 38 59 53 61 75 62 40 63 23 64 24 65 33 66 25 67
REMARK SMILES IDX 26 68 32 69 34 70 27 71 28 72 29 73 30 74 31 75 57 76 58 77
REMARK SMILES IDX 67 78 59 79 60 80 66 81 68 82 61 83 62 84 63 85 64 86 65 87
REMARK SMILES IDX 41 88 42 89 51 90 43 91 44 92 50 93 52 94 45 95 46 96 47 97
REMARK SMILES IDX 48 98 49 99
REMARK H PARENT 6 6 82 13 11 30 73 49 39 60
REMARK Flexibility Score: inf
ROOT
ATOM      1  C   UNL A   1      34.368  30.374  27.311  1.00  0.00     0.023 C 
ENDROOT
BRANCH   1   2
ATOM      2  C   UNL A   1      33.016  29.656  27.316  1.00  0.00     0.116 C 
BRANCH   2   3
ATOM      3  N   UNL A   1      32.863  28.258  26.990  1.00  0.00    -0.356 N 
ATOM      4  C   UNL A   1      33.071  27.707  25.744  1.00  0.00     0.229 C 
ATOM      5  O   UNL A   1      33.591  26.587  25.704  1.00  0.00    -0.275 OA
ATOM      6  H   UNL A   1      32.590  27.649  27.714  1.00  0.00     0.163 HD
BRANCH   4   7
ATOM      7  C   UNL A   1      32.649  28.374  24.426  1.00  0.00     0.142 C 
ATOM      8  C   UNL A   1      34.052  28.609  22.376  1.00  0.00     0.076 C 
ATOM      9  C   UNL A   1      33.024  27.705  23.095  1.00  0.00     0.193 C 
ATOM     10  N   UNL A   1      31.762  27.582  22.318  1.00  0.00    -0.328 N 
ATOM     11  C   UNL A   1      31.168  28.741  24.286  1.00  0.00     0.081 C 
ATOM     12  C   UNL A   1      30.916  28.678  22.784  1.00  0.00     0.263 C 
ATOM     13  H   UNL A   1      32.003  27.647  21.330  1.00  0.00     0.348 HD
BRANCH  10  14
ATOM     14  C   UNL A   1      31.072  26.260  22.239  1.00  0.00     0.302 C 
BRANCH  14  15
ATOM     15  C   UNL A   1      31.690  25.049  22.936  1.00  0.00     0.045 A 
ATOM     16  C   UNL A   1      31.200  24.262  24.009  1.00  0.00     0.145 A 
ATOM     17  C   UNL A   1      32.799  24.295  22.574  1.00  0.00     0.124 A 
ATOM     18  N   UNL A   1      32.026  23.277  24.393  1.00  0.00    -0.176 NA
ATOM     19  N   UNL A   1      33.131  23.461  23.634  1.00  0.00    -0.240 N 
BRANCH  19  20
ATOM     20  C   UNL A   1      34.384  22.814  23.928  1.00  0.00     0.065 A 
ATOM     21  C   UNL A   1      35.503  23.095  23.148  1.00  0.00     0.028 A 
ATOM     22  C   UNL A   1      34.557  21.898  24.985  1.00  0.00     0.028 A 
ATOM     23  C   UNL A   1      36.760  22.568  23.503  1.00  0.00     0.002 A 
ATOM     24  C   UNL A   1      35.807  21.396  25.358  1.00  0.00     0.002 A 
ATOM     25  C   UNL A   1      36.917  21.745  24.620  1.00  0.00     0.000 A 
ENDBRANCH  19  20
ENDBRANCH  14  15
ENDBRANCH  10  14
ENDBRANCH   4   7
ENDBRANCH   2   3
ENDBRANCH   1   2
BRANCH   1  26
ATOM     26  C   UNL A   1      34.674  31.603  28.223  1.00  0.00     0.023 C 
BRANCH  26  27
ATOM     27  C   UNL A   1      35.714  31.690  29.375  1.00  0.00     0.116 C 
BRANCH  27  28
ATOM     28  N   UNL A   1      35.623  30.831  30.543  1.00  0.00    -0.352 N 
ATOM     29  C   UNL A   1      36.704  30.236  31.198  1.00  0.00     0.251 C 
ATOM     30  H   UNL A   1      34.725  30.655  30.905  1.00  0.00     0.163 HD
ATOM     31  O   UNL A   1      36.545  29.685  32.284  1.00  0.00    -0.269 OA
BRANCH  29  32
ATOM     32  C   UNL A   1      38.059  30.232  30.571  1.00  0.00     0.039 A 
ATOM     33  C   UNL A   1      39.198  30.280  31.375  1.00  0.00     0.014 A 
ATOM     34  C   UNL A   1      38.222  30.204  29.188  1.00  0.00     0.014 A 
ATOM     35  C   UNL A   1      40.480  30.174  30.797  1.00  0.00     0.010 A 
ATOM     36  C   UNL A   1      39.505  30.029  28.622  1.00  0.00     0.010 A 
ATOM     37  C   UNL A   1      40.660  29.952  29.414  1.00  0.00    -0.014 A 
BRANCH  37  38
ATOM     38  C   UNL A   1      42.006  29.527  28.861  1.00  0.00     0.031 A 
ATOM     39  C   UNL A   1      43.200  30.460  28.715  1.00  0.00     0.074 A 
ATOM     40  C   UNL A   1      42.155  28.264  28.389  1.00  0.00     0.049 A 
ATOM     41  N   UNL A   1      44.409  30.190  28.272  1.00  0.00    -0.248 NA
ATOM     42  C   UNL A   1      43.009  31.873  29.062  1.00  0.00     0.031 C 
ATOM     43  C   UNL A   1      41.088  27.264  28.302  1.00  0.00     0.029 A 
ATOM     44  N   UNL A   1      43.259  27.595  27.899  1.00  0.00    -0.354 N 
ATOM     45  C   UNL A   1      45.110  31.395  28.268  1.00  0.00     0.074 A 
ATOM     46  C   UNL A   1      44.166  32.409  28.692  1.00  0.00     0.031 C 
ATOM     47  C   UNL A   1      41.599  26.099  27.876  1.00  0.00     0.029 A 
ATOM     48  C   UNL A   1      43.022  26.270  27.601  1.00  0.00     0.049 A 
ATOM     49  H   UNL A   1      44.135  28.025  27.773  1.00  0.00     0.167 HD
ATOM     50  C   UNL A   1      46.416  31.643  27.978  1.00  0.00     0.037 A 
ATOM     51  C   UNL A   1      43.837  25.286  27.166  1.00  0.00     0.037 A 
ATOM     52  C   UNL A   1      47.388  30.640  27.605  1.00  0.00     0.049 A 
ATOM     53  C   UNL A   1      45.297  25.560  26.925  1.00  0.00     0.074 A 
ATOM     54  C   UNL A   1      48.753  30.796  27.410  1.00  0.00     0.029 A 
ATOM     55  N   UNL A   1      47.111  29.303  27.368  1.00  0.00    -0.354 N 
ATOM     56  N   UNL A   1      45.955  26.685  27.056  1.00  0.00    -0.248 NA
ATOM     57  C   UNL A   1      46.128  24.428  26.484  1.00  0.00     0.031 C 
ATOM     58  C   UNL A   1      49.291  29.567  27.014  1.00  0.00     0.029 A 
ATOM     59  C   UNL A   1      48.272  28.631  27.012  1.00  0.00     0.049 A 
ATOM     60  H   UNL A   1      46.220  28.891  27.440  1.00  0.00     0.167 HD
ATOM     61  C   UNL A   1      47.278  26.390  26.739  1.00  0.00     0.074 A 
ATOM     62  C   UNL A   1      47.332  24.978  26.429  1.00  0.00     0.031 C 
ATOM     63  C   UNL A   1      48.347  27.222  26.710  1.00  0.00     0.037 A 
BRANCH  50  64
ATOM     64  C   UNL A   1      46.910  33.068  28.090  1.00  0.00     0.058 A 
ATOM     65  C   UNL A   1      47.481  33.556  29.277  1.00  0.00     0.135 A 
ATOM     66  C   UNL A   1      46.887  33.933  26.980  1.00  0.00     0.135 A 
ATOM     67  F   UNL A   1      47.541  32.775  30.368  1.00  0.00    -0.206 F 
ATOM     68  C   UNL A   1      47.964  34.857  29.377  1.00  0.00     0.059 A 
ATOM     69  C   UNL A   1      47.396  35.228  27.048  1.00  0.00     0.059 A 
ATOM     70  F   UNL A   1      46.376  33.519  25.811  1.00  0.00    -0.206 F 
ATOM     71  C   UNL A   1      47.914  35.688  28.257  1.00  0.00     0.060 A 
BRANCH  71  72
ATOM     72  S   UNL A   1      48.539  37.375  28.414  1.00  0.00     0.124 S 
ATOM     73  O   UNL A   1      47.519  38.131  27.697  1.00  0.00    -0.237 OA
ATOM     74  O   UNL A   1      48.572  37.564  29.858  1.00  0.00    -0.237 OA
ATOM     75  O   UNL A   1      49.848  37.314  27.763  1.00  0.00    -0.744 OA
ENDBRANCH  71  72
ENDBRANCH  50  64
BRANCH  51  76
ATOM     76  C   UNL A   1      43.298  23.909  26.970  1.00  0.00     0.058 A 
ATOM     77  C   UNL A   1      43.060  23.066  28.068  1.00  0.00     0.135 A 
ATOM     78  C   UNL A   1      43.009  23.411  25.691  1.00  0.00     0.135 A 
ATOM     79  F   UNL A   1      43.331  23.492  29.312  1.00  0.00    -0.206 F 
ATOM     80  C   UNL A   1      42.575  21.774  27.904  1.00  0.00     0.059 A 
ATOM     81  C   UNL A   1      42.492  22.132  25.504  1.00  0.00     0.059 A 
ATOM     82  F   UNL A   1      43.199  24.182  24.609  1.00  0.00    -0.206 F 
ATOM     83  C   UNL A   1      42.289  21.316  26.617  1.00  0.00     0.060 A 
BRANCH  83  84
ATOM     84  S   UNL A   1      41.606  19.656  26.420  1.00  0.00     0.124 S 
ATOM     85  O   UNL A   1      40.191  19.941  26.223  1.00  0.00    -0.237 OA
ATOM     86  O   UNL A   1      42.330  19.166  25.251  1.00  0.00    -0.237 OA
ATOM     87  O   UNL A   1      41.951  19.001  27.679  1.00  0.00    -0.744 OA
ENDBRANCH  83  84
ENDBRANCH  51  76
BRANCH  63  88
ATOM     88  C   UNL A   1      49.692  26.634  26.368  1.00  0.00     0.058 A 
ATOM     89  C   UNL A   1      50.199  26.651  25.058  1.00  0.00     0.135 A 
ATOM     90  C   UNL A   1      50.506  26.085  27.372  1.00  0.00     0.135 A 
ATOM     91  F   UNL A   1      49.463  27.155  24.054  1.00  0.00    -0.206 F 
ATOM     92  C   UNL A   1      51.454  26.127  24.754  1.00  0.00     0.059 A 
ATOM     93  C   UNL A   1      51.775  25.582  27.096  1.00  0.00     0.059 A 
ATOM     94  F   UNL A   1      50.077  26.046  28.643  1.00  0.00    -0.206 F 
ATOM     95  C   UNL A   1      52.236  25.597  25.781  1.00  0.00     0.060 A 
BRANCH  95  96
ATOM     96  S   UNL A   1      53.876  24.954  25.378  1.00  0.00     0.124 S 
ATOM     97  O   UNL A   1      54.628  25.285  26.584  1.00  0.00    -0.237 OA
ATOM     98  O   UNL A   1      53.611  23.535  25.166  1.00  0.00    -0.237 OA
ATOM     99  O   UNL A   1      54.250  25.702  24.182  1.00  0.00    -0.744 OA
ENDBRANCH  95  96
ENDBRANCH  63  88
ENDBRANCH  37  38
ENDBRANCH  29  32
ENDBRANCH  27  28
ENDBRANCH  26  27
ENDBRANCH   1  26
TORSDOF 17
ENDMDL
