MODEL 1
REMARK VINA RESULT:     -11.3      0.000      0.000
REMARK SMILES Cc1[nH]ncc1S(=O)(=O)N1CC[C@@H](C(=O)NCCCCNC(=O)c2ccc(-c3c4nc(c(-c5c(F)cc(S(=O)(=O)[O-])cc5F)c5ccc([nH]5)c(-c5c(F)cc(S(=O)(=O)[O-])cc5F)c5nc(c(-c6c(F)cc(S(=O)(=O)[O-])cc6F)c6ccc3[nH]6)C=C5)C=C4)cc2)[C@@H]1C
REMARK SMILES IDX 19 1 18 2 17 3 16 4 14 5 15 6 13 8 10 9 11 10 90 11 12 12
REMARK SMILES IDX 91 13 7 14 8 15 9 16 6 17 1 18 2 19 3 20 4 21 5 23 20 24
REMARK SMILES IDX 21 25 22 26 23 28 24 29 25 30 89 31 26 32 88 33 27 34 28 35
REMARK SMILES IDX 29 36 82 37 30 38 87 39 81 40 83 41 31 42 86 43 80 44 79 45
REMARK SMILES IDX 32 47 66 48 45 49 65 50 46 51 49 52 64 53 84 54 47 55 48 56
REMARK SMILES IDX 63 58 85 59 50 60 33 61 34 62 43 63 35 64 36 65 42 66 44 67
REMARK SMILES IDX 37 68 38 69 39 70 40 71 41 72 67 73 68 74 77 75 69 76 70 77
REMARK SMILES IDX 76 78 78 79 71 80 72 81 73 82 74 83 75 84 51 85 52 86 61 87
REMARK SMILES IDX 53 88 54 89 60 90 62 91 55 92 56 93 57 94 58 95 59 96
REMARK H PARENT 16 7 3 22 21 27 83 46 49 57
REMARK Flexibility Score: inf
ROOT
ATOM      1  C   UNL A   1      33.116  28.080  26.006  1.00  0.00     0.023 C 
ENDROOT
BRANCH   1   2
ATOM      2  C   UNL A   1      31.970  27.138  25.625  1.00  0.00     0.023 C 
BRANCH   2   3
ATOM      3  C   UNL A   1      32.195  25.677  25.996  1.00  0.00     0.116 C 
BRANCH   3   4
ATOM      4  N   UNL A   1      30.989  24.892  26.178  1.00  0.00    -0.356 N 
ATOM      5  C   UNL A   1      30.817  23.678  26.769  1.00  0.00     0.224 C 
ATOM      6  O   UNL A   1      29.743  23.504  27.358  1.00  0.00    -0.275 OA
ATOM      7  H   UNL A   1      30.168  25.300  25.818  1.00  0.00     0.163 HD
BRANCH   5   8
ATOM      8  C   UNL A   1      31.812  22.514  26.717  1.00  0.00     0.098 C 
ATOM      9  N   UNL A   1      34.031  22.655  25.950  1.00  0.00    -0.194 NA
ATOM     10  C   UNL A   1      34.185  22.331  27.358  1.00  0.00     0.104 C 
ATOM     11  C   UNL A   1      32.680  22.318  25.475  1.00  0.00     0.082 C 
ATOM     12  C   UNL A   1      32.774  22.477  27.922  1.00  0.00     0.032 C 
ATOM     13  C   UNL A   1      32.644  20.855  25.019  1.00  0.00     0.026 C 
BRANCH   9  14
ATOM     14  S   UNL A   1      35.199  23.427  25.060  1.00  0.00     0.246 S 
ATOM     15  O   UNL A   1      35.216  24.817  25.471  1.00  0.00    -0.207 OA
ATOM     16  O   UNL A   1      35.035  23.039  23.679  1.00  0.00    -0.207 OA
BRANCH  14  17
ATOM     17  C   UNL A   1      36.802  22.894  25.421  1.00  0.00     0.123 A 
ATOM     18  C   UNL A   1      37.132  20.330  24.793  1.00  0.00     0.067 C 
ATOM     19  C   UNL A   1      37.471  21.682  25.281  1.00  0.00     0.052 A 
ATOM     20  N   UNL A   1      38.738  21.923  25.754  1.00  0.00    -0.281 N 
ATOM     21  N   UNL A   1      38.931  23.172  26.181  1.00  0.00    -0.183 NA
ATOM     22  H   UNL A   1      39.441  21.234  25.776  1.00  0.00     0.190 HD
ATOM     23  C   UNL A   1      37.757  23.769  25.976  1.00  0.00     0.157 A 
ENDBRANCH  14  17
ENDBRANCH   9  14
ENDBRANCH   5   8
ENDBRANCH   3   4
ENDBRANCH   2   3
ENDBRANCH   1   2
BRANCH   1  24
ATOM     24  C   UNL A   1      33.206  28.491  27.480  1.00  0.00     0.116 C 
BRANCH  24  25
ATOM     25  N   UNL A   1      33.277  29.924  27.708  1.00  0.00    -0.352 N 
ATOM     26  C   UNL A   1      34.351  30.690  28.112  1.00  0.00     0.251 C 
ATOM     27  H   UNL A   1      32.440  30.418  27.554  1.00  0.00     0.163 HD
ATOM     28  O   UNL A   1      34.191  31.880  28.368  1.00  0.00    -0.269 OA
BRANCH  26  29
ATOM     29  C   UNL A   1      35.684  30.070  28.311  1.00  0.00     0.039 A 
ATOM     30  C   UNL A   1      36.556  30.013  27.219  1.00  0.00     0.014 A 
ATOM     31  C   UNL A   1      36.100  29.587  29.556  1.00  0.00     0.014 A 
ATOM     32  C   UNL A   1      37.871  29.582  27.401  1.00  0.00     0.010 A 
ATOM     33  C   UNL A   1      37.432  29.218  29.751  1.00  0.00     0.010 A 
ATOM     34  C   UNL A   1      38.339  29.243  28.682  1.00  0.00    -0.014 A 
BRANCH  34  35
ATOM     35  C   UNL A   1      39.790  29.018  28.918  1.00  0.00     0.031 A 
ATOM     36  C   UNL A   1      40.442  27.705  28.588  1.00  0.00     0.074 A 
ATOM     37  C   UNL A   1      40.512  30.002  29.491  1.00  0.00     0.049 A 
ATOM     38  N   UNL A   1      41.695  27.352  28.725  1.00  0.00    -0.248 NA
ATOM     39  C   UNL A   1      39.574  26.643  28.060  1.00  0.00     0.031 C 
ATOM     40  C   UNL A   1      39.978  31.295  29.931  1.00  0.00     0.029 A 
ATOM     41  N   UNL A   1      41.846  30.074  29.806  1.00  0.00    -0.354 N 
ATOM     42  C   UNL A   1      41.769  26.031  28.302  1.00  0.00     0.074 A 
ATOM     43  C   UNL A   1      40.422  25.630  27.952  1.00  0.00     0.031 C 
ATOM     44  C   UNL A   1      40.978  32.041  30.425  1.00  0.00     0.029 A 
ATOM     45  C   UNL A   1      42.218  31.276  30.363  1.00  0.00     0.049 A 
ATOM     46  H   UNL A   1      42.478  29.336  29.647  1.00  0.00     0.167 HD
ATOM     47  C   UNL A   1      42.860  25.234  28.194  1.00  0.00     0.037 A 
ATOM     48  C   UNL A   1      43.423  31.717  30.772  1.00  0.00     0.037 A 
ATOM     49  C   UNL A   1      44.201  25.643  28.531  1.00  0.00     0.049 A 
ATOM     50  C   UNL A   1      44.623  30.827  30.610  1.00  0.00     0.074 A 
ATOM     51  C   UNL A   1      45.378  24.927  28.402  1.00  0.00     0.029 A 
ATOM     52  N   UNL A   1      44.543  26.876  29.067  1.00  0.00    -0.354 N 
ATOM     53  N   UNL A   1      44.684  29.606  30.136  1.00  0.00    -0.248 NA
ATOM     54  C   UNL A   1      45.919  31.378  31.027  1.00  0.00     0.031 C 
ATOM     55  C   UNL A   1      46.428  25.715  28.891  1.00  0.00     0.029 A 
ATOM     56  C   UNL A   1      45.910  26.937  29.289  1.00  0.00     0.049 A 
ATOM     57  H   UNL A   1      43.907  27.603  29.261  1.00  0.00     0.167 HD
ATOM     58  C   UNL A   1      46.025  29.247  30.184  1.00  0.00     0.074 A 
ATOM     59  C   UNL A   1      46.744  30.389  30.712  1.00  0.00     0.031 C 
ATOM     60  C   UNL A   1      46.609  28.076  29.828  1.00  0.00     0.037 A 
BRANCH  47  61
ATOM     61  C   UNL A   1      42.649  23.836  27.677  1.00  0.00     0.058 A 
ATOM     62  C   UNL A   1      42.572  23.568  26.301  1.00  0.00     0.135 A 
ATOM     63  C   UNL A   1      42.553  22.750  28.560  1.00  0.00     0.135 A 
ATOM     64  F   UNL A   1      42.647  24.571  25.411  1.00  0.00    -0.206 F 
ATOM     65  C   UNL A   1      42.376  22.278  25.820  1.00  0.00     0.059 A 
ATOM     66  C   UNL A   1      42.380  21.447  28.101  1.00  0.00     0.059 A 
ATOM     67  F   UNL A   1      42.621  22.948  29.886  1.00  0.00    -0.206 F 
ATOM     68  C   UNL A   1      42.277  21.223  26.728  1.00  0.00     0.060 A 
BRANCH  68  69
ATOM     69  S   UNL A   1      42.014  19.555  26.090  1.00  0.00     0.124 S 
ATOM     70  O   UNL A   1      42.438  18.742  27.227  1.00  0.00    -0.237 OA
ATOM     71  O   UNL A   1      40.582  19.548  25.807  1.00  0.00    -0.237 OA
ATOM     72  O   UNL A   1      42.882  19.498  24.919  1.00  0.00    -0.744 OA
ENDBRANCH  68  69
ENDBRANCH  47  61
BRANCH  48  73
ATOM     73  C   UNL A   1      43.557  33.084  31.338  1.00  0.00     0.058 A 
ATOM     74  C   UNL A   1      43.466  33.303  32.721  1.00  0.00     0.135 A 
ATOM     75  C   UNL A   1      43.800  34.194  30.514  1.00  0.00     0.135 A 
ATOM     76  F   UNL A   1      43.229  32.274  33.547  1.00  0.00    -0.206 F 
ATOM     77  C   UNL A   1      43.597  34.576  33.267  1.00  0.00     0.059 A 
ATOM     78  C   UNL A   1      43.958  35.473  31.039  1.00  0.00     0.059 A 
ATOM     79  F   UNL A   1      43.915  34.033  29.186  1.00  0.00    -0.206 F 
ATOM     80  C   UNL A   1      43.845  35.654  32.416  1.00  0.00     0.060 A 
BRANCH  80  81
ATOM     81  S   UNL A   1      44.071  37.295  33.138  1.00  0.00     0.124 S 
ATOM     82  O   UNL A   1      43.940  38.152  31.966  1.00  0.00    -0.237 OA
ATOM     83  O   UNL A   1      42.977  37.362  34.103  1.00  0.00    -0.237 OA
ATOM     84  O   UNL A   1      45.406  37.221  33.722  1.00  0.00    -0.744 OA
ENDBRANCH  80  81
ENDBRANCH  48  73
BRANCH  60  85
ATOM     85  C   UNL A   1      48.100  27.983  29.993  1.00  0.00     0.058 A 
ATOM     86  C   UNL A   1      48.977  28.359  28.963  1.00  0.00     0.135 A 
ATOM     87  C   UNL A   1      48.659  27.521  31.195  1.00  0.00     0.135 A 
ATOM     88  F   UNL A   1      48.492  28.801  27.792  1.00  0.00    -0.206 F 
ATOM     89  C   UNL A   1      50.356  28.244  29.104  1.00  0.00     0.059 A 
ATOM     90  C   UNL A   1      50.037  27.423  31.367  1.00  0.00     0.059 A 
ATOM     91  F   UNL A   1      47.865  27.160  32.216  1.00  0.00    -0.206 F 
ATOM     92  C   UNL A   1      50.877  27.769  30.310  1.00  0.00     0.060 A 
BRANCH  92  93
ATOM     93  S   UNL A   1      52.668  27.624  30.485  1.00  0.00     0.124 S 
ATOM     94  O   UNL A   1      52.836  27.813  31.923  1.00  0.00    -0.237 OA
ATOM     95  O   UNL A   1      52.926  26.277  29.988  1.00  0.00    -0.237 OA
ATOM     96  O   UNL A   1      53.177  28.704  29.645  1.00  0.00    -0.744 OA
ENDBRANCH  92  93
ENDBRANCH  60  85
ENDBRANCH  34  35
ENDBRANCH  26  29
ENDBRANCH  24  25
ENDBRANCH   1  24
TORSDOF 16
ENDMDL
MODEL 2
REMARK VINA RESULT:     -11.1      3.241      7.794
REMARK SMILES Cc1[nH]ncc1S(=O)(=O)N1CC[C@@H](C(=O)NCCCCNC(=O)c2ccc(-c3c4nc(c(-c5c(F)cc(S(=O)(=O)[O-])cc5F)c5ccc([nH]5)c(-c5c(F)cc(S(=O)(=O)[O-])cc5F)c5nc(c(-c6c(F)cc(S(=O)(=O)[O-])cc6F)c6ccc3[nH]6)C=C5)C=C4)cc2)[C@@H]1C
REMARK SMILES IDX 19 1 18 2 17 3 16 4 14 5 15 6 13 8 10 9 11 10 90 11 12 12
REMARK SMILES IDX 91 13 7 14 8 15 9 16 6 17 1 18 2 19 3 20 4 21 5 23 20 24
REMARK SMILES IDX 21 25 22 26 23 28 24 29 25 30 89 31 26 32 88 33 27 34 28 35
REMARK SMILES IDX 29 36 82 37 30 38 87 39 81 40 83 41 31 42 86 43 80 44 79 45
REMARK SMILES IDX 32 47 66 48 45 49 65 50 46 51 49 52 64 53 84 54 47 55 48 56
REMARK SMILES IDX 63 58 85 59 50 60 33 61 34 62 43 63 35 64 36 65 42 66 44 67
REMARK SMILES IDX 37 68 38 69 39 70 40 71 41 72 67 73 68 74 77 75 69 76 70 77
REMARK SMILES IDX 76 78 78 79 71 80 72 81 73 82 74 83 75 84 51 85 52 86 61 87
REMARK SMILES IDX 53 88 54 89 60 90 62 91 55 92 56 93 57 94 58 95 59 96
REMARK H PARENT 16 7 3 22 21 27 83 46 49 57
REMARK Flexibility Score: inf
ROOT
ATOM      1  C   UNL A   1      37.793  21.411  25.020  1.00  0.00     0.023 C 
ENDROOT
BRANCH   1   2
ATOM      2  C   UNL A   1      36.368  21.411  25.581  1.00  0.00     0.023 C 
BRANCH   2   3
ATOM      3  C   UNL A   1      35.368  20.585  24.780  1.00  0.00     0.116 C 
BRANCH   3   4
ATOM      4  N   UNL A   1      34.309  19.971  25.560  1.00  0.00    -0.356 N 
ATOM      5  C   UNL A   1      32.973  19.893  25.309  1.00  0.00     0.224 C 
ATOM      6  O   UNL A   1      32.402  18.867  25.702  1.00  0.00    -0.275 OA
ATOM      7  H   UNL A   1      34.601  19.547  26.398  1.00  0.00     0.163 HD
BRANCH   5   8
ATOM      8  C   UNL A   1      32.129  20.980  24.635  1.00  0.00     0.098 C 
ATOM      9  N   UNL A   1      32.956  23.006  23.774  1.00  0.00    -0.194 NA
ATOM     10  C   UNL A   1      32.469  22.316  22.593  1.00  0.00     0.104 C 
ATOM     11  C   UNL A   1      32.358  22.446  24.997  1.00  0.00     0.082 C 
ATOM     12  C   UNL A   1      32.155  20.908  23.095  1.00  0.00     0.032 C 
ATOM     13  C   UNL A   1      31.025  23.144  25.285  1.00  0.00     0.026 C 
BRANCH   9  14
ATOM     14  S   UNL A   1      34.131  24.175  23.726  1.00  0.00     0.246 S 
ATOM     15  O   UNL A   1      35.118  23.766  22.746  1.00  0.00    -0.207 OA
ATOM     16  O   UNL A   1      34.493  24.499  25.087  1.00  0.00    -0.207 OA
BRANCH  14  17
ATOM     17  C   UNL A   1      33.571  25.688  23.107  1.00  0.00     0.123 A 
ATOM     18  C   UNL A   1      32.592  25.422  20.647  1.00  0.00     0.067 C 
ATOM     19  C   UNL A   1      32.983  26.082  21.910  1.00  0.00     0.052 A 
ATOM     20  N   UNL A   1      32.773  27.433  22.049  1.00  0.00    -0.281 N 
ATOM     21  N   UNL A   1      33.174  27.927  23.221  1.00  0.00    -0.183 NA
ATOM     22  H   UNL A   1      32.362  27.986  21.346  1.00  0.00     0.190 HD
ATOM     23  C   UNL A   1      33.657  26.868  23.871  1.00  0.00     0.157 A 
ENDBRANCH  14  17
ENDBRANCH   9  14
ENDBRANCH   5   8
ENDBRANCH   3   4
ENDBRANCH   2   3
ENDBRANCH   1   2
BRANCH   1  24
ATOM     24  C   UNL A   1      38.934  21.354  26.042  1.00  0.00     0.116 C 
BRANCH  24  25
ATOM     25  N   UNL A   1      39.716  20.129  26.012  1.00  0.00    -0.352 N 
ATOM     26  C   UNL A   1      41.077  19.962  26.157  1.00  0.00     0.251 C 
ATOM     27  H   UNL A   1      39.201  19.304  25.866  1.00  0.00     0.163 HD
ATOM     28  O   UNL A   1      41.579  18.855  25.983  1.00  0.00    -0.269 OA
BRANCH  26  29
ATOM     29  C   UNL A   1      41.952  21.125  26.449  1.00  0.00     0.039 A 
ATOM     30  C   UNL A   1      42.416  21.889  25.374  1.00  0.00     0.014 A 
ATOM     31  C   UNL A   1      42.283  21.495  27.756  1.00  0.00     0.014 A 
ATOM     32  C   UNL A   1      43.108  23.078  25.612  1.00  0.00     0.010 A 
ATOM     33  C   UNL A   1      42.919  22.715  27.995  1.00  0.00     0.010 A 
ATOM     34  C   UNL A   1      43.308  23.534  26.926  1.00  0.00    -0.014 A 
BRANCH  34  35
ATOM     35  C   UNL A   1      43.828  24.905  27.176  1.00  0.00     0.031 A 
ATOM     36  C   UNL A   1      45.280  25.239  26.984  1.00  0.00     0.074 A 
ATOM     37  C   UNL A   1      42.977  25.844  27.637  1.00  0.00     0.049 A 
ATOM     38  N   UNL A   1      45.890  26.385  27.150  1.00  0.00    -0.248 NA
ATOM     39  C   UNL A   1      46.169  24.140  26.577  1.00  0.00     0.031 C 
ATOM     40  C   UNL A   1      41.560  25.624  27.940  1.00  0.00     0.029 A 
ATOM     41  N   UNL A   1      43.174  27.169  27.934  1.00  0.00    -0.354 N 
ATOM     42  C   UNL A   1      47.229  26.150  26.869  1.00  0.00     0.074 A 
ATOM     43  C   UNL A   1      47.352  24.738  26.572  1.00  0.00     0.031 C 
ATOM     44  C   UNL A   1      41.011  26.779  28.346  1.00  0.00     0.029 A 
ATOM     45  C   UNL A   1      42.037  27.816  28.358  1.00  0.00     0.049 A 
ATOM     46  H   UNL A   1      44.048  27.616  27.851  1.00  0.00     0.167 HD
ATOM     47  C   UNL A   1      48.258  27.033  26.840  1.00  0.00     0.037 A 
ATOM     48  C   UNL A   1      41.837  29.100  28.710  1.00  0.00     0.037 A 
ATOM     49  C   UNL A   1      48.127  28.441  27.124  1.00  0.00     0.049 A 
ATOM     50  C   UNL A   1      42.985  30.067  28.637  1.00  0.00     0.074 A 
ATOM     51  C   UNL A   1      49.098  29.426  27.065  1.00  0.00     0.029 A 
ATOM     52  N   UNL A   1      46.954  29.064  27.524  1.00  0.00    -0.354 N 
ATOM     53  N   UNL A   1      44.231  29.840  28.295  1.00  0.00    -0.248 NA
ATOM     54  C   UNL A   1      42.699  31.464  28.985  1.00  0.00     0.031 C 
ATOM     55  C   UNL A   1      48.520  30.638  27.461  1.00  0.00     0.029 A 
ATOM     56  C   UNL A   1      47.179  30.417  27.730  1.00  0.00     0.049 A 
ATOM     57  H   UNL A   1      46.087  28.613  27.643  1.00  0.00     0.167 HD
ATOM     58  C   UNL A   1      44.874  31.070  28.374  1.00  0.00     0.074 A 
ATOM     59  C   UNL A   1      43.874  32.039  28.772  1.00  0.00     0.031 C 
ATOM     60  C   UNL A   1      46.177  31.368  28.140  1.00  0.00     0.037 A 
BRANCH  47  61
ATOM     61  C   UNL A   1      49.618  26.502  26.476  1.00  0.00     0.058 A 
ATOM     62  C   UNL A   1      50.486  25.981  27.449  1.00  0.00     0.135 A 
ATOM     63  C   UNL A   1      50.048  26.484  25.140  1.00  0.00     0.135 A 
ATOM     64  F   UNL A   1      50.130  25.985  28.744  1.00  0.00    -0.206 F 
ATOM     65  C   UNL A   1      51.744  25.491  27.116  1.00  0.00     0.059 A 
ATOM     66  C   UNL A   1      51.294  25.976  24.780  1.00  0.00     0.059 A 
ATOM     67  F   UNL A   1      49.258  26.967  24.168  1.00  0.00    -0.206 F 
ATOM     68  C   UNL A   1      52.141  25.496  25.778  1.00  0.00     0.060 A 
BRANCH  68  69
ATOM     69  S   UNL A   1      53.780  24.864  25.361  1.00  0.00     0.124 S 
ATOM     70  O   UNL A   1      54.497  25.070  26.616  1.00  0.00    -0.237 OA
ATOM     71  O   UNL A   1      53.502  23.475  25.012  1.00  0.00    -0.237 OA
ATOM     72  O   UNL A   1      54.200  25.714  24.251  1.00  0.00    -0.744 OA
ENDBRANCH  68  69
ENDBRANCH  47  61
BRANCH  48  73
ATOM     73  C   UNL A   1      40.484  29.551  29.127  1.00  0.00     0.058 A 
ATOM     74  C   UNL A   1      40.209  29.862  30.468  1.00  0.00     0.135 A 
ATOM     75  C   UNL A   1      39.447  29.703  28.194  1.00  0.00     0.135 A 
ATOM     76  F   UNL A   1      41.168  29.727  31.396  1.00  0.00    -0.206 F 
ATOM     77  C   UNL A   1      38.951  30.293  30.872  1.00  0.00     0.059 A 
ATOM     78  C   UNL A   1      38.186  30.156  28.571  1.00  0.00     0.059 A 
ATOM     79  F   UNL A   1      39.665  29.438  26.897  1.00  0.00    -0.206 F 
ATOM     80  C   UNL A   1      37.945  30.438  29.915  1.00  0.00     0.060 A 
BRANCH  80  81
ATOM     81  S   UNL A   1      36.329  31.053  30.438  1.00  0.00     0.124 S 
ATOM     82  O   UNL A   1      35.595  31.058  29.179  1.00  0.00    -0.237 OA
ATOM     83  O   UNL A   1      35.918  30.049  31.414  1.00  0.00    -0.237 OA
ATOM     84  O   UNL A   1      36.637  32.366  30.996  1.00  0.00    -0.744 OA
ENDBRANCH  80  81
ENDBRANCH  48  73
BRANCH  60  85
ATOM     85  C   UNL A   1      46.584  32.805  28.305  1.00  0.00     0.058 A 
ATOM     86  C   UNL A   1      47.081  33.290  29.525  1.00  0.00     0.135 A 
ATOM     87  C   UNL A   1      46.485  33.704  27.233  1.00  0.00     0.135 A 
ATOM     88  F   UNL A   1      47.190  32.472  30.584  1.00  0.00    -0.206 F 
ATOM     89  C   UNL A   1      47.430  34.627  29.687  1.00  0.00     0.059 A 
ATOM     90  C   UNL A   1      46.852  35.040  27.365  1.00  0.00     0.059 A 
ATOM     91  F   UNL A   1      46.026  33.288  26.041  1.00  0.00    -0.206 F 
ATOM     92  C   UNL A   1      47.306  35.497  28.601  1.00  0.00     0.060 A 
BRANCH  92  93
ATOM     93  S   UNL A   1      47.763  37.230  28.820  1.00  0.00     0.124 S 
ATOM     94  O   UNL A   1      49.208  37.131  28.996  1.00  0.00    -0.237 OA
ATOM     95  O   UNL A   1      47.317  37.834  27.569  1.00  0.00    -0.237 OA
ATOM     96  O   UNL A   1      47.010  37.630  30.005  1.00  0.00    -0.744 OA
ENDBRANCH  92  93
ENDBRANCH  60  85
ENDBRANCH  34  35
ENDBRANCH  26  29
ENDBRANCH  24  25
ENDBRANCH   1  24
TORSDOF 16
ENDMDL
MODEL 3
REMARK VINA RESULT:     -11.0      0.951      8.351
REMARK SMILES Cc1[nH]ncc1S(=O)(=O)N1CC[C@@H](C(=O)NCCCCNC(=O)c2ccc(-c3c4nc(c(-c5c(F)cc(S(=O)(=O)[O-])cc5F)c5ccc([nH]5)c(-c5c(F)cc(S(=O)(=O)[O-])cc5F)c5nc(c(-c6c(F)cc(S(=O)(=O)[O-])cc6F)c6ccc3[nH]6)C=C5)C=C4)cc2)[C@@H]1C
REMARK SMILES IDX 19 1 18 2 17 3 16 4 14 5 15 6 13 8 10 9 11 10 90 11 12 12
REMARK SMILES IDX 91 13 7 14 8 15 9 16 6 17 1 18 2 19 3 20 4 21 5 23 20 24
REMARK SMILES IDX 21 25 22 26 23 28 24 29 25 30 89 31 26 32 88 33 27 34 28 35
REMARK SMILES IDX 29 36 82 37 30 38 87 39 81 40 83 41 31 42 86 43 80 44 79 45
REMARK SMILES IDX 32 47 66 48 45 49 65 50 46 51 49 52 64 53 84 54 47 55 48 56
REMARK SMILES IDX 63 58 85 59 50 60 33 61 34 62 43 63 35 64 36 65 42 66 44 67
REMARK SMILES IDX 37 68 38 69 39 70 40 71 41 72 67 73 68 74 77 75 69 76 70 77
REMARK SMILES IDX 76 78 78 79 71 80 72 81 73 82 74 83 75 84 51 85 52 86 61 87
REMARK SMILES IDX 53 88 54 89 60 90 62 91 55 92 56 93 57 94 58 95 59 96
REMARK H PARENT 16 7 3 22 21 27 83 46 49 57
REMARK Flexibility Score: inf
ROOT
ATOM      1  C   UNL A   1      32.049  28.304  26.987  1.00  0.00     0.023 C 
ENDROOT
BRANCH   1   2
ATOM      2  C   UNL A   1      31.943  26.845  26.530  1.00  0.00     0.023 C 
BRANCH   2   3
ATOM      3  C   UNL A   1      30.630  26.485  25.845  1.00  0.00     0.116 C 
BRANCH   3   4
ATOM      4  N   UNL A   1      29.971  25.298  26.356  1.00  0.00    -0.356 N 
ATOM      5  C   UNL A   1      30.399  24.006  26.384  1.00  0.00     0.224 C 
ATOM      6  O   UNL A   1      30.033  23.330  27.353  1.00  0.00    -0.275 OA
ATOM      7  H   UNL A   1      29.078  25.449  26.741  1.00  0.00     0.163 HD
BRANCH   5   8
ATOM      8  C   UNL A   1      31.241  23.324  25.300  1.00  0.00     0.098 C 
ATOM      9  N   UNL A   1      33.524  22.790  25.486  1.00  0.00    -0.194 NA
ATOM     10  C   UNL A   1      32.885  21.489  25.386  1.00  0.00     0.104 C 
ATOM     11  C   UNL A   1      32.638  23.853  24.985  1.00  0.00     0.082 C 
ATOM     12  C   UNL A   1      31.396  21.804  25.512  1.00  0.00     0.032 C 
ATOM     13  C   UNL A   1      32.826  24.010  23.472  1.00  0.00     0.026 C 
BRANCH   9  14
ATOM     14  S   UNL A   1      35.002  23.026  26.199  1.00  0.00     0.246 S 
ATOM     15  O   UNL A   1      34.860  22.733  27.611  1.00  0.00    -0.207 OA
ATOM     16  O   UNL A   1      35.528  24.286  25.728  1.00  0.00    -0.207 OA
BRANCH  14  17
ATOM     17  C   UNL A   1      36.202  21.893  25.686  1.00  0.00     0.123 A 
ATOM     18  C   UNL A   1      38.657  22.823  26.121  1.00  0.00     0.067 C 
ATOM     19  C   UNL A   1      37.593  21.890  25.697  1.00  0.00     0.052 A 
ATOM     20  N   UNL A   1      37.946  20.681  25.146  1.00  0.00    -0.281 N 
ATOM     21  N   UNL A   1      36.909  19.923  24.788  1.00  0.00    -0.183 NA
ATOM     22  H   UNL A   1      38.882  20.400  25.028  1.00  0.00     0.190 HD
ATOM     23  C   UNL A   1      35.844  20.655  25.118  1.00  0.00     0.157 A 
ENDBRANCH  14  17
ENDBRANCH   9  14
ENDBRANCH   5   8
ENDBRANCH   3   4
ENDBRANCH   2   3
ENDBRANCH   1   2
BRANCH   1  24
ATOM     24  C   UNL A   1      33.462  28.857  27.196  1.00  0.00     0.116 C 
BRANCH  24  25
ATOM     25  N   UNL A   1      33.513  30.201  27.748  1.00  0.00    -0.352 N 
ATOM     26  C   UNL A   1      34.551  30.837  28.396  1.00  0.00     0.251 C 
ATOM     27  H   UNL A   1      32.691  30.731  27.644  1.00  0.00     0.163 HD
ATOM     28  O   UNL A   1      34.370  31.941  28.902  1.00  0.00    -0.269 OA
BRANCH  26  29
ATOM     29  C   UNL A   1      35.865  30.165  28.554  1.00  0.00     0.039 A 
ATOM     30  C   UNL A   1      36.744  30.173  27.467  1.00  0.00     0.014 A 
ATOM     31  C   UNL A   1      36.255  29.571  29.758  1.00  0.00     0.014 A 
ATOM     32  C   UNL A   1      38.046  29.692  27.622  1.00  0.00     0.010 A 
ATOM     33  C   UNL A   1      37.575  29.150  29.931  1.00  0.00     0.010 A 
ATOM     34  C   UNL A   1      38.492  29.236  28.875  1.00  0.00    -0.014 A 
BRANCH  34  35
ATOM     35  C   UNL A   1      39.934  28.952  29.102  1.00  0.00     0.031 A 
ATOM     36  C   UNL A   1      40.856  29.988  29.678  1.00  0.00     0.074 A 
ATOM     37  C   UNL A   1      40.422  27.752  28.726  1.00  0.00     0.049 A 
ATOM     38  N   UNL A   1      42.134  29.895  29.945  1.00  0.00    -0.248 NA
ATOM     39  C   UNL A   1      40.276  31.307  29.970  1.00  0.00     0.031 C 
ATOM     40  C   UNL A   1      39.646  26.688  28.082  1.00  0.00     0.029 A 
ATOM     41  N   UNL A   1      41.684  27.221  28.827  1.00  0.00    -0.354 N 
ATOM     42  C   UNL A   1      42.514  31.138  30.436  1.00  0.00     0.074 A 
ATOM     43  C   UNL A   1      41.340  31.985  30.380  1.00  0.00     0.031 C 
ATOM     44  C   UNL A   1      40.438  25.625  27.877  1.00  0.00     0.029 A 
ATOM     45  C   UNL A   1      41.783  25.935  28.351  1.00  0.00     0.049 A 
ATOM     46  H   UNL A   1      42.447  27.715  29.207  1.00  0.00     0.167 HD
ATOM     47  C   UNL A   1      43.722  31.531  30.908  1.00  0.00     0.037 A 
ATOM     48  C   UNL A   1      42.834  25.094  28.305  1.00  0.00     0.037 A 
ATOM     49  C   UNL A   1      44.884  30.680  30.973  1.00  0.00     0.049 A 
ATOM     50  C   UNL A   1      44.154  25.541  28.867  1.00  0.00     0.074 A 
ATOM     51  C   UNL A   1      46.136  30.968  31.489  1.00  0.00     0.029 A 
ATOM     52  N   UNL A   1      44.939  29.374  30.506  1.00  0.00    -0.354 N 
ATOM     53  N   UNL A   1      44.474  26.698  29.397  1.00  0.00    -0.248 NA
ATOM     54  C   UNL A   1      45.252  24.567  28.836  1.00  0.00     0.031 C 
ATOM     55  C   UNL A   1      46.957  29.849  31.302  1.00  0.00     0.029 A 
ATOM     56  C   UNL A   1      46.206  28.849  30.706  1.00  0.00     0.049 A 
ATOM     57  H   UNL A   1      44.187  28.891  30.093  1.00  0.00     0.167 HD
ATOM     58  C   UNL A   1      45.806  26.585  29.775  1.00  0.00     0.074 A 
ATOM     59  C   UNL A   1      46.225  25.241  29.434  1.00  0.00     0.031 C 
ATOM     60  C   UNL A   1      46.612  27.513  30.349  1.00  0.00     0.037 A 
BRANCH  47  61
ATOM     61  C   UNL A   1      43.845  32.946  31.406  1.00  0.00     0.058 A 
ATOM     62  C   UNL A   1      44.085  34.013  30.526  1.00  0.00     0.135 A 
ATOM     63  C   UNL A   1      43.693  33.244  32.769  1.00  0.00     0.135 A 
ATOM     64  F   UNL A   1      44.250  33.784  29.213  1.00  0.00    -0.206 F 
ATOM     65  C   UNL A   1      44.201  35.322  30.983  1.00  0.00     0.059 A 
ATOM     66  C   UNL A   1      43.782  34.550  33.246  1.00  0.00     0.059 A 
ATOM     67  F   UNL A   1      43.461  32.263  33.655  1.00  0.00    -0.206 F 
ATOM     68  C   UNL A   1      44.052  35.580  32.346  1.00  0.00     0.060 A 
BRANCH  68  69
ATOM     69  S   UNL A   1      44.213  37.282  32.926  1.00  0.00     0.124 S 
ATOM     70  O   UNL A   1      45.443  37.205  33.710  1.00  0.00    -0.237 OA
ATOM     71  O   UNL A   1      44.305  38.033  31.678  1.00  0.00    -0.237 OA
ATOM     72  O   UNL A   1      42.991  37.497  33.695  1.00  0.00    -0.744 OA
ENDBRANCH  68  69
ENDBRANCH  47  61
BRANCH  48  73
ATOM     73  C   UNL A   1      42.667  23.731  27.739  1.00  0.00     0.058 A 
ATOM     74  C   UNL A   1      42.455  22.625  28.576  1.00  0.00     0.135 A 
ATOM     75  C   UNL A   1      42.693  23.508  26.354  1.00  0.00     0.135 A 
ATOM     76  F   UNL A   1      42.427  22.788  29.907  1.00  0.00    -0.206 F 
ATOM     77  C   UNL A   1      42.288  21.343  28.062  1.00  0.00     0.059 A 
ATOM     78  C   UNL A   1      42.505  22.239  25.815  1.00  0.00     0.059 A 
ATOM     79  F   UNL A   1      42.873  24.536  25.511  1.00  0.00    -0.206 F 
ATOM     80  C   UNL A   1      42.313  21.161  26.678  1.00  0.00     0.060 A 
BRANCH  80  81
ATOM     81  S   UNL A   1      42.040  19.503  26.015  1.00  0.00     0.124 S 
ATOM     82  O   UNL A   1      42.875  19.523  24.821  1.00  0.00    -0.237 OA
ATOM     83  O   UNL A   1      42.505  18.653  27.107  1.00  0.00    -0.237 OA
ATOM     84  O   UNL A   1      40.600  19.472  25.780  1.00  0.00    -0.744 OA
ENDBRANCH  80  81
ENDBRANCH  48  73
BRANCH  60  85
ATOM     85  C   UNL A   1      48.024  27.094  30.649  1.00  0.00     0.058 A 
ATOM     86  C   UNL A   1      48.366  26.490  31.869  1.00  0.00     0.135 A 
ATOM     87  C   UNL A   1      49.043  27.291  29.705  1.00  0.00     0.135 A 
ATOM     88  F   UNL A   1      47.429  26.286  32.808  1.00  0.00    -0.206 F 
ATOM     89  C   UNL A   1      49.678  26.130  32.158  1.00  0.00     0.059 A 
ATOM     90  C   UNL A   1      50.358  26.915  29.963  1.00  0.00     0.059 A 
ATOM     91  F   UNL A   1      48.767  27.854  28.517  1.00  0.00    -0.206 F 
ATOM     92  C   UNL A   1      50.670  26.353  31.200  1.00  0.00     0.060 A 
BRANCH  92  93
ATOM     93  S   UNL A   1      52.370  25.881  31.584  1.00  0.00     0.124 S 
ATOM     94  O   UNL A   1      52.193  24.512  32.058  1.00  0.00    -0.237 OA
ATOM     95  O   UNL A   1      53.036  26.024  30.293  1.00  0.00    -0.237 OA
ATOM     96  O   UNL A   1      52.768  26.852  32.599  1.00  0.00    -0.744 OA
ENDBRANCH  92  93
ENDBRANCH  60  85
ENDBRANCH  34  35
ENDBRANCH  26  29
ENDBRANCH  24  25
ENDBRANCH   1  24
TORSDOF 16
ENDMDL
