MODEL 1
REMARK VINA RESULT:     -12.2      0.000      0.000
REMARK SMILES Cc1c(Cl)ccc2c1C=C(C(=O)NCCCCNC(=O)c1ccc(-c3c4nc(c(-c5c(F)cc(S(=O)(=O)[O-])cc5F)c5ccc([nH]5)c(-c5c(F)cc(S(=O)(=O)[O-])cc5F)c5nc(c(-c6c(F)cc(S(=O)(=O)[O-])cc6F)c6ccc3[nH]6)C=C5)C=C4)cc1)[C@@H](C(F)(F)F)O2
REMARK SMILES IDX 16 1 15 2 14 3 13 4 11 5 12 6 10 8 1 9 2 10 3 11 8 12 4 13
REMARK SMILES IDX 5 14 7 15 9 16 6 17 92 18 87 19 88 20 89 21 90 22 91 23
REMARK SMILES IDX 17 24 18 25 19 26 20 28 21 29 22 30 86 31 23 32 85 33 24 34
REMARK SMILES IDX 25 35 26 36 79 37 27 38 84 39 78 40 80 41 28 42 83 43 77 44
REMARK SMILES IDX 76 45 29 47 63 48 42 49 62 50 43 51 46 52 61 53 81 54 44 55
REMARK SMILES IDX 45 56 60 58 82 59 47 60 30 61 31 62 40 63 32 64 33 65 39 66
REMARK SMILES IDX 41 67 34 68 35 69 36 70 37 71 38 72 64 73 65 74 74 75 66 76
REMARK SMILES IDX 67 77 73 78 75 79 68 80 69 81 70 82 71 83 72 84 48 85 49 86
REMARK SMILES IDX 58 87 50 88 51 89 57 90 59 91 52 92 53 93 54 94 55 95 56 96
REMARK H PARENT 13 7 18 27 80 46 46 57
REMARK Flexibility Score: inf
ROOT
ATOM      1  C   UNL A   1      32.653  28.539  25.918  1.00  0.00     0.023 C 
ENDROOT
BRANCH   1   2
ATOM      2  C   UNL A   1      33.040  28.829  24.464  1.00  0.00     0.023 C 
BRANCH   2   3
ATOM      3  C   UNL A   1      31.962  28.475  23.445  1.00  0.00     0.116 C 
BRANCH   3   4
ATOM      4  N   UNL A   1      32.482  27.654  22.366  1.00  0.00    -0.352 N 
ATOM      5  C   UNL A   1      33.011  26.416  22.231  1.00  0.00     0.251 C 
ATOM      6  O   UNL A   1      33.349  26.113  21.082  1.00  0.00    -0.270 OA
ATOM      7  H   UNL A   1      32.437  28.123  21.502  1.00  0.00     0.163 HD
BRANCH   5   8
ATOM      8  C   UNL A   1      33.197  25.425  23.334  1.00  0.00     0.067 C 
ATOM      9  C   UNL A   1      36.710  22.821  23.096  1.00  0.00     0.047 C 
ATOM     10  C   UNL A   1      35.731  22.819  24.246  1.00  0.00    -0.021 A 
ATOM     11  C   UNL A   1      35.867  21.845  25.262  1.00  0.00     0.044 A 
ATOM     12  C   UNL A   1      34.638  23.716  24.318  1.00  0.00     0.022 A 
ATOM     13  Cl  UNL A   1      37.127  20.657  25.235  1.00  0.00    -0.084 Cl
ATOM     14  C   UNL A   1      34.979  21.789  26.339  1.00  0.00     0.024 A 
ATOM     15  C   UNL A   1      33.752  23.631  25.404  1.00  0.00     0.128 A 
ATOM     16  C   UNL A   1      34.372  24.764  23.327  1.00  0.00     0.026 C 
ATOM     17  C   UNL A   1      33.927  22.691  26.416  1.00  0.00     0.048 A 
ATOM     18  O   UNL A   1      32.690  24.477  25.570  1.00  0.00    -0.475 OA
ATOM     19  C   UNL A   1      32.163  25.100  24.368  1.00  0.00     0.314 C 
BRANCH  19  20
ATOM     20  C   UNL A   1      31.009  24.247  23.813  1.00  0.00     0.429 C 
ATOM     21  F   UNL A   1      31.446  23.466  22.793  1.00  0.00    -0.167 F 
ATOM     22  F   UNL A   1      30.487  23.411  24.739  1.00  0.00    -0.167 F 
ATOM     23  F   UNL A   1      29.989  24.996  23.337  1.00  0.00    -0.167 F 
ENDBRANCH  19  20
ENDBRANCH   5   8
ENDBRANCH   3   4
ENDBRANCH   2   3
ENDBRANCH   1   2
BRANCH   1  24
ATOM     24  C   UNL A   1      33.746  28.790  26.956  1.00  0.00     0.116 C 
BRANCH  24  25
ATOM     25  N   UNL A   1      33.627  30.074  27.634  1.00  0.00    -0.352 N 
ATOM     26  C   UNL A   1      34.592  30.727  28.363  1.00  0.00     0.251 C 
ATOM     27  H   UNL A   1      32.755  30.526  27.562  1.00  0.00     0.163 HD
ATOM     28  O   UNL A   1      34.350  31.787  28.928  1.00  0.00    -0.269 OA
BRANCH  26  29
ATOM     29  C   UNL A   1      35.916  30.091  28.483  1.00  0.00     0.039 A 
ATOM     30  C   UNL A   1      36.762  30.095  27.373  1.00  0.00     0.014 A 
ATOM     31  C   UNL A   1      36.348  29.605  29.721  1.00  0.00     0.014 A 
ATOM     32  C   UNL A   1      38.082  29.677  27.522  1.00  0.00     0.010 A 
ATOM     33  C   UNL A   1      37.676  29.223  29.875  1.00  0.00     0.010 A 
ATOM     34  C   UNL A   1      38.556  29.274  28.783  1.00  0.00    -0.014 A 
BRANCH  34  35
ATOM     35  C   UNL A   1      39.983  28.935  28.976  1.00  0.00     0.031 A 
ATOM     36  C   UNL A   1      40.928  29.957  29.532  1.00  0.00     0.074 A 
ATOM     37  C   UNL A   1      40.428  27.719  28.607  1.00  0.00     0.049 A 
ATOM     38  N   UNL A   1      42.210  29.852  29.759  1.00  0.00    -0.248 NA
ATOM     39  C   UNL A   1      40.359  31.273  29.862  1.00  0.00     0.031 C 
ATOM     40  C   UNL A   1      39.604  26.660  28.018  1.00  0.00     0.029 A 
ATOM     41  N   UNL A   1      41.682  27.168  28.670  1.00  0.00    -0.354 N 
ATOM     42  C   UNL A   1      42.604  31.084  30.263  1.00  0.00     0.074 A 
ATOM     43  C   UNL A   1      41.435  31.936  30.265  1.00  0.00     0.031 C 
ATOM     44  C   UNL A   1      40.371  25.580  27.796  1.00  0.00     0.029 A 
ATOM     45  C   UNL A   1      41.741  25.874  28.209  1.00  0.00     0.049 A 
ATOM     46  H   UNL A   1      42.466  27.653  29.014  1.00  0.00     0.167 HD
ATOM     47  C   UNL A   1      43.826  31.461  30.704  1.00  0.00     0.037 A 
ATOM     48  C   UNL A   1      42.779  25.021  28.137  1.00  0.00     0.037 A 
ATOM     49  C   UNL A   1      44.982  30.607  30.712  1.00  0.00     0.049 A 
ATOM     50  C   UNL A   1      44.128  25.463  28.633  1.00  0.00     0.074 A 
ATOM     51  C   UNL A   1      46.259  30.888  31.163  1.00  0.00     0.029 A 
ATOM     52  N   UNL A   1      44.999  29.299  30.248  1.00  0.00    -0.354 N 
ATOM     53  N   UNL A   1      44.475  26.619  29.145  1.00  0.00    -0.248 NA
ATOM     54  C   UNL A   1      45.224  24.487  28.546  1.00  0.00     0.031 C 
ATOM     55  C   UNL A   1      47.054  29.754  30.956  1.00  0.00     0.029 A 
ATOM     56  C   UNL A   1      46.265  28.762  30.397  1.00  0.00     0.049 A 
ATOM     57  H   UNL A   1      44.224  28.825  29.868  1.00  0.00     0.167 HD
ATOM     58  C   UNL A   1      45.822  26.502  29.466  1.00  0.00     0.074 A 
ATOM     59  C   UNL A   1      46.229  25.165  29.086  1.00  0.00     0.031 C 
ATOM     60  C   UNL A   1      46.644  27.422  30.026  1.00  0.00     0.037 A 
BRANCH  47  61
ATOM     61  C   UNL A   1      43.960  32.858  31.233  1.00  0.00     0.058 A 
ATOM     62  C   UNL A   1      43.712  33.148  32.584  1.00  0.00     0.135 A 
ATOM     63  C   UNL A   1      44.341  33.913  30.390  1.00  0.00     0.135 A 
ATOM     64  F   UNL A   1      43.326  32.175  33.424  1.00  0.00    -0.206 F 
ATOM     65  C   UNL A   1      43.812  34.444  33.077  1.00  0.00     0.059 A 
ATOM     66  C   UNL A   1      44.466  35.215  30.867  1.00  0.00     0.059 A 
ATOM     67  F   UNL A   1      44.584  33.686  29.090  1.00  0.00    -0.206 F 
ATOM     68  C   UNL A   1      44.183  35.472  32.208  1.00  0.00     0.060 A 
BRANCH  68  69
ATOM     69  S   UNL A   1      44.294  37.152  32.857  1.00  0.00     0.124 S 
ATOM     70  O   UNL A   1      44.045  37.943  31.656  1.00  0.00    -0.237 OA
ATOM     71  O   UNL A   1      43.235  37.175  33.862  1.00  0.00    -0.237 OA
ATOM     72  O   UNL A   1      45.654  37.222  33.384  1.00  0.00    -0.744 OA
ENDBRANCH  68  69
ENDBRANCH  47  61
BRANCH  48  73
ATOM     73  C   UNL A   1      42.567  23.646  27.622  1.00  0.00     0.058 A 
ATOM     74  C   UNL A   1      42.588  23.390  26.243  1.00  0.00     0.135 A 
ATOM     75  C   UNL A   1      42.379  22.561  28.491  1.00  0.00     0.135 A 
ATOM     76  F   UNL A   1      42.762  24.399  25.378  1.00  0.00    -0.206 F 
ATOM     77  C   UNL A   1      42.430  22.104  25.740  1.00  0.00     0.059 A 
ATOM     78  C   UNL A   1      42.231  21.263  28.012  1.00  0.00     0.059 A 
ATOM     79  F   UNL A   1      42.367  22.756  29.818  1.00  0.00    -0.206 F 
ATOM     80  C   UNL A   1      42.254  21.045  26.634  1.00  0.00     0.060 A 
BRANCH  80  81
ATOM     81  S   UNL A   1      42.120  19.369  25.975  1.00  0.00     0.124 S 
ATOM     82  O   UNL A   1      40.688  19.268  25.720  1.00  0.00    -0.237 OA
ATOM     83  O   UNL A   1      42.976  19.432  24.794  1.00  0.00    -0.237 OA
ATOM     84  O   UNL A   1      42.630  18.541  27.063  1.00  0.00    -0.744 OA
ENDBRANCH  80  81
ENDBRANCH  48  73
BRANCH  60  85
ATOM     85  C   UNL A   1      48.062  27.015  30.291  1.00  0.00     0.058 A 
ATOM     86  C   UNL A   1      49.093  27.348  29.401  1.00  0.00     0.135 A 
ATOM     87  C   UNL A   1      48.405  26.380  31.495  1.00  0.00     0.135 A 
ATOM     88  F   UNL A   1      48.810  27.950  28.234  1.00  0.00    -0.206 F 
ATOM     89  C   UNL A   1      50.422  27.072  29.699  1.00  0.00     0.059 A 
ATOM     90  C   UNL A   1      49.729  26.106  31.820  1.00  0.00     0.059 A 
ATOM     91  F   UNL A   1      47.451  26.047  32.378  1.00  0.00    -0.206 F 
ATOM     92  C   UNL A   1      50.732  26.457  30.915  1.00  0.00     0.060 A 
BRANCH  92  93
ATOM     93  S   UNL A   1      52.467  26.178  31.329  1.00  0.00     0.124 S 
ATOM     94  O   UNL A   1      53.092  26.213  30.012  1.00  0.00    -0.237 OA
ATOM     95  O   UNL A   1      52.768  27.307  32.204  1.00  0.00    -0.237 OA
ATOM     96  O   UNL A   1      52.453  24.873  31.984  1.00  0.00    -0.744 OA
ENDBRANCH  92  93
ENDBRANCH  60  85
ENDBRANCH  34  35
ENDBRANCH  26  29
ENDBRANCH  24  25
ENDBRANCH   1  24
TORSDOF 15
ENDMDL
MODEL 2
REMARK VINA RESULT:     -11.9      4.939     10.445
REMARK SMILES Cc1c(Cl)ccc2c1C=C(C(=O)NCCCCNC(=O)c1ccc(-c3c4nc(c(-c5c(F)cc(S(=O)(=O)[O-])cc5F)c5ccc([nH]5)c(-c5c(F)cc(S(=O)(=O)[O-])cc5F)c5nc(c(-c6c(F)cc(S(=O)(=O)[O-])cc6F)c6ccc3[nH]6)C=C5)C=C4)cc1)[C@@H](C(F)(F)F)O2
REMARK SMILES IDX 16 1 15 2 14 3 13 4 11 5 12 6 10 8 1 9 2 10 3 11 8 12 4 13
REMARK SMILES IDX 5 14 7 15 9 16 6 17 92 18 87 19 88 20 89 21 90 22 91 23
REMARK SMILES IDX 17 24 18 25 19 26 20 28 21 29 22 30 86 31 23 32 85 33 24 34
REMARK SMILES IDX 25 35 26 36 79 37 27 38 84 39 78 40 80 41 28 42 83 43 77 44
REMARK SMILES IDX 76 45 29 47 63 48 42 49 62 50 43 51 46 52 61 53 81 54 44 55
REMARK SMILES IDX 45 56 60 58 82 59 47 60 30 61 31 62 40 63 32 64 33 65 39 66
REMARK SMILES IDX 41 67 34 68 35 69 36 70 37 71 38 72 64 73 65 74 74 75 66 76
REMARK SMILES IDX 67 77 73 78 75 79 68 80 69 81 70 82 71 83 72 84 48 85 49 86
REMARK SMILES IDX 58 87 50 88 51 89 57 90 59 91 52 92 53 93 54 94 55 95 56 96
REMARK H PARENT 13 7 18 27 80 46 46 57
REMARK Flexibility Score: inf
ROOT
ATOM      1  C   UNL A   1      37.718  23.238  25.570  1.00  0.00     0.023 C 
ENDROOT
BRANCH   1   2
ATOM      2  C   UNL A   1      38.005  21.733  25.533  1.00  0.00     0.023 C 
BRANCH   2   3
ATOM      3  C   UNL A   1      36.830  20.883  25.060  1.00  0.00     0.116 C 
BRANCH   3   4
ATOM      4  N   UNL A   1      35.652  21.077  25.886  1.00  0.00    -0.352 N 
ATOM      5  C   UNL A   1      34.545  21.856  25.865  1.00  0.00     0.251 C 
ATOM      6  O   UNL A   1      33.774  21.697  26.817  1.00  0.00    -0.270 OA
ATOM      7  H   UNL A   1      35.659  20.483  26.672  1.00  0.00     0.163 HD
BRANCH   5   8
ATOM      8  C   UNL A   1      34.202  22.849  24.803  1.00  0.00     0.067 C 
ATOM      9  C   UNL A   1      33.704  27.014  26.060  1.00  0.00     0.047 C 
ATOM     10  C   UNL A   1      33.616  26.547  24.626  1.00  0.00    -0.021 A 
ATOM     11  C   UNL A   1      33.233  27.468  23.625  1.00  0.00     0.044 A 
ATOM     12  C   UNL A   1      33.841  25.200  24.249  1.00  0.00     0.022 A 
ATOM     13  Cl  UNL A   1      32.869  29.122  23.989  1.00  0.00    -0.084 Cl
ATOM     14  C   UNL A   1      33.122  27.083  22.287  1.00  0.00     0.024 A 
ATOM     15  C   UNL A   1      33.710  24.835  22.899  1.00  0.00     0.128 A 
ATOM     16  C   UNL A   1      34.229  24.141  25.186  1.00  0.00     0.026 C 
ATOM     17  C   UNL A   1      33.372  25.768  21.922  1.00  0.00     0.048 A 
ATOM     18  O   UNL A   1      33.939  23.568  22.442  1.00  0.00    -0.475 OA
ATOM     19  C   UNL A   1      33.788  22.493  23.407  1.00  0.00     0.314 C 
BRANCH  19  20
ATOM     20  C   UNL A   1      32.355  21.936  23.333  1.00  0.00     0.429 C 
ATOM     21  F   UNL A   1      32.341  20.619  23.660  1.00  0.00    -0.167 F 
ATOM     22  F   UNL A   1      31.511  22.553  24.191  1.00  0.00    -0.167 F 
ATOM     23  F   UNL A   1      31.816  22.049  22.098  1.00  0.00    -0.167 F 
ENDBRANCH  19  20
ENDBRANCH   5   8
ENDBRANCH   3   4
ENDBRANCH   2   3
ENDBRANCH   1   2
BRANCH   1  24
ATOM     24  C   UNL A   1      38.640  24.064  26.467  1.00  0.00     0.116 C 
BRANCH  24  25
ATOM     25  N   UNL A   1      40.053  23.930  26.136  1.00  0.00    -0.352 N 
ATOM     26  C   UNL A   1      41.093  24.712  26.580  1.00  0.00     0.251 C 
ATOM     27  H   UNL A   1      40.290  23.195  25.526  1.00  0.00     0.163 HD
ATOM     28  O   UNL A   1      42.238  24.524  26.188  1.00  0.00    -0.269 OA
BRANCH  26  29
ATOM     29  C   UNL A   1      40.782  25.815  27.507  1.00  0.00     0.039 A 
ATOM     30  C   UNL A   1      39.761  25.633  28.441  1.00  0.00     0.014 A 
ATOM     31  C   UNL A   1      41.578  26.964  27.517  1.00  0.00     0.014 A 
ATOM     32  C   UNL A   1      39.585  26.580  29.448  1.00  0.00     0.010 A 
ATOM     33  C   UNL A   1      41.422  27.889  28.544  1.00  0.00     0.010 A 
ATOM     34  C   UNL A   1      40.439  27.694  29.526  1.00  0.00    -0.014 A 
BRANCH  34  35
ATOM     35  C   UNL A   1      40.331  28.646  30.654  1.00  0.00     0.031 A 
ATOM     36  C   UNL A   1      41.230  28.502  31.844  1.00  0.00     0.074 A 
ATOM     37  C   UNL A   1      39.392  29.610  30.615  1.00  0.00     0.049 A 
ATOM     38  N   UNL A   1      41.276  29.227  32.930  1.00  0.00    -0.248 NA
ATOM     39  C   UNL A   1      42.194  27.391  31.815  1.00  0.00     0.031 C 
ATOM     40  C   UNL A   1      38.437  29.817  29.524  1.00  0.00     0.029 A 
ATOM     41  N   UNL A   1      39.083  30.595  31.519  1.00  0.00    -0.354 N 
ATOM     42  C   UNL A   1      42.273  28.665  33.715  1.00  0.00     0.074 A 
ATOM     43  C   UNL A   1      42.776  27.511  33.000  1.00  0.00     0.031 C 
ATOM     44  C   UNL A   1      37.665  30.878  29.812  1.00  0.00     0.029 A 
ATOM     45  C   UNL A   1      38.057  31.414  31.113  1.00  0.00     0.049 A 
ATOM     46  H   UNL A   1      39.553  30.704  32.377  1.00  0.00     0.167 HD
ATOM     47  C   UNL A   1      42.742  29.088  34.911  1.00  0.00     0.037 A 
ATOM     48  C   UNL A   1      37.503  32.482  31.718  1.00  0.00     0.037 A 
ATOM     49  C   UNL A   1      42.247  30.241  35.611  1.00  0.00     0.049 A 
ATOM     50  C   UNL A   1      38.039  32.932  33.048  1.00  0.00     0.074 A 
ATOM     51  C   UNL A   1      42.675  30.767  36.818  1.00  0.00     0.029 A 
ATOM     52  N   UNL A   1      41.215  31.053  35.163  1.00  0.00    -0.354 N 
ATOM     53  N   UNL A   1      39.013  32.413  33.758  1.00  0.00    -0.248 NA
ATOM     54  C   UNL A   1      37.409  34.112  33.658  1.00  0.00     0.031 C 
ATOM     55  C   UNL A   1      41.888  31.888  37.107  1.00  0.00     0.029 A 
ATOM     56  C   UNL A   1      40.988  32.072  36.070  1.00  0.00     0.049 A 
ATOM     57  H   UNL A   1      40.719  30.923  34.322  1.00  0.00     0.167 HD
ATOM     58  C   UNL A   1      39.129  33.217  34.885  1.00  0.00     0.074 A 
ATOM     59  C   UNL A   1      38.126  34.255  34.766  1.00  0.00     0.031 C 
ATOM     60  C   UNL A   1      39.993  33.103  35.923  1.00  0.00     0.037 A 
BRANCH  47  61
ATOM     61  C   UNL A   1      43.861  28.299  35.523  1.00  0.00     0.058 A 
ATOM     62  C   UNL A   1      43.603  27.260  36.432  1.00  0.00     0.135 A 
ATOM     63  C   UNL A   1      45.198  28.575  35.199  1.00  0.00     0.135 A 
ATOM     64  F   UNL A   1      42.340  26.973  36.788  1.00  0.00    -0.206 F 
ATOM     65  C   UNL A   1      44.635  26.539  37.020  1.00  0.00     0.059 A 
ATOM     66  C   UNL A   1      46.246  27.853  35.761  1.00  0.00     0.059 A 
ATOM     67  F   UNL A   1      45.495  29.561  34.339  1.00  0.00    -0.206 F 
ATOM     68  C   UNL A   1      45.954  26.848  36.684  1.00  0.00     0.060 A 
BRANCH  68  69
ATOM     69  S   UNL A   1      47.286  25.915  37.467  1.00  0.00     0.124 S 
ATOM     70  O   UNL A   1      47.656  26.803  38.564  1.00  0.00    -0.237 OA
ATOM     71  O   UNL A   1      46.620  24.674  37.853  1.00  0.00    -0.237 OA
ATOM     72  O   UNL A   1      48.277  25.784  36.403  1.00  0.00    -0.744 OA
ENDBRANCH  68  69
ENDBRANCH  47  61
BRANCH  48  73
ATOM     73  C   UNL A   1      36.413  33.226  31.041  1.00  0.00     0.058 A 
ATOM     74  C   UNL A   1      35.098  33.162  31.526  1.00  0.00     0.135 A 
ATOM     75  C   UNL A   1      36.666  34.043  29.930  1.00  0.00     0.135 A 
ATOM     76  F   UNL A   1      34.812  32.390  32.585  1.00  0.00    -0.206 F 
ATOM     77  C   UNL A   1      34.068  33.881  30.931  1.00  0.00     0.059 A 
ATOM     78  C   UNL A   1      35.654  34.783  29.326  1.00  0.00     0.059 A 
ATOM     79  F   UNL A   1      37.911  34.148  29.442  1.00  0.00    -0.206 F 
ATOM     80  C   UNL A   1      34.357  34.692  29.832  1.00  0.00     0.060 A 
BRANCH  80  81
ATOM     81  S   UNL A   1      33.027  35.678  29.110  1.00  0.00     0.124 S 
ATOM     82  O   UNL A   1      33.775  36.743  28.452  1.00  0.00    -0.237 OA
ATOM     83  O   UNL A   1      32.375  34.716  28.226  1.00  0.00    -0.237 OA
ATOM     84  O   UNL A   1      32.241  36.080  30.272  1.00  0.00    -0.744 OA
ENDBRANCH  80  81
ENDBRANCH  48  73
BRANCH  60  85
ATOM     85  C   UNL A   1      39.916  34.138  37.005  1.00  0.00     0.058 A 
ATOM     86  C   UNL A   1      40.462  35.417  36.829  1.00  0.00     0.135 A 
ATOM     87  C   UNL A   1      39.199  33.880  38.184  1.00  0.00     0.135 A 
ATOM     88  F   UNL A   1      41.161  35.706  35.720  1.00  0.00    -0.206 F 
ATOM     89  C   UNL A   1      40.293  36.413  37.784  1.00  0.00     0.059 A 
ATOM     90  C   UNL A   1      39.007  34.865  39.147  1.00  0.00     0.059 A 
ATOM     91  F   UNL A   1      38.656  32.671  38.393  1.00  0.00    -0.206 F 
ATOM     92  C   UNL A   1      39.557  36.130  38.937  1.00  0.00     0.060 A 
BRANCH  92  93
ATOM     93  S   UNL A   1      39.273  37.453  40.132  1.00  0.00     0.124 S 
ATOM     94  O   UNL A   1      38.540  36.751  41.180  1.00  0.00    -0.237 OA
ATOM     95  O   UNL A   1      40.631  37.865  40.475  1.00  0.00    -0.237 OA
ATOM     96  O   UNL A   1      38.501  38.433  39.374  1.00  0.00    -0.744 OA
ENDBRANCH  92  93
ENDBRANCH  60  85
ENDBRANCH  34  35
ENDBRANCH  26  29
ENDBRANCH  24  25
ENDBRANCH   1  24
TORSDOF 15
ENDMDL
MODEL 3
REMARK VINA RESULT:     -11.9      4.969     10.434
REMARK SMILES Cc1c(Cl)ccc2c1C=C(C(=O)NCCCCNC(=O)c1ccc(-c3c4nc(c(-c5c(F)cc(S(=O)(=O)[O-])cc5F)c5ccc([nH]5)c(-c5c(F)cc(S(=O)(=O)[O-])cc5F)c5nc(c(-c6c(F)cc(S(=O)(=O)[O-])cc6F)c6ccc3[nH]6)C=C5)C=C4)cc1)[C@@H](C(F)(F)F)O2
REMARK SMILES IDX 16 1 15 2 14 3 13 4 11 5 12 6 10 8 1 9 2 10 3 11 8 12 4 13
REMARK SMILES IDX 5 14 7 15 9 16 6 17 92 18 87 19 88 20 89 21 90 22 91 23
REMARK SMILES IDX 17 24 18 25 19 26 20 28 21 29 22 30 86 31 23 32 85 33 24 34
REMARK SMILES IDX 25 35 26 36 79 37 27 38 84 39 78 40 80 41 28 42 83 43 77 44
REMARK SMILES IDX 76 45 29 47 63 48 42 49 62 50 43 51 46 52 61 53 81 54 44 55
REMARK SMILES IDX 45 56 60 58 82 59 47 60 30 61 31 62 40 63 32 64 33 65 39 66
REMARK SMILES IDX 41 67 34 68 35 69 36 70 37 71 38 72 64 73 65 74 74 75 66 76
REMARK SMILES IDX 67 77 73 78 75 79 68 80 69 81 70 82 71 83 72 84 48 85 49 86
REMARK SMILES IDX 58 87 50 88 51 89 57 90 59 91 52 92 53 93 54 94 55 95 56 96
REMARK H PARENT 13 7 18 27 80 46 46 57
REMARK Flexibility Score: inf
ROOT
ATOM      1  C   UNL A   1      39.804  22.330  26.970  1.00  0.00     0.023 C 
ENDROOT
BRANCH   1   2
ATOM      2  C   UNL A   1      38.706  23.017  26.152  1.00  0.00     0.023 C 
BRANCH   2   3
ATOM      3  C   UNL A   1      37.778  22.056  25.415  1.00  0.00     0.116 C 
BRANCH   3   4
ATOM      4  N   UNL A   1      36.537  21.838  26.135  1.00  0.00    -0.352 N 
ATOM      5  C   UNL A   1      35.248  22.237  26.029  1.00  0.00     0.251 C 
ATOM      6  O   UNL A   1      34.492  21.805  26.905  1.00  0.00    -0.270 OA
ATOM      7  H   UNL A   1      36.667  21.241  26.907  1.00  0.00     0.163 HD
BRANCH   5   8
ATOM      8  C   UNL A   1      34.698  23.123  24.959  1.00  0.00     0.067 C 
ATOM      9  C   UNL A   1      33.701  27.233  26.096  1.00  0.00     0.047 C 
ATOM     10  C   UNL A   1      33.584  26.692  24.691  1.00  0.00    -0.021 A 
ATOM     11  C   UNL A   1      33.009  27.505  23.688  1.00  0.00     0.044 A 
ATOM     12  C   UNL A   1      33.972  25.374  24.348  1.00  0.00     0.022 A 
ATOM     13  Cl  UNL A   1      32.439  29.107  24.016  1.00  0.00    -0.084 Cl
ATOM     14  C   UNL A   1      32.863  27.046  22.376  1.00  0.00     0.024 A 
ATOM     15  C   UNL A   1      33.803  24.932  23.026  1.00  0.00     0.128 A 
ATOM     16  C   UNL A   1      34.567  24.423  25.292  1.00  0.00     0.026 C 
ATOM     17  C   UNL A   1      33.272  25.763  22.042  1.00  0.00     0.048 A 
ATOM     18  O   UNL A   1      34.178  23.689  22.599  1.00  0.00    -0.475 OA
ATOM     19  C   UNL A   1      34.245  22.649  23.612  1.00  0.00     0.314 C 
BRANCH  19  20
ATOM     20  C   UNL A   1      32.904  21.896  23.662  1.00  0.00     0.429 C 
ATOM     21  F   UNL A   1      32.159  22.182  22.564  1.00  0.00    -0.167 F 
ATOM     22  F   UNL A   1      33.061  20.553  23.680  1.00  0.00    -0.167 F 
ATOM     23  F   UNL A   1      32.164  22.222  24.746  1.00  0.00    -0.167 F 
ENDBRANCH  19  20
ENDBRANCH   5   8
ENDBRANCH   3   4
ENDBRANCH   2   3
ENDBRANCH   1   2
BRANCH   1  24
ATOM     24  C   UNL A   1      41.115  23.106  27.099  1.00  0.00     0.116 C 
BRANCH  24  25
ATOM     25  N   UNL A   1      41.383  23.994  25.976  1.00  0.00    -0.352 N 
ATOM     26  C   UNL A   1      41.521  25.362  26.006  1.00  0.00     0.251 C 
ATOM     27  H   UNL A   1      41.476  23.567  25.094  1.00  0.00     0.163 HD
ATOM     28  O   UNL A   1      41.699  26.003  24.977  1.00  0.00    -0.269 OA
BRANCH  26  29
ATOM     29  C   UNL A   1      41.403  26.039  27.309  1.00  0.00     0.039 A 
ATOM     30  C   UNL A   1      42.461  26.840  27.743  1.00  0.00     0.014 A 
ATOM     31  C   UNL A   1      40.207  25.968  28.028  1.00  0.00     0.014 A 
ATOM     32  C   UNL A   1      42.290  27.640  28.871  1.00  0.00     0.010 A 
ATOM     33  C   UNL A   1      40.027  26.794  29.133  1.00  0.00     0.010 A 
ATOM     34  C   UNL A   1      41.059  27.648  29.549  1.00  0.00    -0.014 A 
BRANCH  34  35
ATOM     35  C   UNL A   1      40.831  28.576  30.680  1.00  0.00     0.031 A 
ATOM     36  C   UNL A   1      41.655  28.456  31.925  1.00  0.00     0.074 A 
ATOM     37  C   UNL A   1      39.849  29.493  30.592  1.00  0.00     0.049 A 
ATOM     38  N   UNL A   1      41.593  29.164  33.022  1.00  0.00    -0.248 NA
ATOM     39  C   UNL A   1      42.672  27.393  31.947  1.00  0.00     0.031 C 
ATOM     40  C   UNL A   1      38.960  29.672  29.441  1.00  0.00     0.029 A 
ATOM     41  N   UNL A   1      39.434  30.447  31.485  1.00  0.00    -0.354 N 
ATOM     42  C   UNL A   1      42.562  28.639  33.864  1.00  0.00     0.074 A 
ATOM     43  C   UNL A   1      43.168  27.522  33.170  1.00  0.00     0.031 C 
ATOM     44  C   UNL A   1      38.119  30.690  29.691  1.00  0.00     0.029 A 
ATOM     45  C   UNL A   1      38.397  31.223  31.022  1.00  0.00     0.049 A 
ATOM     46  H   UNL A   1      39.839  30.565  32.374  1.00  0.00     0.167 HD
ATOM     47  C   UNL A   1      42.929  29.064  35.095  1.00  0.00     0.037 A 
ATOM     48  C   UNL A   1      37.753  32.252  31.603  1.00  0.00     0.037 A 
ATOM     49  C   UNL A   1      42.333  30.180  35.776  1.00  0.00     0.049 A 
ATOM     50  C   UNL A   1      38.177  32.706  32.971  1.00  0.00     0.074 A 
ATOM     51  C   UNL A   1      42.653  30.706  37.015  1.00  0.00     0.029 A 
ATOM     52  N   UNL A   1      41.294  30.949  35.269  1.00  0.00    -0.354 N 
ATOM     53  N   UNL A   1      39.125  32.223  33.738  1.00  0.00    -0.248 NA
ATOM     54  C   UNL A   1      37.450  33.844  33.553  1.00  0.00     0.031 C 
ATOM     55  C   UNL A   1      41.794  31.783  37.265  1.00  0.00     0.029 A 
ATOM     56  C   UNL A   1      40.957  31.941  36.173  1.00  0.00     0.049 A 
ATOM     57  H   UNL A   1      40.861  30.808  34.396  1.00  0.00     0.167 HD
ATOM     58  C   UNL A   1      39.127  33.013  34.881  1.00  0.00     0.074 A 
ATOM     59  C   UNL A   1      38.083  34.003  34.709  1.00  0.00     0.031 C 
ATOM     60  C   UNL A   1      39.924  32.925  35.973  1.00  0.00     0.037 A 
BRANCH  47  61
ATOM     61  C   UNL A   1      44.043  28.320  35.770  1.00  0.00     0.058 A 
ATOM     62  C   UNL A   1      45.385  28.671  35.553  1.00  0.00     0.135 A 
ATOM     63  C   UNL A   1      43.772  27.255  36.642  1.00  0.00     0.135 A 
ATOM     64  F   UNL A   1      45.693  29.670  34.711  1.00  0.00    -0.206 F 
ATOM     65  C   UNL A   1      46.423  27.973  36.157  1.00  0.00     0.059 A 
ATOM     66  C   UNL A   1      44.796  26.554  37.274  1.00  0.00     0.059 A 
ATOM     67  F   UNL A   1      42.506  26.879  36.879  1.00  0.00    -0.206 F 
ATOM     68  C   UNL A   1      46.119  26.911  37.010  1.00  0.00     0.060 A 
BRANCH  68  69
ATOM     69  S   UNL A   1      47.477  26.002  37.777  1.00  0.00     0.124 S 
ATOM     70  O   UNL A   1      47.892  26.931  38.824  1.00  0.00    -0.237 OA
ATOM     71  O   UNL A   1      46.822  24.781  38.237  1.00  0.00    -0.237 OA
ATOM     72  O   UNL A   1      48.425  25.825  36.681  1.00  0.00    -0.744 OA
ENDBRANCH  68  69
ENDBRANCH  47  61
BRANCH  48  73
ATOM     73  C   UNL A   1      36.674  32.955  30.864  1.00  0.00     0.058 A 
ATOM     74  C   UNL A   1      35.327  32.674  31.134  1.00  0.00     0.135 A 
ATOM     75  C   UNL A   1      36.963  33.941  29.911  1.00  0.00     0.135 A 
ATOM     76  F   UNL A   1      35.006  31.735  32.037  1.00  0.00    -0.206 F 
ATOM     77  C   UNL A   1      34.300  33.346  30.482  1.00  0.00     0.059 A 
ATOM     78  C   UNL A   1      35.953  34.637  29.255  1.00  0.00     0.059 A 
ATOM     79  F   UNL A   1      38.238  34.254  29.632  1.00  0.00    -0.206 F 
ATOM     80  C   UNL A   1      34.623  34.330  29.545  1.00  0.00     0.060 A 
BRANCH  80  81
ATOM     81  S   UNL A   1      33.284  35.248  28.755  1.00  0.00     0.124 S 
ATOM     82  O   UNL A   1      34.024  36.220  27.958  1.00  0.00    -0.237 OA
ATOM     83  O   UNL A   1      32.593  34.203  28.005  1.00  0.00    -0.237 OA
ATOM     84  O   UNL A   1      32.539  35.791  29.886  1.00  0.00    -0.744 OA
ENDBRANCH  80  81
ENDBRANCH  48  73
BRANCH  60  85
ATOM     85  C   UNL A   1      39.725  33.937  37.061  1.00  0.00     0.058 A 
ATOM     86  C   UNL A   1      38.976  33.635  38.207  1.00  0.00     0.135 A 
ATOM     87  C   UNL A   1      40.377  35.179  37.003  1.00  0.00     0.135 A 
ATOM     88  F   UNL A   1      38.331  32.462  38.302  1.00  0.00    -0.206 F 
ATOM     89  C   UNL A   1      38.885  34.530  39.267  1.00  0.00     0.059 A 
ATOM     90  C   UNL A   1      40.311  36.084  38.057  1.00  0.00     0.059 A 
ATOM     91  F   UNL A   1      41.109  35.508  35.927  1.00  0.00    -0.206 F 
ATOM     92  C   UNL A   1      39.563  35.750  39.186  1.00  0.00     0.060 A 
BRANCH  92  93
ATOM     93  S   UNL A   1      39.506  36.869  40.602  1.00  0.00     0.124 S 
ATOM     94  O   UNL A   1      38.195  36.564  41.164  1.00  0.00    -0.237 OA
ATOM     95  O   UNL A   1      40.653  36.434  41.394  1.00  0.00    -0.237 OA
ATOM     96  O   UNL A   1      39.638  38.190  39.994  1.00  0.00    -0.744 OA
ENDBRANCH  92  93
ENDBRANCH  60  85
ENDBRANCH  34  35
ENDBRANCH  26  29
ENDBRANCH  24  25
ENDBRANCH   1  24
TORSDOF 15
ENDMDL
