MODEL 1
REMARK VINA RESULT:     -11.2      0.000      0.000
REMARK SMILES O=C(NCCCCNC(=O)c1cc(Cl)cc(Cl)c1O)c1ccc(-c2c3nc(c(-c4c(F)cc(S(=O)(=O)[O-])cc4F)c4ccc([nH]4)c(-c4c(F)cc(S(=O)(=O)[O-])cc4F)c4nc(c(-c5c(F)cc(S(=O)(=O)[O-])cc5F)c5ccc2[nH]5)C=C4)C=C3)cc1
REMARK SMILES IDX 4 1 3 2 1 3 2 4 20 6 21 7 85 8 22 9 84 10 23 11 24 12 25 13
REMARK SMILES IDX 78 14 26 15 83 16 77 17 79 18 27 19 82 20 76 21 75 22 28 24
REMARK SMILES IDX 62 25 41 26 61 27 42 28 45 29 60 30 80 31 43 32 44 33 59 35
REMARK SMILES IDX 81 36 46 37 29 38 30 39 39 40 31 41 32 42 38 43 40 44 33 45
REMARK SMILES IDX 34 46 35 47 36 48 37 49 63 50 64 51 73 52 65 53 66 54 72 55
REMARK SMILES IDX 74 56 67 57 68 58 69 59 70 60 71 61 47 62 48 63 57 64 49 65
REMARK SMILES IDX 50 66 56 67 58 68 51 69 52 70 53 71 54 72 55 73 5 74 6 75
REMARK SMILES IDX 7 76 8 77 9 78 10 80 11 81 12 82 18 83 13 84 16 85 14 86
REMARK SMILES IDX 15 87 17 88 19 89
REMARK H PARENT 3 5 79 23 45 34 8 79 19 90
REMARK Flexibility Score: inf
ROOT
ATOM      1  C   UNL A   1      34.071  28.412  26.908  1.00  0.00     0.116 C 
ENDROOT
BRANCH   1   2
ATOM      2  N   UNL A   1      33.873  29.730  27.492  1.00  0.00    -0.352 N 
ATOM      3  O   UNL A   1      34.401  31.552  28.716  1.00  0.00    -0.269 OA
ATOM      4  C   UNL A   1      34.767  30.496  28.207  1.00  0.00     0.251 C 
ATOM      5  H   UNL A   1      32.981  30.128  27.357  1.00  0.00     0.163 HD
BRANCH   4   6
ATOM      6  C   UNL A   1      36.155  30.017  28.388  1.00  0.00     0.039 A 
ATOM      7  C   UNL A   1      36.563  29.485  29.612  1.00  0.00     0.014 A 
ATOM      8  C   UNL A   1      37.065  30.134  27.333  1.00  0.00     0.014 A 
ATOM      9  C   UNL A   1      37.910  29.226  29.831  1.00  0.00     0.010 A 
ATOM     10  C   UNL A   1      38.406  29.785  27.529  1.00  0.00     0.010 A 
ATOM     11  C   UNL A   1      38.848  29.362  28.792  1.00  0.00    -0.014 A 
BRANCH  11  12
ATOM     12  C   UNL A   1      40.262  28.995  29.060  1.00  0.00     0.031 A 
ATOM     13  C   UNL A   1      40.816  27.651  28.670  1.00  0.00     0.074 A 
ATOM     14  C   UNL A   1      41.069  29.931  29.596  1.00  0.00     0.049 A 
ATOM     15  N   UNL A   1      42.048  27.216  28.759  1.00  0.00    -0.248 NA
ATOM     16  C   UNL A   1      39.875  26.665  28.118  1.00  0.00     0.031 C 
ATOM     17  C   UNL A   1      40.634  31.259  30.041  1.00  0.00     0.029 A 
ATOM     18  N   UNL A   1      42.419  29.932  29.826  1.00  0.00    -0.354 N 
ATOM     19  C   UNL A   1      42.030  25.908  28.288  1.00  0.00     0.074 A 
ATOM     20  C   UNL A   1      40.658  25.610  27.935  1.00  0.00     0.031 C 
ATOM     21  C   UNL A   1      41.705  31.967  30.429  1.00  0.00     0.029 A 
ATOM     22  C   UNL A   1      42.892  31.129  30.312  1.00  0.00     0.049 A 
ATOM     23  H   UNL A   1      42.997  29.152  29.660  1.00  0.00     0.167 HD
ATOM     24  C   UNL A   1      43.064  25.043  28.154  1.00  0.00     0.037 A 
ATOM     25  C   UNL A   1      44.141  31.513  30.632  1.00  0.00     0.037 A 
ATOM     26  C   UNL A   1      44.431  25.352  28.494  1.00  0.00     0.049 A 
ATOM     27  C   UNL A   1      45.270  30.543  30.445  1.00  0.00     0.074 A 
ATOM     28  C   UNL A   1      45.550  24.543  28.391  1.00  0.00     0.029 A 
ATOM     29  N   UNL A   1      44.868  26.570  28.995  1.00  0.00    -0.354 N 
ATOM     30  N   UNL A   1      45.230  29.313  29.991  1.00  0.00    -0.248 NA
ATOM     31  C   UNL A   1      46.612  31.010  30.814  1.00  0.00     0.031 C 
ATOM     32  C   UNL A   1      46.658  25.263  28.852  1.00  0.00     0.029 A 
ATOM     33  C   UNL A   1      46.237  26.532  29.211  1.00  0.00     0.049 A 
ATOM     34  H   UNL A   1      44.291  27.347  29.172  1.00  0.00     0.167 HD
ATOM     35  C   UNL A   1      46.539  28.854  30.029  1.00  0.00     0.074 A 
ATOM     36  C   UNL A   1      47.353  29.953  30.512  1.00  0.00     0.031 C 
ATOM     37  C   UNL A   1      47.024  27.630  29.708  1.00  0.00     0.037 A 
BRANCH  24  38
ATOM     38  C   UNL A   1      42.767  23.670  27.616  1.00  0.00     0.058 A 
ATOM     39  C   UNL A   1      42.839  23.389  26.244  1.00  0.00     0.135 A 
ATOM     40  C   UNL A   1      42.472  22.608  28.488  1.00  0.00     0.135 A 
ATOM     41  F   UNL A   1      43.101  24.370  25.365  1.00  0.00    -0.206 F 
ATOM     42  C   UNL A   1      42.621  22.105  25.751  1.00  0.00     0.059 A 
ATOM     43  C   UNL A   1      42.270  21.312  28.019  1.00  0.00     0.059 A 
ATOM     44  F   UNL A   1      42.390  22.823  29.810  1.00  0.00    -0.206 F 
ATOM     45  C   UNL A   1      42.338  21.072  26.648  1.00  0.00     0.060 A 
BRANCH  45  46
ATOM     46  S   UNL A   1      42.082  19.407  25.996  1.00  0.00     0.124 S 
ATOM     47  O   UNL A   1      42.585  18.586  27.094  1.00  0.00    -0.237 OA
ATOM     48  O   UNL A   1      40.638  19.369  25.788  1.00  0.00    -0.237 OA
ATOM     49  O   UNL A   1      42.888  19.390  24.780  1.00  0.00    -0.744 OA
ENDBRANCH  45  46
ENDBRANCH  24  38
BRANCH  25  50
ATOM     50  C   UNL A   1      44.377  32.875  31.172  1.00  0.00     0.058 A 
ATOM     51  C   UNL A   1      44.588  33.969  30.321  1.00  0.00     0.135 A 
ATOM     52  C   UNL A   1      44.365  33.112  32.555  1.00  0.00     0.135 A 
ATOM     53  F   UNL A   1      44.608  33.789  28.991  1.00  0.00    -0.206 F 
ATOM     54  C   UNL A   1      44.795  35.249  30.821  1.00  0.00     0.059 A 
ATOM     55  C   UNL A   1      44.543  34.386  33.078  1.00  0.00     0.059 A 
ATOM     56  F   UNL A   1      44.144  32.100  33.409  1.00  0.00    -0.206 F 
ATOM     57  C   UNL A   1      44.771  35.447  32.203  1.00  0.00     0.060 A 
BRANCH  57  58
ATOM     58  S   UNL A   1      44.984  37.119  32.853  1.00  0.00     0.124 S 
ATOM     59  O   UNL A   1      43.607  37.594  32.893  1.00  0.00    -0.237 OA
ATOM     60  O   UNL A   1      45.614  36.874  34.146  1.00  0.00    -0.237 OA
ATOM     61  O   UNL A   1      45.845  37.753  31.857  1.00  0.00    -0.744 OA
ENDBRANCH  57  58
ENDBRANCH  25  50
BRANCH  37  62
ATOM     62  C   UNL A   1      48.502  27.427  29.879  1.00  0.00     0.058 A 
ATOM     63  C   UNL A   1      49.400  27.707  28.838  1.00  0.00     0.135 A 
ATOM     64  C   UNL A   1      49.024  26.943  31.088  1.00  0.00     0.135 A 
ATOM     65  F   UNL A   1      48.947  28.166  27.659  1.00  0.00    -0.206 F 
ATOM     66  C   UNL A   1      50.765  27.481  28.977  1.00  0.00     0.059 A 
ATOM     67  C   UNL A   1      50.387  26.729  31.257  1.00  0.00     0.059 A 
ATOM     68  F   UNL A   1      48.206  26.667  32.115  1.00  0.00    -0.206 F 
ATOM     69  C   UNL A   1      51.248  26.983  30.188  1.00  0.00     0.060 A 
BRANCH  69  70
ATOM     70  S   UNL A   1      53.020  26.683  30.359  1.00  0.00     0.124 S 
ATOM     71  O   UNL A   1      53.039  25.611  31.350  1.00  0.00    -0.237 OA
ATOM     72  O   UNL A   1      53.410  26.301  29.005  1.00  0.00    -0.237 OA
ATOM     73  O   UNL A   1      53.536  27.971  30.813  1.00  0.00    -0.744 OA
ENDBRANCH  69  70
ENDBRANCH  37  62
ENDBRANCH  11  12
ENDBRANCH   4   6
ENDBRANCH   1   2
BRANCH   1  74
ATOM     74  C   UNL A   1      32.779  27.626  26.724  1.00  0.00     0.023 C 
BRANCH  74  75
ATOM     75  C   UNL A   1      31.733  28.281  25.825  1.00  0.00     0.023 C 
BRANCH  75  76
ATOM     76  C   UNL A   1      32.278  28.906  24.542  1.00  0.00     0.116 C 
BRANCH  76  77
ATOM     77  N   UNL A   1      32.268  27.973  23.424  1.00  0.00    -0.352 N 
ATOM     78  C   UNL A   1      31.227  27.595  22.619  1.00  0.00     0.255 C 
ATOM     79  H   UNL A   1      33.134  27.555  23.218  1.00  0.00     0.163 HD
ATOM     80  O   UNL A   1      31.306  26.591  21.914  1.00  0.00    -0.269 OA
BRANCH  78  81
ATOM     81  C   UNL A   1      29.957  28.340  22.623  1.00  0.00     0.084 A 
ATOM     82  C   UNL A   1      28.835  27.817  23.276  1.00  0.00     0.038 A 
ATOM     83  C   UNL A   1      29.891  29.590  21.995  1.00  0.00     0.147 A 
ATOM     84  C   UNL A   1      27.622  28.495  23.201  1.00  0.00     0.043 A 
ATOM     85  C   UNL A   1      28.664  30.257  21.925  1.00  0.00     0.085 A 
ATOM     86  Cl  UNL A   1      26.225  27.820  23.945  1.00  0.00    -0.084 Cl
ATOM     87  C   UNL A   1      27.526  29.704  22.516  1.00  0.00     0.045 A 
ATOM     88  Cl  UNL A   1      28.508  31.776  21.118  1.00  0.00    -0.080 Cl
BRANCH  83  89
ATOM     89  O   UNL A   1      31.004  30.173  21.443  1.00  0.00    -0.506 OA
ATOM     90  H   UNL A   1      31.778  30.284  21.959  1.00  0.00     0.293 HD
ENDBRANCH  83  89
ENDBRANCH  78  81
ENDBRANCH  76  77
ENDBRANCH  75  76
ENDBRANCH  74  75
ENDBRANCH   1  74
TORSDOF 15
ENDMDL
MODEL 2
REMARK VINA RESULT:     -11.0      3.506      5.433
REMARK SMILES O=C(NCCCCNC(=O)c1cc(Cl)cc(Cl)c1O)c1ccc(-c2c3nc(c(-c4c(F)cc(S(=O)(=O)[O-])cc4F)c4ccc([nH]4)c(-c4c(F)cc(S(=O)(=O)[O-])cc4F)c4nc(c(-c5c(F)cc(S(=O)(=O)[O-])cc5F)c5ccc2[nH]5)C=C4)C=C3)cc1
REMARK SMILES IDX 4 1 3 2 1 3 2 4 20 6 21 7 85 8 22 9 84 10 23 11 24 12 25 13
REMARK SMILES IDX 78 14 26 15 83 16 77 17 79 18 27 19 82 20 76 21 75 22 28 24
REMARK SMILES IDX 62 25 41 26 61 27 42 28 45 29 60 30 80 31 43 32 44 33 59 35
REMARK SMILES IDX 81 36 46 37 29 38 30 39 39 40 31 41 32 42 38 43 40 44 33 45
REMARK SMILES IDX 34 46 35 47 36 48 37 49 63 50 64 51 73 52 65 53 66 54 72 55
REMARK SMILES IDX 74 56 67 57 68 58 69 59 70 60 71 61 47 62 48 63 57 64 49 65
REMARK SMILES IDX 50 66 56 67 58 68 51 69 52 70 53 71 54 72 55 73 5 74 6 75
REMARK SMILES IDX 7 76 8 77 9 78 10 80 11 81 12 82 18 83 13 84 16 85 14 86
REMARK SMILES IDX 15 87 17 88 19 89
REMARK H PARENT 3 5 79 23 45 34 8 79 19 90
REMARK Flexibility Score: inf
ROOT
ATOM      1  C   UNL A   1      34.359  32.449  28.364  1.00  0.00     0.116 C 
ENDROOT
BRANCH   1   2
ATOM      2  N   UNL A   1      33.736  31.185  28.000  1.00  0.00    -0.352 N 
ATOM      3  O   UNL A   1      33.661  28.993  27.464  1.00  0.00    -0.269 OA
ATOM      4  C   UNL A   1      34.319  29.943  27.879  1.00  0.00     0.251 C 
ATOM      5  H   UNL A   1      32.769  31.223  27.817  1.00  0.00     0.163 HD
BRANCH   4   6
ATOM      6  C   UNL A   1      35.750  29.774  28.216  1.00  0.00     0.039 A 
ATOM      7  C   UNL A   1      36.735  30.038  27.263  1.00  0.00     0.014 A 
ATOM      8  C   UNL A   1      36.107  29.314  29.487  1.00  0.00     0.014 A 
ATOM      9  C   UNL A   1      38.053  29.687  27.524  1.00  0.00     0.010 A 
ATOM     10  C   UNL A   1      37.450  29.047  29.779  1.00  0.00     0.010 A 
ATOM     11  C   UNL A   1      38.430  29.197  28.787  1.00  0.00    -0.014 A 
BRANCH  11  12
ATOM     12  C   UNL A   1      39.866  28.912  29.037  1.00  0.00     0.031 A 
ATOM     13  C   UNL A   1      40.489  27.597  28.653  1.00  0.00     0.074 A 
ATOM     14  C   UNL A   1      40.629  29.898  29.551  1.00  0.00     0.049 A 
ATOM     15  N   UNL A   1      41.744  27.231  28.727  1.00  0.00    -0.248 NA
ATOM     16  C   UNL A   1      39.595  26.554  28.126  1.00  0.00     0.031 C 
ATOM     17  C   UNL A   1      40.127  31.205  29.989  1.00  0.00     0.029 A 
ATOM     18  N   UNL A   1      41.980  29.977  29.759  1.00  0.00    -0.354 N 
ATOM     19  C   UNL A   1      41.792  25.920  28.270  1.00  0.00     0.074 A 
ATOM     20  C   UNL A   1      40.433  25.542  27.943  1.00  0.00     0.031 C 
ATOM     21  C   UNL A   1      41.163  31.975  30.351  1.00  0.00     0.029 A 
ATOM     22  C   UNL A   1      42.392  31.203  30.225  1.00  0.00     0.049 A 
ATOM     23  H   UNL A   1      42.597  29.228  29.592  1.00  0.00     0.167 HD
ATOM     24  C   UNL A   1      42.871  25.112  28.129  1.00  0.00     0.037 A 
ATOM     25  C   UNL A   1      43.623  31.659  30.521  1.00  0.00     0.037 A 
ATOM     26  C   UNL A   1      44.223  25.500  28.443  1.00  0.00     0.049 A 
ATOM     27  C   UNL A   1      44.801  30.752  30.326  1.00  0.00     0.074 A 
ATOM     28  C   UNL A   1      45.384  24.754  28.331  1.00  0.00     0.029 A 
ATOM     29  N   UNL A   1      44.599  26.746  28.925  1.00  0.00    -0.354 N 
ATOM     30  N   UNL A   1      44.823  29.517  29.886  1.00  0.00    -0.248 NA
ATOM     31  C   UNL A   1      46.121  31.297  30.669  1.00  0.00     0.031 C 
ATOM     32  C   UNL A   1      46.457  25.539  28.767  1.00  0.00     0.029 A 
ATOM     33  C   UNL A   1      45.971  26.787  29.119  1.00  0.00     0.049 A 
ATOM     34  H   UNL A   1      43.982  27.492  29.102  1.00  0.00     0.167 HD
ATOM     35  C   UNL A   1      46.156  29.132  29.908  1.00  0.00     0.074 A 
ATOM     36  C   UNL A   1      46.915  30.279  30.366  1.00  0.00     0.031 C 
ATOM     37  C   UNL A   1      46.704  27.933  29.592  1.00  0.00     0.037 A 
BRANCH  24  38
ATOM     38  C   UNL A   1      42.643  23.718  27.610  1.00  0.00     0.058 A 
ATOM     39  C   UNL A   1      42.594  23.446  26.235  1.00  0.00     0.135 A 
ATOM     40  C   UNL A   1      42.538  22.633  28.497  1.00  0.00     0.135 A 
ATOM     41  F   UNL A   1      42.673  24.448  25.345  1.00  0.00    -0.206 F 
ATOM     42  C   UNL A   1      42.441  22.149  25.754  1.00  0.00     0.059 A 
ATOM     43  C   UNL A   1      42.403  21.325  28.037  1.00  0.00     0.059 A 
ATOM     44  F   UNL A   1      42.577  22.838  29.822  1.00  0.00    -0.206 F 
ATOM     45  C   UNL A   1      42.347  21.094  26.664  1.00  0.00     0.060 A 
BRANCH  45  46
ATOM     46  S   UNL A   1      42.174  19.413  26.026  1.00  0.00     0.124 S 
ATOM     47  O   UNL A   1      43.080  19.443  24.882  1.00  0.00    -0.237 OA
ATOM     48  O   UNL A   1      42.609  18.601  27.157  1.00  0.00    -0.237 OA
ATOM     49  O   UNL A   1      40.755  19.318  25.699  1.00  0.00    -0.744 OA
ENDBRANCH  45  46
ENDBRANCH  24  38
BRANCH  25  50
ATOM     50  C   UNL A   1      43.791  33.039  31.042  1.00  0.00     0.058 A 
ATOM     51  C   UNL A   1      43.962  34.128  30.177  1.00  0.00     0.135 A 
ATOM     52  C   UNL A   1      43.752  33.296  32.422  1.00  0.00     0.135 A 
ATOM     53  F   UNL A   1      44.006  33.931  28.851  1.00  0.00    -0.206 F 
ATOM     54  C   UNL A   1      44.106  35.424  30.660  1.00  0.00     0.059 A 
ATOM     55  C   UNL A   1      43.867  34.584  32.927  1.00  0.00     0.059 A 
ATOM     56  F   UNL A   1      43.568  32.287  33.288  1.00  0.00    -0.206 F 
ATOM     57  C   UNL A   1      44.056  35.642  32.038  1.00  0.00     0.060 A 
BRANCH  57  58
ATOM     58  S   UNL A   1      44.186  37.330  32.664  1.00  0.00     0.124 S 
ATOM     59  O   UNL A   1      43.195  37.322  33.733  1.00  0.00    -0.237 OA
ATOM     60  O   UNL A   1      45.581  37.401  33.087  1.00  0.00    -0.237 OA
ATOM     61  O   UNL A   1      43.853  38.143  31.497  1.00  0.00    -0.744 OA
ENDBRANCH  57  58
ENDBRANCH  25  50
BRANCH  37  62
ATOM     62  C   UNL A   1      48.193  27.814  29.742  1.00  0.00     0.058 A 
ATOM     63  C   UNL A   1      49.057  28.113  28.677  1.00  0.00     0.135 A 
ATOM     64  C   UNL A   1      48.760  27.393  30.954  1.00  0.00     0.135 A 
ATOM     65  F   UNL A   1      48.561  28.513  27.495  1.00  0.00    -0.206 F 
ATOM     66  C   UNL A   1      50.434  27.964  28.797  1.00  0.00     0.059 A 
ATOM     67  C   UNL A   1      50.136  27.257  31.104  1.00  0.00     0.059 A 
ATOM     68  F   UNL A   1      47.975  27.103  32.003  1.00  0.00    -0.206 F 
ATOM     69  C   UNL A   1      50.964  27.526  30.013  1.00  0.00     0.060 A 
BRANCH  69  70
ATOM     70  S   UNL A   1      52.752  27.327  30.160  1.00  0.00     0.124 S 
ATOM     71  O   UNL A   1      52.883  25.873  30.166  1.00  0.00    -0.237 OA
ATOM     72  O   UNL A   1      53.247  28.003  28.964  1.00  0.00    -0.237 OA
ATOM     73  O   UNL A   1      53.062  27.993  31.421  1.00  0.00    -0.744 OA
ENDBRANCH  69  70
ENDBRANCH  37  62
ENDBRANCH  11  12
ENDBRANCH   4   6
ENDBRANCH   1   2
BRANCH   1  74
ATOM     74  C   UNL A   1      33.514  33.668  28.019  1.00  0.00     0.023 C 
BRANCH  74  75
ATOM     75  C   UNL A   1      33.556  34.806  29.037  1.00  0.00     0.023 C 
BRANCH  75  76
ATOM     76  C   UNL A   1      34.440  34.555  30.257  1.00  0.00     0.116 C 
BRANCH  76  77
ATOM     77  N   UNL A   1      33.664  34.240  31.448  1.00  0.00    -0.352 N 
ATOM     78  C   UNL A   1      34.014  33.490  32.539  1.00  0.00     0.255 C 
ATOM     79  H   UNL A   1      32.757  34.621  31.471  1.00  0.00     0.163 HD
ATOM     80  O   UNL A   1      33.161  33.074  33.320  1.00  0.00    -0.269 OA
BRANCH  78  81
ATOM     81  C   UNL A   1      35.416  33.103  32.773  1.00  0.00     0.084 A 
ATOM     82  C   UNL A   1      35.811  31.768  32.633  1.00  0.00     0.038 A 
ATOM     83  C   UNL A   1      36.355  34.088  33.105  1.00  0.00     0.147 A 
ATOM     84  C   UNL A   1      37.120  31.406  32.936  1.00  0.00     0.043 A 
ATOM     85  C   UNL A   1      37.666  33.708  33.410  1.00  0.00     0.085 A 
ATOM     86  Cl  UNL A   1      37.590  29.755  32.831  1.00  0.00    -0.084 Cl
ATOM     87  C   UNL A   1      38.046  32.366  33.339  1.00  0.00     0.045 A 
ATOM     88  Cl  UNL A   1      38.855  34.869  33.879  1.00  0.00    -0.080 Cl
BRANCH  83  89
ATOM     89  O   UNL A   1      36.015  35.417  33.141  1.00  0.00    -0.506 OA
ATOM     90  H   UNL A   1      36.282  35.987  32.446  1.00  0.00     0.293 HD
ENDBRANCH  83  89
ENDBRANCH  78  81
ENDBRANCH  76  77
ENDBRANCH  75  76
ENDBRANCH  74  75
ENDBRANCH   1  74
TORSDOF 15
ENDMDL
MODEL 3
REMARK VINA RESULT:     -11.0      3.657      5.980
REMARK SMILES O=C(NCCCCNC(=O)c1cc(Cl)cc(Cl)c1O)c1ccc(-c2c3nc(c(-c4c(F)cc(S(=O)(=O)[O-])cc4F)c4ccc([nH]4)c(-c4c(F)cc(S(=O)(=O)[O-])cc4F)c4nc(c(-c5c(F)cc(S(=O)(=O)[O-])cc5F)c5ccc2[nH]5)C=C4)C=C3)cc1
REMARK SMILES IDX 4 1 3 2 1 3 2 4 20 6 21 7 85 8 22 9 84 10 23 11 24 12 25 13
REMARK SMILES IDX 78 14 26 15 83 16 77 17 79 18 27 19 82 20 76 21 75 22 28 24
REMARK SMILES IDX 62 25 41 26 61 27 42 28 45 29 60 30 80 31 43 32 44 33 59 35
REMARK SMILES IDX 81 36 46 37 29 38 30 39 39 40 31 41 32 42 38 43 40 44 33 45
REMARK SMILES IDX 34 46 35 47 36 48 37 49 63 50 64 51 73 52 65 53 66 54 72 55
REMARK SMILES IDX 74 56 67 57 68 58 69 59 70 60 71 61 47 62 48 63 57 64 49 65
REMARK SMILES IDX 50 66 56 67 58 68 51 69 52 70 53 71 54 72 55 73 5 74 6 75
REMARK SMILES IDX 7 76 8 77 9 78 10 80 11 81 12 82 18 83 13 84 16 85 14 86
REMARK SMILES IDX 15 87 17 88 19 89
REMARK H PARENT 3 5 79 23 45 34 8 79 19 90
REMARK Flexibility Score: inf
ROOT
ATOM      1  C   UNL A   1      34.572  32.490  28.318  1.00  0.00     0.116 C 
ENDROOT
BRANCH   1   2
ATOM      2  N   UNL A   1      33.915  31.226  28.022  1.00  0.00    -0.352 N 
ATOM      3  O   UNL A   1      33.782  29.015  27.585  1.00  0.00    -0.269 OA
ATOM      4  C   UNL A   1      34.468  29.967  27.945  1.00  0.00     0.251 C 
ATOM      5  H   UNL A   1      32.945  31.278  27.856  1.00  0.00     0.163 HD
BRANCH   4   6
ATOM      6  C   UNL A   1      35.902  29.781  28.261  1.00  0.00     0.039 A 
ATOM      7  C   UNL A   1      36.876  30.037  27.295  1.00  0.00     0.014 A 
ATOM      8  C   UNL A   1      36.271  29.313  29.525  1.00  0.00     0.014 A 
ATOM      9  C   UNL A   1      38.193  29.670  27.537  1.00  0.00     0.010 A 
ATOM     10  C   UNL A   1      37.615  29.030  29.798  1.00  0.00     0.010 A 
ATOM     11  C   UNL A   1      38.583  29.172  28.793  1.00  0.00    -0.014 A 
BRANCH  11  12
ATOM     12  C   UNL A   1      40.019  28.870  29.022  1.00  0.00     0.031 A 
ATOM     13  C   UNL A   1      40.621  27.548  28.628  1.00  0.00     0.074 A 
ATOM     14  C   UNL A   1      40.800  29.847  29.526  1.00  0.00     0.049 A 
ATOM     15  N   UNL A   1      41.873  27.168  28.683  1.00  0.00    -0.248 NA
ATOM     16  C   UNL A   1      39.708  26.517  28.112  1.00  0.00     0.031 C 
ATOM     17  C   UNL A   1      40.320  31.158  29.972  1.00  0.00     0.029 A 
ATOM     18  N   UNL A   1      42.155  29.909  29.715  1.00  0.00    -0.354 N 
ATOM     19  C   UNL A   1      41.899  25.857  28.224  1.00  0.00     0.074 A 
ATOM     20  C   UNL A   1      40.531  25.495  27.916  1.00  0.00     0.031 C 
ATOM     21  C   UNL A   1      41.369  31.916  30.321  1.00  0.00     0.029 A 
ATOM     22  C   UNL A   1      42.588  31.130  30.176  1.00  0.00     0.049 A 
ATOM     23  H   UNL A   1      42.761  29.153  29.538  1.00  0.00     0.167 HD
ATOM     24  C   UNL A   1      42.966  25.037  28.066  1.00  0.00     0.037 A 
ATOM     25  C   UNL A   1      43.828  31.571  30.455  1.00  0.00     0.037 A 
ATOM     26  C   UNL A   1      44.327  25.409  28.362  1.00  0.00     0.049 A 
ATOM     27  C   UNL A   1      44.993  30.651  30.242  1.00  0.00     0.074 A 
ATOM     28  C   UNL A   1      45.477  24.649  28.233  1.00  0.00     0.029 A 
ATOM     29  N   UNL A   1      44.724  26.649  28.839  1.00  0.00    -0.354 N 
ATOM     30  N   UNL A   1      44.994  29.416  29.801  1.00  0.00    -0.248 NA
ATOM     31  C   UNL A   1      46.324  31.179  30.567  1.00  0.00     0.031 C 
ATOM     32  C   UNL A   1      46.566  25.421  28.654  1.00  0.00     0.029 A 
ATOM     33  C   UNL A   1      46.099  26.674  29.014  1.00  0.00     0.049 A 
ATOM     34  H   UNL A   1      44.119  27.402  29.027  1.00  0.00     0.167 HD
ATOM     35  C   UNL A   1      46.323  29.015  29.803  1.00  0.00     0.074 A 
ATOM     36  C   UNL A   1      47.101  30.153  30.252  1.00  0.00     0.031 C 
ATOM     37  C   UNL A   1      46.851  27.810  29.478  1.00  0.00     0.037 A 
BRANCH  24  38
ATOM     38  C   UNL A   1      42.714  23.646  27.550  1.00  0.00     0.058 A 
ATOM     39  C   UNL A   1      42.785  23.349  26.181  1.00  0.00     0.135 A 
ATOM     40  C   UNL A   1      42.463  22.587  28.438  1.00  0.00     0.135 A 
ATOM     41  F   UNL A   1      43.006  24.326  25.287  1.00  0.00    -0.206 F 
ATOM     42  C   UNL A   1      42.610  22.051  25.708  1.00  0.00     0.059 A 
ATOM     43  C   UNL A   1      42.304  21.278  27.988  1.00  0.00     0.059 A 
ATOM     44  F   UNL A   1      42.383  22.817  29.757  1.00  0.00    -0.206 F 
ATOM     45  C   UNL A   1      42.370  21.022  26.620  1.00  0.00     0.060 A 
BRANCH  45  46
ATOM     46  S   UNL A   1      42.169  19.340  25.994  1.00  0.00     0.124 S 
ATOM     47  O   UNL A   1      42.652  18.550  27.122  1.00  0.00    -0.237 OA
ATOM     48  O   UNL A   1      40.733  19.268  25.740  1.00  0.00    -0.237 OA
ATOM     49  O   UNL A   1      43.014  19.316  24.804  1.00  0.00    -0.744 OA
ENDBRANCH  45  46
ENDBRANCH  24  38
BRANCH  25  50
ATOM     50  C   UNL A   1      44.020  32.948  30.976  1.00  0.00     0.058 A 
ATOM     51  C   UNL A   1      44.193  34.036  30.109  1.00  0.00     0.135 A 
ATOM     52  C   UNL A   1      44.002  33.204  32.356  1.00  0.00     0.135 A 
ATOM     53  F   UNL A   1      44.218  33.840  28.782  1.00  0.00    -0.206 F 
ATOM     54  C   UNL A   1      44.359  35.330  30.592  1.00  0.00     0.059 A 
ATOM     55  C   UNL A   1      44.138  34.490  32.861  1.00  0.00     0.059 A 
ATOM     56  F   UNL A   1      43.816  32.197  33.223  1.00  0.00    -0.206 F 
ATOM     57  C   UNL A   1      44.329  35.546  31.971  1.00  0.00     0.060 A 
BRANCH  57  58
ATOM     58  S   UNL A   1      44.488  37.233  32.597  1.00  0.00     0.124 S 
ATOM     59  O   UNL A   1      43.781  37.139  33.868  1.00  0.00    -0.237 OA
ATOM     60  O   UNL A   1      45.935  37.400  32.681  1.00  0.00    -0.237 OA
ATOM     61  O   UNL A   1      43.833  38.032  31.564  1.00  0.00    -0.744 OA
ENDBRANCH  57  58
ENDBRANCH  25  50
BRANCH  37  62
ATOM     62  C   UNL A   1      48.341  27.674  29.607  1.00  0.00     0.058 A 
ATOM     63  C   UNL A   1      49.194  27.968  28.531  1.00  0.00     0.135 A 
ATOM     64  C   UNL A   1      48.920  27.241  30.808  1.00  0.00     0.135 A 
ATOM     65  F   UNL A   1      48.686  28.379  27.358  1.00  0.00    -0.206 F 
ATOM     66  C   UNL A   1      50.571  27.803  28.631  1.00  0.00     0.059 A 
ATOM     67  C   UNL A   1      50.297  27.089  30.938  1.00  0.00     0.059 A 
ATOM     68  F   UNL A   1      48.147  26.955  31.867  1.00  0.00    -0.206 F 
ATOM     69  C   UNL A   1      51.112  27.354  29.837  1.00  0.00     0.060 A 
BRANCH  69  70
ATOM     70  S   UNL A   1      52.900  27.133  29.958  1.00  0.00     0.124 S 
ATOM     71  O   UNL A   1      53.324  28.449  30.428  1.00  0.00    -0.237 OA
ATOM     72  O   UNL A   1      53.021  26.046  30.924  1.00  0.00    -0.237 OA
ATOM     73  O   UNL A   1      53.291  26.796  28.593  1.00  0.00    -0.744 OA
ENDBRANCH  69  70
ENDBRANCH  37  62
ENDBRANCH  11  12
ENDBRANCH   4   6
ENDBRANCH   1   2
BRANCH   1  74
ATOM     74  C   UNL A   1      34.829  32.711  29.803  1.00  0.00     0.023 C 
BRANCH  74  75
ATOM     75  C   UNL A   1      36.298  32.847  30.203  1.00  0.00     0.023 C 
BRANCH  75  76
ATOM     76  C   UNL A   1      36.614  34.022  31.126  1.00  0.00     0.116 C 
BRANCH  76  77
ATOM     77  N   UNL A   1      35.905  33.935  32.395  1.00  0.00    -0.352 N 
ATOM     78  C   UNL A   1      36.205  33.197  33.509  1.00  0.00     0.255 C 
ATOM     79  H   UNL A   1      35.092  34.487  32.461  1.00  0.00     0.163 HD
ATOM     80  O   UNL A   1      35.364  33.003  34.384  1.00  0.00    -0.269 OA
BRANCH  78  81
ATOM     81  C   UNL A   1      37.522  32.557  33.660  1.00  0.00     0.084 A 
ATOM     82  C   UNL A   1      38.607  33.285  34.161  1.00  0.00     0.038 A 
ATOM     83  C   UNL A   1      37.672  31.204  33.327  1.00  0.00     0.147 A 
ATOM     84  C   UNL A   1      39.862  32.689  34.221  1.00  0.00     0.043 A 
ATOM     85  C   UNL A   1      38.941  30.620  33.390  1.00  0.00     0.085 A 
ATOM     86  Cl  UNL A   1      41.211  33.604  34.773  1.00  0.00    -0.084 Cl
ATOM     87  C   UNL A   1      40.039  31.366  33.823  1.00  0.00     0.045 A 
ATOM     88  Cl  UNL A   1      39.198  28.973  32.941  1.00  0.00    -0.080 Cl
BRANCH  83  89
ATOM     89  O   UNL A   1      36.600  30.440  32.938  1.00  0.00    -0.506 OA
ATOM     90  H   UNL A   1      36.520  29.557  33.240  1.00  0.00     0.293 HD
ENDBRANCH  83  89
ENDBRANCH  78  81
ENDBRANCH  76  77
ENDBRANCH  75  76
ENDBRANCH  74  75
ENDBRANCH   1  74
TORSDOF 15
ENDMDL
