MODEL 1
REMARK VINA RESULT:     -12.2      0.000      0.000
REMARK SMILES O=C(NCCCCNC(=O)[C@@H]1Cc2[nH]cnc2CN1C(=O)NCC(F)(F)F)c1ccc(-c2c3nc(c(-c4c(F)cc(S(=O)(=O)[O-])cc4F)c4ccc([nH]4)c(-c4c(F)cc(S(=O)(=O)[O-])cc4F)c4nc(c(-c5c(F)cc(S(=O)(=O)[O-])cc5F)c5ccc2[nH]5)C=C4)C=C3)cc1
REMARK SMILES IDX 5 1 4 2 3 3 1 4 2 5 28 7 29 8 93 9 30 10 92 11 31 12 32 13
REMARK SMILES IDX 33 14 86 15 34 16 91 17 85 18 87 19 35 20 90 21 84 22 83 23
REMARK SMILES IDX 36 25 70 26 49 27 69 28 50 29 53 30 68 31 88 32 51 33 52 34
REMARK SMILES IDX 67 36 89 37 54 38 37 39 38 40 47 41 39 42 40 43 46 44 48 45
REMARK SMILES IDX 41 46 42 47 43 48 44 49 45 50 71 51 72 52 81 53 73 54 74 55
REMARK SMILES IDX 80 56 82 57 75 58 76 59 77 60 78 61 79 62 55 63 56 64 65 65
REMARK SMILES IDX 57 66 58 67 64 68 66 69 59 70 60 71 61 72 62 73 63 74 6 75
REMARK SMILES IDX 7 76 8 77 9 78 10 80 11 81 12 82 19 83 13 84 18 85 14 86
REMARK SMILES IDX 17 87 15 88 16 90 20 91 21 92 22 93 23 95 24 96 25 97 26 98
REMARK SMILES IDX 27 99
REMARK H PARENT 3 6 87 24 53 35 8 79 14 89 22 94
REMARK Flexibility Score: inf
ROOT
ATOM      1  C   UNL A   1      32.683  28.321  27.507  1.00  0.00     0.023 C 
ENDROOT
BRANCH   1   2
ATOM      2  C   UNL A   1      33.286  29.384  26.587  1.00  0.00     0.116 C 
BRANCH   2   3
ATOM      3  N   UNL A   1      33.374  30.685  27.216  1.00  0.00    -0.352 N 
ATOM      4  O   UNL A   1      34.099  32.545  28.145  1.00  0.00    -0.269 OA
ATOM      5  C   UNL A   1      34.394  31.410  27.764  1.00  0.00     0.251 C 
ATOM      6  H   UNL A   1      32.508  31.150  27.258  1.00  0.00     0.163 HD
BRANCH   5   7
ATOM      7  C   UNL A   1      35.779  30.910  27.973  1.00  0.00     0.039 A 
ATOM      8  C   UNL A   1      36.204  29.591  27.802  1.00  0.00     0.014 A 
ATOM      9  C   UNL A   1      36.712  31.863  28.423  1.00  0.00     0.014 A 
ATOM     10  C   UNL A   1      37.493  29.210  28.147  1.00  0.00     0.010 A 
ATOM     11  C   UNL A   1      38.007  31.493  28.757  1.00  0.00     0.010 A 
ATOM     12  C   UNL A   1      38.379  30.156  28.653  1.00  0.00    -0.014 A 
BRANCH  12  13
ATOM     13  C   UNL A   1      39.743  29.722  28.926  1.00  0.00     0.031 A 
ATOM     14  C   UNL A   1      40.106  29.711  30.377  1.00  0.00     0.074 A 
ATOM     15  C   UNL A   1      40.534  29.230  27.952  1.00  0.00     0.049 A 
ATOM     16  N   UNL A   1      41.092  30.299  30.976  1.00  0.00    -0.248 NA
ATOM     17  C   UNL A   1      39.160  29.059  31.302  1.00  0.00     0.031 C 
ATOM     18  C   UNL A   1      40.169  28.944  26.561  1.00  0.00     0.029 A 
ATOM     19  N   UNL A   1      41.808  28.759  28.030  1.00  0.00    -0.354 N 
ATOM     20  C   UNL A   1      41.013  29.912  32.316  1.00  0.00     0.074 A 
ATOM     21  C   UNL A   1      39.724  29.300  32.485  1.00  0.00     0.031 C 
ATOM     22  C   UNL A   1      41.097  28.127  26.017  1.00  0.00     0.029 A 
ATOM     23  C   UNL A   1      42.175  27.937  26.972  1.00  0.00     0.049 A 
ATOM     24  H   UNL A   1      42.416  28.982  28.771  1.00  0.00     0.167 HD
ATOM     25  C   UNL A   1      42.103  29.914  33.132  1.00  0.00     0.037 A 
ATOM     26  C   UNL A   1      43.234  27.087  26.936  1.00  0.00     0.037 A 
ATOM     27  C   UNL A   1      43.123  30.800  32.635  1.00  0.00     0.049 A 
ATOM     28  C   UNL A   1      44.180  27.519  27.999  1.00  0.00     0.074 A 
ATOM     29  C   UNL A   1      43.189  32.156  32.376  1.00  0.00     0.029 A 
ATOM     30  N   UNL A   1      44.205  30.249  31.996  1.00  0.00    -0.354 N 
ATOM     31  N   UNL A   1      44.825  28.654  27.983  1.00  0.00    -0.248 NA
ATOM     32  C   UNL A   1      44.054  26.894  29.307  1.00  0.00     0.031 C 
ATOM     33  C   UNL A   1      43.993  32.267  31.206  1.00  0.00     0.029 A 
ATOM     34  C   UNL A   1      44.416  30.983  30.859  1.00  0.00     0.049 A 
ATOM     35  H   UNL A   1      44.731  29.473  32.298  1.00  0.00     0.167 HD
ATOM     36  C   UNL A   1      44.816  29.089  29.300  1.00  0.00     0.074 A 
ATOM     37  C   UNL A   1      44.394  27.927  30.081  1.00  0.00     0.031 C 
ATOM     38  C   UNL A   1      44.881  30.417  29.612  1.00  0.00     0.037 A 
BRANCH  25  39
ATOM     39  C   UNL A   1      42.399  28.826  34.150  1.00  0.00     0.058 A 
ATOM     40  C   UNL A   1      42.602  27.503  33.700  1.00  0.00     0.135 A 
ATOM     41  C   UNL A   1      42.180  28.962  35.540  1.00  0.00     0.135 A 
ATOM     42  F   UNL A   1      42.846  27.249  32.405  1.00  0.00    -0.206 F 
ATOM     43  C   UNL A   1      42.471  26.397  34.542  1.00  0.00     0.059 A 
ATOM     44  C   UNL A   1      42.095  27.877  36.404  1.00  0.00     0.059 A 
ATOM     45  F   UNL A   1      41.943  30.142  36.123  1.00  0.00    -0.206 F 
ATOM     46  C   UNL A   1      42.185  26.597  35.889  1.00  0.00     0.060 A 
BRANCH  46  47
ATOM     47  S   UNL A   1      41.854  25.177  36.945  1.00  0.00     0.124 S 
ATOM     48  O   UNL A   1      40.618  25.589  37.601  1.00  0.00    -0.237 OA
ATOM     49  O   UNL A   1      41.735  24.098  35.971  1.00  0.00    -0.237 OA
ATOM     50  O   UNL A   1      43.036  25.115  37.801  1.00  0.00    -0.744 OA
ENDBRANCH  46  47
ENDBRANCH  25  39
BRANCH  26  51
ATOM     51  C   UNL A   1      43.270  25.725  26.332  1.00  0.00     0.058 A 
ATOM     52  C   UNL A   1      44.188  25.394  25.318  1.00  0.00     0.135 A 
ATOM     53  C   UNL A   1      42.586  24.642  26.923  1.00  0.00     0.135 A 
ATOM     54  F   UNL A   1      44.906  26.355  24.720  1.00  0.00    -0.206 F 
ATOM     55  C   UNL A   1      44.435  24.067  24.938  1.00  0.00     0.059 A 
ATOM     56  C   UNL A   1      42.806  23.317  26.553  1.00  0.00     0.059 A 
ATOM     57  F   UNL A   1      41.742  24.830  27.948  1.00  0.00    -0.206 F 
ATOM     58  C   UNL A   1      43.749  23.032  25.575  1.00  0.00     0.060 A 
BRANCH  58  59
ATOM     59  S   UNL A   1      44.170  21.313  25.203  1.00  0.00     0.124 S 
ATOM     60  O   UNL A   1      45.344  21.101  26.044  1.00  0.00    -0.237 OA
ATOM     61  O   UNL A   1      42.961  20.604  25.607  1.00  0.00    -0.237 OA
ATOM     62  O   UNL A   1      44.429  21.329  23.766  1.00  0.00    -0.744 OA
ENDBRANCH  58  59
ENDBRANCH  26  51
BRANCH  38  63
ATOM     63  C   UNL A   1      45.232  31.395  28.520  1.00  0.00     0.058 A 
ATOM     64  C   UNL A   1      44.349  31.795  27.502  1.00  0.00     0.135 A 
ATOM     65  C   UNL A   1      46.454  32.078  28.613  1.00  0.00     0.135 A 
ATOM     66  F   UNL A   1      43.120  31.269  27.409  1.00  0.00    -0.206 F 
ATOM     67  C   UNL A   1      44.681  32.802  26.595  1.00  0.00     0.059 A 
ATOM     68  C   UNL A   1      46.792  33.108  27.739  1.00  0.00     0.059 A 
ATOM     69  F   UNL A   1      47.313  31.789  29.604  1.00  0.00    -0.206 F 
ATOM     70  C   UNL A   1      45.904  33.457  26.724  1.00  0.00     0.060 A 
BRANCH  70  71
ATOM     71  S   UNL A   1      46.298  34.819  25.607  1.00  0.00     0.124 S 
ATOM     72  O   UNL A   1      47.699  34.552  25.281  1.00  0.00    -0.237 OA
ATOM     73  O   UNL A   1      45.348  34.615  24.513  1.00  0.00    -0.237 OA
ATOM     74  O   UNL A   1      46.060  36.006  26.413  1.00  0.00    -0.744 OA
ENDBRANCH  70  71
ENDBRANCH  38  63
ENDBRANCH  12  13
ENDBRANCH   5   7
ENDBRANCH   2   3
ENDBRANCH   1   2
BRANCH   1  75
ATOM     75  C   UNL A   1      31.309  27.809  27.045  1.00  0.00     0.023 C 
BRANCH  75  76
ATOM     76  C   UNL A   1      31.373  26.902  25.817  1.00  0.00     0.116 C 
BRANCH  76  77
ATOM     77  N   UNL A   1      31.128  25.527  26.182  1.00  0.00    -0.354 N 
ATOM     78  C   UNL A   1      31.967  24.468  26.334  1.00  0.00     0.243 C 
ATOM     79  H   UNL A   1      30.181  25.318  26.353  1.00  0.00     0.163 HD
ATOM     80  O   UNL A   1      31.427  23.420  26.706  1.00  0.00    -0.273 OA
BRANCH  78  81
ATOM     81  C   UNL A   1      33.520  24.605  26.239  1.00  0.00     0.182 C 
ATOM     82  C   UNL A   1      34.107  25.723  25.330  1.00  0.00     0.091 C 
ATOM     83  N   UNL A   1      34.130  23.314  25.771  1.00  0.00    -0.306 N 
ATOM     84  C   UNL A   1      33.820  25.353  23.930  1.00  0.00     0.042 A 
ATOM     85  C   UNL A   1      33.664  22.866  24.414  1.00  0.00     0.180 C 
ATOM     86  N   UNL A   1      33.635  26.150  22.842  1.00  0.00    -0.348 N 
ATOM     87  C   UNL A   1      33.611  24.060  23.506  1.00  0.00     0.081 A 
ATOM     88  C   UNL A   1      33.282  25.317  21.811  1.00  0.00     0.197 A 
ATOM     89  H   UNL A   1      33.734  27.128  22.802  1.00  0.00     0.167 HD
ATOM     90  N   UNL A   1      33.277  24.051  22.180  1.00  0.00    -0.240 NA
BRANCH  83  91
ATOM     91  C   UNL A   1      35.108  22.566  26.342  1.00  0.00     0.318 C 
ATOM     92  O   UNL A   1      34.876  21.477  26.877  1.00  0.00    -0.249 OA
ATOM     93  N   UNL A   1      36.410  22.888  26.338  1.00  0.00    -0.329 N 
ATOM     94  H   UNL A   1      36.956  22.166  26.726  1.00  0.00     0.165 HD
BRANCH  93  95
ATOM     95  C   UNL A   1      37.248  24.010  25.918  1.00  0.00     0.233 C 
BRANCH  95  96
ATOM     96  C   UNL A   1      38.646  24.032  26.546  1.00  0.00     0.405 C 
ATOM     97  F   UNL A   1      39.435  24.939  25.924  1.00  0.00    -0.169 F 
ATOM     98  F   UNL A   1      38.572  24.388  27.849  1.00  0.00    -0.169 F 
ATOM     99  F   UNL A   1      39.260  22.834  26.488  1.00  0.00    -0.169 F 
ENDBRANCH  95  96
ENDBRANCH  93  95
ENDBRANCH  83  91
ENDBRANCH  78  81
ENDBRANCH  76  77
ENDBRANCH  75  76
ENDBRANCH   1  75
TORSDOF 17
ENDMDL
MODEL 2
REMARK VINA RESULT:     -12.0      2.242      3.300
REMARK SMILES O=C(NCCCCNC(=O)[C@@H]1Cc2[nH]cnc2CN1C(=O)NCC(F)(F)F)c1ccc(-c2c3nc(c(-c4c(F)cc(S(=O)(=O)[O-])cc4F)c4ccc([nH]4)c(-c4c(F)cc(S(=O)(=O)[O-])cc4F)c4nc(c(-c5c(F)cc(S(=O)(=O)[O-])cc5F)c5ccc2[nH]5)C=C4)C=C3)cc1
REMARK SMILES IDX 5 1 4 2 3 3 1 4 2 5 28 7 29 8 93 9 30 10 92 11 31 12 32 13
REMARK SMILES IDX 33 14 86 15 34 16 91 17 85 18 87 19 35 20 90 21 84 22 83 23
REMARK SMILES IDX 36 25 70 26 49 27 69 28 50 29 53 30 68 31 88 32 51 33 52 34
REMARK SMILES IDX 67 36 89 37 54 38 37 39 38 40 47 41 39 42 40 43 46 44 48 45
REMARK SMILES IDX 41 46 42 47 43 48 44 49 45 50 71 51 72 52 81 53 73 54 74 55
REMARK SMILES IDX 80 56 82 57 75 58 76 59 77 60 78 61 79 62 55 63 56 64 65 65
REMARK SMILES IDX 57 66 58 67 64 68 66 69 59 70 60 71 61 72 62 73 63 74 6 75
REMARK SMILES IDX 7 76 8 77 9 78 10 80 11 81 12 82 19 83 13 84 18 85 14 86
REMARK SMILES IDX 17 87 15 88 16 90 20 91 21 92 22 93 23 95 24 96 25 97 26 98
REMARK SMILES IDX 27 99
REMARK H PARENT 3 6 87 24 53 35 8 79 14 89 22 94
REMARK Flexibility Score: inf
ROOT
ATOM      1  C   UNL A   1      33.027  28.967  25.646  1.00  0.00     0.023 C 
ENDROOT
BRANCH   1   2
ATOM      2  C   UNL A   1      33.259  29.060  27.154  1.00  0.00     0.116 C 
BRANCH   2   3
ATOM      3  N   UNL A   1      33.365  30.426  27.622  1.00  0.00    -0.352 N 
ATOM      4  O   UNL A   1      34.115  32.384  28.294  1.00  0.00    -0.269 OA
ATOM      5  C   UNL A   1      34.403  31.213  28.034  1.00  0.00     0.251 C 
ATOM      6  H   UNL A   1      32.497  30.890  27.650  1.00  0.00     0.163 HD
BRANCH   5   7
ATOM      7  C   UNL A   1      35.800  30.746  28.235  1.00  0.00     0.039 A 
ATOM      8  C   UNL A   1      36.263  29.445  28.025  1.00  0.00     0.014 A 
ATOM      9  C   UNL A   1      36.704  31.710  28.720  1.00  0.00     0.014 A 
ATOM     10  C   UNL A   1      37.560  29.090  28.365  1.00  0.00     0.010 A 
ATOM     11  C   UNL A   1      38.007  31.366  29.050  1.00  0.00     0.010 A 
ATOM     12  C   UNL A   1      38.417  30.045  28.906  1.00  0.00    -0.014 A 
BRANCH  12  13
ATOM     13  C   UNL A   1      39.791  29.640  29.173  1.00  0.00     0.031 A 
ATOM     14  C   UNL A   1      40.118  29.492  30.624  1.00  0.00     0.074 A 
ATOM     15  C   UNL A   1      40.628  29.286  28.177  1.00  0.00     0.049 A 
ATOM     16  N   UNL A   1      41.061  30.053  31.310  1.00  0.00    -0.248 NA
ATOM     17  C   UNL A   1      39.178  28.708  31.449  1.00  0.00     0.031 C 
ATOM     18  C   UNL A   1      40.310  29.133  26.753  1.00  0.00     0.029 A 
ATOM     19  N   UNL A   1      41.918  28.862  28.243  1.00  0.00    -0.354 N 
ATOM     20  C   UNL A   1      40.965  29.525  32.600  1.00  0.00     0.074 A 
ATOM     21  C   UNL A   1      39.700  28.846  32.666  1.00  0.00     0.031 C 
ATOM     22  C   UNL A   1      41.287  28.416  26.155  1.00  0.00     0.029 A 
ATOM     23  C   UNL A   1      42.348  28.171  27.117  1.00  0.00     0.049 A 
ATOM     24  H   UNL A   1      42.497  29.031  29.021  1.00  0.00     0.167 HD
ATOM     25  C   UNL A   1      42.033  29.486  33.444  1.00  0.00     0.037 A 
ATOM     26  C   UNL A   1      43.444  27.374  27.024  1.00  0.00     0.037 A 
ATOM     27  C   UNL A   1      43.025  30.461  33.073  1.00  0.00     0.049 A 
ATOM     28  C   UNL A   1      44.343  27.730  28.154  1.00  0.00     0.074 A 
ATOM     29  C   UNL A   1      43.038  31.838  32.958  1.00  0.00     0.029 A 
ATOM     30  N   UNL A   1      44.147  30.025  32.412  1.00  0.00    -0.354 N 
ATOM     31  N   UNL A   1      44.937  28.886  28.275  1.00  0.00    -0.248 NA
ATOM     32  C   UNL A   1      44.211  26.967  29.386  1.00  0.00     0.031 C 
ATOM     33  C   UNL A   1      43.867  32.104  31.829  1.00  0.00     0.029 A 
ATOM     34  C   UNL A   1      44.354  30.882  31.364  1.00  0.00     0.049 A 
ATOM     35  H   UNL A   1      44.699  29.243  32.647  1.00  0.00     0.167 HD
ATOM     36  C   UNL A   1      44.876  29.180  29.630  1.00  0.00     0.074 A 
ATOM     37  C   UNL A   1      44.486  27.926  30.273  1.00  0.00     0.031 C 
ATOM     38  C   UNL A   1      44.875  30.469  30.079  1.00  0.00     0.037 A 
BRANCH  25  39
ATOM     39  C   UNL A   1      42.351  28.311  34.352  1.00  0.00     0.058 A 
ATOM     40  C   UNL A   1      42.418  28.520  35.747  1.00  0.00     0.135 A 
ATOM     41  C   UNL A   1      42.897  27.087  33.900  1.00  0.00     0.135 A 
ATOM     42  F   UNL A   1      41.909  29.633  36.298  1.00  0.00    -0.206 F 
ATOM     43  C   UNL A   1      43.085  27.644  36.605  1.00  0.00     0.059 A 
ATOM     44  C   UNL A   1      43.522  26.178  34.746  1.00  0.00     0.059 A 
ATOM     45  F   UNL A   1      42.939  26.747  32.608  1.00  0.00    -0.206 F 
ATOM     46  C   UNL A   1      43.662  26.490  36.085  1.00  0.00     0.060 A 
BRANCH  46  47
ATOM     47  S   UNL A   1      44.662  25.440  37.153  1.00  0.00     0.124 S 
ATOM     48  O   UNL A   1      44.103  25.748  38.465  1.00  0.00    -0.237 OA
ATOM     49  O   UNL A   1      44.372  24.111  36.627  1.00  0.00    -0.237 OA
ATOM     50  O   UNL A   1      46.021  25.920  36.915  1.00  0.00    -0.744 OA
ENDBRANCH  46  47
ENDBRANCH  25  39
BRANCH  26  51
ATOM     51  C   UNL A   1      43.555  26.085  26.284  1.00  0.00     0.058 A 
ATOM     52  C   UNL A   1      44.626  25.830  25.408  1.00  0.00     0.135 A 
ATOM     53  C   UNL A   1      42.757  24.973  26.624  1.00  0.00     0.135 A 
ATOM     54  F   UNL A   1      45.457  26.822  25.053  1.00  0.00    -0.206 F 
ATOM     55  C   UNL A   1      44.908  24.544  24.926  1.00  0.00     0.059 A 
ATOM     56  C   UNL A   1      43.010  23.688  26.147  1.00  0.00     0.059 A 
ATOM     57  F   UNL A   1      41.754  25.082  27.506  1.00  0.00    -0.206 F 
ATOM     58  C   UNL A   1      44.101  23.474  25.316  1.00  0.00     0.060 A 
BRANCH  58  59
ATOM     59  S   UNL A   1      44.544  21.790  24.826  1.00  0.00     0.124 S 
ATOM     60  O   UNL A   1      45.828  21.609  25.495  1.00  0.00    -0.237 OA
ATOM     61  O   UNL A   1      43.432  21.010  25.361  1.00  0.00    -0.237 OA
ATOM     62  O   UNL A   1      44.606  21.865  23.369  1.00  0.00    -0.744 OA
ENDBRANCH  58  59
ENDBRANCH  26  51
BRANCH  38  63
ATOM     63  C   UNL A   1      45.210  31.570  29.106  1.00  0.00     0.058 A 
ATOM     64  C   UNL A   1      46.519  31.962  28.775  1.00  0.00     0.135 A 
ATOM     65  C   UNL A   1      44.165  32.129  28.355  1.00  0.00     0.135 A 
ATOM     66  F   UNL A   1      47.580  31.397  29.368  1.00  0.00    -0.206 F 
ATOM     67  C   UNL A   1      46.775  32.896  27.769  1.00  0.00     0.059 A 
ATOM     68  C   UNL A   1      44.399  33.037  27.327  1.00  0.00     0.059 A 
ATOM     69  F   UNL A   1      42.897  31.745  28.578  1.00  0.00    -0.206 F 
ATOM     70  C   UNL A   1      45.707  33.425  27.047  1.00  0.00     0.060 A 
BRANCH  70  71
ATOM     71  S   UNL A   1      46.041  34.565  25.687  1.00  0.00     0.124 S 
ATOM     72  O   UNL A   1      45.094  34.112  24.669  1.00  0.00    -0.237 OA
ATOM     73  O   UNL A   1      45.743  35.866  26.287  1.00  0.00    -0.237 OA
ATOM     74  O   UNL A   1      47.444  34.337  25.381  1.00  0.00    -0.744 OA
ENDBRANCH  70  71
ENDBRANCH  38  63
ENDBRANCH  12  13
ENDBRANCH   5   7
ENDBRANCH   2   3
ENDBRANCH   1   2
BRANCH   1  75
ATOM     75  C   UNL A   1      33.645  27.715  25.001  1.00  0.00     0.023 C 
BRANCH  75  76
ATOM     76  C   UNL A   1      33.664  26.495  25.922  1.00  0.00     0.116 C 
BRANCH  76  77
ATOM     77  N   UNL A   1      34.204  25.345  25.238  1.00  0.00    -0.354 N 
ATOM     78  C   UNL A   1      34.057  24.011  25.458  1.00  0.00     0.243 C 
ATOM     79  H   UNL A   1      34.782  25.565  24.473  1.00  0.00     0.163 HD
ATOM     80  O   UNL A   1      34.631  23.279  24.643  1.00  0.00    -0.273 OA
BRANCH  78  81
ATOM     81  C   UNL A   1      33.084  23.438  26.536  1.00  0.00     0.182 C 
ATOM     82  C   UNL A   1      33.384  22.030  27.127  1.00  0.00     0.091 C 
ATOM     83  N   UNL A   1      31.683  23.382  25.997  1.00  0.00    -0.306 N 
ATOM     84  C   UNL A   1      33.152  21.041  26.057  1.00  0.00     0.042 A 
ATOM     85  C   UNL A   1      31.521  22.512  24.783  1.00  0.00     0.180 C 
ATOM     86  N   UNL A   1      33.727  19.823  25.860  1.00  0.00    -0.348 N 
ATOM     87  C   UNL A   1      32.314  21.253  24.985  1.00  0.00     0.081 A 
ATOM     88  C   UNL A   1      33.249  19.361  24.660  1.00  0.00     0.197 A 
ATOM     89  H   UNL A   1      34.361  19.365  26.459  1.00  0.00     0.167 HD
ATOM     90  N   UNL A   1      32.383  20.196  24.121  1.00  0.00    -0.240 NA
BRANCH  83  91
ATOM     91  C   UNL A   1      30.540  23.908  26.509  1.00  0.00     0.318 C 
ATOM     92  O   UNL A   1      29.881  23.330  27.379  1.00  0.00    -0.249 OA
ATOM     93  N   UNL A   1      30.045  25.110  26.179  1.00  0.00    -0.329 N 
ATOM     94  H   UNL A   1      29.261  25.335  26.731  1.00  0.00     0.165 HD
BRANCH  93  95
ATOM     95  C   UNL A   1      30.340  26.182  25.230  1.00  0.00     0.233 C 
BRANCH  95  96
ATOM     96  C   UNL A   1      29.671  26.024  23.860  1.00  0.00     0.405 C 
ATOM     97  F   UNL A   1      29.700  24.731  23.461  1.00  0.00    -0.169 F 
ATOM     98  F   UNL A   1      28.372  26.398  23.924  1.00  0.00    -0.169 F 
ATOM     99  F   UNL A   1      30.261  26.770  22.906  1.00  0.00    -0.169 F 
ENDBRANCH  95  96
ENDBRANCH  93  95
ENDBRANCH  83  91
ENDBRANCH  78  81
ENDBRANCH  76  77
ENDBRANCH  75  76
ENDBRANCH   1  75
TORSDOF 17
ENDMDL
MODEL 3
REMARK VINA RESULT:     -12.0      1.028      1.830
REMARK SMILES O=C(NCCCCNC(=O)[C@@H]1Cc2[nH]cnc2CN1C(=O)NCC(F)(F)F)c1ccc(-c2c3nc(c(-c4c(F)cc(S(=O)(=O)[O-])cc4F)c4ccc([nH]4)c(-c4c(F)cc(S(=O)(=O)[O-])cc4F)c4nc(c(-c5c(F)cc(S(=O)(=O)[O-])cc5F)c5ccc2[nH]5)C=C4)C=C3)cc1
REMARK SMILES IDX 5 1 4 2 3 3 1 4 2 5 28 7 29 8 93 9 30 10 92 11 31 12 32 13
REMARK SMILES IDX 33 14 86 15 34 16 91 17 85 18 87 19 35 20 90 21 84 22 83 23
REMARK SMILES IDX 36 25 70 26 49 27 69 28 50 29 53 30 68 31 88 32 51 33 52 34
REMARK SMILES IDX 67 36 89 37 54 38 37 39 38 40 47 41 39 42 40 43 46 44 48 45
REMARK SMILES IDX 41 46 42 47 43 48 44 49 45 50 71 51 72 52 81 53 73 54 74 55
REMARK SMILES IDX 80 56 82 57 75 58 76 59 77 60 78 61 79 62 55 63 56 64 65 65
REMARK SMILES IDX 57 66 58 67 64 68 66 69 59 70 60 71 61 72 62 73 63 74 6 75
REMARK SMILES IDX 7 76 8 77 9 78 10 80 11 81 12 82 19 83 13 84 18 85 14 86
REMARK SMILES IDX 17 87 15 88 16 90 20 91 21 92 22 93 23 95 24 96 25 97 26 98
REMARK SMILES IDX 27 99
REMARK H PARENT 3 6 87 24 53 35 8 79 14 89 22 94
REMARK Flexibility Score: inf
ROOT
ATOM      1  C   UNL A   1      32.199  29.316  25.102  1.00  0.00     0.023 C 
ENDROOT
BRANCH   1   2
ATOM      2  C   UNL A   1      33.407  29.419  26.033  1.00  0.00     0.116 C 
BRANCH   2   3
ATOM      3  N   UNL A   1      33.343  30.570  26.910  1.00  0.00    -0.352 N 
ATOM      4  O   UNL A   1      33.843  32.238  28.258  1.00  0.00    -0.269 OA
ATOM      5  C   UNL A   1      34.252  31.219  27.696  1.00  0.00     0.251 C 
ATOM      6  H   UNL A   1      32.446  30.974  26.948  1.00  0.00     0.163 HD
BRANCH   5   7
ATOM      7  C   UNL A   1      35.642  30.756  27.953  1.00  0.00     0.039 A 
ATOM      8  C   UNL A   1      36.091  29.436  27.867  1.00  0.00     0.014 A 
ATOM      9  C   UNL A   1      36.553  31.750  28.357  1.00  0.00     0.014 A 
ATOM     10  C   UNL A   1      37.381  29.098  28.250  1.00  0.00     0.010 A 
ATOM     11  C   UNL A   1      37.849  31.422  28.730  1.00  0.00     0.010 A 
ATOM     12  C   UNL A   1      38.244  30.088  28.711  1.00  0.00    -0.014 A 
BRANCH  12  13
ATOM     13  C   UNL A   1      39.611  29.694  29.027  1.00  0.00     0.031 A 
ATOM     14  C   UNL A   1      39.895  29.579  30.490  1.00  0.00     0.074 A 
ATOM     15  C   UNL A   1      40.477  29.321  28.064  1.00  0.00     0.049 A 
ATOM     16  N   UNL A   1      40.816  30.158  31.192  1.00  0.00    -0.248 NA
ATOM     17  C   UNL A   1      38.933  28.810  31.304  1.00  0.00     0.031 C 
ATOM     18  C   UNL A   1      40.203  29.136  26.635  1.00  0.00     0.029 A 
ATOM     19  N   UNL A   1      41.767  28.903  28.177  1.00  0.00    -0.354 N 
ATOM     20  C   UNL A   1      40.683  29.658  32.489  1.00  0.00     0.074 A 
ATOM     21  C   UNL A   1      39.419  28.976  32.532  1.00  0.00     0.031 C 
ATOM     22  C   UNL A   1      41.199  28.409  26.082  1.00  0.00     0.029 A 
ATOM     23  C   UNL A   1      42.231  28.189  27.080  1.00  0.00     0.049 A 
ATOM     24  H   UNL A   1      42.322  29.091  28.968  1.00  0.00     0.167 HD
ATOM     25  C   UNL A   1      41.726  29.640  33.365  1.00  0.00     0.037 A 
ATOM     26  C   UNL A   1      43.331  27.393  27.037  1.00  0.00     0.037 A 
ATOM     27  C   UNL A   1      42.726  30.610  33.002  1.00  0.00     0.049 A 
ATOM     28  C   UNL A   1      44.196  27.777  28.185  1.00  0.00     0.074 A 
ATOM     29  C   UNL A   1      42.739  31.984  32.857  1.00  0.00     0.029 A 
ATOM     30  N   UNL A   1      43.868  30.163  32.384  1.00  0.00    -0.354 N 
ATOM     31  N   UNL A   1      44.783  28.937  28.298  1.00  0.00    -0.248 NA
ATOM     32  C   UNL A   1      44.029  27.041  29.429  1.00  0.00     0.031 C 
ATOM     33  C   UNL A   1      43.600  32.228  31.748  1.00  0.00     0.029 A 
ATOM     34  C   UNL A   1      44.104  30.998  31.324  1.00  0.00     0.049 A 
ATOM     35  H   UNL A   1      44.414  29.389  32.653  1.00  0.00     0.167 HD
ATOM     36  C   UNL A   1      44.681  29.260  29.644  1.00  0.00     0.074 A 
ATOM     37  C   UNL A   1      44.275  28.019  30.302  1.00  0.00     0.031 C 
ATOM     38  C   UNL A   1      44.664  30.559  30.065  1.00  0.00     0.037 A 
BRANCH  25  39
ATOM     39  C   UNL A   1      42.020  28.486  34.307  1.00  0.00     0.058 A 
ATOM     40  C   UNL A   1      41.921  28.696  35.700  1.00  0.00     0.135 A 
ATOM     41  C   UNL A   1      42.690  27.302  33.923  1.00  0.00     0.135 A 
ATOM     42  F   UNL A   1      41.285  29.772  36.188  1.00  0.00    -0.206 F 
ATOM     43  C   UNL A   1      42.548  27.863  36.629  1.00  0.00     0.059 A 
ATOM     44  C   UNL A   1      43.278  26.434  34.835  1.00  0.00     0.059 A 
ATOM     45  F   UNL A   1      42.893  26.968  32.644  1.00  0.00    -0.206 F 
ATOM     46  C   UNL A   1      43.251  26.750  36.181  1.00  0.00     0.060 A 
BRANCH  46  47
ATOM     47  S   UNL A   1      44.196  25.766  37.355  1.00  0.00     0.124 S 
ATOM     48  O   UNL A   1      45.551  26.248  37.111  1.00  0.00    -0.237 OA
ATOM     49  O   UNL A   1      43.596  26.154  38.627  1.00  0.00    -0.237 OA
ATOM     50  O   UNL A   1      43.926  24.394  36.933  1.00  0.00    -0.744 OA
ENDBRANCH  46  47
ENDBRANCH  25  39
BRANCH  26  51
ATOM     51  C   UNL A   1      43.468  26.089  26.329  1.00  0.00     0.058 A 
ATOM     52  C   UNL A   1      44.543  25.833  25.459  1.00  0.00     0.135 A 
ATOM     53  C   UNL A   1      42.692  24.970  26.697  1.00  0.00     0.135 A 
ATOM     54  F   UNL A   1      45.354  26.832  25.079  1.00  0.00    -0.206 F 
ATOM     55  C   UNL A   1      44.850  24.542  25.008  1.00  0.00     0.059 A 
ATOM     56  C   UNL A   1      42.969  23.679  26.252  1.00  0.00     0.059 A 
ATOM     57  F   UNL A   1      41.687  25.081  27.577  1.00  0.00    -0.206 F 
ATOM     58  C   UNL A   1      44.064  23.466  25.425  1.00  0.00     0.060 A 
BRANCH  58  59
ATOM     59  S   UNL A   1      44.540  21.779  24.977  1.00  0.00     0.124 S 
ATOM     60  O   UNL A   1      44.603  21.860  23.522  1.00  0.00    -0.237 OA
ATOM     61  O   UNL A   1      45.819  21.626  25.663  1.00  0.00    -0.237 OA
ATOM     62  O   UNL A   1      43.450  20.966  25.509  1.00  0.00    -0.744 OA
ENDBRANCH  58  59
ENDBRANCH  26  51
BRANCH  38  63
ATOM     63  C   UNL A   1      45.025  31.639  29.078  1.00  0.00     0.058 A 
ATOM     64  C   UNL A   1      46.342  31.975  28.720  1.00  0.00     0.135 A 
ATOM     65  C   UNL A   1      43.989  32.235  28.343  1.00  0.00     0.135 A 
ATOM     66  F   UNL A   1      47.390  31.371  29.296  1.00  0.00    -0.206 F 
ATOM     67  C   UNL A   1      46.616  32.892  27.703  1.00  0.00     0.059 A 
ATOM     68  C   UNL A   1      44.240  33.127  27.304  1.00  0.00     0.059 A 
ATOM     69  F   UNL A   1      42.711  31.905  28.592  1.00  0.00    -0.206 F 
ATOM     70  C   UNL A   1      45.557  33.460  26.997  1.00  0.00     0.060 A 
BRANCH  70  71
ATOM     71  S   UNL A   1      45.911  34.578  25.624  1.00  0.00     0.124 S 
ATOM     72  O   UNL A   1      47.346  34.375  25.427  1.00  0.00    -0.237 OA
ATOM     73  O   UNL A   1      45.051  34.054  24.562  1.00  0.00    -0.237 OA
ATOM     74  O   UNL A   1      45.529  35.885  26.135  1.00  0.00    -0.744 OA
ENDBRANCH  70  71
ENDBRANCH  38  63
ENDBRANCH  12  13
ENDBRANCH   5   7
ENDBRANCH   2   3
ENDBRANCH   1   2
BRANCH   1  75
ATOM     75  C   UNL A   1      31.353  28.051  25.323  1.00  0.00     0.023 C 
BRANCH  75  76
ATOM     76  C   UNL A   1      31.573  27.396  26.687  1.00  0.00     0.116 C 
BRANCH  76  77
ATOM     77  N   UNL A   1      30.990  26.076  26.721  1.00  0.00    -0.354 N 
ATOM     78  C   UNL A   1      31.542  24.840  26.601  1.00  0.00     0.243 C 
ATOM     79  H   UNL A   1      30.014  26.070  26.856  1.00  0.00     0.163 HD
ATOM     80  O   UNL A   1      30.751  23.898  26.724  1.00  0.00    -0.273 OA
BRANCH  78  81
ATOM     81  C   UNL A   1      33.084  24.613  26.509  1.00  0.00     0.182 C 
ATOM     82  C   UNL A   1      33.899  25.481  25.508  1.00  0.00     0.091 C 
ATOM     83  N   UNL A   1      33.382  23.180  26.167  1.00  0.00    -0.306 N 
ATOM     84  C   UNL A   1      33.522  25.060  24.145  1.00  0.00     0.042 A 
ATOM     85  C   UNL A   1      32.813  22.727  24.852  1.00  0.00     0.180 C 
ATOM     86  N   UNL A   1      33.509  25.775  22.987  1.00  0.00    -0.348 N 
ATOM     87  C   UNL A   1      33.021  23.815  23.838  1.00  0.00     0.081 A 
ATOM     88  C   UNL A   1      32.967  24.954  22.033  1.00  0.00     0.197 A 
ATOM     89  H   UNL A   1      33.827  26.699  22.859  1.00  0.00     0.167 HD
ATOM     90  N   UNL A   1      32.679  23.761  22.515  1.00  0.00    -0.240 NA
BRANCH  83  91
ATOM     91  C   UNL A   1      34.172  22.286  26.814  1.00  0.00     0.318 C 
ATOM     92  O   UNL A   1      33.737  21.545  27.702  1.00  0.00    -0.249 OA
ATOM     93  N   UNL A   1      35.465  22.070  26.529  1.00  0.00    -0.329 N 
ATOM     94  H   UNL A   1      35.823  21.319  27.055  1.00  0.00     0.165 HD
BRANCH  93  95
ATOM     95  C   UNL A   1      36.493  22.637  25.658  1.00  0.00     0.233 C 
BRANCH  95  96
ATOM     96  C   UNL A   1      37.123  21.638  24.681  1.00  0.00     0.405 C 
ATOM     97  F   UNL A   1      38.411  21.390  25.017  1.00  0.00    -0.169 F 
ATOM     98  F   UNL A   1      36.461  20.458  24.721  1.00  0.00    -0.169 F 
ATOM     99  F   UNL A   1      37.098  22.073  23.407  1.00  0.00    -0.169 F 
ENDBRANCH  95  96
ENDBRANCH  93  95
ENDBRANCH  83  91
ENDBRANCH  78  81
ENDBRANCH  76  77
ENDBRANCH  75  76
ENDBRANCH   1  75
TORSDOF 17
ENDMDL
