MODEL 1
REMARK VINA RESULT:     -12.5      0.000      0.000
REMARK SMILES CC(C)(C)c1ccc(NC(=O)Nc2cccc(C(=O)NCCCCNC(=O)c3ccc(-c4c5nc(c(-c6c(F)cc(S(=O)(=O)[O-])cc6F)c6ccc([nH]6)c(-c6c(F)cc(S(=O)(=O)[O-])cc6F)c6nc(c(-c7c(F)cc(S(=O)(=O)[O-])cc7F)c7ccc4[nH]7)C=C6)C=C5)cc3)c2)cc1
REMARK SMILES IDX 22 1 21 2 20 3 18 4 19 5 17 7 13 8 14 9 94 10 15 11 16 12
REMARK SMILES IDX 12 13 9 14 10 15 11 17 8 19 5 20 6 21 96 22 7 23 95 24 2 25
REMARK SMILES IDX 1 26 3 27 4 28 23 29 24 30 25 31 26 32 27 34 28 35 29 36
REMARK SMILES IDX 93 37 30 38 92 39 31 40 32 41 33 42 86 43 34 44 91 45 85 46
REMARK SMILES IDX 87 47 35 48 90 49 84 50 83 51 36 53 70 54 49 55 69 56 50 57
REMARK SMILES IDX 53 58 68 59 88 60 51 61 52 62 67 64 89 65 54 66 37 67 38 68
REMARK SMILES IDX 47 69 39 70 40 71 46 72 48 73 41 74 42 75 43 76 44 77 45 78
REMARK SMILES IDX 71 79 72 80 81 81 73 82 74 83 80 84 82 85 75 86 76 87 77 88
REMARK SMILES IDX 78 89 79 90 55 91 56 92 65 93 57 94 58 95 64 96 66 97 59 98
REMARK SMILES IDX 60 99 61 100 62 101 63 102
REMARK H PARENT 20 6 9 16 12 18 25 33 87 52 53 63
REMARK Flexibility Score: inf
ROOT
ATOM      1  C   UNL A   1      32.997  29.319  24.908  1.00  0.00     0.023 C 
ENDROOT
BRANCH   1   2
ATOM      2  C   UNL A   1      32.127  28.649  23.847  1.00  0.00     0.116 C 
BRANCH   2   3
ATOM      3  N   UNL A   1      32.937  28.056  22.809  1.00  0.00    -0.352 N 
ATOM      4  C   UNL A   1      33.128  26.762  22.400  1.00  0.00     0.251 C 
ATOM      5  O   UNL A   1      33.892  26.595  21.448  1.00  0.00    -0.269 OA
ATOM      6  H   UNL A   1      33.455  28.712  22.291  1.00  0.00     0.163 HD
BRANCH   4   7
ATOM      7  C   UNL A   1      32.452  25.563  22.991  1.00  0.00     0.041 A 
ATOM      8  C   UNL A   1      31.273  24.301  24.707  1.00  0.00     0.043 A 
ATOM      9  C   UNL A   1      31.198  23.192  23.863  1.00  0.00     0.026 A 
ATOM     10  C   UNL A   1      31.979  25.442  24.301  1.00  0.00     0.040 A 
ATOM     11  C   UNL A   1      31.691  23.280  22.565  1.00  0.00     0.003 A 
ATOM     12  C   UNL A   1      32.287  24.463  22.128  1.00  0.00     0.014 A 
BRANCH   8  13
ATOM     13  N   UNL A   1      30.579  24.234  25.928  1.00  0.00    -0.308 N 
ATOM     14  N   UNL A   1      31.415  22.275  27.012  1.00  0.00    -0.308 N 
ATOM     15  C   UNL A   1      30.460  23.226  26.832  1.00  0.00     0.323 C 
ATOM     16  H   UNL A   1      31.076  21.443  27.416  1.00  0.00     0.171 HD
ATOM     17  O   UNL A   1      29.448  23.186  27.539  1.00  0.00    -0.248 OA
ATOM     18  H   UNL A   1      30.096  25.057  26.169  1.00  0.00     0.171 HD
BRANCH  14  19
ATOM     19  C   UNL A   1      32.796  22.251  26.732  1.00  0.00     0.042 A 
ATOM     20  C   UNL A   1      35.426  22.363  25.667  1.00  0.00    -0.042 A 
ATOM     21  C   UNL A   1      34.976  23.304  26.603  1.00  0.00     0.006 A 
ATOM     22  C   UNL A   1      34.573  21.275  25.401  1.00  0.00     0.006 A 
ATOM     23  C   UNL A   1      33.689  23.230  27.151  1.00  0.00     0.026 A 
ATOM     24  C   UNL A   1      33.285  21.204  25.949  1.00  0.00     0.026 A 
BRANCH  20  25
ATOM     25  C   UNL A   1      36.738  22.554  24.883  1.00  0.00    -0.013 C 
ATOM     26  C   UNL A   1      37.649  21.304  24.893  1.00  0.00     0.016 C 
ATOM     27  C   UNL A   1      37.526  23.707  25.544  1.00  0.00     0.016 C 
ATOM     28  C   UNL A   1      36.480  22.914  23.405  1.00  0.00     0.016 C 
ENDBRANCH  20  25
ENDBRANCH  14  19
ENDBRANCH   8  13
ENDBRANCH   4   7
ENDBRANCH   2   3
ENDBRANCH   1   2
BRANCH   1  29
ATOM     29  C   UNL A   1      33.797  28.311  25.735  1.00  0.00     0.023 C 
BRANCH  29  30
ATOM     30  C   UNL A   1      33.640  28.490  27.242  1.00  0.00     0.116 C 
BRANCH  30  31
ATOM     31  N   UNL A   1      33.535  29.888  27.635  1.00  0.00    -0.352 N 
ATOM     32  C   UNL A   1      34.500  30.679  28.221  1.00  0.00     0.251 C 
ATOM     33  H   UNL A   1      32.669  30.322  27.461  1.00  0.00     0.163 HD
ATOM     34  O   UNL A   1      34.242  31.809  28.596  1.00  0.00    -0.269 OA
BRANCH  32  35
ATOM     35  C   UNL A   1      35.847  30.104  28.414  1.00  0.00     0.039 A 
ATOM     36  C   UNL A   1      36.762  30.160  27.362  1.00  0.00     0.014 A 
ATOM     37  C   UNL A   1      36.214  29.586  29.659  1.00  0.00     0.014 A 
ATOM     38  C   UNL A   1      38.080  29.755  27.578  1.00  0.00     0.010 A 
ATOM     39  C   UNL A   1      37.539  29.234  29.887  1.00  0.00     0.010 A 
ATOM     40  C   UNL A   1      38.485  29.322  28.852  1.00  0.00    -0.014 A 
BRANCH  40  41
ATOM     41  C   UNL A   1      39.890  28.946  29.132  1.00  0.00     0.031 A 
ATOM     42  C   UNL A   1      40.829  29.967  29.708  1.00  0.00     0.074 A 
ATOM     43  C   UNL A   1      40.339  27.724  28.789  1.00  0.00     0.049 A 
ATOM     44  N   UNL A   1      42.119  29.890  29.899  1.00  0.00    -0.248 NA
ATOM     45  C   UNL A   1      40.238  31.261  30.091  1.00  0.00     0.031 C 
ATOM     46  C   UNL A   1      39.531  26.660  28.189  1.00  0.00     0.029 A 
ATOM     47  N   UNL A   1      41.594  27.175  28.881  1.00  0.00    -0.354 N 
ATOM     48  C   UNL A   1      42.501  31.129  30.398  1.00  0.00     0.074 A 
ATOM     49  C   UNL A   1      41.312  31.952  30.445  1.00  0.00     0.031 C 
ATOM     50  C   UNL A   1      40.307  25.583  27.979  1.00  0.00     0.029 A 
ATOM     51  C   UNL A   1      41.672  25.891  28.397  1.00  0.00     0.049 A 
ATOM     52  H   UNL A   1      42.366  27.655  29.257  1.00  0.00     0.167 HD
ATOM     53  C   UNL A   1      43.729  31.537  30.796  1.00  0.00     0.037 A 
ATOM     54  C   UNL A   1      42.728  25.060  28.293  1.00  0.00     0.037 A 
ATOM     55  C   UNL A   1      44.899  30.702  30.781  1.00  0.00     0.049 A 
ATOM     56  C   UNL A   1      44.077  25.527  28.762  1.00  0.00     0.074 A 
ATOM     57  C   UNL A   1      46.180  31.006  31.206  1.00  0.00     0.029 A 
ATOM     58  N   UNL A   1      44.927  29.393  30.324  1.00  0.00    -0.354 N 
ATOM     59  N   UNL A   1      44.416  26.692  29.263  1.00  0.00    -0.248 NA
ATOM     60  C   UNL A   1      45.188  24.572  28.656  1.00  0.00     0.031 C 
ATOM     61  C   UNL A   1      46.989  29.884  30.988  1.00  0.00     0.029 A 
ATOM     62  C   UNL A   1      46.203  28.874  30.453  1.00  0.00     0.049 A 
ATOM     63  H   UNL A   1      44.153  28.904  29.962  1.00  0.00     0.167 HD
ATOM     64  C   UNL A   1      45.772  26.600  29.555  1.00  0.00     0.074 A 
ATOM     65  C   UNL A   1      46.191  25.266  29.178  1.00  0.00     0.031 C 
ATOM     66  C   UNL A   1      46.594  27.535  30.089  1.00  0.00     0.037 A 
BRANCH  53  67
ATOM     67  C   UNL A   1      43.856  32.953  31.283  1.00  0.00     0.058 A 
ATOM     68  C   UNL A   1      43.653  33.286  32.631  1.00  0.00     0.135 A 
ATOM     69  C   UNL A   1      44.181  33.988  30.392  1.00  0.00     0.135 A 
ATOM     70  F   UNL A   1      43.323  32.335  33.519  1.00  0.00    -0.206 F 
ATOM     71  C   UNL A   1      43.727  34.601  33.073  1.00  0.00     0.059 A 
ATOM     72  C   UNL A   1      44.284  35.309  30.817  1.00  0.00     0.059 A 
ATOM     73  F   UNL A   1      44.382  33.723  29.092  1.00  0.00    -0.206 F 
ATOM     74  C   UNL A   1      44.035  35.608  32.156  1.00  0.00     0.060 A 
BRANCH  74  75
ATOM     75  S   UNL A   1      44.106  37.316  32.735  1.00  0.00     0.124 S 
ATOM     76  O   UNL A   1      43.920  38.051  31.488  1.00  0.00    -0.237 OA
ATOM     77  O   UNL A   1      42.993  37.377  33.679  1.00  0.00    -0.237 OA
ATOM     78  O   UNL A   1      45.434  37.416  33.332  1.00  0.00    -0.744 OA
ENDBRANCH  74  75
ENDBRANCH  53  67
BRANCH  54  79
ATOM     79  C   UNL A   1      42.540  23.691  27.750  1.00  0.00     0.058 A 
ATOM     80  C   UNL A   1      42.527  23.466  26.365  1.00  0.00     0.135 A 
ATOM     81  C   UNL A   1      42.396  22.580  28.595  1.00  0.00     0.135 A 
ATOM     82  F   UNL A   1      42.656  24.500  25.518  1.00  0.00    -0.206 F 
ATOM     83  C   UNL A   1      42.370  22.191  25.835  1.00  0.00     0.059 A 
ATOM     84  C   UNL A   1      42.255  21.292  28.089  1.00  0.00     0.059 A 
ATOM     85  F   UNL A   1      42.419  22.742  29.927  1.00  0.00    -0.206 F 
ATOM     86  C   UNL A   1      42.235  21.108  26.706  1.00  0.00     0.060 A 
BRANCH  86  87
ATOM     87  S   UNL A   1      42.091  19.448  26.010  1.00  0.00     0.124 S 
ATOM     88  O   UNL A   1      40.658  19.361  25.754  1.00  0.00    -0.237 OA
ATOM     89  O   UNL A   1      42.947  19.531  24.831  1.00  0.00    -0.237 OA
ATOM     90  O   UNL A   1      42.596  18.593  27.081  1.00  0.00    -0.744 OA
ENDBRANCH  86  87
ENDBRANCH  54  79
BRANCH  66  91
ATOM     91  C   UNL A   1      48.021  27.143  30.336  1.00  0.00     0.058 A 
ATOM     92  C   UNL A   1      48.991  27.234  29.329  1.00  0.00     0.135 A 
ATOM     93  C   UNL A   1      48.433  26.746  31.618  1.00  0.00     0.135 A 
ATOM     94  F   UNL A   1      48.642  27.601  28.086  1.00  0.00    -0.206 F 
ATOM     95  C   UNL A   1      50.327  26.940  29.583  1.00  0.00     0.059 A 
ATOM     96  C   UNL A   1      49.766  26.465  31.899  1.00  0.00     0.059 A 
ATOM     97  F   UNL A   1      47.541  26.652  32.616  1.00  0.00    -0.206 F 
ATOM     98  C   UNL A   1      50.705  26.561  30.871  1.00  0.00     0.060 A 
BRANCH  98  99
ATOM     99  S   UNL A   1      52.451  26.243  31.207  1.00  0.00     0.124 S 
ATOM    100  O   UNL A   1      53.060  26.559  29.920  1.00  0.00    -0.237 OA
ATOM    101  O   UNL A   1      52.738  27.178  32.291  1.00  0.00    -0.237 OA
ATOM    102  O   UNL A   1      52.471  24.833  31.585  1.00  0.00    -0.744 OA
ENDBRANCH  98  99
ENDBRANCH  66  91
ENDBRANCH  40  41
ENDBRANCH  32  35
ENDBRANCH  30  31
ENDBRANCH  29  30
ENDBRANCH   1  29
TORSDOF 17
ENDMDL
MODEL 2
REMARK VINA RESULT:     -12.2      4.727     10.601
REMARK SMILES CC(C)(C)c1ccc(NC(=O)Nc2cccc(C(=O)NCCCCNC(=O)c3ccc(-c4c5nc(c(-c6c(F)cc(S(=O)(=O)[O-])cc6F)c6ccc([nH]6)c(-c6c(F)cc(S(=O)(=O)[O-])cc6F)c6nc(c(-c7c(F)cc(S(=O)(=O)[O-])cc7F)c7ccc4[nH]7)C=C6)C=C5)cc3)c2)cc1
REMARK SMILES IDX 22 1 21 2 20 3 18 4 19 5 17 7 13 8 14 9 94 10 15 11 16 12
REMARK SMILES IDX 12 13 9 14 10 15 11 17 8 19 5 20 6 21 96 22 7 23 95 24 2 25
REMARK SMILES IDX 1 26 3 27 4 28 23 29 24 30 25 31 26 32 27 34 28 35 29 36
REMARK SMILES IDX 93 37 30 38 92 39 31 40 32 41 33 42 86 43 34 44 91 45 85 46
REMARK SMILES IDX 87 47 35 48 90 49 84 50 83 51 36 53 70 54 49 55 69 56 50 57
REMARK SMILES IDX 53 58 68 59 88 60 51 61 52 62 67 64 89 65 54 66 37 67 38 68
REMARK SMILES IDX 47 69 39 70 40 71 46 72 48 73 41 74 42 75 43 76 44 77 45 78
REMARK SMILES IDX 71 79 72 80 81 81 73 82 74 83 80 84 82 85 75 86 76 87 77 88
REMARK SMILES IDX 78 89 79 90 55 91 56 92 65 93 57 94 58 95 64 96 66 97 59 98
REMARK SMILES IDX 60 99 61 100 62 101 63 102
REMARK H PARENT 20 6 9 16 12 18 25 33 87 52 53 63
REMARK Flexibility Score: inf
ROOT
ATOM      1  C   UNL A   1      36.747  23.411  24.463  1.00  0.00     0.023 C 
ENDROOT
BRANCH   1   2
ATOM      2  C   UNL A   1      35.399  22.726  24.255  1.00  0.00     0.116 C 
BRANCH   2   3
ATOM      3  N   UNL A   1      34.674  23.325  23.159  1.00  0.00    -0.352 N 
ATOM      4  C   UNL A   1      33.733  24.318  23.095  1.00  0.00     0.251 C 
ATOM      5  O   UNL A   1      33.318  24.610  21.971  1.00  0.00    -0.269 OA
ATOM      6  H   UNL A   1      34.903  22.943  22.281  1.00  0.00     0.163 HD
BRANCH   4   7
ATOM      7  C   UNL A   1      33.215  25.090  24.268  1.00  0.00     0.041 A 
ATOM      8  C   UNL A   1      33.330  26.700  26.091  1.00  0.00     0.043 A 
ATOM      9  C   UNL A   1      31.999  26.444  26.423  1.00  0.00     0.026 A 
ATOM     10  C   UNL A   1      33.954  25.957  25.079  1.00  0.00     0.040 A 
ATOM     11  C   UNL A   1      31.253  25.562  25.649  1.00  0.00     0.003 A 
ATOM     12  C   UNL A   1      31.851  24.913  24.567  1.00  0.00     0.014 A 
BRANCH   8  13
ATOM     13  N   UNL A   1      33.976  27.749  26.770  1.00  0.00    -0.308 N 
ATOM     14  N   UNL A   1      33.746  29.650  25.341  1.00  0.00    -0.308 N 
ATOM     15  C   UNL A   1      34.370  28.978  26.344  1.00  0.00     0.323 C 
ATOM     16  H   UNL A   1      34.310  30.331  24.907  1.00  0.00     0.171 HD
ATOM     17  O   UNL A   1      35.325  29.518  26.910  1.00  0.00    -0.248 OA
ATOM     18  H   UNL A   1      34.178  27.561  27.715  1.00  0.00     0.171 HD
BRANCH  14  19
ATOM     19  C   UNL A   1      32.447  29.560  24.802  1.00  0.00     0.042 A 
ATOM     20  C   UNL A   1      29.915  29.895  23.561  1.00  0.00    -0.042 A 
ATOM     21  C   UNL A   1      30.904  29.080  22.994  1.00  0.00     0.006 A 
ATOM     22  C   UNL A   1      30.175  30.409  24.845  1.00  0.00     0.006 A 
ATOM     23  C   UNL A   1      32.141  28.891  23.622  1.00  0.00     0.026 A 
ATOM     24  C   UNL A   1      31.415  30.219  25.471  1.00  0.00     0.026 A 
BRANCH  20  25
ATOM     25  C   UNL A   1      28.649  30.302  22.784  1.00  0.00    -0.013 C 
ATOM     26  C   UNL A   1      28.923  30.657  21.304  1.00  0.00     0.016 C 
ATOM     27  C   UNL A   1      28.054  31.557  23.460  1.00  0.00     0.016 C 
ATOM     28  C   UNL A   1      27.584  29.185  22.790  1.00  0.00     0.016 C 
ENDBRANCH  20  25
ENDBRANCH  14  19
ENDBRANCH   8  13
ENDBRANCH   4   7
ENDBRANCH   2   3
ENDBRANCH   1   2
BRANCH   1  29
ATOM     29  C   UNL A   1      37.367  23.088  25.823  1.00  0.00     0.023 C 
BRANCH  29  30
ATOM     30  C   UNL A   1      38.291  24.181  26.353  1.00  0.00     0.116 C 
BRANCH  30  31
ATOM     31  N   UNL A   1      39.694  23.920  26.063  1.00  0.00    -0.352 N 
ATOM     32  C   UNL A   1      40.795  24.621  26.505  1.00  0.00     0.251 C 
ATOM     33  H   UNL A   1      39.879  23.150  25.479  1.00  0.00     0.163 HD
ATOM     34  O   UNL A   1      41.912  24.357  26.097  1.00  0.00    -0.269 OA
BRANCH  32  35
ATOM     35  C   UNL A   1      40.578  25.727  27.461  1.00  0.00     0.039 A 
ATOM     36  C   UNL A   1      39.642  25.561  28.483  1.00  0.00     0.014 A 
ATOM     37  C   UNL A   1      41.358  26.884  27.381  1.00  0.00     0.014 A 
ATOM     38  C   UNL A   1      39.533  26.536  29.476  1.00  0.00     0.010 A 
ATOM     39  C   UNL A   1      41.285  27.827  28.399  1.00  0.00     0.010 A 
ATOM     40  C   UNL A   1      40.378  27.658  29.459  1.00  0.00    -0.014 A 
BRANCH  40  41
ATOM     41  C   UNL A   1      40.333  28.679  30.532  1.00  0.00     0.031 A 
ATOM     42  C   UNL A   1      41.237  28.540  31.724  1.00  0.00     0.074 A 
ATOM     43  C   UNL A   1      39.426  29.672  30.476  1.00  0.00     0.049 A 
ATOM     44  N   UNL A   1      41.261  29.237  32.829  1.00  0.00    -0.248 NA
ATOM     45  C   UNL A   1      42.225  27.449  31.676  1.00  0.00     0.031 C 
ATOM     46  C   UNL A   1      38.470  29.888  29.387  1.00  0.00     0.029 A 
ATOM     47  N   UNL A   1      39.146  30.678  31.366  1.00  0.00    -0.354 N 
ATOM     48  C   UNL A   1      42.245  28.657  33.619  1.00  0.00     0.074 A 
ATOM     49  C   UNL A   1      42.768  27.526  32.883  1.00  0.00     0.031 C 
ATOM     50  C   UNL A   1      37.720  30.967  29.667  1.00  0.00     0.029 A 
ATOM     51  C   UNL A   1      38.117  31.498  30.969  1.00  0.00     0.049 A 
ATOM     52  H   UNL A   1      39.637  30.802  32.210  1.00  0.00     0.167 HD
ATOM     53  C   UNL A   1      42.682  29.041  34.841  1.00  0.00     0.037 A 
ATOM     54  C   UNL A   1      37.552  32.551  31.590  1.00  0.00     0.037 A 
ATOM     55  C   UNL A   1      42.183  30.187  35.551  1.00  0.00     0.049 A 
ATOM     56  C   UNL A   1      38.069  32.974  32.936  1.00  0.00     0.074 A 
ATOM     57  C   UNL A   1      42.592  30.688  36.774  1.00  0.00     0.029 A 
ATOM     58  N   UNL A   1      41.170  31.017  35.095  1.00  0.00    -0.354 N 
ATOM     59  N   UNL A   1      39.023  32.433  33.657  1.00  0.00    -0.248 NA
ATOM     60  C   UNL A   1      37.439  34.147  33.555  1.00  0.00     0.031 C 
ATOM     61  C   UNL A   1      41.810  31.812  37.067  1.00  0.00     0.029 A 
ATOM     62  C   UNL A   1      40.936  32.026  36.012  1.00  0.00     0.049 A 
ATOM     63  H   UNL A   1      40.688  30.905  34.243  1.00  0.00     0.167 HD
ATOM     64  C   UNL A   1      39.124  33.216  34.801  1.00  0.00     0.074 A 
ATOM     65  C   UNL A   1      38.137  34.268  34.676  1.00  0.00     0.031 C 
ATOM     66  C   UNL A   1      39.960  33.076  35.858  1.00  0.00     0.037 A 
BRANCH  53  67
ATOM     67  C   UNL A   1      43.758  28.207  35.478  1.00  0.00     0.058 A 
ATOM     68  C   UNL A   1      45.114  28.404  35.174  1.00  0.00     0.135 A 
ATOM     69  C   UNL A   1      43.430  27.198  36.396  1.00  0.00     0.135 A 
ATOM     70  F   UNL A   1      45.478  29.344  34.288  1.00  0.00    -0.206 F 
ATOM     71  C   UNL A   1      46.106  27.604  35.729  1.00  0.00     0.059 A 
ATOM     72  C   UNL A   1      44.408  26.401  36.983  1.00  0.00     0.059 A 
ATOM     73  F   UNL A   1      42.148  26.967  36.719  1.00  0.00    -0.206 F 
ATOM     74  C   UNL A   1      45.742  26.599  36.627  1.00  0.00     0.060 A 
BRANCH  74  75
ATOM     75  S   UNL A   1      47.035  25.549  37.323  1.00  0.00     0.124 S 
ATOM     76  O   UNL A   1      46.259  24.681  38.203  1.00  0.00    -0.237 OA
ATOM     77  O   UNL A   1      47.598  24.910  36.137  1.00  0.00    -0.237 OA
ATOM     78  O   UNL A   1      47.916  26.499  37.995  1.00  0.00    -0.744 OA
ENDBRANCH  74  75
ENDBRANCH  53  67
BRANCH  54  79
ATOM     79  C   UNL A   1      36.452  33.298  30.926  1.00  0.00     0.058 A 
ATOM     80  C   UNL A   1      35.137  33.208  31.404  1.00  0.00     0.135 A 
ATOM     81  C   UNL A   1      36.693  34.130  29.822  1.00  0.00     0.135 A 
ATOM     82  F   UNL A   1      34.858  32.420  32.455  1.00  0.00    -0.206 F 
ATOM     83  C   UNL A   1      34.096  33.911  30.809  1.00  0.00     0.059 A 
ATOM     84  C   UNL A   1      35.671  34.857  29.220  1.00  0.00     0.059 A 
ATOM     85  F   UNL A   1      37.938  34.261  29.339  1.00  0.00    -0.206 F 
ATOM     86  C   UNL A   1      34.373  34.735  29.716  1.00  0.00     0.060 A 
BRANCH  86  87
ATOM     87  S   UNL A   1      33.025  35.690  28.986  1.00  0.00     0.124 S 
ATOM     88  O   UNL A   1      33.756  36.735  28.278  1.00  0.00    -0.237 OA
ATOM     89  O   UNL A   1      32.360  34.696  28.149  1.00  0.00    -0.237 OA
ATOM     90  O   UNL A   1      32.260  36.129  30.150  1.00  0.00    -0.744 OA
ENDBRANCH  86  87
ENDBRANCH  54  79
BRANCH  66  91
ATOM     91  C   UNL A   1      39.876  34.104  36.948  1.00  0.00     0.058 A 
ATOM     92  C   UNL A   1      40.470  35.367  36.812  1.00  0.00     0.135 A 
ATOM     93  C   UNL A   1      39.127  33.847  38.107  1.00  0.00     0.135 A 
ATOM     94  F   UNL A   1      41.202  35.655  35.725  1.00  0.00    -0.206 F 
ATOM     95  C   UNL A   1      40.327  36.342  37.792  1.00  0.00     0.059 A 
ATOM     96  C   UNL A   1      38.956  34.814  39.092  1.00  0.00     0.059 A 
ATOM     97  F   UNL A   1      38.534  32.655  38.278  1.00  0.00    -0.206 F 
ATOM     98  C   UNL A   1      39.564  36.058  38.927  1.00  0.00     0.060 A 
BRANCH  98  99
ATOM     99  S   UNL A   1      39.331  37.351  40.165  1.00  0.00     0.124 S 
ATOM    100  O   UNL A   1      40.708  37.753  40.432  1.00  0.00    -0.237 OA
ATOM    101  O   UNL A   1      38.514  38.327  39.450  1.00  0.00    -0.237 OA
ATOM    102  O   UNL A   1      38.654  36.658  41.256  1.00  0.00    -0.744 OA
ENDBRANCH  98  99
ENDBRANCH  66  91
ENDBRANCH  40  41
ENDBRANCH  32  35
ENDBRANCH  30  31
ENDBRANCH  29  30
ENDBRANCH   1  29
TORSDOF 17
ENDMDL
MODEL 3
REMARK VINA RESULT:     -12.0      2.567      3.247
REMARK SMILES CC(C)(C)c1ccc(NC(=O)Nc2cccc(C(=O)NCCCCNC(=O)c3ccc(-c4c5nc(c(-c6c(F)cc(S(=O)(=O)[O-])cc6F)c6ccc([nH]6)c(-c6c(F)cc(S(=O)(=O)[O-])cc6F)c6nc(c(-c7c(F)cc(S(=O)(=O)[O-])cc7F)c7ccc4[nH]7)C=C6)C=C5)cc3)c2)cc1
REMARK SMILES IDX 22 1 21 2 20 3 18 4 19 5 17 7 13 8 14 9 94 10 15 11 16 12
REMARK SMILES IDX 12 13 9 14 10 15 11 17 8 19 5 20 6 21 96 22 7 23 95 24 2 25
REMARK SMILES IDX 1 26 3 27 4 28 23 29 24 30 25 31 26 32 27 34 28 35 29 36
REMARK SMILES IDX 93 37 30 38 92 39 31 40 32 41 33 42 86 43 34 44 91 45 85 46
REMARK SMILES IDX 87 47 35 48 90 49 84 50 83 51 36 53 70 54 49 55 69 56 50 57
REMARK SMILES IDX 53 58 68 59 88 60 51 61 52 62 67 64 89 65 54 66 37 67 38 68
REMARK SMILES IDX 47 69 39 70 40 71 46 72 48 73 41 74 42 75 43 76 44 77 45 78
REMARK SMILES IDX 71 79 72 80 81 81 73 82 74 83 80 84 82 85 75 86 76 87 77 88
REMARK SMILES IDX 78 89 79 90 55 91 56 92 65 93 57 94 58 95 64 96 66 97 59 98
REMARK SMILES IDX 60 99 61 100 62 101 63 102
REMARK H PARENT 20 6 9 16 12 18 25 33 87 52 53 63
REMARK Flexibility Score: inf
ROOT
ATOM      1  C   UNL A   1      33.255  30.159  27.251  1.00  0.00     0.023 C 
ENDROOT
BRANCH   1   2
ATOM      2  C   UNL A   1      32.508  30.064  25.923  1.00  0.00     0.116 C 
BRANCH   2   3
ATOM      3  N   UNL A   1      33.330  29.450  24.907  1.00  0.00    -0.352 N 
ATOM      4  C   UNL A   1      33.206  28.295  24.179  1.00  0.00     0.251 C 
ATOM      5  O   UNL A   1      34.098  28.066  23.359  1.00  0.00    -0.269 OA
ATOM      6  H   UNL A   1      34.141  29.964  24.693  1.00  0.00     0.163 HD
BRANCH   4   7
ATOM      7  C   UNL A   1      32.064  27.332  24.278  1.00  0.00     0.041 A 
ATOM      8  C   UNL A   1      30.634  25.691  25.367  1.00  0.00     0.043 A 
ATOM      9  C   UNL A   1      29.830  25.611  24.229  1.00  0.00     0.026 A 
ATOM     10  C   UNL A   1      31.794  26.478  25.351  1.00  0.00     0.040 A 
ATOM     11  C   UNL A   1      30.100  26.430  23.137  1.00  0.00     0.003 A 
ATOM     12  C   UNL A   1      31.190  27.299  23.175  1.00  0.00     0.014 A 
BRANCH   8  13
ATOM     13  N   UNL A   1      30.201  25.002  26.515  1.00  0.00    -0.308 N 
ATOM     14  N   UNL A   1      31.152  22.818  26.326  1.00  0.00    -0.308 N 
ATOM     15  C   UNL A   1      30.224  23.678  26.823  1.00  0.00     0.323 C 
ATOM     16  H   UNL A   1      30.866  21.876  26.337  1.00  0.00     0.171 HD
ATOM     17  O   UNL A   1      29.377  23.243  27.608  1.00  0.00    -0.248 OA
ATOM     18  H   UNL A   1      29.814  25.577  27.214  1.00  0.00     0.171 HD
BRANCH  14  19
ATOM     19  C   UNL A   1      32.444  23.016  25.799  1.00  0.00     0.042 A 
ATOM     20  C   UNL A   1      35.152  22.919  24.949  1.00  0.00    -0.042 A 
ATOM     21  C   UNL A   1      34.095  22.812  24.035  1.00  0.00     0.006 A 
ATOM     22  C   UNL A   1      34.812  23.234  26.278  1.00  0.00     0.006 A 
ATOM     23  C   UNL A   1      32.760  22.891  24.452  1.00  0.00     0.026 A 
ATOM     24  C   UNL A   1      33.475  23.311  26.693  1.00  0.00     0.026 A 
BRANCH  20  25
ATOM     25  C   UNL A   1      36.607  22.605  24.554  1.00  0.00    -0.013 C 
ATOM     26  C   UNL A   1      37.648  23.478  25.293  1.00  0.00     0.016 C 
ATOM     27  C   UNL A   1      36.762  22.880  23.041  1.00  0.00     0.016 C 
ATOM     28  C   UNL A   1      36.975  21.132  24.829  1.00  0.00     0.016 C 
ENDBRANCH  20  25
ENDBRANCH  14  19
ENDBRANCH   8  13
ENDBRANCH   4   7
ENDBRANCH   2   3
ENDBRANCH   1   2
BRANCH   1  29
ATOM     29  C   UNL A   1      34.360  29.109  27.380  1.00  0.00     0.023 C 
BRANCH  29  30
ATOM     30  C   UNL A   1      35.653  29.649  27.985  1.00  0.00     0.116 C 
BRANCH  30  31
ATOM     31  N   UNL A   1      35.453  30.252  29.295  1.00  0.00    -0.352 N 
ATOM     32  C   UNL A   1      36.402  30.524  30.257  1.00  0.00     0.251 C 
ATOM     33  H   UNL A   1      34.527  30.494  29.522  1.00  0.00     0.163 HD
ATOM     34  O   UNL A   1      36.080  30.935  31.357  1.00  0.00    -0.269 OA
BRANCH  32  35
ATOM     35  C   UNL A   1      37.819  30.268  29.928  1.00  0.00     0.039 A 
ATOM     36  C   UNL A   1      38.690  29.885  30.949  1.00  0.00     0.014 A 
ATOM     37  C   UNL A   1      38.253  30.335  28.601  1.00  0.00     0.014 A 
ATOM     38  C   UNL A   1      39.993  29.499  30.629  1.00  0.00     0.010 A 
ATOM     39  C   UNL A   1      39.533  29.898  28.279  1.00  0.00     0.010 A 
ATOM     40  C   UNL A   1      40.411  29.470  29.289  1.00  0.00    -0.014 A 
BRANCH  40  41
ATOM     41  C   UNL A   1      41.765  29.004  28.909  1.00  0.00     0.031 A 
ATOM     42  C   UNL A   1      42.898  29.990  28.849  1.00  0.00     0.074 A 
ATOM     43  C   UNL A   1      41.955  27.724  28.538  1.00  0.00     0.049 A 
ATOM     44  N   UNL A   1      44.117  29.822  28.412  1.00  0.00    -0.248 NA
ATOM     45  C   UNL A   1      42.605  31.355  29.315  1.00  0.00     0.031 C 
ATOM     46  C   UNL A   1      40.924  26.684  28.520  1.00  0.00     0.029 A 
ATOM     47  N   UNL A   1      43.081  27.082  28.085  1.00  0.00    -0.354 N 
ATOM     48  C   UNL A   1      44.732  31.063  28.524  1.00  0.00     0.074 A 
ATOM     49  C   UNL A   1      43.739  31.983  29.035  1.00  0.00     0.031 C 
ATOM     50  C   UNL A   1      41.469  25.532  28.093  1.00  0.00     0.029 A 
ATOM     51  C   UNL A   1      42.875  25.759  27.774  1.00  0.00     0.049 A 
ATOM     52  H   UNL A   1      43.953  27.527  27.993  1.00  0.00     0.167 HD
ATOM     53  C   UNL A   1      46.012  31.400  28.242  1.00  0.00     0.037 A 
ATOM     54  C   UNL A   1      43.724  24.838  27.278  1.00  0.00     0.037 A 
ATOM     55  C   UNL A   1      47.003  30.472  27.769  1.00  0.00     0.049 A 
ATOM     56  C   UNL A   1      45.147  25.230  26.993  1.00  0.00     0.074 A 
ATOM     57  C   UNL A   1      48.340  30.703  27.497  1.00  0.00     0.029 A 
ATOM     58  N   UNL A   1      46.766  29.130  27.508  1.00  0.00    -0.354 N 
ATOM     59  N   UNL A   1      45.722  26.401  27.135  1.00  0.00    -0.248 NA
ATOM     60  C   UNL A   1      46.039  24.179  26.484  1.00  0.00     0.031 C 
ATOM     61  C   UNL A   1      48.908  29.503  27.052  1.00  0.00     0.029 A 
ATOM     62  C   UNL A   1      47.930  28.520  27.075  1.00  0.00     0.049 A 
ATOM     63  H   UNL A   1      45.898  28.679  27.615  1.00  0.00     0.167 HD
ATOM     64  C   UNL A   1      47.047  26.221  26.757  1.00  0.00     0.074 A 
ATOM     65  C   UNL A   1      47.190  24.829  26.383  1.00  0.00     0.031 C 
ATOM     66  C   UNL A   1      48.054  27.127  26.725  1.00  0.00     0.037 A 
BRANCH  53  67
ATOM     67  C   UNL A   1      46.403  32.836  28.443  1.00  0.00     0.058 A 
ATOM     68  C   UNL A   1      46.883  33.299  29.677  1.00  0.00     0.135 A 
ATOM     69  C   UNL A   1      46.293  33.760  27.393  1.00  0.00     0.135 A 
ATOM     70  F   UNL A   1      46.991  32.459  30.719  1.00  0.00    -0.206 F 
ATOM     71  C   UNL A   1      47.203  34.637  29.877  1.00  0.00     0.059 A 
ATOM     72  C   UNL A   1      46.630  35.100  27.562  1.00  0.00     0.059 A 
ATOM     73  F   UNL A   1      45.836  33.370  26.192  1.00  0.00    -0.206 F 
ATOM     74  C   UNL A   1      47.065  35.532  28.815  1.00  0.00     0.060 A 
BRANCH  74  75
ATOM     75  S   UNL A   1      47.460  37.272  29.090  1.00  0.00     0.124 S 
ATOM     76  O   UNL A   1      48.774  37.372  28.463  1.00  0.00    -0.237 OA
ATOM     77  O   UNL A   1      46.373  37.957  28.396  1.00  0.00    -0.237 OA
ATOM     78  O   UNL A   1      47.445  37.395  30.544  1.00  0.00    -0.744 OA
ENDBRANCH  74  75
ENDBRANCH  53  67
BRANCH  54  79
ATOM     79  C   UNL A   1      43.255  23.447  27.051  1.00  0.00     0.058 A 
ATOM     80  C   UNL A   1      42.983  22.988  25.753  1.00  0.00     0.135 A 
ATOM     81  C   UNL A   1      43.092  22.545  28.113  1.00  0.00     0.135 A 
ATOM     82  F   UNL A   1      43.120  23.817  24.706  1.00  0.00    -0.206 F 
ATOM     83  C   UNL A   1      42.559  21.686  25.515  1.00  0.00     0.059 A 
ATOM     84  C   UNL A   1      42.686  21.232  27.898  1.00  0.00     0.059 A 
ATOM     85  F   UNL A   1      43.356  22.934  29.370  1.00  0.00    -0.206 F 
ATOM     86  C   UNL A   1      42.414  20.813  26.596  1.00  0.00     0.060 A 
BRANCH  86  87
ATOM     87  S   UNL A   1      41.920  19.106  26.273  1.00  0.00     0.124 S 
ATOM     88  O   UNL A   1      42.122  18.490  27.579  1.00  0.00    -0.237 OA
ATOM     89  O   UNL A   1      40.532  19.261  25.847  1.00  0.00    -0.237 OA
ATOM     90  O   UNL A   1      42.845  18.685  25.224  1.00  0.00    -0.744 OA
ENDBRANCH  86  87
ENDBRANCH  54  79
BRANCH  66  91
ATOM     91  C   UNL A   1      49.411  26.640  26.309  1.00  0.00     0.058 A 
ATOM     92  C   UNL A   1      49.876  26.798  24.996  1.00  0.00     0.135 A 
ATOM     93  C   UNL A   1      50.283  26.079  27.256  1.00  0.00     0.135 A 
ATOM     94  F   UNL A   1      49.075  27.321  24.055  1.00  0.00    -0.206 F 
ATOM     95  C   UNL A   1      51.162  26.412  24.633  1.00  0.00     0.059 A 
ATOM     96  C   UNL A   1      51.579  25.704  26.919  1.00  0.00     0.059 A 
ATOM     97  F   UNL A   1      49.885  25.916  28.528  1.00  0.00    -0.206 F 
ATOM     98  C   UNL A   1      52.007  25.870  25.602  1.00  0.00     0.060 A 
BRANCH  98  99
ATOM     99  S   UNL A   1      53.695  25.431  25.137  1.00  0.00     0.124 S 
ATOM    100  O   UNL A   1      53.763  25.934  23.768  1.00  0.00    -0.237 OA
ATOM    101  O   UNL A   1      54.493  26.159  26.119  1.00  0.00    -0.237 OA
ATOM    102  O   UNL A   1      53.718  23.978  25.276  1.00  0.00    -0.744 OA
ENDBRANCH  98  99
ENDBRANCH  66  91
ENDBRANCH  40  41
ENDBRANCH  32  35
ENDBRANCH  30  31
ENDBRANCH  29  30
ENDBRANCH   1  29
TORSDOF 17
ENDMDL
