MODEL 1
REMARK VINA RESULT:     -12.3      0.000      0.000
REMARK SMILES O=C(NCCCCNC(=O)c1cc(S(=O)(=O)NCc2ccncc2)c(Cl)cc1Cl)c1ccc(-c2c3nc(c(-c4c(F)cc(S(=O)(=O)[O-])cc4F)c4ccc([nH]4)c(-c4c(F)cc(S(=O)(=O)[O-])cc4F)c4nc(c(-c5c(F)cc(S(=O)(=O)[O-])cc5F)c5ccc2[nH]5)C=C4)C=C3)cc1
REMARK SMILES IDX 6 1 5 2 4 3 3 4 1 5 2 6 30 8 31 9 95 10 32 11 94 12 33 13
REMARK SMILES IDX 34 14 35 15 88 16 36 17 93 18 87 19 89 20 37 21 92 22 86 23
REMARK SMILES IDX 85 24 38 26 72 27 51 28 71 29 52 30 55 31 70 32 90 33 53 34
REMARK SMILES IDX 54 35 69 37 91 38 56 39 39 40 40 41 49 42 41 43 42 44 48 45
REMARK SMILES IDX 50 46 43 47 44 48 45 49 46 50 47 51 73 52 74 53 83 54 75 55
REMARK SMILES IDX 76 56 82 57 84 58 77 59 78 60 79 61 80 62 81 63 57 64 58 65
REMARK SMILES IDX 67 66 59 67 60 68 66 69 68 70 61 71 62 72 63 73 64 74 65 75
REMARK SMILES IDX 7 76 8 77 9 78 10 80 11 81 12 82 28 83 13 84 27 85 29 86
REMARK SMILES IDX 25 87 26 88 14 89 15 90 16 91 17 92 18 94 19 95 20 96 24 97
REMARK SMILES IDX 21 98 23 99 22 100
REMARK H PARENT 3 7 89 25 55 36 8 79 17 93
REMARK Flexibility Score: inf
ROOT
ATOM      1  C   UNL A   1      32.969  29.374  27.246  1.00  0.00     0.023 C 
ENDROOT
BRANCH   1   2
ATOM      2  C   UNL A   1      34.433  29.012  27.002  1.00  0.00     0.023 C 
BRANCH   2   3
ATOM      3  C   UNL A   1      35.457  29.933  27.653  1.00  0.00     0.116 C 
BRANCH   3   4
ATOM      4  N   UNL A   1      35.378  29.950  29.106  1.00  0.00    -0.352 N 
ATOM      5  O   UNL A   1      36.089  29.727  31.234  1.00  0.00    -0.269 OA
ATOM      6  C   UNL A   1      36.375  29.795  30.042  1.00  0.00     0.251 C 
ATOM      7  H   UNL A   1      34.476  30.095  29.475  1.00  0.00     0.163 HD
BRANCH   6   8
ATOM      8  C   UNL A   1      37.786  29.668  29.610  1.00  0.00     0.039 A 
ATOM      9  C   UNL A   1      38.134  29.768  28.263  1.00  0.00     0.014 A 
ATOM     10  C   UNL A   1      38.772  29.422  30.570  1.00  0.00     0.014 A 
ATOM     11  C   UNL A   1      39.424  29.439  27.859  1.00  0.00     0.010 A 
ATOM     12  C   UNL A   1      40.090  29.180  30.168  1.00  0.00     0.010 A 
ATOM     13  C   UNL A   1      40.417  29.131  28.805  1.00  0.00    -0.014 A 
BRANCH  13  14
ATOM     14  C   UNL A   1      41.779  28.765  28.335  1.00  0.00     0.031 A 
ATOM     15  C   UNL A   1      42.902  29.772  28.348  1.00  0.00     0.074 A 
ATOM     16  C   UNL A   1      42.018  27.497  27.946  1.00  0.00     0.049 A 
ATOM     17  N   UNL A   1      44.162  29.604  28.036  1.00  0.00    -0.248 NA
ATOM     18  C   UNL A   1      42.568  31.145  28.755  1.00  0.00     0.031 C 
ATOM     19  C   UNL A   1      41.013  26.436  27.872  1.00  0.00     0.029 A 
ATOM     20  N   UNL A   1      43.183  26.878  27.569  1.00  0.00    -0.354 N 
ATOM     21  C   UNL A   1      44.764  30.848  28.179  1.00  0.00     0.074 A 
ATOM     22  C   UNL A   1      43.726  31.770  28.589  1.00  0.00     0.031 C 
ATOM     23  C   UNL A   1      41.611  25.284  27.532  1.00  0.00     0.029 A 
ATOM     24  C   UNL A   1      43.033  25.535  27.317  1.00  0.00     0.049 A 
ATOM     25  H   UNL A   1      44.043  27.349  27.486  1.00  0.00     0.167 HD
ATOM     26  C   UNL A   1      46.063  31.191  27.995  1.00  0.00     0.037 A 
ATOM     27  C   UNL A   1      43.937  24.604  26.956  1.00  0.00     0.037 A 
ATOM     28  C   UNL A   1      47.101  30.265  27.622  1.00  0.00     0.049 A 
ATOM     29  C   UNL A   1      45.374  25.004  26.787  1.00  0.00     0.074 A 
ATOM     30  C   UNL A   1      48.454  30.510  27.450  1.00  0.00     0.029 A 
ATOM     31  N   UNL A   1      46.907  28.915  27.368  1.00  0.00    -0.354 N 
ATOM     32  N   UNL A   1      45.926  26.181  26.955  1.00  0.00    -0.248 NA
ATOM     33  C   UNL A   1      46.311  23.948  26.382  1.00  0.00     0.031 C 
ATOM     34  C   UNL A   1      49.072  29.314  27.064  1.00  0.00     0.029 A 
ATOM     35  C   UNL A   1      48.110  28.318  27.030  1.00  0.00     0.049 A 
ATOM     36  H   UNL A   1      46.040  28.451  27.419  1.00  0.00     0.167 HD
ATOM     37  C   UNL A   1      47.279  26.005  26.693  1.00  0.00     0.074 A 
ATOM     38  C   UNL A   1      47.463  24.605  26.369  1.00  0.00     0.031 C 
ATOM     39  C   UNL A   1      48.278  26.921  26.717  1.00  0.00     0.037 A 
BRANCH  26  40
ATOM     40  C   UNL A   1      46.436  32.637  28.179  1.00  0.00     0.058 A 
ATOM     41  C   UNL A   1      46.299  33.575  27.144  1.00  0.00     0.135 A 
ATOM     42  C   UNL A   1      46.905  33.097  29.421  1.00  0.00     0.135 A 
ATOM     43  F   UNL A   1      45.869  33.187  25.932  1.00  0.00    -0.206 F 
ATOM     44  C   UNL A   1      46.640  34.913  27.325  1.00  0.00     0.059 A 
ATOM     45  C   UNL A   1      47.231  34.433  29.630  1.00  0.00     0.059 A 
ATOM     46  F   UNL A   1      47.053  32.243  30.446  1.00  0.00    -0.206 F 
ATOM     47  C   UNL A   1      47.110  35.332  28.571  1.00  0.00     0.060 A 
BRANCH  47  48
ATOM     48  S   UNL A   1      47.554  37.068  28.792  1.00  0.00     0.124 S 
ATOM     49  O   UNL A   1      47.217  37.621  27.483  1.00  0.00    -0.237 OA
ATOM     50  O   UNL A   1      46.689  37.477  29.893  1.00  0.00    -0.237 OA
ATOM     51  O   UNL A   1      48.979  37.017  29.104  1.00  0.00    -0.744 OA
ENDBRANCH  47  48
ENDBRANCH  26  40
BRANCH  27  52
ATOM     52  C   UNL A   1      43.504  23.198  26.756  1.00  0.00     0.058 A 
ATOM     53  C   UNL A   1      43.435  22.641  25.472  1.00  0.00     0.135 A 
ATOM     54  C   UNL A   1      43.182  22.376  27.847  1.00  0.00     0.135 A 
ATOM     55  F   UNL A   1      43.731  23.391  24.399  1.00  0.00    -0.206 F 
ATOM     56  C   UNL A   1      43.053  21.318  25.272  1.00  0.00     0.059 A 
ATOM     57  C   UNL A   1      42.821  21.044  27.675  1.00  0.00     0.059 A 
ATOM     58  F   UNL A   1      43.251  22.859  29.098  1.00  0.00    -0.206 F 
ATOM     59  C   UNL A   1      42.750  20.527  26.382  1.00  0.00     0.060 A 
BRANCH  59  60
ATOM     60  S   UNL A   1      42.315  18.794  26.122  1.00  0.00     0.124 S 
ATOM     61  O   UNL A   1      42.566  18.229  27.442  1.00  0.00    -0.237 OA
ATOM     62  O   UNL A   1      40.915  18.882  25.720  1.00  0.00    -0.237 OA
ATOM     63  O   UNL A   1      43.235  18.376  25.067  1.00  0.00    -0.744 OA
ENDBRANCH  59  60
ENDBRANCH  27  52
BRANCH  39  64
ATOM     64  C   UNL A   1      49.665  26.427  26.418  1.00  0.00     0.058 A 
ATOM     65  C   UNL A   1      50.193  26.461  25.118  1.00  0.00     0.135 A 
ATOM     66  C   UNL A   1      50.479  25.931  27.447  1.00  0.00     0.135 A 
ATOM     67  F   UNL A   1      49.450  26.921  24.099  1.00  0.00    -0.206 F 
ATOM     68  C   UNL A   1      51.474  25.994  24.843  1.00  0.00     0.059 A 
ATOM     69  C   UNL A   1      51.771  25.477  27.199  1.00  0.00     0.059 A 
ATOM     70  F   UNL A   1      50.022  25.885  28.708  1.00  0.00    -0.206 F 
ATOM     71  C   UNL A   1      52.254  25.498  25.891  1.00  0.00     0.060 A 
BRANCH  71  72
ATOM     72  S   UNL A   1      53.919  24.903  25.531  1.00  0.00     0.124 S 
ATOM     73  O   UNL A   1      54.317  25.788  24.441  1.00  0.00    -0.237 OA
ATOM     74  O   UNL A   1      54.611  25.111  26.800  1.00  0.00    -0.237 OA
ATOM     75  O   UNL A   1      53.707  23.506  25.163  1.00  0.00    -0.744 OA
ENDBRANCH  71  72
ENDBRANCH  39  64
ENDBRANCH  13  14
ENDBRANCH   6   8
ENDBRANCH   3   4
ENDBRANCH   2   3
ENDBRANCH   1   2
BRANCH   1  76
ATOM     76  C   UNL A   1      32.016  28.194  27.389  1.00  0.00     0.116 C 
BRANCH  76  77
ATOM     77  N   UNL A   1      31.171  28.002  26.220  1.00  0.00    -0.352 N 
ATOM     78  C   UNL A   1      31.279  27.094  25.196  1.00  0.00     0.252 C 
ATOM     79  H   UNL A   1      30.406  28.619  26.152  1.00  0.00     0.163 HD
ATOM     80  O   UNL A   1      30.467  27.086  24.278  1.00  0.00    -0.269 OA
BRANCH  78  81
ATOM     81  C   UNL A   1      32.347  26.076  25.227  1.00  0.00     0.059 A 
ATOM     82  C   UNL A   1      32.115  24.892  25.935  1.00  0.00     0.038 A 
ATOM     83  C   UNL A   1      33.550  26.244  24.542  1.00  0.00     0.055 A 
ATOM     84  C   UNL A   1      33.104  23.899  26.016  1.00  0.00     0.101 A 
ATOM     85  C   UNL A   1      34.507  25.221  24.567  1.00  0.00     0.043 A 
ATOM     86  Cl  UNL A   1      33.952  27.692  23.695  1.00  0.00    -0.083 Cl
ATOM     87  C   UNL A   1      34.286  24.041  25.293  1.00  0.00     0.062 A 
ATOM     88  Cl  UNL A   1      35.521  22.840  25.225  1.00  0.00    -0.083 Cl
BRANCH  84  89
ATOM     89  S   UNL A   1      32.775  22.551  27.116  1.00  0.00     0.242 S 
ATOM     90  O   UNL A   1      33.860  22.539  28.080  1.00  0.00    -0.207 OA
ATOM     91  O   UNL A   1      31.404  22.670  27.542  1.00  0.00    -0.207 OA
BRANCH  89  92
ATOM     92  N   UNL A   1      32.893  21.126  26.255  1.00  0.00    -0.207 NA
ATOM     93  H   UNL A   1      32.362  20.434  26.785  1.00  0.00     0.141 HD
BRANCH  92  94
ATOM     94  C   UNL A   1      32.458  20.986  24.871  1.00  0.00     0.134 C 
BRANCH  94  95
ATOM     95  C   UNL A   1      32.830  19.730  24.131  1.00  0.00    -0.030 A 
ATOM     96  C   UNL A   1      32.119  19.233  23.037  1.00  0.00     0.025 A 
ATOM     97  C   UNL A   1      33.887  18.953  24.628  1.00  0.00     0.025 A 
ATOM     98  C   UNL A   1      32.477  18.001  22.509  1.00  0.00     0.111 A 
ATOM     99  C   UNL A   1      34.177  17.738  24.027  1.00  0.00     0.111 A 
ATOM    100  N   UNL A   1      33.492  17.245  22.979  1.00  0.00    -0.265 NA
ENDBRANCH  94  95
ENDBRANCH  92  94
ENDBRANCH  89  92
ENDBRANCH  84  89
ENDBRANCH  78  81
ENDBRANCH  76  77
ENDBRANCH   1  76
TORSDOF 18
ENDMDL
MODEL 2
REMARK VINA RESULT:     -12.3      2.786      9.074
REMARK SMILES O=C(NCCCCNC(=O)c1cc(S(=O)(=O)NCc2ccncc2)c(Cl)cc1Cl)c1ccc(-c2c3nc(c(-c4c(F)cc(S(=O)(=O)[O-])cc4F)c4ccc([nH]4)c(-c4c(F)cc(S(=O)(=O)[O-])cc4F)c4nc(c(-c5c(F)cc(S(=O)(=O)[O-])cc5F)c5ccc2[nH]5)C=C4)C=C3)cc1
REMARK SMILES IDX 6 1 5 2 4 3 3 4 1 5 2 6 30 8 31 9 95 10 32 11 94 12 33 13
REMARK SMILES IDX 34 14 35 15 88 16 36 17 93 18 87 19 89 20 37 21 92 22 86 23
REMARK SMILES IDX 85 24 38 26 72 27 51 28 71 29 52 30 55 31 70 32 90 33 53 34
REMARK SMILES IDX 54 35 69 37 91 38 56 39 39 40 40 41 49 42 41 43 42 44 48 45
REMARK SMILES IDX 50 46 43 47 44 48 45 49 46 50 47 51 73 52 74 53 83 54 75 55
REMARK SMILES IDX 76 56 82 57 84 58 77 59 78 60 79 61 80 62 81 63 57 64 58 65
REMARK SMILES IDX 67 66 59 67 60 68 66 69 68 70 61 71 62 72 63 73 64 74 65 75
REMARK SMILES IDX 7 76 8 77 9 78 10 80 11 81 12 82 28 83 13 84 27 85 29 86
REMARK SMILES IDX 25 87 26 88 14 89 15 90 16 91 17 92 18 94 19 95 20 96 24 97
REMARK SMILES IDX 21 98 23 99 22 100
REMARK H PARENT 3 7 89 25 55 36 8 79 17 93
REMARK Flexibility Score: inf
ROOT
ATOM      1  C   UNL A   1      37.268  22.105  24.170  1.00  0.00     0.023 C 
ENDROOT
BRANCH   1   2
ATOM      2  C   UNL A   1      37.674  20.966  25.103  1.00  0.00     0.023 C 
BRANCH   2   3
ATOM      3  C   UNL A   1      38.942  21.199  25.915  1.00  0.00     0.116 C 
BRANCH   3   4
ATOM      4  N   UNL A   1      39.825  20.043  25.953  1.00  0.00    -0.352 N 
ATOM      5  O   UNL A   1      41.774  18.911  26.021  1.00  0.00    -0.269 OA
ATOM      6  C   UNL A   1      41.188  19.984  26.135  1.00  0.00     0.251 C 
ATOM      7  H   UNL A   1      39.381  19.172  25.832  1.00  0.00     0.163 HD
BRANCH   6   8
ATOM      8  C   UNL A   1      41.953  21.219  26.424  1.00  0.00     0.039 A 
ATOM      9  C   UNL A   1      42.334  21.536  27.729  1.00  0.00     0.014 A 
ATOM     10  C   UNL A   1      42.272  22.084  25.374  1.00  0.00     0.014 A 
ATOM     11  C   UNL A   1      42.862  22.793  28.005  1.00  0.00     0.010 A 
ATOM     12  C   UNL A   1      42.887  23.311  25.644  1.00  0.00     0.010 A 
ATOM     13  C   UNL A   1      43.136  23.701  26.969  1.00  0.00    -0.014 A 
BRANCH  13  14
ATOM     14  C   UNL A   1      43.683  25.042  27.304  1.00  0.00     0.031 A 
ATOM     15  C   UNL A   1      45.120  25.392  27.010  1.00  0.00     0.074 A 
ATOM     16  C   UNL A   1      42.860  25.972  27.828  1.00  0.00     0.049 A 
ATOM     17  N   UNL A   1      45.741  26.532  27.177  1.00  0.00    -0.248 NA
ATOM     18  C   UNL A   1      45.973  24.324  26.466  1.00  0.00     0.031 C 
ATOM     19  C   UNL A   1      41.454  25.752  28.175  1.00  0.00     0.029 A 
ATOM     20  N   UNL A   1      43.073  27.292  28.132  1.00  0.00    -0.354 N 
ATOM     21  C   UNL A   1      47.058  26.314  26.789  1.00  0.00     0.074 A 
ATOM     22  C   UNL A   1      47.153  24.924  26.395  1.00  0.00     0.031 C 
ATOM     23  C   UNL A   1      40.916  26.909  28.587  1.00  0.00     0.029 A 
ATOM     24  C   UNL A   1      41.948  27.941  28.581  1.00  0.00     0.049 A 
ATOM     25  H   UNL A   1      43.949  27.733  28.039  1.00  0.00     0.167 HD
ATOM     26  C   UNL A   1      48.091  27.191  26.757  1.00  0.00     0.037 A 
ATOM     27  C   UNL A   1      41.762  29.224  28.946  1.00  0.00     0.037 A 
ATOM     28  C   UNL A   1      47.986  28.583  27.114  1.00  0.00     0.049 A 
ATOM     29  C   UNL A   1      42.915  30.181  28.873  1.00  0.00     0.074 A 
ATOM     30  C   UNL A   1      48.967  29.560  27.075  1.00  0.00     0.029 A 
ATOM     31  N   UNL A   1      46.830  29.199  27.573  1.00  0.00    -0.354 N 
ATOM     32  N   UNL A   1      44.145  29.960  28.476  1.00  0.00    -0.248 NA
ATOM     33  C   UNL A   1      42.654  31.564  29.294  1.00  0.00     0.031 C 
ATOM     34  C   UNL A   1      48.412  30.759  27.538  1.00  0.00     0.029 A 
ATOM     35  C   UNL A   1      47.076  30.537  27.830  1.00  0.00     0.049 A 
ATOM     36  H   UNL A   1      45.963  28.749  27.697  1.00  0.00     0.167 HD
ATOM     37  C   UNL A   1      44.802  31.180  28.584  1.00  0.00     0.074 A 
ATOM     38  C   UNL A   1      43.828  32.138  29.068  1.00  0.00     0.031 C 
ATOM     39  C   UNL A   1      46.095  31.480  28.306  1.00  0.00     0.037 A 
BRANCH  26  40
ATOM     40  C   UNL A   1      49.437  26.670  26.331  1.00  0.00     0.058 A 
ATOM     41  C   UNL A   1      49.897  26.799  25.012  1.00  0.00     0.135 A 
ATOM     42  C   UNL A   1      50.291  26.062  27.266  1.00  0.00     0.135 A 
ATOM     43  F   UNL A   1      49.116  27.357  24.074  1.00  0.00    -0.206 F 
ATOM     44  C   UNL A   1      51.147  26.320  24.627  1.00  0.00     0.059 A 
ATOM     45  C   UNL A   1      51.553  25.597  26.910  1.00  0.00     0.059 A 
ATOM     46  F   UNL A   1      49.901  25.916  28.542  1.00  0.00    -0.206 F 
ATOM     47  C   UNL A   1      51.966  25.715  25.583  1.00  0.00     0.060 A 
BRANCH  47  48
ATOM     48  S   UNL A   1      53.583  25.093  25.072  1.00  0.00     0.124 S 
ATOM     49  O   UNL A   1      53.394  23.652  25.210  1.00  0.00    -0.237 OA
ATOM     50  O   UNL A   1      53.693  25.588  23.703  1.00  0.00    -0.237 OA
ATOM     51  O   UNL A   1      54.499  25.702  26.031  1.00  0.00    -0.744 OA
ENDBRANCH  47  48
ENDBRANCH  26  40
BRANCH  27  52
ATOM     52  C   UNL A   1      40.418  29.674  29.389  1.00  0.00     0.058 A 
ATOM     53  C   UNL A   1      40.158  29.945  30.740  1.00  0.00     0.135 A 
ATOM     54  C   UNL A   1      39.379  29.873  28.467  1.00  0.00     0.135 A 
ATOM     55  F   UNL A   1      41.121  29.765  31.658  1.00  0.00    -0.206 F 
ATOM     56  C   UNL A   1      38.911  30.389  31.166  1.00  0.00     0.059 A 
ATOM     57  C   UNL A   1      38.131  30.339  28.865  1.00  0.00     0.059 A 
ATOM     58  F   UNL A   1      39.585  29.644  27.161  1.00  0.00    -0.206 F 
ATOM     59  C   UNL A   1      37.903  30.585  30.219  1.00  0.00     0.060 A 
BRANCH  59  60
ATOM     60  S   UNL A   1      36.305  31.221  30.768  1.00  0.00     0.124 S 
ATOM     61  O   UNL A   1      35.547  31.220  29.523  1.00  0.00    -0.237 OA
ATOM     62  O   UNL A   1      35.902  30.233  31.763  1.00  0.00    -0.237 OA
ATOM     63  O   UNL A   1      36.639  32.538  31.306  1.00  0.00    -0.744 OA
ENDBRANCH  59  60
ENDBRANCH  27  52
BRANCH  39  64
ATOM     64  C   UNL A   1      46.519  32.909  28.489  1.00  0.00     0.058 A 
ATOM     65  C   UNL A   1      46.411  33.846  27.450  1.00  0.00     0.135 A 
ATOM     66  C   UNL A   1      47.021  33.348  29.723  1.00  0.00     0.135 A 
ATOM     67  F   UNL A   1      45.943  33.472  26.248  1.00  0.00    -0.206 F 
ATOM     68  C   UNL A   1      46.814  35.166  27.620  1.00  0.00     0.059 A 
ATOM     69  C   UNL A   1      47.410  34.669  29.923  1.00  0.00     0.059 A 
ATOM     70  F   UNL A   1      47.135  32.492  30.750  1.00  0.00    -0.206 F 
ATOM     71  C   UNL A   1      47.318  35.567  28.859  1.00  0.00     0.060 A 
BRANCH  71  72
ATOM     72  S   UNL A   1      47.828  37.285  29.078  1.00  0.00     0.124 S 
ATOM     73  O   UNL A   1      48.738  37.176  30.214  1.00  0.00    -0.237 OA
ATOM     74  O   UNL A   1      48.452  37.596  27.795  1.00  0.00    -0.237 OA
ATOM     75  O   UNL A   1      46.572  37.980  29.340  1.00  0.00    -0.744 OA
ENDBRANCH  71  72
ENDBRANCH  39  64
ENDBRANCH  13  14
ENDBRANCH   6   8
ENDBRANCH   3   4
ENDBRANCH   2   3
ENDBRANCH   1   2
BRANCH   1  76
ATOM     76  C   UNL A   1      36.972  23.436  24.850  1.00  0.00     0.116 C 
BRANCH  76  77
ATOM     77  N   UNL A   1      35.905  23.345  25.836  1.00  0.00    -0.352 N 
ATOM     78  C   UNL A   1      34.575  23.663  25.724  1.00  0.00     0.252 C 
ATOM     79  H   UNL A   1      36.180  23.005  26.719  1.00  0.00     0.163 HD
ATOM     80  O   UNL A   1      33.816  23.525  26.676  1.00  0.00    -0.269 OA
BRANCH  78  81
ATOM     81  C   UNL A   1      34.035  24.117  24.428  1.00  0.00     0.059 A 
ATOM     82  C   UNL A   1      34.029  25.490  24.156  1.00  0.00     0.038 A 
ATOM     83  C   UNL A   1      33.575  23.222  23.462  1.00  0.00     0.055 A 
ATOM     84  C   UNL A   1      33.507  25.980  22.948  1.00  0.00     0.101 A 
ATOM     85  C   UNL A   1      33.120  23.709  22.230  1.00  0.00     0.043 A 
ATOM     86  Cl  UNL A   1      33.486  21.520  23.729  1.00  0.00    -0.083 Cl
ATOM     87  C   UNL A   1      33.093  25.086  21.962  1.00  0.00     0.062 A 
ATOM     88  Cl  UNL A   1      32.543  25.567  20.400  1.00  0.00    -0.083 Cl
BRANCH  84  89
ATOM     89  S   UNL A   1      33.355  27.738  22.814  1.00  0.00     0.242 S 
ATOM     90  O   UNL A   1      33.517  28.264  24.157  1.00  0.00    -0.207 OA
ATOM     91  O   UNL A   1      34.217  28.162  21.741  1.00  0.00    -0.207 OA
BRANCH  89  92
ATOM     92  N   UNL A   1      31.793  28.099  22.351  1.00  0.00    -0.207 NA
ATOM     93  H   UNL A   1      31.696  27.753  21.397  1.00  0.00     0.141 HD
BRANCH  92  94
ATOM     94  C   UNL A   1      30.614  27.628  23.067  1.00  0.00     0.134 C 
BRANCH  94  95
ATOM     95  C   UNL A   1      29.424  28.544  23.161  1.00  0.00    -0.030 A 
ATOM     96  C   UNL A   1      28.101  28.101  23.159  1.00  0.00     0.025 A 
ATOM     97  C   UNL A   1      29.648  29.929  23.146  1.00  0.00     0.025 A 
ATOM     98  C   UNL A   1      27.079  29.040  23.126  1.00  0.00     0.111 A 
ATOM     99  C   UNL A   1      28.563  30.791  23.123  1.00  0.00     0.111 A 
ATOM    100  N   UNL A   1      27.283  30.375  23.110  1.00  0.00    -0.265 NA
ENDBRANCH  94  95
ENDBRANCH  92  94
ENDBRANCH  89  92
ENDBRANCH  84  89
ENDBRANCH  78  81
ENDBRANCH  76  77
ENDBRANCH   1  76
TORSDOF 18
ENDMDL
MODEL 3
REMARK VINA RESULT:     -12.2      1.059      2.073
REMARK SMILES O=C(NCCCCNC(=O)c1cc(S(=O)(=O)NCc2ccncc2)c(Cl)cc1Cl)c1ccc(-c2c3nc(c(-c4c(F)cc(S(=O)(=O)[O-])cc4F)c4ccc([nH]4)c(-c4c(F)cc(S(=O)(=O)[O-])cc4F)c4nc(c(-c5c(F)cc(S(=O)(=O)[O-])cc5F)c5ccc2[nH]5)C=C4)C=C3)cc1
REMARK SMILES IDX 6 1 5 2 4 3 3 4 1 5 2 6 30 8 31 9 95 10 32 11 94 12 33 13
REMARK SMILES IDX 34 14 35 15 88 16 36 17 93 18 87 19 89 20 37 21 92 22 86 23
REMARK SMILES IDX 85 24 38 26 72 27 51 28 71 29 52 30 55 31 70 32 90 33 53 34
REMARK SMILES IDX 54 35 69 37 91 38 56 39 39 40 40 41 49 42 41 43 42 44 48 45
REMARK SMILES IDX 50 46 43 47 44 48 45 49 46 50 47 51 73 52 74 53 83 54 75 55
REMARK SMILES IDX 76 56 82 57 84 58 77 59 78 60 79 61 80 62 81 63 57 64 58 65
REMARK SMILES IDX 67 66 59 67 60 68 66 69 68 70 61 71 62 72 63 73 64 74 65 75
REMARK SMILES IDX 7 76 8 77 9 78 10 80 11 81 12 82 28 83 13 84 27 85 29 86
REMARK SMILES IDX 25 87 26 88 14 89 15 90 16 91 17 92 18 94 19 95 20 96 24 97
REMARK SMILES IDX 21 98 23 99 22 100
REMARK H PARENT 3 7 89 25 55 36 8 79 17 93
REMARK Flexibility Score: inf
ROOT
ATOM      1  C   UNL A   1      34.169  29.187  27.553  1.00  0.00     0.023 C 
ENDROOT
BRANCH   1   2
ATOM      2  C   UNL A   1      34.473  30.683  27.534  1.00  0.00     0.023 C 
BRANCH   2   3
ATOM      3  C   UNL A   1      35.665  31.125  28.373  1.00  0.00     0.116 C 
BRANCH   3   4
ATOM      4  N   UNL A   1      35.602  30.669  29.753  1.00  0.00    -0.352 N 
ATOM      5  O   UNL A   1      36.304  29.683  31.656  1.00  0.00    -0.269 OA
ATOM      6  C   UNL A   1      36.584  30.112  30.540  1.00  0.00     0.251 C 
ATOM      7  H   UNL A   1      34.726  30.775  30.190  1.00  0.00     0.163 HD
BRANCH   6   8
ATOM      8  C   UNL A   1      37.968  29.991  30.026  1.00  0.00     0.039 A 
ATOM      9  C   UNL A   1      38.225  29.989  28.655  1.00  0.00     0.014 A 
ATOM     10  C   UNL A   1      39.022  29.853  30.935  1.00  0.00     0.014 A 
ATOM     11  C   UNL A   1      39.497  29.666  28.194  1.00  0.00     0.010 A 
ATOM     12  C   UNL A   1      40.319  29.617  30.466  1.00  0.00     0.010 A 
ATOM     13  C   UNL A   1      40.558  29.465  29.093  1.00  0.00    -0.014 A 
BRANCH  13  14
ATOM     14  C   UNL A   1      41.899  29.102  28.563  1.00  0.00     0.031 A 
ATOM     15  C   UNL A   1      43.027  30.103  28.548  1.00  0.00     0.074 A 
ATOM     16  C   UNL A   1      42.117  27.840  28.144  1.00  0.00     0.049 A 
ATOM     17  N   UNL A   1      44.273  29.936  28.184  1.00  0.00    -0.248 NA
ATOM     18  C   UNL A   1      42.716  31.471  28.991  1.00  0.00     0.031 C 
ATOM     19  C   UNL A   1      41.104  26.784  28.092  1.00  0.00     0.029 A 
ATOM     20  N   UNL A   1      43.263  27.222  27.712  1.00  0.00    -0.354 N 
ATOM     21  C   UNL A   1      44.886  31.175  28.324  1.00  0.00     0.074 A 
ATOM     22  C   UNL A   1      43.869  32.094  28.790  1.00  0.00     0.031 C 
ATOM     23  C   UNL A   1      41.684  25.636  27.711  1.00  0.00     0.029 A 
ATOM     24  C   UNL A   1      43.097  25.884  27.444  1.00  0.00     0.049 A 
ATOM     25  H   UNL A   1      44.121  27.691  27.602  1.00  0.00     0.167 HD
ATOM     26  C   UNL A   1      46.178  31.516  28.094  1.00  0.00     0.037 A 
ATOM     27  C   UNL A   1      43.982  24.955  27.032  1.00  0.00     0.037 A 
ATOM     28  C   UNL A   1      47.197  30.592  27.666  1.00  0.00     0.049 A 
ATOM     29  C   UNL A   1      45.412  25.353  26.813  1.00  0.00     0.074 A 
ATOM     30  C   UNL A   1      48.542  30.834  27.445  1.00  0.00     0.029 A 
ATOM     31  N   UNL A   1      46.986  29.247  27.397  1.00  0.00    -0.354 N 
ATOM     32  N   UNL A   1      45.976  26.525  26.979  1.00  0.00    -0.248 NA
ATOM     33  C   UNL A   1      46.328  24.300  26.354  1.00  0.00     0.031 C 
ATOM     34  C   UNL A   1      49.139  29.642  27.015  1.00  0.00     0.029 A 
ATOM     35  C   UNL A   1      48.172  28.651  27.003  1.00  0.00     0.049 A 
ATOM     36  H   UNL A   1      46.120  28.786  27.475  1.00  0.00     0.167 HD
ATOM     37  C   UNL A   1      47.318  26.347  26.660  1.00  0.00     0.074 A 
ATOM     38  C   UNL A   1      47.482  24.952  26.307  1.00  0.00     0.031 C 
ATOM     39  C   UNL A   1      48.321  27.259  26.660  1.00  0.00     0.037 A 
BRANCH  26  40
ATOM     40  C   UNL A   1      46.565  32.957  28.287  1.00  0.00     0.058 A 
ATOM     41  C   UNL A   1      47.062  33.433  29.510  1.00  0.00     0.135 A 
ATOM     42  C   UNL A   1      46.468  33.867  27.221  1.00  0.00     0.135 A 
ATOM     43  F   UNL A   1      47.161  32.609  30.566  1.00  0.00    -0.206 F 
ATOM     44  C   UNL A   1      47.425  34.766  29.678  1.00  0.00     0.059 A 
ATOM     45  C   UNL A   1      46.846  35.199  27.360  1.00  0.00     0.059 A 
ATOM     46  F   UNL A   1      46.001  33.465  26.029  1.00  0.00    -0.206 F 
ATOM     47  C   UNL A   1      47.308  35.644  28.599  1.00  0.00     0.060 A 
BRANCH  47  48
ATOM     48  S   UNL A   1      47.777  37.373  28.830  1.00  0.00     0.124 S 
ATOM     49  O   UNL A   1      46.483  38.040  28.716  1.00  0.00    -0.237 OA
ATOM     50  O   UNL A   1      48.369  37.363  30.164  1.00  0.00    -0.237 OA
ATOM     51  O   UNL A   1      48.710  37.620  27.735  1.00  0.00    -0.744 OA
ENDBRANCH  47  48
ENDBRANCH  26  40
BRANCH  27  52
ATOM     52  C   UNL A   1      43.534  23.555  26.827  1.00  0.00     0.058 A 
ATOM     53  C   UNL A   1      43.294  22.708  27.917  1.00  0.00     0.135 A 
ATOM     54  C   UNL A   1      43.306  23.048  25.538  1.00  0.00     0.135 A 
ATOM     55  F   UNL A   1      43.502  23.149  29.168  1.00  0.00    -0.206 F 
ATOM     56  C   UNL A   1      42.853  21.401  27.740  1.00  0.00     0.059 A 
ATOM     57  C   UNL A   1      42.842  21.753  25.336  1.00  0.00     0.059 A 
ATOM     58  F   UNL A   1      43.505  23.827  24.463  1.00  0.00    -0.206 F 
ATOM     59  C   UNL A   1      42.627  20.933  26.443  1.00  0.00     0.060 A 
BRANCH  59  60
ATOM     60  S   UNL A   1      41.995  19.257  26.221  1.00  0.00     0.124 S 
ATOM     61  O   UNL A   1      40.560  19.498  26.117  1.00  0.00    -0.237 OA
ATOM     62  O   UNL A   1      42.661  18.833  24.994  1.00  0.00    -0.237 OA
ATOM     63  O   UNL A   1      42.436  18.572  27.433  1.00  0.00    -0.744 OA
ENDBRANCH  59  60
ENDBRANCH  27  52
BRANCH  39  64
ATOM     64  C   UNL A   1      49.692  26.764  26.298  1.00  0.00     0.058 A 
ATOM     65  C   UNL A   1      50.529  26.156  27.248  1.00  0.00     0.135 A 
ATOM     66  C   UNL A   1      50.165  26.882  24.983  1.00  0.00     0.135 A 
ATOM     67  F   UNL A   1      50.124  26.027  28.521  1.00  0.00    -0.206 F 
ATOM     68  C   UNL A   1      51.802  25.708  26.911  1.00  0.00     0.059 A 
ATOM     69  C   UNL A   1      51.427  26.422  24.618  1.00  0.00     0.059 A 
ATOM     70  F   UNL A   1      49.400  27.448  24.037  1.00  0.00    -0.206 F 
ATOM     71  C   UNL A   1      52.244  25.850  25.594  1.00  0.00     0.060 A 
BRANCH  71  72
ATOM     72  S   UNL A   1      53.892  25.256  25.159  1.00  0.00     0.124 S 
ATOM     73  O   UNL A   1      54.634  25.528  26.387  1.00  0.00    -0.237 OA
ATOM     74  O   UNL A   1      53.654  23.847  24.863  1.00  0.00    -0.237 OA
ATOM     75  O   UNL A   1      54.256  26.078  24.008  1.00  0.00    -0.744 OA
ENDBRANCH  71  72
ENDBRANCH  39  64
ENDBRANCH  13  14
ENDBRANCH   6   8
ENDBRANCH   3   4
ENDBRANCH   2   3
ENDBRANCH   1   2
BRANCH   1  76
ATOM     76  C   UNL A   1      33.075  28.727  26.597  1.00  0.00     0.116 C 
BRANCH  76  77
ATOM     77  N   UNL A   1      33.592  28.306  25.303  1.00  0.00    -0.352 N 
ATOM     78  C   UNL A   1      33.409  27.127  24.625  1.00  0.00     0.252 C 
ATOM     79  H   UNL A   1      34.161  28.967  24.846  1.00  0.00     0.163 HD
ATOM     80  O   UNL A   1      33.936  26.944  23.534  1.00  0.00    -0.269 OA
BRANCH  78  81
ATOM     81  C   UNL A   1      32.520  26.089  25.182  1.00  0.00     0.059 A 
ATOM     82  C   UNL A   1      33.100  25.008  25.854  1.00  0.00     0.038 A 
ATOM     83  C   UNL A   1      31.130  26.179  25.093  1.00  0.00     0.055 A 
ATOM     84  C   UNL A   1      32.304  23.981  26.384  1.00  0.00     0.101 A 
ATOM     85  C   UNL A   1      30.336  25.188  25.685  1.00  0.00     0.043 A 
ATOM     86  Cl  UNL A   1      30.325  27.439  24.233  1.00  0.00    -0.083 Cl
ATOM     87  C   UNL A   1      30.915  24.092  26.341  1.00  0.00     0.062 A 
ATOM     88  Cl  UNL A   1      29.838  22.952  27.058  1.00  0.00    -0.083 Cl
BRANCH  84  89
ATOM     89  S   UNL A   1      33.163  22.568  27.015  1.00  0.00     0.242 S 
ATOM     90  O   UNL A   1      34.560  22.754  26.671  1.00  0.00    -0.207 OA
ATOM     91  O   UNL A   1      32.751  22.392  28.384  1.00  0.00    -0.207 OA
BRANCH  89  92
ATOM     92  N   UNL A   1      32.646  21.219  26.178  1.00  0.00    -0.207 NA
ATOM     93  H   UNL A   1      31.649  21.131  26.375  1.00  0.00     0.141 HD
BRANCH  92  94
ATOM     94  C   UNL A   1      32.781  21.070  24.735  1.00  0.00     0.134 C 
BRANCH  94  95
ATOM     95  C   UNL A   1      32.974  19.687  24.176  1.00  0.00    -0.030 A 
ATOM     96  C   UNL A   1      33.951  18.797  24.624  1.00  0.00     0.025 A 
ATOM     97  C   UNL A   1      32.199  19.301  23.071  1.00  0.00     0.025 A 
ATOM     98  C   UNL A   1      34.121  17.594  23.953  1.00  0.00     0.111 A 
ATOM     99  C   UNL A   1      32.435  18.074  22.472  1.00  0.00     0.111 A 
ATOM    100  N   UNL A   1      33.382  17.213  22.889  1.00  0.00    -0.265 NA
ENDBRANCH  94  95
ENDBRANCH  92  94
ENDBRANCH  89  92
ENDBRANCH  84  89
ENDBRANCH  78  81
ENDBRANCH  76  77
ENDBRANCH   1  76
TORSDOF 18
ENDMDL
