MODEL 1
REMARK VINA RESULT:     -14.1      0.000      0.000
REMARK SMILES Cc1ccnc(C(=O)c2[nH]c3cc(Cl)c(F)cc3c2CC(=O)NCCCCNC(=O)c2ccc(-c3c4nc(c(-c5c(F)cc(S(=O)(=O)[O-])cc5F)c5ccc([nH]5)c(-c5c(F)cc(S(=O)(=O)[O-])cc5F)c5nc(c(-c6c(F)cc(S(=O)(=O)[O-])cc6F)c6ccc3[nH]6)C=C5)C=C4)cc2)c1
REMARK SMILES IDX 25 1 24 2 23 3 21 4 22 5 20 7 19 8 9 9 10 10 11 11 18 13
REMARK SMILES IDX 12 14 17 15 13 16 15 17 14 18 16 19 7 20 8 21 6 22 1 23 2 24
REMARK SMILES IDX 3 25 97 26 4 27 5 28 26 29 27 30 28 31 29 32 30 34 31 35
REMARK SMILES IDX 32 36 96 37 33 38 95 39 34 40 35 41 36 42 89 43 37 44 94 45
REMARK SMILES IDX 88 46 90 47 38 48 93 49 87 50 86 51 39 53 73 54 52 55 72 56
REMARK SMILES IDX 53 57 56 58 71 59 91 60 54 61 55 62 70 64 92 65 57 66 40 67
REMARK SMILES IDX 41 68 50 69 42 70 43 71 49 72 51 73 44 74 45 75 46 76 47 77
REMARK SMILES IDX 48 78 74 79 75 80 84 81 76 82 77 83 83 84 85 85 78 86 79 87
REMARK SMILES IDX 80 88 81 89 82 90 58 91 59 92 68 93 60 94 61 95 67 96 69 97
REMARK SMILES IDX 62 98 63 99 64 100 65 101 66 102
REMARK H PARENT 23 6 10 12 28 33 90 52 56 63
REMARK Flexibility Score: inf
ROOT
ATOM      1  C   UNL A   1      31.715  28.404  26.404  1.00  0.00     0.023 C 
ENDROOT
BRANCH   1   2
ATOM      2  C   UNL A   1      32.312  26.978  26.570  1.00  0.00     0.116 C 
BRANCH   2   3
ATOM      3  N   UNL A   1      31.426  25.862  26.873  1.00  0.00    -0.356 N 
ATOM      4  C   UNL A   1      31.550  24.510  26.697  1.00  0.00     0.224 C 
ATOM      5  O   UNL A   1      30.642  23.787  27.117  1.00  0.00    -0.275 OA
ATOM      6  H   UNL A   1      30.572  26.132  27.284  1.00  0.00     0.163 HD
BRANCH   4   7
ATOM      7  C   UNL A   1      32.775  23.901  26.063  1.00  0.00     0.138 C 
BRANCH   7   8
ATOM      8  C   UNL A   1      32.560  23.388  24.678  1.00  0.00    -0.002 A 
ATOM      9  C   UNL A   1      32.434  24.106  23.488  1.00  0.00     0.093 A 
ATOM     10  N   UNL A   1      32.136  23.169  22.508  1.00  0.00    -0.351 N 
ATOM     11  C   UNL A   1      32.222  21.881  23.001  1.00  0.00     0.048 A 
ATOM     12  H   UNL A   1      31.894  23.392  21.581  1.00  0.00     0.167 HD
ATOM     13  C   UNL A   1      32.445  21.989  24.367  1.00  0.00     0.007 A 
ATOM     14  C   UNL A   1      32.117  20.632  22.361  1.00  0.00     0.050 A 
ATOM     15  C   UNL A   1      32.568  20.809  25.137  1.00  0.00     0.051 A 
ATOM     16  C   UNL A   1      32.287  19.477  23.141  1.00  0.00     0.078 A 
ATOM     17  C   UNL A   1      32.523  19.570  24.506  1.00  0.00     0.142 A 
ATOM     18  Cl  UNL A   1      32.201  17.927  22.393  1.00  0.00    -0.081 Cl
ATOM     19  F   UNL A   1      32.735  18.473  25.251  1.00  0.00    -0.205 F 
BRANCH   9  20
ATOM     20  C   UNL A   1      32.428  25.554  23.212  1.00  0.00     0.227 C 
ATOM     21  O   UNL A   1      33.502  26.134  23.051  1.00  0.00    -0.285 OA
BRANCH  20  22
ATOM     22  C   UNL A   1      31.128  26.358  23.137  1.00  0.00     0.113 A 
ATOM     23  C   UNL A   1      29.800  29.813  22.146  1.00  0.00     0.044 C 
ATOM     24  C   UNL A   1      29.891  28.384  22.600  1.00  0.00    -0.047 A 
ATOM     25  C   UNL A   1      28.815  27.865  23.299  1.00  0.00     0.023 A 
ATOM     26  C   UNL A   1      31.020  27.559  22.441  1.00  0.00     0.036 A 
ATOM     27  C   UNL A   1      28.942  26.609  23.863  1.00  0.00     0.112 A 
ATOM     28  N   UNL A   1      30.072  25.861  23.829  1.00  0.00    -0.253 NA
ENDBRANCH  20  22
ENDBRANCH   9  20
ENDBRANCH   7   8
ENDBRANCH   4   7
ENDBRANCH   2   3
ENDBRANCH   1   2
BRANCH   1  29
ATOM     29  C   UNL A   1      32.384  29.582  27.141  1.00  0.00     0.023 C 
BRANCH  29  30
ATOM     30  C   UNL A   1      33.895  29.615  26.990  1.00  0.00     0.116 C 
BRANCH  30  31
ATOM     31  N   UNL A   1      34.388  30.944  27.223  1.00  0.00    -0.352 N 
ATOM     32  C   UNL A   1      35.541  31.450  27.723  1.00  0.00     0.251 C 
ATOM     33  H   UNL A   1      33.745  31.643  26.962  1.00  0.00     0.163 HD
ATOM     34  O   UNL A   1      35.655  32.676  27.637  1.00  0.00    -0.269 OA
BRANCH  32  35
ATOM     35  C   UNL A   1      36.528  30.692  28.522  1.00  0.00     0.039 A 
ATOM     36  C   UNL A   1      37.164  31.014  29.718  1.00  0.00     0.014 A 
ATOM     37  C   UNL A   1      37.087  29.654  27.783  1.00  0.00     0.014 A 
ATOM     38  C   UNL A   1      38.539  30.625  29.819  1.00  0.00     0.010 A 
ATOM     39  C   UNL A   1      38.168  28.985  28.277  1.00  0.00     0.010 A 
ATOM     40  C   UNL A   1      39.142  29.812  28.786  1.00  0.00    -0.014 A 
BRANCH  40  41
ATOM     41  C   UNL A   1      40.536  29.101  28.735  1.00  0.00     0.031 A 
ATOM     42  C   UNL A   1      40.668  28.857  30.370  1.00  0.00     0.074 A 
ATOM     43  C   UNL A   1      41.378  28.686  27.580  1.00  0.00     0.049 A 
ATOM     44  N   UNL A   1      41.256  29.697  31.178  1.00  0.00    -0.248 NA
ATOM     45  C   UNL A   1      39.719  28.058  31.280  1.00  0.00     0.031 C 
ATOM     46  C   UNL A   1      41.343  28.795  26.008  1.00  0.00     0.029 A 
ATOM     47  N   UNL A   1      42.672  28.041  27.542  1.00  0.00    -0.354 N 
ATOM     48  C   UNL A   1      41.319  29.056  32.424  1.00  0.00     0.074 A 
ATOM     49  C   UNL A   1      40.157  28.269  32.530  1.00  0.00     0.031 C 
ATOM     50  C   UNL A   1      42.248  27.961  25.351  1.00  0.00     0.029 A 
ATOM     51  C   UNL A   1      43.121  27.309  26.312  1.00  0.00     0.049 A 
ATOM     52  H   UNL A   1      43.263  28.084  28.329  1.00  0.00     0.167 HD
ATOM     53  C   UNL A   1      42.532  28.886  33.004  1.00  0.00     0.037 A 
ATOM     54  C   UNL A   1      44.322  26.575  26.071  1.00  0.00     0.037 A 
ATOM     55  C   UNL A   1      43.450  29.755  32.316  1.00  0.00     0.049 A 
ATOM     56  C   UNL A   1      45.160  26.876  27.262  1.00  0.00     0.074 A 
ATOM     57  C   UNL A   1      43.513  31.124  32.145  1.00  0.00     0.029 A 
ATOM     58  N   UNL A   1      43.922  29.183  31.167  1.00  0.00    -0.354 N 
ATOM     59  N   UNL A   1      45.649  28.072  27.449  1.00  0.00    -0.248 NA
ATOM     60  C   UNL A   1      44.760  26.102  28.436  1.00  0.00     0.031 C 
ATOM     61  C   UNL A   1      43.870  31.339  30.784  1.00  0.00     0.029 A 
ATOM     62  C   UNL A   1      44.227  30.118  30.226  1.00  0.00     0.049 A 
ATOM     63  H   UNL A   1      44.028  28.214  31.037  1.00  0.00     0.167 HD
ATOM     64  C   UNL A   1      45.137  28.429  28.683  1.00  0.00     0.074 A 
ATOM     65  C   UNL A   1      44.596  27.152  29.253  1.00  0.00     0.031 C 
ATOM     66  C   UNL A   1      44.799  29.734  28.968  1.00  0.00     0.037 A 
BRANCH  53  67
ATOM     67  C   UNL A   1      42.995  27.659  33.752  1.00  0.00     0.058 A 
ATOM     68  C   UNL A   1      43.134  27.795  35.142  1.00  0.00     0.135 A 
ATOM     69  C   UNL A   1      43.508  26.460  33.195  1.00  0.00     0.135 A 
ATOM     70  F   UNL A   1      42.707  28.906  35.760  1.00  0.00    -0.206 F 
ATOM     71  C   UNL A   1      43.729  26.821  35.932  1.00  0.00     0.059 A 
ATOM     72  C   UNL A   1      44.075  25.447  33.977  1.00  0.00     0.059 A 
ATOM     73  F   UNL A   1      43.533  26.246  31.870  1.00  0.00    -0.206 F 
ATOM     74  C   UNL A   1      44.185  25.645  35.347  1.00  0.00     0.060 A 
BRANCH  74  75
ATOM     75  S   UNL A   1      44.900  24.398  36.433  1.00  0.00     0.124 S 
ATOM     76  O   UNL A   1      46.327  24.669  36.300  1.00  0.00    -0.237 OA
ATOM     77  O   UNL A   1      44.302  24.756  37.716  1.00  0.00    -0.237 OA
ATOM     78  O   UNL A   1      44.437  23.139  35.861  1.00  0.00    -0.744 OA
ENDBRANCH  74  75
ENDBRANCH  53  67
BRANCH  54  79
ATOM     79  C   UNL A   1      44.649  25.217  25.329  1.00  0.00     0.058 A 
ATOM     80  C   UNL A   1      45.923  24.604  25.010  1.00  0.00     0.135 A 
ATOM     81  C   UNL A   1      43.589  24.310  25.262  1.00  0.00     0.135 A 
ATOM     82  F   UNL A   1      47.056  25.329  24.991  1.00  0.00    -0.206 F 
ATOM     83  C   UNL A   1      46.087  23.202  24.717  1.00  0.00     0.059 A 
ATOM     84  C   UNL A   1      43.731  22.933  25.006  1.00  0.00     0.059 A 
ATOM     85  F   UNL A   1      42.353  24.740  25.538  1.00  0.00    -0.206 F 
ATOM     86  C   UNL A   1      44.975  22.366  24.759  1.00  0.00     0.060 A 
BRANCH  86  87
ATOM     87  S   UNL A   1      45.108  20.546  24.579  1.00  0.00     0.124 S 
ATOM     88  O   UNL A   1      44.726  20.330  23.188  1.00  0.00    -0.237 OA
ATOM     89  O   UNL A   1      46.509  20.292  24.898  1.00  0.00    -0.237 OA
ATOM     90  O   UNL A   1      44.152  20.041  25.564  1.00  0.00    -0.744 OA
ENDBRANCH  86  87
ENDBRANCH  54  79
BRANCH  66  91
ATOM     91  C   UNL A   1      45.109  30.877  28.004  1.00  0.00     0.058 A 
ATOM     92  C   UNL A   1      44.256  31.462  27.039  1.00  0.00     0.135 A 
ATOM     93  C   UNL A   1      46.293  31.574  28.256  1.00  0.00     0.135 A 
ATOM     94  F   UNL A   1      42.998  31.039  26.880  1.00  0.00    -0.206 F 
ATOM     95  C   UNL A   1      44.627  32.582  26.271  1.00  0.00     0.059 A 
ATOM     96  C   UNL A   1      46.660  32.719  27.553  1.00  0.00     0.059 A 
ATOM     97  F   UNL A   1      47.075  31.193  29.277  1.00  0.00    -0.206 F 
ATOM     98  C   UNL A   1      45.850  33.192  26.528  1.00  0.00     0.060 A 
BRANCH  98  99
ATOM     99  S   UNL A   1      46.352  34.622  25.542  1.00  0.00     0.124 S 
ATOM    100  O   UNL A   1      45.527  34.486  24.354  1.00  0.00    -0.237 OA
ATOM    101  O   UNL A   1      46.040  35.740  26.416  1.00  0.00    -0.237 OA
ATOM    102  O   UNL A   1      47.797  34.389  25.327  1.00  0.00    -0.744 OA
ENDBRANCH  98  99
ENDBRANCH  66  91
ENDBRANCH  40  41
ENDBRANCH  32  35
ENDBRANCH  30  31
ENDBRANCH  29  30
ENDBRANCH   1  29
TORSDOF 17
ENDMDL
MODEL 2
REMARK VINA RESULT:     -14.1      1.970      3.442
REMARK SMILES Cc1ccnc(C(=O)c2[nH]c3cc(Cl)c(F)cc3c2CC(=O)NCCCCNC(=O)c2ccc(-c3c4nc(c(-c5c(F)cc(S(=O)(=O)[O-])cc5F)c5ccc([nH]5)c(-c5c(F)cc(S(=O)(=O)[O-])cc5F)c5nc(c(-c6c(F)cc(S(=O)(=O)[O-])cc6F)c6ccc3[nH]6)C=C5)C=C4)cc2)c1
REMARK SMILES IDX 25 1 24 2 23 3 21 4 22 5 20 7 19 8 9 9 10 10 11 11 18 13
REMARK SMILES IDX 12 14 17 15 13 16 15 17 14 18 16 19 7 20 8 21 6 22 1 23 2 24
REMARK SMILES IDX 3 25 97 26 4 27 5 28 26 29 27 30 28 31 29 32 30 34 31 35
REMARK SMILES IDX 32 36 96 37 33 38 95 39 34 40 35 41 36 42 89 43 37 44 94 45
REMARK SMILES IDX 88 46 90 47 38 48 93 49 87 50 86 51 39 53 73 54 52 55 72 56
REMARK SMILES IDX 53 57 56 58 71 59 91 60 54 61 55 62 70 64 92 65 57 66 40 67
REMARK SMILES IDX 41 68 50 69 42 70 43 71 49 72 51 73 44 74 45 75 46 76 47 77
REMARK SMILES IDX 48 78 74 79 75 80 84 81 76 82 77 83 83 84 85 85 78 86 79 87
REMARK SMILES IDX 80 88 81 89 82 90 58 91 59 92 68 93 60 94 61 95 67 96 69 97
REMARK SMILES IDX 62 98 63 99 64 100 65 101 66 102
REMARK H PARENT 23 6 10 12 28 33 90 52 56 63
REMARK Flexibility Score: inf
ROOT
ATOM      1  C   UNL A   1      32.862  29.304  24.683  1.00  0.00     0.023 C 
ENDROOT
BRANCH   1   2
ATOM      2  C   UNL A   1      32.056  28.102  24.116  1.00  0.00     0.116 C 
BRANCH   2   3
ATOM      3  N   UNL A   1      32.613  27.319  23.021  1.00  0.00    -0.356 N 
ATOM      4  C   UNL A   1      33.576  26.347  22.977  1.00  0.00     0.224 C 
ATOM      5  O   UNL A   1      33.800  25.805  21.891  1.00  0.00    -0.275 OA
ATOM      6  H   UNL A   1      32.221  27.529  22.142  1.00  0.00     0.163 HD
BRANCH   4   7
ATOM      7  C   UNL A   1      34.310  25.900  24.216  1.00  0.00     0.138 C 
BRANCH   7   8
ATOM      8  C   UNL A   1      33.927  24.541  24.702  1.00  0.00    -0.002 A 
ATOM      9  C   UNL A   1      34.689  23.372  24.722  1.00  0.00     0.093 A 
ATOM     10  N   UNL A   1      33.836  22.370  25.162  1.00  0.00    -0.351 N 
ATOM     11  C   UNL A   1      32.619  22.886  25.564  1.00  0.00     0.048 A 
ATOM     12  H   UNL A   1      34.066  21.414  25.184  1.00  0.00     0.167 HD
ATOM     13  C   UNL A   1      32.633  24.238  25.248  1.00  0.00     0.007 A 
ATOM     14  C   UNL A   1      31.507  22.276  26.174  1.00  0.00     0.050 A 
ATOM     15  C   UNL A   1      31.495  25.023  25.546  1.00  0.00     0.051 A 
ATOM     16  C   UNL A   1      30.408  23.087  26.499  1.00  0.00     0.078 A 
ATOM     17  C   UNL A   1      30.413  24.443  26.200  1.00  0.00     0.142 A 
ATOM     18  Cl  UNL A   1      29.038  22.390  27.278  1.00  0.00    -0.081 Cl
ATOM     19  F   UNL A   1      29.387  25.236  26.552  1.00  0.00    -0.205 F 
BRANCH   9  20
ATOM     20  C   UNL A   1      36.057  23.084  24.253  1.00  0.00     0.227 C 
ATOM     21  O   UNL A   1      36.243  22.873  23.055  1.00  0.00    -0.285 OA
BRANCH  20  22
ATOM     22  C   UNL A   1      37.245  23.023  25.214  1.00  0.00     0.113 A 
ATOM     23  C   UNL A   1      39.470  25.280  27.368  1.00  0.00     0.044 C 
ATOM     24  C   UNL A   1      38.844  24.083  26.712  1.00  0.00    -0.047 A 
ATOM     25  C   UNL A   1      39.571  22.905  26.706  1.00  0.00     0.023 A 
ATOM     26  C   UNL A   1      37.613  24.088  26.033  1.00  0.00     0.036 A 
ATOM     27  C   UNL A   1      39.086  21.838  25.972  1.00  0.00     0.112 A 
ATOM     28  N   UNL A   1      37.970  21.875  25.205  1.00  0.00    -0.253 NA
ENDBRANCH  20  22
ENDBRANCH   9  20
ENDBRANCH   7   8
ENDBRANCH   4   7
ENDBRANCH   2   3
ENDBRANCH   1   2
BRANCH   1  29
ATOM     29  C   UNL A   1      33.922  29.045  25.773  1.00  0.00     0.023 C 
BRANCH  29  30
ATOM     30  C   UNL A   1      33.571  29.657  27.119  1.00  0.00     0.116 C 
BRANCH  30  31
ATOM     31  N   UNL A   1      34.191  30.946  27.254  1.00  0.00    -0.352 N 
ATOM     32  C   UNL A   1      35.410  31.371  27.661  1.00  0.00     0.251 C 
ATOM     33  H   UNL A   1      33.596  31.686  26.992  1.00  0.00     0.163 HD
ATOM     34  O   UNL A   1      35.625  32.576  27.504  1.00  0.00    -0.269 OA
BRANCH  32  35
ATOM     35  C   UNL A   1      36.374  30.568  28.443  1.00  0.00     0.039 A 
ATOM     36  C   UNL A   1      36.959  30.809  29.684  1.00  0.00     0.014 A 
ATOM     37  C   UNL A   1      36.976  29.590  27.656  1.00  0.00     0.014 A 
ATOM     38  C   UNL A   1      38.333  30.427  29.812  1.00  0.00     0.010 A 
ATOM     39  C   UNL A   1      38.045  28.898  28.143  1.00  0.00     0.010 A 
ATOM     40  C   UNL A   1      38.987  29.696  28.749  1.00  0.00    -0.014 A 
BRANCH  40  41
ATOM     41  C   UNL A   1      40.391  29.004  28.703  1.00  0.00     0.031 A 
ATOM     42  C   UNL A   1      40.524  28.770  30.340  1.00  0.00     0.074 A 
ATOM     43  C   UNL A   1      41.240  28.593  27.552  1.00  0.00     0.049 A 
ATOM     44  N   UNL A   1      41.099  29.623  31.145  1.00  0.00    -0.248 NA
ATOM     45  C   UNL A   1      39.585  27.964  31.254  1.00  0.00     0.031 C 
ATOM     46  C   UNL A   1      41.206  28.694  25.980  1.00  0.00     0.029 A 
ATOM     47  N   UNL A   1      42.543  27.966  27.519  1.00  0.00    -0.354 N 
ATOM     48  C   UNL A   1      41.169  28.990  32.394  1.00  0.00     0.074 A 
ATOM     49  C   UNL A   1      40.018  28.188  32.503  1.00  0.00     0.031 C 
ATOM     50  C   UNL A   1      42.123  27.868  25.328  1.00  0.00     0.029 A 
ATOM     51  C   UNL A   1      43.003  27.233  26.295  1.00  0.00     0.049 A 
ATOM     52  H   UNL A   1      43.132  28.021  28.307  1.00  0.00     0.167 HD
ATOM     53  C   UNL A   1      42.384  28.840  32.977  1.00  0.00     0.037 A 
ATOM     54  C   UNL A   1      44.214  26.515  26.059  1.00  0.00     0.037 A 
ATOM     55  C   UNL A   1      43.291  29.718  32.285  1.00  0.00     0.049 A 
ATOM     56  C   UNL A   1      45.047  26.833  27.249  1.00  0.00     0.074 A 
ATOM     57  C   UNL A   1      43.336  31.086  32.106  1.00  0.00     0.029 A 
ATOM     58  N   UNL A   1      43.772  29.146  31.140  1.00  0.00    -0.354 N 
ATOM     59  N   UNL A   1      45.519  28.037  27.430  1.00  0.00    -0.248 NA
ATOM     60  C   UNL A   1      44.656  26.061  28.427  1.00  0.00     0.031 C 
ATOM     61  C   UNL A   1      43.692  31.298  30.744  1.00  0.00     0.029 A 
ATOM     62  C   UNL A   1      44.065  30.079  30.194  1.00  0.00     0.049 A 
ATOM     63  H   UNL A   1      43.891  28.177  31.015  1.00  0.00     0.167 HD
ATOM     64  C   UNL A   1      45.000  28.394  28.661  1.00  0.00     0.074 A 
ATOM     65  C   UNL A   1      44.477  27.113  29.237  1.00  0.00     0.031 C 
ATOM     66  C   UNL A   1      44.644  29.696  28.938  1.00  0.00     0.037 A 
BRANCH  53  67
ATOM     67  C   UNL A   1      42.863  27.623  33.732  1.00  0.00     0.058 A 
ATOM     68  C   UNL A   1      42.925  27.744  35.129  1.00  0.00     0.135 A 
ATOM     69  C   UNL A   1      43.457  26.456  33.187  1.00  0.00     0.135 A 
ATOM     70  F   UNL A   1      42.418  28.827  35.738  1.00  0.00    -0.206 F 
ATOM     71  C   UNL A   1      43.522  26.786  35.936  1.00  0.00     0.059 A 
ATOM     72  C   UNL A   1      44.027  25.458  33.985  1.00  0.00     0.059 A 
ATOM     73  F   UNL A   1      43.558  26.264  31.863  1.00  0.00    -0.206 F 
ATOM     74  C   UNL A   1      44.058  25.640  35.361  1.00  0.00     0.060 A 
BRANCH  74  75
ATOM     75  S   UNL A   1      44.773  24.410  36.466  1.00  0.00     0.124 S 
ATOM     76  O   UNL A   1      44.187  24.783  37.749  1.00  0.00    -0.237 OA
ATOM     77  O   UNL A   1      44.276  23.170  35.877  1.00  0.00    -0.237 OA
ATOM     78  O   UNL A   1      46.209  24.627  36.337  1.00  0.00    -0.744 OA
ENDBRANCH  74  75
ENDBRANCH  53  67
BRANCH  54  79
ATOM     79  C   UNL A   1      44.561  25.157  25.324  1.00  0.00     0.058 A 
ATOM     80  C   UNL A   1      45.844  24.551  25.027  1.00  0.00     0.135 A 
ATOM     81  C   UNL A   1      43.507  24.244  25.243  1.00  0.00     0.135 A 
ATOM     82  F   UNL A   1      46.973  25.282  25.024  1.00  0.00    -0.206 F 
ATOM     83  C   UNL A   1      46.021  23.150  24.739  1.00  0.00     0.059 A 
ATOM     84  C   UNL A   1      43.662  22.867  24.993  1.00  0.00     0.059 A 
ATOM     85  F   UNL A   1      42.265  24.666  25.500  1.00  0.00    -0.206 F 
ATOM     86  C   UNL A   1      44.913  22.307  24.766  1.00  0.00     0.060 A 
BRANCH  86  87
ATOM     87  S   UNL A   1      45.060  20.488  24.592  1.00  0.00     0.124 S 
ATOM     88  O   UNL A   1      44.720  20.269  23.190  1.00  0.00    -0.237 OA
ATOM     89  O   UNL A   1      46.452  20.240  24.953  1.00  0.00    -0.237 OA
ATOM     90  O   UNL A   1      44.078  19.979  25.549  1.00  0.00    -0.744 OA
ENDBRANCH  86  87
ENDBRANCH  54  79
BRANCH  66  91
ATOM     91  C   UNL A   1      44.940  30.838  27.969  1.00  0.00     0.058 A 
ATOM     92  C   UNL A   1      44.083  31.401  26.994  1.00  0.00     0.135 A 
ATOM     93  C   UNL A   1      46.110  31.557  28.223  1.00  0.00     0.135 A 
ATOM     94  F   UNL A   1      42.833  30.955  26.831  1.00  0.00    -0.206 F 
ATOM     95  C   UNL A   1      44.439  32.521  26.221  1.00  0.00     0.059 A 
ATOM     96  C   UNL A   1      46.461  32.704  27.514  1.00  0.00     0.059 A 
ATOM     97  F   UNL A   1      46.893  31.198  29.251  1.00  0.00    -0.206 F 
ATOM     98  C   UNL A   1      45.649  33.155  26.481  1.00  0.00     0.060 A 
BRANCH  98  99
ATOM     99  S   UNL A   1      46.132  34.587  25.488  1.00  0.00     0.124 S 
ATOM    100  O   UNL A   1      45.383  34.381  24.260  1.00  0.00    -0.237 OA
ATOM    101  O   UNL A   1      45.714  35.707  26.315  1.00  0.00    -0.237 OA
ATOM    102  O   UNL A   1      47.596  34.427  25.359  1.00  0.00    -0.744 OA
ENDBRANCH  98  99
ENDBRANCH  66  91
ENDBRANCH  40  41
ENDBRANCH  32  35
ENDBRANCH  30  31
ENDBRANCH  29  30
ENDBRANCH   1  29
TORSDOF 17
ENDMDL
MODEL 3
REMARK VINA RESULT:     -13.6      3.053      9.303
REMARK SMILES Cc1ccnc(C(=O)c2[nH]c3cc(Cl)c(F)cc3c2CC(=O)NCCCCNC(=O)c2ccc(-c3c4nc(c(-c5c(F)cc(S(=O)(=O)[O-])cc5F)c5ccc([nH]5)c(-c5c(F)cc(S(=O)(=O)[O-])cc5F)c5nc(c(-c6c(F)cc(S(=O)(=O)[O-])cc6F)c6ccc3[nH]6)C=C5)C=C4)cc2)c1
REMARK SMILES IDX 25 1 24 2 23 3 21 4 22 5 20 7 19 8 9 9 10 10 11 11 18 13
REMARK SMILES IDX 12 14 17 15 13 16 15 17 14 18 16 19 7 20 8 21 6 22 1 23 2 24
REMARK SMILES IDX 3 25 97 26 4 27 5 28 26 29 27 30 28 31 29 32 30 34 31 35
REMARK SMILES IDX 32 36 96 37 33 38 95 39 34 40 35 41 36 42 89 43 37 44 94 45
REMARK SMILES IDX 88 46 90 47 38 48 93 49 87 50 86 51 39 53 73 54 52 55 72 56
REMARK SMILES IDX 53 57 56 58 71 59 91 60 54 61 55 62 70 64 92 65 57 66 40 67
REMARK SMILES IDX 41 68 50 69 42 70 43 71 49 72 51 73 44 74 45 75 46 76 47 77
REMARK SMILES IDX 48 78 74 79 75 80 84 81 76 82 77 83 83 84 85 85 78 86 79 87
REMARK SMILES IDX 80 88 81 89 82 90 58 91 59 92 68 93 60 94 61 95 67 96 69 97
REMARK SMILES IDX 62 98 63 99 64 100 65 101 66 102
REMARK H PARENT 23 6 10 12 28 33 90 52 56 63
REMARK Flexibility Score: inf
ROOT
ATOM      1  C   UNL A   1      39.122  24.115  26.802  1.00  0.00     0.023 C 
ENDROOT
BRANCH   1   2
ATOM      2  C   UNL A   1      37.701  24.020  26.178  1.00  0.00     0.116 C 
BRANCH   2   3
ATOM      3  N   UNL A   1      37.553  23.573  24.800  1.00  0.00    -0.356 N 
ATOM      4  C   UNL A   1      36.470  23.495  23.965  1.00  0.00     0.224 C 
ATOM      5  O   UNL A   1      36.662  23.128  22.802  1.00  0.00    -0.275 OA
ATOM      6  H   UNL A   1      38.394  23.269  24.387  1.00  0.00     0.163 HD
BRANCH   4   7
ATOM      7  C   UNL A   1      35.088  23.894  24.419  1.00  0.00     0.138 C 
BRANCH   7   8
ATOM      8  C   UNL A   1      33.981  23.171  23.727  1.00  0.00    -0.002 A 
ATOM      9  C   UNL A   1      33.042  23.669  22.822  1.00  0.00     0.093 A 
ATOM     10  N   UNL A   1      32.169  22.620  22.566  1.00  0.00    -0.351 N 
ATOM     11  C   UNL A   1      32.607  21.446  23.148  1.00  0.00     0.048 A 
ATOM     12  H   UNL A   1      31.343  22.701  22.037  1.00  0.00     0.167 HD
ATOM     13  C   UNL A   1      33.717  21.771  23.916  1.00  0.00     0.007 A 
ATOM     14  C   UNL A   1      32.117  20.130  23.067  1.00  0.00     0.050 A 
ATOM     15  C   UNL A   1      34.372  20.748  24.640  1.00  0.00     0.051 A 
ATOM     16  C   UNL A   1      32.813  19.126  23.761  1.00  0.00     0.078 A 
ATOM     17  C   UNL A   1      33.931  19.433  24.523  1.00  0.00     0.142 A 
ATOM     18  Cl  UNL A   1      32.268  17.493  23.663  1.00  0.00    -0.081 Cl
ATOM     19  F   UNL A   1      34.631  18.473  25.148  1.00  0.00    -0.205 F 
BRANCH   9  20
ATOM     20  C   UNL A   1      32.808  25.026  22.298  1.00  0.00     0.227 C 
ATOM     21  O   UNL A   1      33.661  25.540  21.576  1.00  0.00    -0.285 OA
BRANCH  20  22
ATOM     22  C   UNL A   1      31.545  25.819  22.641  1.00  0.00     0.113 A 
ATOM     23  C   UNL A   1      30.058  29.341  22.371  1.00  0.00     0.044 C 
ATOM     24  C   UNL A   1      30.242  27.875  22.643  1.00  0.00    -0.047 A 
ATOM     25  C   UNL A   1      29.375  27.277  23.542  1.00  0.00     0.023 A 
ATOM     26  C   UNL A   1      31.278  27.083  22.118  1.00  0.00     0.036 A 
ATOM     27  C   UNL A   1      29.624  25.973  23.927  1.00  0.00     0.112 A 
ATOM     28  N   UNL A   1      30.695  25.245  23.529  1.00  0.00    -0.253 NA
ENDBRANCH  20  22
ENDBRANCH   9  20
ENDBRANCH   7   8
ENDBRANCH   4   7
ENDBRANCH   2   3
ENDBRANCH   1   2
BRANCH   1  29
ATOM     29  C   UNL A   1      39.981  22.837  26.896  1.00  0.00     0.023 C 
BRANCH  29  30
ATOM     30  C   UNL A   1      41.449  23.112  27.175  1.00  0.00     0.116 C 
BRANCH  30  31
ATOM     31  N   UNL A   1      42.191  23.136  25.946  1.00  0.00    -0.352 N 
ATOM     32  C   UNL A   1      43.098  23.984  25.405  1.00  0.00     0.251 C 
ATOM     33  H   UNL A   1      41.997  22.363  25.366  1.00  0.00     0.163 HD
ATOM     34  O   UNL A   1      43.632  23.588  24.365  1.00  0.00    -0.269 OA
BRANCH  32  35
ATOM     35  C   UNL A   1      43.322  25.380  25.839  1.00  0.00     0.039 A 
ATOM     36  C   UNL A   1      44.377  25.951  26.546  1.00  0.00     0.014 A 
ATOM     37  C   UNL A   1      42.150  26.127  25.765  1.00  0.00     0.014 A 
ATOM     38  C   UNL A   1      44.017  26.952  27.505  1.00  0.00     0.010 A 
ATOM     39  C   UNL A   1      42.110  27.370  26.326  1.00  0.00     0.010 A 
ATOM     40  C   UNL A   1      42.652  27.422  27.588  1.00  0.00    -0.014 A 
BRANCH  40  41
ATOM     41  C   UNL A   1      42.033  28.613  28.394  1.00  0.00     0.031 A 
ATOM     42  C   UNL A   1      43.218  29.712  28.018  1.00  0.00     0.074 A 
ATOM     43  C   UNL A   1      40.748  28.728  29.135  1.00  0.00     0.049 A 
ATOM     44  N   UNL A   1      44.275  29.912  28.759  1.00  0.00    -0.248 NA
ATOM     45  C   UNL A   1      43.637  30.201  26.621  1.00  0.00     0.031 C 
ATOM     46  C   UNL A   1      39.527  27.803  29.508  1.00  0.00     0.029 A 
ATOM     47  N   UNL A   1      40.190  29.829  29.888  1.00  0.00    -0.354 N 
ATOM     48  C   UNL A   1      44.928  31.025  28.209  1.00  0.00     0.074 A 
ATOM     49  C   UNL A   1      44.722  30.965  26.818  1.00  0.00     0.031 C 
ATOM     50  C   UNL A   1      38.406  28.488  29.977  1.00  0.00     0.029 A 
ATOM     51  C   UNL A   1      38.716  29.897  30.157  1.00  0.00     0.049 A 
ATOM     52  H   UNL A   1      40.782  30.539  30.227  1.00  0.00     0.167 HD
ATOM     53  C   UNL A   1      45.152  32.101  29.002  1.00  0.00     0.037 A 
ATOM     54  C   UNL A   1      37.953  30.897  30.832  1.00  0.00     0.037 A 
ATOM     55  C   UNL A   1      44.957  31.667  30.361  1.00  0.00     0.049 A 
ATOM     56  C   UNL A   1      38.989  31.788  31.419  1.00  0.00     0.074 A 
ATOM     57  C   UNL A   1      45.576  30.719  31.151  1.00  0.00     0.029 A 
ATOM     58  N   UNL A   1      43.636  31.686  30.713  1.00  0.00    -0.354 N 
ATOM     59  N   UNL A   1      39.749  31.373  32.396  1.00  0.00    -0.248 NA
ATOM     60  C   UNL A   1      39.568  32.698  30.434  1.00  0.00     0.031 C 
ATOM     61  C   UNL A   1      44.536  30.050  31.857  1.00  0.00     0.029 A 
ATOM     62  C   UNL A   1      43.351  30.743  31.651  1.00  0.00     0.049 A 
ATOM     63  H   UNL A   1      42.973  32.306  30.334  1.00  0.00     0.167 HD
ATOM     64  C   UNL A   1      41.025  31.517  31.883  1.00  0.00     0.074 A 
ATOM     65  C   UNL A   1      40.845  32.359  30.655  1.00  0.00     0.031 C 
ATOM     66  C   UNL A   1      42.032  30.635  32.207  1.00  0.00     0.037 A 
BRANCH  53  67
ATOM     67  C   UNL A   1      45.017  33.549  28.595  1.00  0.00     0.058 A 
ATOM     68  C   UNL A   1      46.195  34.312  28.617  1.00  0.00     0.135 A 
ATOM     69  C   UNL A   1      43.814  34.275  28.401  1.00  0.00     0.135 A 
ATOM     70  F   UNL A   1      47.381  33.721  28.824  1.00  0.00    -0.206 F 
ATOM     71  C   UNL A   1      46.195  35.690  28.455  1.00  0.00     0.059 A 
ATOM     72  C   UNL A   1      43.795  35.660  28.195  1.00  0.00     0.059 A 
ATOM     73  F   UNL A   1      42.611  33.685  28.461  1.00  0.00    -0.206 F 
ATOM     74  C   UNL A   1      44.996  36.357  28.231  1.00  0.00     0.060 A 
BRANCH  74  75
ATOM     75  S   UNL A   1      45.068  38.138  27.978  1.00  0.00     0.124 S 
ATOM     76  O   UNL A   1      44.778  38.644  29.315  1.00  0.00    -0.237 OA
ATOM     77  O   UNL A   1      46.444  38.309  27.519  1.00  0.00    -0.237 OA
ATOM     78  O   UNL A   1      44.043  38.383  26.970  1.00  0.00    -0.744 OA
ENDBRANCH  74  75
ENDBRANCH  53  67
BRANCH  54  79
ATOM     79  C   UNL A   1      36.543  31.566  30.572  1.00  0.00     0.058 A 
ATOM     80  C   UNL A   1      35.627  32.214  31.490  1.00  0.00     0.135 A 
ATOM     81  C   UNL A   1      36.277  31.885  29.238  1.00  0.00     0.135 A 
ATOM     82  F   UNL A   1      35.707  32.001  32.815  1.00  0.00    -0.206 F 
ATOM     83  C   UNL A   1      34.597  33.134  31.078  1.00  0.00     0.059 A 
ATOM     84  C   UNL A   1      35.296  32.802  28.817  1.00  0.00     0.059 A 
ATOM     85  F   UNL A   1      37.051  31.360  28.282  1.00  0.00    -0.206 F 
ATOM     86  C   UNL A   1      34.470  33.450  29.728  1.00  0.00     0.060 A 
BRANCH  86  87
ATOM     87  S   UNL A   1      33.314  34.739  29.126  1.00  0.00     0.124 S 
ATOM     88  O   UNL A   1      34.214  35.771  28.623  1.00  0.00    -0.237 OA
ATOM     89  O   UNL A   1      32.536  34.029  28.116  1.00  0.00    -0.237 OA
ATOM     90  O   UNL A   1      32.568  35.108  30.329  1.00  0.00    -0.744 OA
ENDBRANCH  86  87
ENDBRANCH  54  79
BRANCH  66  91
ATOM     91  C   UNL A   1      41.844  29.547  33.261  1.00  0.00     0.058 A 
ATOM     92  C   UNL A   1      41.727  28.151  33.065  1.00  0.00     0.135 A 
ATOM     93  C   UNL A   1      42.033  29.951  34.585  1.00  0.00     0.135 A 
ATOM     94  F   UNL A   1      41.787  27.616  31.841  1.00  0.00    -0.206 F 
ATOM     95  C   UNL A   1      41.653  27.234  34.130  1.00  0.00     0.059 A 
ATOM     96  C   UNL A   1      42.024  29.059  35.655  1.00  0.00     0.059 A 
ATOM     97  F   UNL A   1      42.331  31.232  34.845  1.00  0.00    -0.206 F 
ATOM     98  C   UNL A   1      41.784  27.709  35.430  1.00  0.00     0.060 A 
BRANCH  98  99
ATOM     99  S   UNL A   1      41.677  26.549  36.814  1.00  0.00     0.124 S 
ATOM    100  O   UNL A   1      40.448  26.960  37.468  1.00  0.00    -0.237 OA
ATOM    101  O   UNL A   1      41.650  25.258  36.148  1.00  0.00    -0.237 OA
ATOM    102  O   UNL A   1      42.913  26.825  37.578  1.00  0.00    -0.744 OA
ENDBRANCH  98  99
ENDBRANCH  66  91
ENDBRANCH  40  41
ENDBRANCH  32  35
ENDBRANCH  30  31
ENDBRANCH  29  30
ENDBRANCH   1  29
TORSDOF 17
ENDMDL
