MODEL 1
REMARK VINA RESULT:     -11.5      0.000      0.000
REMARK SMILES [NH3+][C@@H](CCCCC(=O)NCCCCNC(=O)c1ccc(-c2c3nc(c(-c4c(F)cc(S(=O)(=O)[O-])cc4F)c4ccc([nH]4)c(-c4c(F)cc(S(=O)(=O)[O-])cc4F)c4nc(c(-c5c(F)cc(S(=O)(=O)[O-])cc5F)c5ccc2[nH]5)C=C4)C=C3)cc1)c1ccc(-c2ccccc2)cc1
REMARK SMILES IDX 10 1 9 2 7 3 8 4 6 6 5 7 4 8 3 9 2 10 1 11 83 15 84 16 94 17
REMARK SMILES IDX 85 18 93 19 86 20 87 21 88 22 92 23 89 24 91 25 90 26 11 27
REMARK SMILES IDX 12 28 13 29 14 30 15 31 16 33 17 34 18 35 82 36 19 37 81 38
REMARK SMILES IDX 20 39 21 40 22 41 75 42 23 43 80 44 74 45 76 46 24 47 79 48
REMARK SMILES IDX 73 49 72 50 25 52 59 53 38 54 58 55 39 56 42 57 57 58 77 59
REMARK SMILES IDX 40 60 41 61 56 63 78 64 43 65 26 66 27 67 36 68 28 69 29 70
REMARK SMILES IDX 35 71 37 72 30 73 31 74 32 75 33 76 34 77 60 78 61 79 70 80
REMARK SMILES IDX 62 81 63 82 69 83 71 84 64 85 65 86 66 87 67 88 68 89 44 90
REMARK SMILES IDX 45 91 54 92 46 93 47 94 53 95 55 96 48 97 49 98 50 99 51 100
REMARK SMILES IDX 52 101
REMARK H PARENT 9 5 1 12 1 13 1 14 14 32 76 51 42 62
REMARK Flexibility Score: inf
ROOT
ATOM      1  C   UNL A   1      38.388  21.490  25.736  1.00  0.00     0.116 C 
ENDROOT
BRANCH   1   2
ATOM      2  N   UNL A   1      37.753  22.186  24.640  1.00  0.00    -0.356 N 
ATOM      3  C   UNL A   1      36.436  22.181  24.288  1.00  0.00     0.219 C 
ATOM      4  O   UNL A   1      36.100  22.701  23.225  1.00  0.00    -0.275 OA
ATOM      5  H   UNL A   1      38.346  22.733  24.076  1.00  0.00     0.163 HD
BRANCH   3   6
ATOM      6  C   UNL A   1      35.411  21.585  25.233  1.00  0.00     0.100 C 
BRANCH   6   7
ATOM      7  C   UNL A   1      34.379  20.653  24.592  1.00  0.00     0.010 C 
BRANCH   7   8
ATOM      8  C   UNL A   1      32.872  20.941  24.755  1.00  0.00     0.007 C 
BRANCH   8   9
ATOM      9  C   UNL A   1      32.330  22.374  24.570  1.00  0.00     0.070 C 
BRANCH   9  10
ATOM     10  C   UNL A   1      31.835  23.127  25.835  1.00  0.00     0.211 C 
BRANCH  10  11
ATOM     11  N   UNL A   1      30.381  22.944  25.970  1.00  0.00    -0.351 N 
ATOM     12  H   UNL A   1      29.905  23.433  25.212  1.00  0.00     0.345 HD
ATOM     13  H   UNL A   1      30.073  23.324  26.865  1.00  0.00     0.345 HD
ATOM     14  H   UNL A   1      30.158  21.950  25.927  1.00  0.00     0.345 HD
ENDBRANCH  10  11
BRANCH  10  15
ATOM     15  C   UNL A   1      32.250  24.588  25.908  1.00  0.00     0.009 A 
ATOM     16  C   UNL A   1      33.556  25.004  25.601  1.00  0.00     0.010 A 
ATOM     17  C   UNL A   1      31.326  25.578  26.263  1.00  0.00     0.010 A 
ATOM     18  C   UNL A   1      33.960  26.325  25.814  1.00  0.00     0.009 A 
ATOM     19  C   UNL A   1      31.732  26.888  26.511  1.00  0.00     0.009 A 
ATOM     20  C   UNL A   1      33.065  27.267  26.330  1.00  0.00    -0.018 A 
BRANCH  20  21
ATOM     21  C   UNL A   1      33.498  28.600  26.742  1.00  0.00    -0.018 A 
ATOM     22  C   UNL A   1      32.599  29.672  26.802  1.00  0.00     0.009 A 
ATOM     23  C   UNL A   1      34.821  28.802  27.167  1.00  0.00     0.009 A 
ATOM     24  C   UNL A   1      33.010  30.914  27.288  1.00  0.00     0.001 A 
ATOM     25  C   UNL A   1      35.231  30.042  27.656  1.00  0.00     0.001 A 
ATOM     26  C   UNL A   1      34.324  31.097  27.719  1.00  0.00     0.000 A 
ENDBRANCH  20  21
ENDBRANCH  10  15
ENDBRANCH   9  10
ENDBRANCH   8   9
ENDBRANCH   7   8
ENDBRANCH   6   7
ENDBRANCH   3   6
ENDBRANCH   1   2
BRANCH   1  27
ATOM     27  C   UNL A   1      39.140  22.477  26.623  1.00  0.00     0.023 C 
BRANCH  27  28
ATOM     28  C   UNL A   1      40.513  21.995  27.071  1.00  0.00     0.023 C 
BRANCH  28  29
ATOM     29  C   UNL A   1      41.581  23.075  27.085  1.00  0.00     0.116 C 
BRANCH  29  30
ATOM     30  N   UNL A   1      41.497  24.001  25.961  1.00  0.00    -0.352 N 
ATOM     31  C   UNL A   1      41.372  25.370  26.021  1.00  0.00     0.251 C 
ATOM     32  H   UNL A   1      41.532  23.602  25.061  1.00  0.00     0.163 HD
ATOM     33  O   UNL A   1      41.235  26.042  25.004  1.00  0.00    -0.269 OA
BRANCH  31  34
ATOM     34  C   UNL A   1      41.355  25.993  27.357  1.00  0.00     0.039 A 
ATOM     35  C   UNL A   1      42.481  26.693  27.789  1.00  0.00     0.014 A 
ATOM     36  C   UNL A   1      40.159  26.032  28.078  1.00  0.00     0.014 A 
ATOM     37  C   UNL A   1      42.378  27.519  28.907  1.00  0.00     0.010 A 
ATOM     38  C   UNL A   1      40.037  26.920  29.138  1.00  0.00     0.010 A 
ATOM     39  C   UNL A   1      41.141  27.682  29.554  1.00  0.00    -0.014 A 
BRANCH  39  40
ATOM     40  C   UNL A   1      40.968  28.664  30.654  1.00  0.00     0.031 A 
ATOM     41  C   UNL A   1      41.817  28.556  31.890  1.00  0.00     0.074 A 
ATOM     42  C   UNL A   1      39.989  29.590  30.577  1.00  0.00     0.049 A 
ATOM     43  N   UNL A   1      41.753  29.248  32.996  1.00  0.00    -0.248 NA
ATOM     44  C   UNL A   1      42.849  27.505  31.899  1.00  0.00     0.031 C 
ATOM     45  C   UNL A   1      39.050  29.744  29.462  1.00  0.00     0.029 A 
ATOM     46  N   UNL A   1      39.611  30.568  31.462  1.00  0.00    -0.354 N 
ATOM     47  C   UNL A   1      42.713  28.703  33.839  1.00  0.00     0.074 A 
ATOM     48  C   UNL A   1      43.313  27.591  33.136  1.00  0.00     0.031 C 
ATOM     49  C   UNL A   1      38.221  30.770  29.721  1.00  0.00     0.029 A 
ATOM     50  C   UNL A   1      38.546  31.325  31.031  1.00  0.00     0.049 A 
ATOM     51  H   UNL A   1      40.059  30.714  32.326  1.00  0.00     0.167 HD
ATOM     52  C   UNL A   1      43.082  29.110  35.075  1.00  0.00     0.037 A 
ATOM     53  C   UNL A   1      37.904  32.349  31.627  1.00  0.00     0.037 A 
ATOM     54  C   UNL A   1      42.522  30.252  35.745  1.00  0.00     0.049 A 
ATOM     55  C   UNL A   1      38.365  32.810  32.982  1.00  0.00     0.074 A 
ATOM     56  C   UNL A   1      42.891  30.803  36.960  1.00  0.00     0.029 A 
ATOM     57  N   UNL A   1      41.482  31.026  35.254  1.00  0.00    -0.354 N 
ATOM     58  N   UNL A   1      39.329  32.331  33.731  1.00  0.00    -0.248 NA
ATOM     59  C   UNL A   1      37.657  33.955  33.572  1.00  0.00     0.031 C 
ATOM     60  C   UNL A   1      42.054  31.893  37.218  1.00  0.00     0.029 A 
ATOM     61  C   UNL A   1      41.185  32.040  36.147  1.00  0.00     0.049 A 
ATOM     62  H   UNL A   1      41.021  30.875  34.397  1.00  0.00     0.167 HD
ATOM     63  C   UNL A   1      39.355  33.126  34.871  1.00  0.00     0.074 A 
ATOM     64  C   UNL A   1      38.322  34.128  34.706  1.00  0.00     0.031 C 
ATOM     65  C   UNL A   1      40.159  33.033  35.959  1.00  0.00     0.037 A 
BRANCH  52  66
ATOM     66  C   UNL A   1      44.159  28.332  35.774  1.00  0.00     0.058 A 
ATOM     67  C   UNL A   1      45.518  28.629  35.583  1.00  0.00     0.135 A 
ATOM     68  C   UNL A   1      43.830  27.309  36.677  1.00  0.00     0.135 A 
ATOM     69  F   UNL A   1      45.885  29.584  34.715  1.00  0.00    -0.206 F 
ATOM     70  C   UNL A   1      46.515  27.927  36.251  1.00  0.00     0.059 A 
ATOM     71  C   UNL A   1      44.811  26.609  37.374  1.00  0.00     0.059 A 
ATOM     72  F   UNL A   1      42.546  26.981  36.889  1.00  0.00    -0.206 F 
ATOM     73  C   UNL A   1      46.151  26.919  37.145  1.00  0.00     0.060 A 
BRANCH  73  74
ATOM     74  S   UNL A   1      47.457  26.035  38.023  1.00  0.00     0.124 S 
ATOM     75  O   UNL A   1      48.608  26.288  37.161  1.00  0.00    -0.237 OA
ATOM     76  O   UNL A   1      47.476  26.709  39.318  1.00  0.00    -0.237 OA
ATOM     77  O   UNL A   1      46.978  24.657  38.045  1.00  0.00    -0.744 OA
ENDBRANCH  73  74
ENDBRANCH  52  66
BRANCH  53  78
ATOM     78  C   UNL A   1      36.767  33.023  30.944  1.00  0.00     0.058 A 
ATOM     79  C   UNL A   1      36.989  33.884  29.859  1.00  0.00     0.135 A 
ATOM     80  C   UNL A   1      35.444  32.831  31.367  1.00  0.00     0.135 A 
ATOM     81  F   UNL A   1      38.239  34.102  29.421  1.00  0.00    -0.206 F 
ATOM     82  C   UNL A   1      35.942  34.554  29.234  1.00  0.00     0.059 A 
ATOM     83  C   UNL A   1      34.377  33.472  30.743  1.00  0.00     0.059 A 
ATOM     84  F   UNL A   1      35.177  32.001  32.388  1.00  0.00    -0.206 F 
ATOM     85  C   UNL A   1      34.639  34.344  29.686  1.00  0.00     0.060 A 
BRANCH  85  86
ATOM     86  S   UNL A   1      33.281  35.194  28.852  1.00  0.00     0.124 S 
ATOM     87  O   UNL A   1      32.449  35.592  29.980  1.00  0.00    -0.237 OA
ATOM     88  O   UNL A   1      33.974  36.275  28.156  1.00  0.00    -0.237 OA
ATOM     89  O   UNL A   1      32.723  34.159  27.986  1.00  0.00    -0.744 OA
ENDBRANCH  85  86
ENDBRANCH  53  78
BRANCH  65  90
ATOM     90  C   UNL A   1      39.969  34.053  37.043  1.00  0.00     0.058 A 
ATOM     91  C   UNL A   1      40.571  35.318  36.969  1.00  0.00     0.135 A 
ATOM     92  C   UNL A   1      39.134  33.782  38.137  1.00  0.00     0.135 A 
ATOM     93  F   UNL A   1      41.384  35.622  35.946  1.00  0.00    -0.206 F 
ATOM     94  C   UNL A   1      40.366  36.276  37.957  1.00  0.00     0.059 A 
ATOM     95  C   UNL A   1      38.896  34.732  39.124  1.00  0.00     0.059 A 
ATOM     96  F   UNL A   1      38.529  32.589  38.246  1.00  0.00    -0.206 F 
ATOM     97  C   UNL A   1      39.526  35.973  39.030  1.00  0.00     0.060 A 
BRANCH  97  98
ATOM     98  S   UNL A   1      39.235  37.237  40.287  1.00  0.00     0.124 S 
ATOM     99  O   UNL A   1      40.597  37.655  40.602  1.00  0.00    -0.237 OA
ATOM    100  O   UNL A   1      38.421  38.213  39.569  1.00  0.00    -0.237 OA
ATOM    101  O   UNL A   1      38.540  36.508  41.344  1.00  0.00    -0.744 OA
ENDBRANCH  97  98
ENDBRANCH  65  90
ENDBRANCH  39  40
ENDBRANCH  31  34
ENDBRANCH  29  30
ENDBRANCH  28  29
ENDBRANCH  27  28
ENDBRANCH   1  27
TORSDOF 21
ENDMDL
MODEL 2
REMARK VINA RESULT:     -11.1      1.941      8.452
REMARK SMILES [NH3+][C@@H](CCCCC(=O)NCCCCNC(=O)c1ccc(-c2c3nc(c(-c4c(F)cc(S(=O)(=O)[O-])cc4F)c4ccc([nH]4)c(-c4c(F)cc(S(=O)(=O)[O-])cc4F)c4nc(c(-c5c(F)cc(S(=O)(=O)[O-])cc5F)c5ccc2[nH]5)C=C4)C=C3)cc1)c1ccc(-c2ccccc2)cc1
REMARK SMILES IDX 10 1 9 2 7 3 8 4 6 6 5 7 4 8 3 9 2 10 1 11 83 15 84 16 94 17
REMARK SMILES IDX 85 18 93 19 86 20 87 21 88 22 92 23 89 24 91 25 90 26 11 27
REMARK SMILES IDX 12 28 13 29 14 30 15 31 16 33 17 34 18 35 82 36 19 37 81 38
REMARK SMILES IDX 20 39 21 40 22 41 75 42 23 43 80 44 74 45 76 46 24 47 79 48
REMARK SMILES IDX 73 49 72 50 25 52 59 53 38 54 58 55 39 56 42 57 57 58 77 59
REMARK SMILES IDX 40 60 41 61 56 63 78 64 43 65 26 66 27 67 36 68 28 69 29 70
REMARK SMILES IDX 35 71 37 72 30 73 31 74 32 75 33 76 34 77 60 78 61 79 70 80
REMARK SMILES IDX 62 81 63 82 69 83 71 84 64 85 65 86 66 87 67 88 68 89 44 90
REMARK SMILES IDX 45 91 54 92 46 93 47 94 53 95 55 96 48 97 49 98 50 99 51 100
REMARK SMILES IDX 52 101
REMARK H PARENT 9 5 1 12 1 13 1 14 14 32 76 51 42 62
REMARK Flexibility Score: inf
ROOT
ATOM      1  C   UNL A   1      38.229  21.928  25.837  1.00  0.00     0.116 C 
ENDROOT
BRANCH   1   2
ATOM      2  N   UNL A   1      37.890  22.515  24.562  1.00  0.00    -0.356 N 
ATOM      3  C   UNL A   1      36.654  22.827  24.079  1.00  0.00     0.219 C 
ATOM      4  O   UNL A   1      36.541  23.170  22.903  1.00  0.00    -0.275 OA
ATOM      5  H   UNL A   1      38.647  22.716  23.965  1.00  0.00     0.163 HD
BRANCH   3   6
ATOM      6  C   UNL A   1      35.457  22.798  25.010  1.00  0.00     0.100 C 
BRANCH   6   7
ATOM      7  C   UNL A   1      34.828  24.158  25.326  1.00  0.00     0.010 C 
BRANCH   7   8
ATOM      8  C   UNL A   1      33.309  24.366  25.153  1.00  0.00     0.007 C 
BRANCH   8   9
ATOM      9  C   UNL A   1      32.588  25.492  25.924  1.00  0.00     0.070 C 
BRANCH   9  10
ATOM     10  C   UNL A   1      31.059  25.654  25.700  1.00  0.00     0.211 C 
BRANCH  10  11
ATOM     11  N   UNL A   1      30.504  24.386  25.202  1.00  0.00    -0.351 N 
ATOM     12  H   UNL A   1      30.208  23.812  25.990  1.00  0.00     0.345 HD
ATOM     13  H   UNL A   1      31.218  23.890  24.668  1.00  0.00     0.345 HD
ATOM     14  H   UNL A   1      29.703  24.579  24.601  1.00  0.00     0.345 HD
ENDBRANCH  10  11
BRANCH  10  15
ATOM     15  C   UNL A   1      30.667  26.844  24.839  1.00  0.00     0.009 A 
ATOM     16  C   UNL A   1      31.355  28.066  24.904  1.00  0.00     0.010 A 
ATOM     17  C   UNL A   1      29.609  26.749  23.926  1.00  0.00     0.010 A 
ATOM     18  C   UNL A   1      30.891  29.192  24.216  1.00  0.00     0.009 A 
ATOM     19  C   UNL A   1      29.121  27.875  23.266  1.00  0.00     0.009 A 
ATOM     20  C   UNL A   1      29.732  29.120  23.437  1.00  0.00    -0.018 A 
BRANCH  20  21
ATOM     21  C   UNL A   1      29.115  30.312  22.860  1.00  0.00    -0.018 A 
ATOM     22  C   UNL A   1      28.997  31.498  23.594  1.00  0.00     0.009 A 
ATOM     23  C   UNL A   1      28.703  30.303  21.517  1.00  0.00     0.009 A 
ATOM     24  C   UNL A   1      28.491  32.654  22.995  1.00  0.00     0.001 A 
ATOM     25  C   UNL A   1      28.202  31.458  20.918  1.00  0.00     0.001 A 
ATOM     26  C   UNL A   1      28.099  32.634  21.657  1.00  0.00     0.000 A 
ENDBRANCH  20  21
ENDBRANCH  10  15
ENDBRANCH   9  10
ENDBRANCH   8   9
ENDBRANCH   7   8
ENDBRANCH   6   7
ENDBRANCH   3   6
ENDBRANCH   1   2
BRANCH   1  27
ATOM     27  C   UNL A   1      39.193  22.834  26.596  1.00  0.00     0.023 C 
BRANCH  27  28
ATOM     28  C   UNL A   1      40.527  22.183  26.937  1.00  0.00     0.023 C 
BRANCH  28  29
ATOM     29  C   UNL A   1      41.703  23.144  26.964  1.00  0.00     0.116 C 
BRANCH  29  30
ATOM     30  N   UNL A   1      41.677  24.136  25.894  1.00  0.00    -0.352 N 
ATOM     31  C   UNL A   1      41.600  25.503  26.033  1.00  0.00     0.251 C 
ATOM     32  H   UNL A   1      41.718  23.789  24.974  1.00  0.00     0.163 HD
ATOM     33  O   UNL A   1      41.509  26.238  25.055  1.00  0.00    -0.269 OA
BRANCH  31  34
ATOM     34  C   UNL A   1      41.574  26.047  27.403  1.00  0.00     0.039 A 
ATOM     35  C   UNL A   1      42.639  26.838  27.834  1.00  0.00     0.014 A 
ATOM     36  C   UNL A   1      40.412  25.920  28.168  1.00  0.00     0.014 A 
ATOM     37  C   UNL A   1      42.497  27.587  29.001  1.00  0.00     0.010 A 
ATOM     38  C   UNL A   1      40.244  26.731  29.281  1.00  0.00     0.010 A 
ATOM     39  C   UNL A   1      41.279  27.583  29.701  1.00  0.00    -0.014 A 
BRANCH  39  40
ATOM     40  C   UNL A   1      41.051  28.480  30.862  1.00  0.00     0.031 A 
ATOM     41  C   UNL A   1      39.959  29.511  30.803  1.00  0.00     0.074 A 
ATOM     42  C   UNL A   1      41.883  28.426  31.923  1.00  0.00     0.049 A 
ATOM     43  N   UNL A   1      39.664  30.449  31.665  1.00  0.00    -0.248 NA
ATOM     44  C   UNL A   1      39.108  29.513  29.601  1.00  0.00     0.031 C 
ATOM     45  C   UNL A   1      43.027  27.520  32.061  1.00  0.00     0.029 A 
ATOM     46  N   UNL A   1      41.904  29.160  33.082  1.00  0.00    -0.354 N 
ATOM     47  C   UNL A   1      38.617  31.165  31.100  1.00  0.00     0.074 A 
ATOM     48  C   UNL A   1      38.359  30.586  29.800  1.00  0.00     0.031 C 
ATOM     49  C   UNL A   1      43.622  27.738  33.246  1.00  0.00     0.029 A 
ATOM     50  C   UNL A   1      42.926  28.817  33.937  1.00  0.00     0.049 A 
ATOM     51  H   UNL A   1      41.249  29.867  33.282  1.00  0.00     0.167 HD
ATOM     52  C   UNL A   1      37.916  32.195  31.627  1.00  0.00     0.037 A 
ATOM     53  C   UNL A   1      43.262  29.320  35.141  1.00  0.00     0.037 A 
ATOM     54  C   UNL A   1      38.140  32.728  32.944  1.00  0.00     0.049 A 
ATOM     55  C   UNL A   1      42.436  30.433  35.724  1.00  0.00     0.074 A 
ATOM     56  C   UNL A   1      37.423  33.708  33.607  1.00  0.00     0.029 A 
ATOM     57  N   UNL A   1      39.150  32.319  33.802  1.00  0.00    -0.354 N 
ATOM     58  N   UNL A   1      41.399  31.047  35.208  1.00  0.00    -0.248 NA
ATOM     59  C   UNL A   1      42.821  30.920  37.057  1.00  0.00     0.031 C 
ATOM     60  C   UNL A   1      38.017  33.914  34.856  1.00  0.00     0.029 A 
ATOM     61  C   UNL A   1      39.085  33.038  34.983  1.00  0.00     0.049 A 
ATOM     62  H   UNL A   1      39.815  31.622  33.599  1.00  0.00     0.167 HD
ATOM     63  C   UNL A   1      40.996  31.978  36.157  1.00  0.00     0.074 A 
ATOM     64  C   UNL A   1      41.890  31.836  37.288  1.00  0.00     0.031 C 
ATOM     65  C   UNL A   1      39.980  32.873  36.099  1.00  0.00     0.037 A 
BRANCH  52  66
ATOM     66  C   UNL A   1      36.823  32.795  30.792  1.00  0.00     0.058 A 
ATOM     67  C   UNL A   1      37.093  33.786  29.835  1.00  0.00     0.135 A 
ATOM     68  C   UNL A   1      35.499  32.345  30.917  1.00  0.00     0.135 A 
ATOM     69  F   UNL A   1      38.338  34.265  29.691  1.00  0.00    -0.206 F 
ATOM     70  C   UNL A   1      36.085  34.323  29.042  1.00  0.00     0.059 A 
ATOM     71  C   UNL A   1      34.479  32.851  30.117  1.00  0.00     0.059 A 
ATOM     72  F   UNL A   1      35.187  31.404  31.822  1.00  0.00    -0.206 F 
ATOM     73  C   UNL A   1      34.781  33.847  29.190  1.00  0.00     0.060 A 
BRANCH  73  74
ATOM     74  S   UNL A   1      33.489  34.536  28.134  1.00  0.00     0.124 S 
ATOM     75  O   UNL A   1      32.771  35.391  29.075  1.00  0.00    -0.237 OA
ATOM     76  O   UNL A   1      34.259  35.232  27.109  1.00  0.00    -0.237 OA
ATOM     77  O   UNL A   1      32.761  33.357  27.675  1.00  0.00    -0.744 OA
ENDBRANCH  73  74
ENDBRANCH  52  66
BRANCH  53  78
ATOM     78  C   UNL A   1      44.423  28.767  35.889  1.00  0.00     0.058 A 
ATOM     79  C   UNL A   1      44.252  27.737  36.825  1.00  0.00     0.135 A 
ATOM     80  C   UNL A   1      45.721  29.264  35.693  1.00  0.00     0.135 A 
ATOM     81  F   UNL A   1      43.028  27.232  37.049  1.00  0.00    -0.206 F 
ATOM     82  C   UNL A   1      45.319  27.235  37.561  1.00  0.00     0.059 A 
ATOM     83  C   UNL A   1      46.809  28.762  36.401  1.00  0.00     0.059 A 
ATOM     84  F   UNL A   1      45.942  30.236  34.794  1.00  0.00    -0.206 F 
ATOM     85  C   UNL A   1      46.595  27.757  37.345  1.00  0.00     0.060 A 
BRANCH  85  86
ATOM     86  S   UNL A   1      47.982  27.082  38.284  1.00  0.00     0.124 S 
ATOM     87  O   UNL A   1      47.318  26.621  39.496  1.00  0.00    -0.237 OA
ATOM     88  O   UNL A   1      48.480  26.038  37.392  1.00  0.00    -0.237 OA
ATOM     89  O   UNL A   1      48.867  28.232  38.444  1.00  0.00    -0.744 OA
ENDBRANCH  85  86
ENDBRANCH  53  78
BRANCH  65  90
ATOM     90  C   UNL A   1      39.767  33.752  37.297  1.00  0.00     0.058 A 
ATOM     91  C   UNL A   1      40.363  35.018  37.390  1.00  0.00     0.135 A 
ATOM     92  C   UNL A   1      38.914  33.345  38.335  1.00  0.00     0.135 A 
ATOM     93  F   UNL A   1      41.192  35.448  36.426  1.00  0.00    -0.206 F 
ATOM     94  C   UNL A   1      40.137  35.846  38.484  1.00  0.00     0.059 A 
ATOM     95  C   UNL A   1      38.656  34.166  39.427  1.00  0.00     0.059 A 
ATOM     96  F   UNL A   1      38.313  32.146  38.286  1.00  0.00    -0.206 F 
ATOM     97  C   UNL A   1      39.280  35.411  39.497  1.00  0.00     0.060 A 
BRANCH  97  98
ATOM     98  S   UNL A   1      38.962  36.509  40.895  1.00  0.00     0.124 S 
ATOM     99  O   UNL A   1      37.946  35.762  41.628  1.00  0.00    -0.237 OA
ATOM    100  O   UNL A   1      40.272  36.594  41.534  1.00  0.00    -0.237 OA
ATOM    101  O   UNL A   1      38.501  37.740  40.259  1.00  0.00    -0.744 OA
ENDBRANCH  97  98
ENDBRANCH  65  90
ENDBRANCH  39  40
ENDBRANCH  31  34
ENDBRANCH  29  30
ENDBRANCH  28  29
ENDBRANCH  27  28
ENDBRANCH   1  27
TORSDOF 21
ENDMDL
MODEL 3
REMARK VINA RESULT:     -11.0      3.053      8.812
REMARK SMILES [NH3+][C@@H](CCCCC(=O)NCCCCNC(=O)c1ccc(-c2c3nc(c(-c4c(F)cc(S(=O)(=O)[O-])cc4F)c4ccc([nH]4)c(-c4c(F)cc(S(=O)(=O)[O-])cc4F)c4nc(c(-c5c(F)cc(S(=O)(=O)[O-])cc5F)c5ccc2[nH]5)C=C4)C=C3)cc1)c1ccc(-c2ccccc2)cc1
REMARK SMILES IDX 10 1 9 2 7 3 8 4 6 6 5 7 4 8 3 9 2 10 1 11 83 15 84 16 94 17
REMARK SMILES IDX 85 18 93 19 86 20 87 21 88 22 92 23 89 24 91 25 90 26 11 27
REMARK SMILES IDX 12 28 13 29 14 30 15 31 16 33 17 34 18 35 82 36 19 37 81 38
REMARK SMILES IDX 20 39 21 40 22 41 75 42 23 43 80 44 74 45 76 46 24 47 79 48
REMARK SMILES IDX 73 49 72 50 25 52 59 53 38 54 58 55 39 56 42 57 57 58 77 59
REMARK SMILES IDX 40 60 41 61 56 63 78 64 43 65 26 66 27 67 36 68 28 69 29 70
REMARK SMILES IDX 35 71 37 72 30 73 31 74 32 75 33 76 34 77 60 78 61 79 70 80
REMARK SMILES IDX 62 81 63 82 69 83 71 84 64 85 65 86 66 87 67 88 68 89 44 90
REMARK SMILES IDX 45 91 54 92 46 93 47 94 53 95 55 96 48 97 49 98 50 99 51 100
REMARK SMILES IDX 52 101
REMARK H PARENT 9 5 1 12 1 13 1 14 14 32 76 51 42 62
REMARK Flexibility Score: inf
ROOT
ATOM      1  C   UNL A   1      34.829  29.411  27.338  1.00  0.00     0.116 C 
ENDROOT
BRANCH   1   2
ATOM      2  N   UNL A   1      33.584  28.943  27.901  1.00  0.00    -0.356 N 
ATOM      3  C   UNL A   1      32.529  28.372  27.256  1.00  0.00     0.219 C 
ATOM      4  O   UNL A   1      31.481  28.185  27.873  1.00  0.00    -0.275 OA
ATOM      5  H   UNL A   1      33.485  29.050  28.875  1.00  0.00     0.163 HD
BRANCH   3   6
ATOM      6  C   UNL A   1      32.683  27.931  25.813  1.00  0.00     0.100 C 
BRANCH   6   7
ATOM      7  C   UNL A   1      33.454  26.626  25.596  1.00  0.00     0.010 C 
BRANCH   7   8
ATOM      8  C   UNL A   1      32.715  25.273  25.653  1.00  0.00     0.007 C 
BRANCH   8   9
ATOM      9  C   UNL A   1      32.227  24.600  24.352  1.00  0.00     0.070 C 
BRANCH   9  10
ATOM     10  C   UNL A   1      30.706  24.648  24.042  1.00  0.00     0.211 C 
BRANCH  10  11
ATOM     11  N   UNL A   1      30.357  23.528  23.154  1.00  0.00    -0.351 N 
ATOM     12  H   UNL A   1      31.199  22.999  22.927  1.00  0.00     0.345 HD
ATOM     13  H   UNL A   1      29.943  23.892  22.296  1.00  0.00     0.345 HD
ATOM     14  H   UNL A   1      29.688  22.918  23.623  1.00  0.00     0.345 HD
ENDBRANCH  10  11
BRANCH  10  15
ATOM     15  C   UNL A   1      30.206  25.985  23.521  1.00  0.00     0.009 A 
ATOM     16  C   UNL A   1      30.994  26.803  22.696  1.00  0.00     0.010 A 
ATOM     17  C   UNL A   1      28.917  26.438  23.832  1.00  0.00     0.010 A 
ATOM     18  C   UNL A   1      30.578  28.091  22.347  1.00  0.00     0.009 A 
ATOM     19  C   UNL A   1      28.512  27.734  23.518  1.00  0.00     0.009 A 
ATOM     20  C   UNL A   1      29.356  28.591  22.808  1.00  0.00    -0.018 A 
BRANCH  20  21
ATOM     21  C   UNL A   1      28.975  29.989  22.624  1.00  0.00    -0.018 A 
ATOM     22  C   UNL A   1      29.123  30.926  23.654  1.00  0.00     0.009 A 
ATOM     23  C   UNL A   1      28.529  30.430  21.367  1.00  0.00     0.009 A 
ATOM     24  C   UNL A   1      28.844  32.275  23.429  1.00  0.00     0.001 A 
ATOM     25  C   UNL A   1      28.253  31.778  21.142  1.00  0.00     0.001 A 
ATOM     26  C   UNL A   1      28.414  32.701  22.173  1.00  0.00     0.000 A 
ENDBRANCH  20  21
ENDBRANCH  10  15
ENDBRANCH   9  10
ENDBRANCH   8   9
ENDBRANCH   7   8
ENDBRANCH   6   7
ENDBRANCH   3   6
ENDBRANCH   1   2
BRANCH   1  27
ATOM     27  C   UNL A   1      35.159  30.802  27.869  1.00  0.00     0.023 C 
BRANCH  27  28
ATOM     28  C   UNL A   1      33.981  31.768  27.870  1.00  0.00     0.023 C 
BRANCH  28  29
ATOM     29  C   UNL A   1      34.376  33.235  27.862  1.00  0.00     0.116 C 
BRANCH  29  30
ATOM     30  N   UNL A   1      33.370  34.118  28.440  1.00  0.00    -0.352 N 
ATOM     31  C   UNL A   1      33.308  34.566  29.741  1.00  0.00     0.251 C 
ATOM     32  H   UNL A   1      32.658  34.427  27.835  1.00  0.00     0.163 HD
ATOM     33  O   UNL A   1      32.369  35.250  30.134  1.00  0.00    -0.269 OA
BRANCH  31  34
ATOM     34  C   UNL A   1      34.384  34.146  30.656  1.00  0.00     0.039 A 
ATOM     35  C   UNL A   1      34.269  32.923  31.317  1.00  0.00     0.014 A 
ATOM     36  C   UNL A   1      35.573  34.880  30.696  1.00  0.00     0.014 A 
ATOM     37  C   UNL A   1      35.390  32.385  31.948  1.00  0.00     0.010 A 
ATOM     38  C   UNL A   1      36.706  34.302  31.251  1.00  0.00     0.010 A 
ATOM     39  C   UNL A   1      36.629  33.044  31.870  1.00  0.00    -0.014 A 
BRANCH  39  40
ATOM     40  C   UNL A   1      37.868  32.425  32.406  1.00  0.00     0.031 A 
ATOM     41  C   UNL A   1      38.305  32.729  33.811  1.00  0.00     0.074 A 
ATOM     42  C   UNL A   1      38.640  31.667  31.600  1.00  0.00     0.049 A 
ATOM     43  N   UNL A   1      39.400  32.372  34.429  1.00  0.00    -0.248 NA
ATOM     44  C   UNL A   1      37.413  33.580  34.616  1.00  0.00     0.031 C 
ATOM     45  C   UNL A   1      38.360  31.363  30.193  1.00  0.00     0.029 A 
ATOM     46  N   UNL A   1      39.828  31.025  31.843  1.00  0.00    -0.354 N 
ATOM     47  C   UNL A   1      39.340  32.972  35.680  1.00  0.00     0.074 A 
ATOM     48  C   UNL A   1      38.126  33.757  35.718  1.00  0.00     0.031 C 
ATOM     49  C   UNL A   1      39.336  30.577  29.708  1.00  0.00     0.029 A 
ATOM     50  C   UNL A   1      40.326  30.347  30.754  1.00  0.00     0.049 A 
ATOM     51  H   UNL A   1      40.282  31.048  32.716  1.00  0.00     0.167 HD
ATOM     52  C   UNL A   1      40.205  32.857  36.714  1.00  0.00     0.037 A 
ATOM     53  C   UNL A   1      41.455  29.624  30.617  1.00  0.00     0.037 A 
ATOM     54  C   UNL A   1      41.380  32.029  36.691  1.00  0.00     0.049 A 
ATOM     55  C   UNL A   1      42.374  29.475  31.798  1.00  0.00     0.074 A 
ATOM     56  C   UNL A   1      42.270  31.771  37.719  1.00  0.00     0.029 A 
ATOM     57  N   UNL A   1      41.823  31.315  35.588  1.00  0.00    -0.354 N 
ATOM     58  N   UNL A   1      42.261  29.987  33.000  1.00  0.00    -0.248 NA
ATOM     59  C   UNL A   1      43.573  28.645  31.608  1.00  0.00     0.031 C 
ATOM     60  C   UNL A   1      43.269  30.925  37.228  1.00  0.00     0.029 A 
ATOM     61  C   UNL A   1      42.982  30.629  35.905  1.00  0.00     0.049 A 
ATOM     62  H   UNL A   1      41.379  31.300  34.709  1.00  0.00     0.167 HD
ATOM     63  C   UNL A   1      43.361  29.528  33.713  1.00  0.00     0.074 A 
ATOM     64  C   UNL A   1      44.120  28.682  32.815  1.00  0.00     0.031 C 
ATOM     65  C   UNL A   1      43.715  29.785  34.997  1.00  0.00     0.037 A 
BRANCH  52  66
ATOM     66  C   UNL A   1      39.899  33.624  37.968  1.00  0.00     0.058 A 
ATOM     67  C   UNL A   1      38.953  33.162  38.896  1.00  0.00     0.135 A 
ATOM     68  C   UNL A   1      40.590  34.809  38.268  1.00  0.00     0.135 A 
ATOM     69  F   UNL A   1      38.251  32.046  38.648  1.00  0.00    -0.206 F 
ATOM     70  C   UNL A   1      38.688  33.858  40.071  1.00  0.00     0.059 A 
ATOM     71  C   UNL A   1      40.359  35.509  39.448  1.00  0.00     0.059 A 
ATOM     72  F   UNL A   1      41.499  35.297  37.409  1.00  0.00    -0.206 F 
ATOM     73  C   UNL A   1      39.398  35.030  40.338  1.00  0.00     0.060 A 
BRANCH  73  74
ATOM     74  S   UNL A   1      39.062  35.907  41.880  1.00  0.00     0.124 S 
ATOM     75  O   UNL A   1      39.004  37.291  41.419  1.00  0.00    -0.237 OA
ATOM     76  O   UNL A   1      37.791  35.326  42.300  1.00  0.00    -0.237 OA
ATOM     77  O   UNL A   1      40.209  35.571  42.718  1.00  0.00    -0.744 OA
ENDBRANCH  73  74
ENDBRANCH  52  66
BRANCH  53  78
ATOM     78  C   UNL A   1      41.775  28.969  29.321  1.00  0.00     0.058 A 
ATOM     79  C   UNL A   1      41.243  27.711  29.000  1.00  0.00     0.135 A 
ATOM     80  C   UNL A   1      42.625  29.578  28.385  1.00  0.00     0.135 A 
ATOM     81  F   UNL A   1      40.428  27.088  29.865  1.00  0.00    -0.206 F 
ATOM     82  C   UNL A   1      41.563  27.066  27.810  1.00  0.00     0.059 A 
ATOM     83  C   UNL A   1      42.942  28.962  27.178  1.00  0.00     0.059 A 
ATOM     84  F   UNL A   1      43.144  30.790  28.636  1.00  0.00    -0.206 F 
ATOM     85  C   UNL A   1      42.417  27.699  26.906  1.00  0.00     0.060 A 
BRANCH  85  86
ATOM     86  S   UNL A   1      42.806  26.869  25.350  1.00  0.00     0.124 S 
ATOM     87  O   UNL A   1      42.706  27.969  24.399  1.00  0.00    -0.237 OA
ATOM     88  O   UNL A   1      44.152  26.360  25.598  1.00  0.00    -0.237 OA
ATOM     89  O   UNL A   1      41.768  25.848  25.249  1.00  0.00    -0.744 OA
ENDBRANCH  85  86
ENDBRANCH  53  78
BRANCH  65  90
ATOM     90  C   UNL A   1      44.963  29.128  35.512  1.00  0.00     0.058 A 
ATOM     91  C   UNL A   1      44.928  27.857  36.106  1.00  0.00     0.135 A 
ATOM     92  C   UNL A   1      46.211  29.751  35.359  1.00  0.00     0.135 A 
ATOM     93  F   UNL A   1      43.757  27.225  36.280  1.00  0.00    -0.206 F 
ATOM     94  C   UNL A   1      46.089  27.233  36.550  1.00  0.00     0.059 A 
ATOM     95  C   UNL A   1      47.387  29.137  35.775  1.00  0.00     0.059 A 
ATOM     96  F   UNL A   1      46.296  30.963  34.788  1.00  0.00    -0.206 F 
ATOM     97  C   UNL A   1      47.314  27.881  36.378  1.00  0.00     0.060 A 
BRANCH  97  98
ATOM     98  S   UNL A   1      48.820  27.047  36.923  1.00  0.00     0.124 S 
ATOM     99  O   UNL A   1      49.832  27.708  36.107  1.00  0.00    -0.237 OA
ATOM    100  O   UNL A   1      48.853  27.356  38.349  1.00  0.00    -0.237 OA
ATOM    101  O   UNL A   1      48.566  25.646  36.597  1.00  0.00    -0.744 OA
ENDBRANCH  97  98
ENDBRANCH  65  90
ENDBRANCH  39  40
ENDBRANCH  31  34
ENDBRANCH  29  30
ENDBRANCH  28  29
ENDBRANCH  27  28
ENDBRANCH   1  27
TORSDOF 21
ENDMDL
