MODEL 1
REMARK VINA RESULT:     -12.2      0.000      0.000
REMARK SMILES CO[C@@H]1C[C@H](C(=O)NCCCCNC(=O)c2ccc(-c3c4nc(c(-c5c(F)cc(S(=O)(=O)[O-])cc5F)c5ccc([nH]5)c(-c5c(F)cc(S(=O)(=O)[O-])cc5F)c5nc(c(-c6c(F)cc(S(=O)(=O)[O-])cc6F)c6ccc3[nH]6)C=C5)C=C4)cc2)N(C(=O)c2ncc(Cl)c(Cl)c2Cl)C1
REMARK SMILES IDX 11 1 10 2 9 3 8 4 6 5 7 6 5 8 3 9 4 10 94 11 82 12 2 13 1 14
REMARK SMILES IDX 83 15 84 16 85 17 86 18 92 19 87 20 90 21 93 22 88 23 91 24
REMARK SMILES IDX 89 25 12 26 13 27 14 28 15 30 16 31 17 32 81 33 18 34 80 35
REMARK SMILES IDX 19 36 20 37 21 38 74 39 22 40 79 41 73 42 75 43 23 44 78 45
REMARK SMILES IDX 72 46 71 47 24 49 58 50 37 51 57 52 38 53 41 54 56 55 76 56
REMARK SMILES IDX 39 57 40 58 55 60 77 61 42 62 25 63 26 64 35 65 27 66 28 67
REMARK SMILES IDX 34 68 36 69 29 70 30 71 31 72 32 73 33 74 59 75 60 76 69 77
REMARK SMILES IDX 61 78 62 79 68 80 70 81 63 82 64 83 65 84 66 85 67 86 43 87
REMARK SMILES IDX 44 88 53 89 45 90 46 91 52 92 54 93 47 94 48 95 49 96 50 97
REMARK SMILES IDX 51 98
REMARK H PARENT 8 7 13 29 75 48 41 59
REMARK Flexibility Score: inf
ROOT
ATOM      1  C   UNL A   1      39.898  22.424  26.753  1.00  0.00     0.023 C 
ENDROOT
BRANCH   1   2
ATOM      2  C   UNL A   1      38.668  23.204  26.294  1.00  0.00     0.023 C 
BRANCH   2   3
ATOM      3  C   UNL A   1      37.583  22.372  25.608  1.00  0.00     0.116 C 
BRANCH   3   4
ATOM      4  N   UNL A   1      36.418  22.185  26.450  1.00  0.00    -0.354 N 
ATOM      5  C   UNL A   1      35.232  21.567  26.206  1.00  0.00     0.242 C 
ATOM      6  O   UNL A   1      34.437  21.482  27.150  1.00  0.00    -0.273 OA
ATOM      7  H   UNL A   1      36.499  22.573  27.351  1.00  0.00     0.163 HD
BRANCH   5   8
ATOM      8  C   UNL A   1      34.827  20.959  24.841  1.00  0.00     0.177 C 
ATOM      9  C   UNL A   1      33.115  19.253  24.370  1.00  0.00     0.139 C 
ATOM     10  C   UNL A   1      34.567  19.456  24.825  1.00  0.00     0.069 C 
ATOM     11  C   UNL A   1      32.584  20.643  24.009  1.00  0.00     0.152 C 
ATOM     12  N   UNL A   1      33.682  21.571  24.175  1.00  0.00    -0.323 N 
BRANCH   9  13
ATOM     13  O   UNL A   1      32.401  18.625  25.433  1.00  0.00    -0.380 OA
ATOM     14  C   UNL A   1      32.592  17.220  25.513  1.00  0.00     0.195 C 
ENDBRANCH   9  13
BRANCH  12  15
ATOM     15  C   UNL A   1      33.628  22.801  23.534  1.00  0.00     0.274 C 
ATOM     16  O   UNL A   1      34.507  23.189  22.765  1.00  0.00    -0.267 OA
BRANCH  15  17
ATOM     17  C   UNL A   1      32.508  23.730  23.829  1.00  0.00     0.148 A 
ATOM     18  N   UNL A   1      31.424  23.601  23.019  1.00  0.00    -0.248 NA
ATOM     19  C   UNL A   1      32.649  24.721  24.801  1.00  0.00     0.092 A 
ATOM     20  C   UNL A   1      30.421  24.488  23.205  1.00  0.00     0.134 A 
ATOM     21  C   UNL A   1      31.576  25.607  24.975  1.00  0.00     0.082 A 
ATOM     22  Cl  UNL A   1      34.105  24.869  25.734  1.00  0.00    -0.080 Cl
ATOM     23  C   UNL A   1      30.444  25.495  24.159  1.00  0.00     0.079 A 
ATOM     24  Cl  UNL A   1      31.652  26.851  26.188  1.00  0.00    -0.081 Cl
ATOM     25  Cl  UNL A   1      29.093  26.562  24.263  1.00  0.00    -0.081 Cl
ENDBRANCH  15  17
ENDBRANCH  12  15
ENDBRANCH   5   8
ENDBRANCH   3   4
ENDBRANCH   2   3
ENDBRANCH   1   2
BRANCH   1  26
ATOM     26  C   UNL A   1      41.194  23.225  26.828  1.00  0.00     0.116 C 
BRANCH  26  27
ATOM     27  N   UNL A   1      41.332  24.265  25.815  1.00  0.00    -0.352 N 
ATOM     28  C   UNL A   1      41.441  25.627  26.007  1.00  0.00     0.251 C 
ATOM     29  H   UNL A   1      41.347  23.958  24.880  1.00  0.00     0.163 HD
ATOM     30  O   UNL A   1      41.511  26.391  25.053  1.00  0.00    -0.269 OA
BRANCH  28  31
ATOM     31  C   UNL A   1      41.411  26.146  27.391  1.00  0.00     0.039 A 
ATOM     32  C   UNL A   1      42.484  26.917  27.845  1.00  0.00     0.014 A 
ATOM     33  C   UNL A   1      40.272  25.977  28.181  1.00  0.00     0.014 A 
ATOM     34  C   UNL A   1      42.364  27.614  29.049  1.00  0.00     0.010 A 
ATOM     35  C   UNL A   1      40.126  26.733  29.337  1.00  0.00     0.010 A 
ATOM     36  C   UNL A   1      41.159  27.578  29.771  1.00  0.00    -0.014 A 
BRANCH  36  37
ATOM     37  C   UNL A   1      40.932  28.447  30.955  1.00  0.00     0.031 A 
ATOM     38  C   UNL A   1      39.856  29.494  30.923  1.00  0.00     0.074 A 
ATOM     39  C   UNL A   1      41.769  28.367  32.011  1.00  0.00     0.049 A 
ATOM     40  N   UNL A   1      39.599  30.440  31.788  1.00  0.00    -0.248 NA
ATOM     41  C   UNL A   1      38.977  29.504  29.743  1.00  0.00     0.031 C 
ATOM     42  C   UNL A   1      42.896  27.440  32.135  1.00  0.00     0.029 A 
ATOM     43  N   UNL A   1      41.811  29.095  33.174  1.00  0.00    -0.354 N 
ATOM     44  C   UNL A   1      38.555  31.177  31.243  1.00  0.00     0.074 A 
ATOM     45  C   UNL A   1      38.252  30.592  29.954  1.00  0.00     0.031 C 
ATOM     46  C   UNL A   1      43.504  27.639  33.316  1.00  0.00     0.029 A 
ATOM     47  C   UNL A   1      42.836  28.730  34.017  1.00  0.00     0.049 A 
ATOM     48  H   UNL A   1      41.170  29.810  33.386  1.00  0.00     0.167 HD
ATOM     49  C   UNL A   1      37.896  32.234  31.775  1.00  0.00     0.037 A 
ATOM     50  C   UNL A   1      43.201  29.225  35.216  1.00  0.00     0.037 A 
ATOM     51  C   UNL A   1      38.164  32.780  33.079  1.00  0.00     0.049 A 
ATOM     52  C   UNL A   1      42.417  30.360  35.813  1.00  0.00     0.074 A 
ATOM     53  C   UNL A   1      37.503  33.803  33.737  1.00  0.00     0.029 A 
ATOM     54  N   UNL A   1      39.167  32.339  33.928  1.00  0.00    -0.354 N 
ATOM     55  N   UNL A   1      41.399  31.011  35.304  1.00  0.00    -0.248 NA
ATOM     56  C   UNL A   1      42.826  30.825  37.145  1.00  0.00     0.031 C 
ATOM     57  C   UNL A   1      38.119  33.993  34.979  1.00  0.00     0.029 A 
ATOM     58  C   UNL A   1      39.146  33.071  35.104  1.00  0.00     0.049 A 
ATOM     59  H   UNL A   1      39.802  31.614  33.726  1.00  0.00     0.167 HD
ATOM     60  C   UNL A   1      41.033  31.950  36.262  1.00  0.00     0.074 A 
ATOM     61  C   UNL A   1      41.932  31.775  37.384  1.00  0.00     0.031 C 
ATOM     62  C   UNL A   1      40.041  32.872  36.216  1.00  0.00     0.037 A 
BRANCH  49  63
ATOM     63  C   UNL A   1      36.808  32.855  30.947  1.00  0.00     0.058 A 
ATOM     64  C   UNL A   1      37.099  33.762  29.916  1.00  0.00     0.135 A 
ATOM     65  C   UNL A   1      35.461  32.536  31.180  1.00  0.00     0.135 A 
ATOM     66  F   UNL A   1      38.370  34.115  29.666  1.00  0.00    -0.206 F 
ATOM     67  C   UNL A   1      36.091  34.360  29.168  1.00  0.00     0.059 A 
ATOM     68  C   UNL A   1      34.437  33.103  30.426  1.00  0.00     0.059 A 
ATOM     69  F   UNL A   1      35.128  31.674  32.154  1.00  0.00    -0.206 F 
ATOM     70  C   UNL A   1      34.762  34.028  29.435  1.00  0.00     0.060 A 
BRANCH  70  71
ATOM     71  S   UNL A   1      33.461  34.819  28.466  1.00  0.00     0.124 S 
ATOM     72  O   UNL A   1      34.226  35.794  27.696  1.00  0.00    -0.237 OA
ATOM     73  O   UNL A   1      32.911  33.702  27.704  1.00  0.00    -0.237 OA
ATOM     74  O   UNL A   1      32.573  35.375  29.483  1.00  0.00    -0.744 OA
ENDBRANCH  70  71
ENDBRANCH  49  63
BRANCH  50  75
ATOM     75  C   UNL A   1      44.345  28.624  35.949  1.00  0.00     0.058 A 
ATOM     76  C   UNL A   1      45.648  29.108  35.761  1.00  0.00     0.135 A 
ATOM     77  C   UNL A   1      44.161  27.573  36.859  1.00  0.00     0.135 A 
ATOM     78  F   UNL A   1      45.872  30.109  34.896  1.00  0.00    -0.206 F 
ATOM     79  C   UNL A   1      46.732  28.563  36.439  1.00  0.00     0.059 A 
ATOM     80  C   UNL A   1      45.228  27.022  37.564  1.00  0.00     0.059 A 
ATOM     81  F   UNL A   1      42.930  27.088  37.088  1.00  0.00    -0.206 F 
ATOM     82  C   UNL A   1      46.512  27.519  37.339  1.00  0.00     0.060 A 
BRANCH  82  83
ATOM     83  S   UNL A   1      47.918  26.851  38.257  1.00  0.00     0.124 S 
ATOM     84  O   UNL A   1      48.846  26.532  37.178  1.00  0.00    -0.237 OA
ATOM     85  O   UNL A   1      48.292  27.975  39.111  1.00  0.00    -0.237 OA
ATOM     86  O   UNL A   1      47.344  25.707  38.957  1.00  0.00    -0.744 OA
ENDBRANCH  82  83
ENDBRANCH  50  75
BRANCH  62  87
ATOM     87  C   UNL A   1      39.854  33.743  37.424  1.00  0.00     0.058 A 
ATOM     88  C   UNL A   1      40.538  34.959  37.563  1.00  0.00     0.135 A 
ATOM     89  C   UNL A   1      38.933  33.385  38.421  1.00  0.00     0.135 A 
ATOM     90  F   UNL A   1      41.434  35.340  36.640  1.00  0.00    -0.206 F 
ATOM     91  C   UNL A   1      40.326  35.787  38.661  1.00  0.00     0.059 A 
ATOM     92  C   UNL A   1      38.691  34.207  39.516  1.00  0.00     0.059 A 
ATOM     93  F   UNL A   1      38.248  32.234  38.327  1.00  0.00    -0.206 F 
ATOM     94  C   UNL A   1      39.399  35.402  39.632  1.00  0.00     0.060 A 
BRANCH  94  95
ATOM     95  S   UNL A   1      39.094  36.505  41.028  1.00  0.00     0.124 S 
ATOM     96  O   UNL A   1      40.420  36.588  41.631  1.00  0.00    -0.237 OA
ATOM     97  O   UNL A   1      38.617  37.720  40.374  1.00  0.00    -0.237 OA
ATOM     98  O   UNL A   1      38.091  35.790  41.811  1.00  0.00    -0.744 OA
ENDBRANCH  94  95
ENDBRANCH  62  87
ENDBRANCH  36  37
ENDBRANCH  28  31
ENDBRANCH  26  27
ENDBRANCH   1  26
TORSDOF 17
ENDMDL
MODEL 2
REMARK VINA RESULT:     -12.1      5.096      9.973
REMARK SMILES CO[C@@H]1C[C@H](C(=O)NCCCCNC(=O)c2ccc(-c3c4nc(c(-c5c(F)cc(S(=O)(=O)[O-])cc5F)c5ccc([nH]5)c(-c5c(F)cc(S(=O)(=O)[O-])cc5F)c5nc(c(-c6c(F)cc(S(=O)(=O)[O-])cc6F)c6ccc3[nH]6)C=C5)C=C4)cc2)N(C(=O)c2ncc(Cl)c(Cl)c2Cl)C1
REMARK SMILES IDX 11 1 10 2 9 3 8 4 6 5 7 6 5 8 3 9 4 10 94 11 82 12 2 13 1 14
REMARK SMILES IDX 83 15 84 16 85 17 86 18 92 19 87 20 90 21 93 22 88 23 91 24
REMARK SMILES IDX 89 25 12 26 13 27 14 28 15 30 16 31 17 32 81 33 18 34 80 35
REMARK SMILES IDX 19 36 20 37 21 38 74 39 22 40 79 41 73 42 75 43 23 44 78 45
REMARK SMILES IDX 72 46 71 47 24 49 58 50 37 51 57 52 38 53 41 54 56 55 76 56
REMARK SMILES IDX 39 57 40 58 55 60 77 61 42 62 25 63 26 64 35 65 27 66 28 67
REMARK SMILES IDX 34 68 36 69 29 70 30 71 31 72 32 73 33 74 59 75 60 76 69 77
REMARK SMILES IDX 61 78 62 79 68 80 70 81 63 82 64 83 65 84 66 85 67 86 43 87
REMARK SMILES IDX 44 88 53 89 45 90 46 91 52 92 54 93 47 94 48 95 49 96 50 97
REMARK SMILES IDX 51 98
REMARK H PARENT 8 7 13 29 75 48 41 59
REMARK Flexibility Score: inf
ROOT
ATOM      1  C   UNL A   1      32.825  29.398  25.553  1.00  0.00     0.023 C 
ENDROOT
BRANCH   1   2
ATOM      2  C   UNL A   1      31.605  28.480  25.564  1.00  0.00     0.023 C 
BRANCH   2   3
ATOM      3  C   UNL A   1      31.882  27.026  25.948  1.00  0.00     0.116 C 
BRANCH   3   4
ATOM      4  N   UNL A   1      30.718  26.372  26.510  1.00  0.00    -0.354 N 
ATOM      5  C   UNL A   1      30.143  25.175  26.223  1.00  0.00     0.242 C 
ATOM      6  O   UNL A   1      29.189  24.825  26.931  1.00  0.00    -0.273 OA
ATOM      7  H   UNL A   1      30.266  26.883  27.221  1.00  0.00     0.163 HD
BRANCH   5   8
ATOM      8  C   UNL A   1      30.608  24.230  25.089  1.00  0.00     0.177 C 
ATOM      9  C   UNL A   1      31.815  24.797  23.019  1.00  0.00     0.139 C 
ATOM     10  C   UNL A   1      30.424  24.745  23.666  1.00  0.00     0.069 C 
ATOM     11  C   UNL A   1      32.782  24.192  24.041  1.00  0.00     0.152 C 
ATOM     12  N   UNL A   1      31.986  23.755  25.168  1.00  0.00    -0.323 N 
BRANCH   9  13
ATOM     13  O   UNL A   1      32.102  26.155  22.693  1.00  0.00    -0.380 OA
ATOM     14  C   UNL A   1      33.199  26.322  21.805  1.00  0.00     0.195 C 
ENDBRANCH   9  13
BRANCH  12  15
ATOM     15  C   UNL A   1      32.512  22.811  26.039  1.00  0.00     0.274 C 
ATOM     16  O   UNL A   1      32.575  22.991  27.255  1.00  0.00    -0.267 OA
BRANCH  15  17
ATOM     17  C   UNL A   1      33.093  21.558  25.495  1.00  0.00     0.148 A 
ATOM     18  N   UNL A   1      32.186  20.604  25.154  1.00  0.00    -0.248 NA
ATOM     19  C   UNL A   1      34.476  21.375  25.461  1.00  0.00     0.092 A 
ATOM     20  C   UNL A   1      32.683  19.419  24.735  1.00  0.00     0.134 A 
ATOM     21  C   UNL A   1      34.949  20.139  25.001  1.00  0.00     0.082 A 
ATOM     22  Cl  UNL A   1      35.563  22.618  25.998  1.00  0.00    -0.080 Cl
ATOM     23  C   UNL A   1      34.039  19.138  24.637  1.00  0.00     0.079 A 
ATOM     24  Cl  UNL A   1      36.659  19.837  24.893  1.00  0.00    -0.081 Cl
ATOM     25  Cl  UNL A   1      34.519  17.570  24.102  1.00  0.00    -0.081 Cl
ENDBRANCH  15  17
ENDBRANCH  12  15
ENDBRANCH   5   8
ENDBRANCH   3   4
ENDBRANCH   2   3
ENDBRANCH   1   2
BRANCH   1  26
ATOM     26  C   UNL A   1      33.701  29.341  26.800  1.00  0.00     0.116 C 
BRANCH  26  27
ATOM     27  N   UNL A   1      33.654  30.534  27.638  1.00  0.00    -0.352 N 
ATOM     28  C   UNL A   1      34.636  31.019  28.478  1.00  0.00     0.251 C 
ATOM     29  H   UNL A   1      32.821  31.055  27.600  1.00  0.00     0.163 HD
ATOM     30  O   UNL A   1      34.441  32.019  29.156  1.00  0.00    -0.269 OA
BRANCH  28  31
ATOM     31  C   UNL A   1      35.905  30.269  28.584  1.00  0.00     0.039 A 
ATOM     32  C   UNL A   1      36.794  30.294  27.507  1.00  0.00     0.014 A 
ATOM     33  C   UNL A   1      36.262  29.657  29.787  1.00  0.00     0.014 A 
ATOM     34  C   UNL A   1      38.090  29.803  27.678  1.00  0.00     0.010 A 
ATOM     35  C   UNL A   1      37.573  29.241  29.978  1.00  0.00     0.010 A 
ATOM     36  C   UNL A   1      38.508  29.332  28.935  1.00  0.00    -0.014 A 
BRANCH  36  37
ATOM     37  C   UNL A   1      39.925  28.973  29.202  1.00  0.00     0.031 A 
ATOM     38  C   UNL A   1      40.867  29.999  29.766  1.00  0.00     0.074 A 
ATOM     39  C   UNL A   1      40.387  27.761  28.830  1.00  0.00     0.049 A 
ATOM     40  N   UNL A   1      42.162  29.928  29.931  1.00  0.00    -0.248 NA
ATOM     41  C   UNL A   1      40.280  31.289  30.160  1.00  0.00     0.031 C 
ATOM     42  C   UNL A   1      39.591  26.701  28.208  1.00  0.00     0.029 A 
ATOM     43  N   UNL A   1      41.649  27.224  28.904  1.00  0.00    -0.354 N 
ATOM     44  C   UNL A   1      42.549  31.171  30.414  1.00  0.00     0.074 A 
ATOM     45  C   UNL A   1      41.357  31.990  30.478  1.00  0.00     0.031 C 
ATOM     46  C   UNL A   1      40.375  25.635  27.979  1.00  0.00     0.029 A 
ATOM     47  C   UNL A   1      41.736  25.947  28.401  1.00  0.00     0.049 A 
ATOM     48  H   UNL A   1      42.419  27.708  29.281  1.00  0.00     0.167 HD
ATOM     49  C   UNL A   1      43.783  31.588  30.788  1.00  0.00     0.037 A 
ATOM     50  C   UNL A   1      42.796  25.123  28.286  1.00  0.00     0.037 A 
ATOM     51  C   UNL A   1      44.956  30.756  30.772  1.00  0.00     0.049 A 
ATOM     52  C   UNL A   1      44.144  25.587  28.762  1.00  0.00     0.074 A 
ATOM     53  C   UNL A   1      46.236  31.064  31.199  1.00  0.00     0.029 A 
ATOM     54  N   UNL A   1      44.989  29.447  30.317  1.00  0.00    -0.354 N 
ATOM     55  N   UNL A   1      44.482  26.751  29.263  1.00  0.00    -0.248 NA
ATOM     56  C   UNL A   1      45.253  24.629  28.660  1.00  0.00     0.031 C 
ATOM     57  C   UNL A   1      47.049  29.944  30.985  1.00  0.00     0.029 A 
ATOM     58  C   UNL A   1      46.268  28.932  30.449  1.00  0.00     0.049 A 
ATOM     59  H   UNL A   1      44.217  28.955  29.952  1.00  0.00     0.167 HD
ATOM     60  C   UNL A   1      45.837  26.658  29.557  1.00  0.00     0.074 A 
ATOM     61  C   UNL A   1      46.255  25.321  29.185  1.00  0.00     0.031 C 
ATOM     62  C   UNL A   1      46.661  27.595  30.087  1.00  0.00     0.037 A 
BRANCH  49  63
ATOM     63  C   UNL A   1      43.916  33.008  31.260  1.00  0.00     0.058 A 
ATOM     64  C   UNL A   1      44.083  34.068  30.356  1.00  0.00     0.135 A 
ATOM     65  C   UNL A   1      43.870  33.313  32.629  1.00  0.00     0.135 A 
ATOM     66  F   UNL A   1      44.152  33.827  29.037  1.00  0.00    -0.206 F 
ATOM     67  C   UNL A   1      44.236  35.379  30.794  1.00  0.00     0.059 A 
ATOM     68  C   UNL A   1      43.995  34.621  33.089  1.00  0.00     0.059 A 
ATOM     69  F   UNL A   1      43.713  32.336  33.535  1.00  0.00    -0.206 F 
ATOM     70  C   UNL A   1      44.196  35.645  32.163  1.00  0.00     0.060 A 
BRANCH  70  71
ATOM     71  S   UNL A   1      44.408  37.348  32.722  1.00  0.00     0.124 S 
ATOM     72  O   UNL A   1      45.586  37.228  33.575  1.00  0.00    -0.237 OA
ATOM     73  O   UNL A   1      44.606  38.069  31.468  1.00  0.00    -0.237 OA
ATOM     74  O   UNL A   1      43.154  37.635  33.413  1.00  0.00    -0.744 OA
ENDBRANCH  70  71
ENDBRANCH  49  63
BRANCH  50  75
ATOM     75  C   UNL A   1      42.617  23.758  27.726  1.00  0.00     0.058 A 
ATOM     76  C   UNL A   1      42.511  22.646  28.574  1.00  0.00     0.135 A 
ATOM     77  C   UNL A   1      42.532  23.539  26.343  1.00  0.00     0.135 A 
ATOM     78  F   UNL A   1      42.593  22.807  29.904  1.00  0.00    -0.206 F 
ATOM     79  C   UNL A   1      42.340  21.361  28.072  1.00  0.00     0.059 A 
ATOM     80  C   UNL A   1      42.342  22.265  25.817  1.00  0.00     0.059 A 
ATOM     81  F   UNL A   1      42.609  24.574  25.492  1.00  0.00    -0.206 F 
ATOM     82  C   UNL A   1      42.257  21.180  26.690  1.00  0.00     0.060 A 
BRANCH  82  83
ATOM     83  S   UNL A   1      41.981  19.514  26.046  1.00  0.00     0.124 S 
ATOM     84  O   UNL A   1      40.551  19.546  25.758  1.00  0.00    -0.237 OA
ATOM     85  O   UNL A   1      42.866  19.481  24.886  1.00  0.00    -0.237 OA
ATOM     86  O   UNL A   1      42.384  18.658  27.156  1.00  0.00    -0.744 OA
ENDBRANCH  82  83
ENDBRANCH  50  75
BRANCH  62  87
ATOM     87  C   UNL A   1      48.089  27.200  30.326  1.00  0.00     0.058 A 
ATOM     88  C   UNL A   1      49.080  27.410  29.355  1.00  0.00     0.135 A 
ATOM     89  C   UNL A   1      48.480  26.665  31.563  1.00  0.00     0.135 A 
ATOM     90  F   UNL A   1      48.753  27.912  28.154  1.00  0.00    -0.206 F 
ATOM     91  C   UNL A   1      50.411  27.087  29.598  1.00  0.00     0.059 A 
ATOM     92  C   UNL A   1      49.808  26.354  31.835  1.00  0.00     0.059 A 
ATOM     93  F   UNL A   1      47.569  26.453  32.526  1.00  0.00    -0.206 F 
ATOM     94  C   UNL A   1      50.765  26.561  30.842  1.00  0.00     0.060 A 
BRANCH  94  95
ATOM     95  S   UNL A   1      52.502  26.191  31.167  1.00  0.00     0.124 S 
ATOM     96  O   UNL A   1      53.066  26.227  29.822  1.00  0.00    -0.237 OA
ATOM     97  O   UNL A   1      52.899  27.283  32.050  1.00  0.00    -0.237 OA
ATOM     98  O   UNL A   1      52.455  24.874  31.794  1.00  0.00    -0.744 OA
ENDBRANCH  94  95
ENDBRANCH  62  87
ENDBRANCH  36  37
ENDBRANCH  28  31
ENDBRANCH  26  27
ENDBRANCH   1  26
TORSDOF 17
ENDMDL
MODEL 3
REMARK VINA RESULT:     -12.0      6.196     10.872
REMARK SMILES CO[C@@H]1C[C@H](C(=O)NCCCCNC(=O)c2ccc(-c3c4nc(c(-c5c(F)cc(S(=O)(=O)[O-])cc5F)c5ccc([nH]5)c(-c5c(F)cc(S(=O)(=O)[O-])cc5F)c5nc(c(-c6c(F)cc(S(=O)(=O)[O-])cc6F)c6ccc3[nH]6)C=C5)C=C4)cc2)N(C(=O)c2ncc(Cl)c(Cl)c2Cl)C1
REMARK SMILES IDX 11 1 10 2 9 3 8 4 6 5 7 6 5 8 3 9 4 10 94 11 82 12 2 13 1 14
REMARK SMILES IDX 83 15 84 16 85 17 86 18 92 19 87 20 90 21 93 22 88 23 91 24
REMARK SMILES IDX 89 25 12 26 13 27 14 28 15 30 16 31 17 32 81 33 18 34 80 35
REMARK SMILES IDX 19 36 20 37 21 38 74 39 22 40 79 41 73 42 75 43 23 44 78 45
REMARK SMILES IDX 72 46 71 47 24 49 58 50 37 51 57 52 38 53 41 54 56 55 76 56
REMARK SMILES IDX 39 57 40 58 55 60 77 61 42 62 25 63 26 64 35 65 27 66 28 67
REMARK SMILES IDX 34 68 36 69 29 70 30 71 31 72 32 73 33 74 59 75 60 76 69 77
REMARK SMILES IDX 61 78 62 79 68 80 70 81 63 82 64 83 65 84 66 85 67 86 43 87
REMARK SMILES IDX 44 88 53 89 45 90 46 91 52 92 54 93 47 94 48 95 49 96 50 97
REMARK SMILES IDX 51 98
REMARK H PARENT 8 7 13 29 75 48 41 59
REMARK Flexibility Score: inf
ROOT
ATOM      1  C   UNL A   1      38.089  20.867  25.468  1.00  0.00     0.023 C 
ENDROOT
BRANCH   1   2
ATOM      2  C   UNL A   1      37.636  22.082  24.662  1.00  0.00     0.023 C 
BRANCH   2   3
ATOM      3  C   UNL A   1      36.863  23.141  25.451  1.00  0.00     0.116 C 
BRANCH   3   4
ATOM      4  N   UNL A   1      36.086  22.565  26.530  1.00  0.00    -0.354 N 
ATOM      5  C   UNL A   1      34.785  22.176  26.582  1.00  0.00     0.242 C 
ATOM      6  O   UNL A   1      34.402  21.630  27.625  1.00  0.00    -0.273 OA
ATOM      7  H   UNL A   1      36.586  22.434  27.368  1.00  0.00     0.163 HD
BRANCH   5   8
ATOM      8  C   UNL A   1      33.770  22.360  25.428  1.00  0.00     0.177 C 
ATOM      9  C   UNL A   1      32.168  20.725  24.520  1.00  0.00     0.139 C 
ATOM     10  C   UNL A   1      33.631  21.188  24.462  1.00  0.00     0.069 C 
ATOM     11  C   UNL A   1      31.444  21.718  25.433  1.00  0.00     0.152 C 
ATOM     12  N   UNL A   1      32.411  22.725  25.814  1.00  0.00    -0.323 N 
BRANCH   9  13
ATOM     13  O   UNL A   1      32.146  19.384  25.000  1.00  0.00    -0.380 OA
ATOM     14  C   UNL A   1      33.322  18.641  24.709  1.00  0.00     0.195 C 
ENDBRANCH   9  13
BRANCH  12  15
ATOM     15  C   UNL A   1      31.959  23.953  26.278  1.00  0.00     0.274 C 
ATOM     16  O   UNL A   1      31.207  24.061  27.246  1.00  0.00    -0.267 OA
BRANCH  15  17
ATOM     17  C   UNL A   1      32.328  25.191  25.547  1.00  0.00     0.148 A 
ATOM     18  N   UNL A   1      33.307  25.934  26.131  1.00  0.00    -0.248 NA
ATOM     19  C   UNL A   1      31.618  25.582  24.412  1.00  0.00     0.092 A 
ATOM     20  C   UNL A   1      33.608  27.111  25.537  1.00  0.00     0.134 A 
ATOM     21  C   UNL A   1      31.976  26.799  23.816  1.00  0.00     0.082 A 
ATOM     22  Cl  UNL A   1      30.322  24.613  23.782  1.00  0.00    -0.080 Cl
ATOM     23  C   UNL A   1      32.985  27.582  24.391  1.00  0.00     0.079 A 
ATOM     24  Cl  UNL A   1      31.167  27.345  22.377  1.00  0.00    -0.081 Cl
ATOM     25  Cl  UNL A   1      33.467  29.115  23.762  1.00  0.00    -0.081 Cl
ENDBRANCH  15  17
ENDBRANCH  12  15
ENDBRANCH   5   8
ENDBRANCH   3   4
ENDBRANCH   2   3
ENDBRANCH   1   2
BRANCH   1  26
ATOM     26  C   UNL A   1      39.476  20.973  26.094  1.00  0.00     0.116 C 
BRANCH  26  27
ATOM     27  N   UNL A   1      40.238  19.730  26.111  1.00  0.00    -0.352 N 
ATOM     28  C   UNL A   1      41.596  19.570  26.293  1.00  0.00     0.251 C 
ATOM     29  H   UNL A   1      39.720  18.904  25.974  1.00  0.00     0.163 HD
ATOM     30  O   UNL A   1      42.109  18.459  26.243  1.00  0.00    -0.269 OA
BRANCH  28  31
ATOM     31  C   UNL A   1      42.426  20.777  26.491  1.00  0.00     0.039 A 
ATOM     32  C   UNL A   1      42.946  21.429  25.371  1.00  0.00     0.014 A 
ATOM     33  C   UNL A   1      42.575  21.327  27.766  1.00  0.00     0.014 A 
ATOM     34  C   UNL A   1      43.518  22.695  25.519  1.00  0.00     0.010 A 
ATOM     35  C   UNL A   1      43.073  22.617  27.899  1.00  0.00     0.010 A 
ATOM     36  C   UNL A   1      43.527  23.324  26.775  1.00  0.00    -0.014 A 
BRANCH  36  37
ATOM     37  C   UNL A   1      43.958  24.737  26.937  1.00  0.00     0.031 A 
ATOM     38  C   UNL A   1      45.401  25.109  26.745  1.00  0.00     0.074 A 
ATOM     39  C   UNL A   1      43.073  25.659  27.368  1.00  0.00     0.049 A 
ATOM     40  N   UNL A   1      45.999  26.247  26.981  1.00  0.00    -0.248 NA
ATOM     41  C   UNL A   1      46.298  24.048  26.258  1.00  0.00     0.031 C 
ATOM     42  C   UNL A   1      41.659  25.411  27.658  1.00  0.00     0.029 A 
ATOM     43  N   UNL A   1      43.239  26.991  27.657  1.00  0.00    -0.354 N 
ATOM     44  C   UNL A   1      47.343  26.032  26.707  1.00  0.00     0.074 A 
ATOM     45  C   UNL A   1      47.480  24.642  26.324  1.00  0.00     0.031 C 
ATOM     46  C   UNL A   1      41.082  26.555  28.061  1.00  0.00     0.029 A 
ATOM     47  C   UNL A   1      42.090  27.609  28.094  1.00  0.00     0.049 A 
ATOM     48  H   UNL A   1      44.099  27.460  27.560  1.00  0.00     0.167 HD
ATOM     49  C   UNL A   1      48.369  26.915  26.753  1.00  0.00     0.037 A 
ATOM     50  C   UNL A   1      41.875  28.881  28.485  1.00  0.00     0.037 A 
ATOM     51  C   UNL A   1      48.222  28.308  27.084  1.00  0.00     0.049 A 
ATOM     52  C   UNL A   1      43.018  29.858  28.471  1.00  0.00     0.074 A 
ATOM     53  C   UNL A   1      49.188  29.298  27.087  1.00  0.00     0.029 A 
ATOM     54  N   UNL A   1      47.030  28.908  27.457  1.00  0.00    -0.354 N 
ATOM     55  N   UNL A   1      44.274  29.647  28.160  1.00  0.00    -0.248 NA
ATOM     56  C   UNL A   1      42.715  31.242  28.858  1.00  0.00     0.031 C 
ATOM     57  C   UNL A   1      48.583  30.497  27.481  1.00  0.00     0.029 A 
ATOM     58  C   UNL A   1      47.235  30.257  27.697  1.00  0.00     0.049 A 
ATOM     59  H   UNL A   1      46.165  28.445  27.542  1.00  0.00     0.167 HD
ATOM     60  C   UNL A   1      44.908  30.877  28.293  1.00  0.00     0.074 A 
ATOM     61  C   UNL A   1      43.895  31.828  28.703  1.00  0.00     0.031 C 
ATOM     62  C   UNL A   1      46.211  31.190  28.091  1.00  0.00     0.037 A 
BRANCH  49  63
ATOM     63  C   UNL A   1      49.739  26.397  26.421  1.00  0.00     0.058 A 
ATOM     64  C   UNL A   1      50.224  26.398  25.104  1.00  0.00     0.135 A 
ATOM     65  C   UNL A   1      50.580  25.901  27.429  1.00  0.00     0.135 A 
ATOM     66  F   UNL A   1      49.451  26.845  24.100  1.00  0.00    -0.206 F 
ATOM     67  C   UNL A   1      51.480  25.892  24.791  1.00  0.00     0.059 A 
ATOM     68  C   UNL A   1      51.852  25.413  27.143  1.00  0.00     0.059 A 
ATOM     69  F   UNL A   1      50.165  25.877  28.705  1.00  0.00    -0.206 F 
ATOM     70  C   UNL A   1      52.285  25.396  25.818  1.00  0.00     0.060 A 
BRANCH  70  71
ATOM     71  S   UNL A   1      53.910  24.730  25.399  1.00  0.00     0.124 S 
ATOM     72  O   UNL A   1      53.573  23.360  25.026  1.00  0.00    -0.237 OA
ATOM     73  O   UNL A   1      54.335  25.598  24.305  1.00  0.00    -0.237 OA
ATOM     74  O   UNL A   1      54.665  24.878  26.640  1.00  0.00    -0.744 OA
ENDBRANCH  70  71
ENDBRANCH  49  63
BRANCH  50  75
ATOM     75  C   UNL A   1      40.512  29.312  28.890  1.00  0.00     0.058 A 
ATOM     76  C   UNL A   1      39.508  29.500  27.929  1.00  0.00     0.135 A 
ATOM     77  C   UNL A   1      40.182  29.528  30.236  1.00  0.00     0.135 A 
ATOM     78  F   UNL A   1      39.780  29.311  26.629  1.00  0.00    -0.206 F 
ATOM     79  C   UNL A   1      38.225  29.900  28.286  1.00  0.00     0.059 A 
ATOM     80  C   UNL A   1      38.900  29.911  30.620  1.00  0.00     0.059 A 
ATOM     81  F   UNL A   1      41.104  29.342  31.193  1.00  0.00    -0.206 F 
ATOM     82  C   UNL A   1      37.930  30.104  29.635  1.00  0.00     0.060 A 
BRANCH  82  83
ATOM     83  S   UNL A   1      36.247  30.571  30.098  1.00  0.00     0.124 S 
ATOM     84  O   UNL A   1      35.529  30.348  28.848  1.00  0.00    -0.237 OA
ATOM     85  O   UNL A   1      35.953  29.636  31.180  1.00  0.00    -0.237 OA
ATOM     86  O   UNL A   1      36.390  31.965  30.506  1.00  0.00    -0.744 OA
ENDBRANCH  82  83
ENDBRANCH  50  75
BRANCH  62  87
ATOM     87  C   UNL A   1      46.612  32.624  28.282  1.00  0.00     0.058 A 
ATOM     88  C   UNL A   1      47.170  33.075  29.487  1.00  0.00     0.135 A 
ATOM     89  C   UNL A   1      46.495  33.540  27.225  1.00  0.00     0.135 A 
ATOM     90  F   UNL A   1      47.295  32.238  30.529  1.00  0.00    -0.206 F 
ATOM     91  C   UNL A   1      47.585  34.394  29.644  1.00  0.00     0.059 A 
ATOM     92  C   UNL A   1      46.921  34.857  27.353  1.00  0.00     0.059 A 
ATOM     93  F   UNL A   1      45.974  33.153  26.049  1.00  0.00    -0.206 F 
ATOM     94  C   UNL A   1      47.458  35.277  28.570  1.00  0.00     0.060 A 
BRANCH  94  95
ATOM     95  S   UNL A   1      48.044  36.973  28.766  1.00  0.00     0.124 S 
ATOM     96  O   UNL A   1      49.302  36.769  29.474  1.00  0.00    -0.237 OA
ATOM     97  O   UNL A   1      48.160  37.430  27.384  1.00  0.00    -0.237 OA
ATOM     98  O   UNL A   1      46.982  37.610  29.540  1.00  0.00    -0.744 OA
ENDBRANCH  94  95
ENDBRANCH  62  87
ENDBRANCH  36  37
ENDBRANCH  28  31
ENDBRANCH  26  27
ENDBRANCH   1  26
TORSDOF 17
ENDMDL
