MODEL 1
REMARK VINA RESULT:     -11.2      0.000      0.000
REMARK SMILES CC(C)(C[NH2+]Cc1ccc2c(c1)OCO2)C(=O)NCCCCNC(=O)c1ccc(-c2c3nc(c(-c4c(F)cc(S(=O)(=O)[O-])cc4F)c4ccc([nH]4)c(-c4c(F)cc(S(=O)(=O)[O-])cc4F)c4nc(c(-c5c(F)cc(S(=O)(=O)[O-])cc5F)c5ccc2[nH]5)C=C4)C=C3)cc1
REMARK SMILES IDX 20 1 19 2 18 3 16 4 17 5 2 7 1 8 3 9 4 10 5 11 6 14 7 15
REMARK SMILES IDX 8 16 12 17 9 18 11 19 10 20 13 21 15 22 14 23 21 24 22 25
REMARK SMILES IDX 23 26 24 27 25 29 26 30 27 31 91 32 28 33 90 34 29 35 30 36
REMARK SMILES IDX 31 37 84 38 32 39 89 40 83 41 85 42 33 43 88 44 82 45 81 46
REMARK SMILES IDX 34 48 68 49 47 50 67 51 48 52 51 53 66 54 86 55 49 56 50 57
REMARK SMILES IDX 65 59 87 60 52 61 35 62 36 63 45 64 37 65 38 66 44 67 46 68
REMARK SMILES IDX 39 69 40 70 41 71 42 72 43 73 69 74 70 75 79 76 71 77 72 78
REMARK SMILES IDX 78 79 80 80 73 81 74 82 75 83 76 84 77 85 53 86 54 87 63 88
REMARK SMILES IDX 55 89 56 90 62 91 64 92 57 93 58 94 59 95 60 96 61 97
REMARK H PARENT 18 6 5 12 5 13 23 28 85 47 51 58
REMARK Flexibility Score: inf
ROOT
ATOM      1  C   UNL A   1      35.227  30.323  28.001  1.00  0.00     0.023 C 
ENDROOT
BRANCH   1   2
ATOM      2  C   UNL A   1      34.775  29.107  27.199  1.00  0.00     0.116 C 
BRANCH   2   3
ATOM      3  N   UNL A   1      33.485  28.606  27.630  1.00  0.00    -0.355 N 
ATOM      4  C   UNL A   1      32.408  28.127  26.952  1.00  0.00     0.231 C 
ATOM      5  O   UNL A   1      31.458  27.752  27.650  1.00  0.00    -0.274 OA
ATOM      6  H   UNL A   1      33.364  28.617  28.608  1.00  0.00     0.163 HD
BRANCH   4   7
ATOM      7  C   UNL A   1      32.371  27.976  25.418  1.00  0.00     0.092 C 
ATOM      8  C   UNL A   1      33.500  27.001  24.990  1.00  0.00     0.027 C 
ATOM      9  C   UNL A   1      32.705  29.326  24.752  1.00  0.00     0.027 C 
BRANCH   7  10
ATOM     10  C   UNL A   1      31.018  27.434  24.892  1.00  0.00     0.277 C 
BRANCH  10  11
ATOM     11  N   UNL A   1      30.703  27.829  23.513  1.00  0.00    -0.342 N 
ATOM     12  H   UNL A   1      30.948  27.059  22.892  1.00  0.00     0.346 HD
ATOM     13  H   UNL A   1      31.239  28.675  23.314  1.00  0.00     0.346 HD
BRANCH  11  14
ATOM     14  C   UNL A   1      29.289  28.159  23.305  1.00  0.00     0.297 C 
BRANCH  14  15
ATOM     15  C   UNL A   1      29.060  29.597  22.893  1.00  0.00     0.010 A 
ATOM     16  C   UNL A   1      29.285  30.653  23.807  1.00  0.00     0.013 A 
ATOM     17  C   UNL A   1      28.537  29.879  21.620  1.00  0.00     0.060 A 
ATOM     18  C   UNL A   1      28.950  31.970  23.478  1.00  0.00     0.051 A 
ATOM     19  C   UNL A   1      28.216  31.186  21.326  1.00  0.00     0.166 A 
ATOM     20  C   UNL A   1      28.408  32.201  22.233  1.00  0.00     0.165 A 
ATOM     21  O   UNL A   1      27.662  31.624  20.164  1.00  0.00    -0.454 OA
ATOM     22  O   UNL A   1      27.992  33.406  21.757  1.00  0.00    -0.454 OA
ATOM     23  C   UNL A   1      27.490  33.024  20.460  1.00  0.00     0.468 C 
ENDBRANCH  14  15
ENDBRANCH  11  14
ENDBRANCH  10  11
ENDBRANCH   7  10
ENDBRANCH   4   7
ENDBRANCH   2   3
ENDBRANCH   1   2
BRANCH   1  24
ATOM     24  C   UNL A   1      34.654  31.660  27.526  1.00  0.00     0.023 C 
BRANCH  24  25
ATOM     25  C   UNL A   1      33.191  31.916  27.877  1.00  0.00     0.116 C 
BRANCH  25  26
ATOM     26  N   UNL A   1      32.825  33.326  27.846  1.00  0.00    -0.352 N 
ATOM     27  C   UNL A   1      33.370  34.374  28.550  1.00  0.00     0.251 C 
ATOM     28  H   UNL A   1      32.088  33.560  27.237  1.00  0.00     0.163 HD
ATOM     29  O   UNL A   1      32.879  35.496  28.469  1.00  0.00    -0.269 OA
BRANCH  27  30
ATOM     30  C   UNL A   1      34.520  34.124  29.442  1.00  0.00     0.039 A 
ATOM     31  C   UNL A   1      34.299  33.484  30.664  1.00  0.00     0.014 A 
ATOM     32  C   UNL A   1      35.816  34.460  29.041  1.00  0.00     0.014 A 
ATOM     33  C   UNL A   1      35.389  33.088  31.440  1.00  0.00     0.010 A 
ATOM     34  C   UNL A   1      36.902  34.013  29.788  1.00  0.00     0.010 A 
ATOM     35  C   UNL A   1      36.698  33.301  30.980  1.00  0.00    -0.014 A 
BRANCH  35  36
ATOM     36  C   UNL A   1      37.871  32.735  31.692  1.00  0.00     0.031 A 
ATOM     37  C   UNL A   1      38.598  31.547  31.131  1.00  0.00     0.074 A 
ATOM     38  C   UNL A   1      38.214  33.235  32.895  1.00  0.00     0.049 A 
ATOM     39  N   UNL A   1      39.559  30.842  31.667  1.00  0.00    -0.248 NA
ATOM     40  C   UNL A   1      38.172  31.078  29.804  1.00  0.00     0.031 C 
ATOM     41  C   UNL A   1      37.558  34.362  33.562  1.00  0.00     0.029 A 
ATOM     42  N   UNL A   1      39.186  32.846  33.784  1.00  0.00    -0.354 N 
ATOM     43  C   UNL A   1      39.846  29.838  30.752  1.00  0.00     0.074 A 
ATOM     44  C   UNL A   1      38.928  30.002  29.644  1.00  0.00     0.031 C 
ATOM     45  C   UNL A   1      38.154  34.582  34.746  1.00  0.00     0.029 A 
ATOM     46  C   UNL A   1      39.203  33.586  34.942  1.00  0.00     0.049 A 
ATOM     47  H   UNL A   1      39.813  32.108  33.607  1.00  0.00     0.167 HD
ATOM     48  C   UNL A   1      40.799  28.877  30.822  1.00  0.00     0.037 A 
ATOM     49  C   UNL A   1      39.962  33.464  36.049  1.00  0.00     0.037 A 
ATOM     50  C   UNL A   1      41.719  28.731  31.918  1.00  0.00     0.049 A 
ATOM     51  C   UNL A   1      40.986  32.367  36.120  1.00  0.00     0.074 A 
ATOM     52  C   UNL A   1      42.769  27.838  32.048  1.00  0.00     0.029 A 
ATOM     53  N   UNL A   1      41.696  29.490  33.079  1.00  0.00    -0.354 N 
ATOM     54  N   UNL A   1      41.285  31.463  35.219  1.00  0.00    -0.248 NA
ATOM     55  C   UNL A   1      41.765  32.264  37.361  1.00  0.00     0.031 C 
ATOM     56  C   UNL A   1      43.354  28.031  33.304  1.00  0.00     0.029 A 
ATOM     57  C   UNL A   1      42.692  29.067  33.943  1.00  0.00     0.049 A 
ATOM     58  H   UNL A   1      41.064  30.224  33.261  1.00  0.00     0.167 HD
ATOM     59  C   UNL A   1      42.295  30.689  35.779  1.00  0.00     0.074 A 
ATOM     60  C   UNL A   1      42.564  31.239  37.092  1.00  0.00     0.031 C 
ATOM     61  C   UNL A   1      42.937  29.618  35.253  1.00  0.00     0.037 A 
BRANCH  48  62
ATOM     62  C   UNL A   1      40.887  27.911  29.675  1.00  0.00     0.058 A 
ATOM     63  C   UNL A   1      39.947  26.881  29.511  1.00  0.00     0.135 A 
ATOM     64  C   UNL A   1      41.915  28.018  28.726  1.00  0.00     0.135 A 
ATOM     65  F   UNL A   1      38.952  26.725  30.399  1.00  0.00    -0.206 F 
ATOM     66  C   UNL A   1      40.044  25.968  28.467  1.00  0.00     0.059 A 
ATOM     67  C   UNL A   1      42.018  27.130  27.659  1.00  0.00     0.059 A 
ATOM     68  F   UNL A   1      42.840  28.986  28.836  1.00  0.00    -0.206 F 
ATOM     69  C   UNL A   1      41.089  26.096  27.550  1.00  0.00     0.060 A 
BRANCH  69  70
ATOM     70  S   UNL A   1      41.218  24.890  26.212  1.00  0.00     0.124 S 
ATOM     71  O   UNL A   1      39.992  24.120  26.399  1.00  0.00    -0.237 OA
ATOM     72  O   UNL A   1      41.257  25.740  25.026  1.00  0.00    -0.237 OA
ATOM     73  O   UNL A   1      42.458  24.182  26.512  1.00  0.00    -0.744 OA
ENDBRANCH  69  70
ENDBRANCH  48  62
BRANCH  49  74
ATOM     74  C   UNL A   1      39.780  34.416  37.174  1.00  0.00     0.058 A 
ATOM     75  C   UNL A   1      38.950  34.094  38.257  1.00  0.00     0.135 A 
ATOM     76  C   UNL A   1      40.459  35.644  37.210  1.00  0.00     0.135 A 
ATOM     77  F   UNL A   1      38.275  32.934  38.261  1.00  0.00    -0.206 F 
ATOM     78  C   UNL A   1      38.797  34.955  39.338  1.00  0.00     0.059 A 
ATOM     79  C   UNL A   1      40.337  36.514  38.288  1.00  0.00     0.059 A 
ATOM     80  F   UNL A   1      41.275  35.991  36.203  1.00  0.00    -0.206 F 
ATOM     81  C   UNL A   1      39.499  36.162  39.347  1.00  0.00     0.060 A 
BRANCH  81  82
ATOM     82  S   UNL A   1      39.352  37.239  40.789  1.00  0.00     0.124 S 
ATOM     83  O   UNL A   1      40.741  37.626  41.010  1.00  0.00    -0.237 OA
ATOM     84  O   UNL A   1      38.465  38.290  40.300  1.00  0.00    -0.237 OA
ATOM     85  O   UNL A   1      38.770  36.363  41.803  1.00  0.00    -0.744 OA
ENDBRANCH  81  82
ENDBRANCH  49  74
BRANCH  61  86
ATOM     86  C   UNL A   1      43.995  28.965  36.096  1.00  0.00     0.058 A 
ATOM     87  C   UNL A   1      45.297  29.483  36.162  1.00  0.00     0.135 A 
ATOM     88  C   UNL A   1      43.686  27.853  36.897  1.00  0.00     0.135 A 
ATOM     89  F   UNL A   1      45.643  30.538  35.406  1.00  0.00    -0.206 F 
ATOM     90  C   UNL A   1      46.260  28.919  36.990  1.00  0.00     0.059 A 
ATOM     91  C   UNL A   1      44.630  27.286  37.747  1.00  0.00     0.059 A 
ATOM     92  F   UNL A   1      42.454  27.324  36.872  1.00  0.00    -0.206 F 
ATOM     93  C   UNL A   1      45.916  27.823  37.784  1.00  0.00     0.060 A 
BRANCH  93  94
ATOM     94  S   UNL A   1      47.159  27.136  38.899  1.00  0.00     0.124 S 
ATOM     95  O   UNL A   1      46.491  27.250  40.190  1.00  0.00    -0.237 OA
ATOM     96  O   UNL A   1      47.325  25.780  38.388  1.00  0.00    -0.237 OA
ATOM     97  O   UNL A   1      48.309  28.016  38.707  1.00  0.00    -0.744 OA
ENDBRANCH  93  94
ENDBRANCH  61  86
ENDBRANCH  35  36
ENDBRANCH  27  30
ENDBRANCH  25  26
ENDBRANCH  24  25
ENDBRANCH   1  24
TORSDOF 18
ENDMDL
MODEL 2
REMARK VINA RESULT:     -11.2      3.400      7.697
REMARK SMILES CC(C)(C[NH2+]Cc1ccc2c(c1)OCO2)C(=O)NCCCCNC(=O)c1ccc(-c2c3nc(c(-c4c(F)cc(S(=O)(=O)[O-])cc4F)c4ccc([nH]4)c(-c4c(F)cc(S(=O)(=O)[O-])cc4F)c4nc(c(-c5c(F)cc(S(=O)(=O)[O-])cc5F)c5ccc2[nH]5)C=C4)C=C3)cc1
REMARK SMILES IDX 20 1 19 2 18 3 16 4 17 5 2 7 1 8 3 9 4 10 5 11 6 14 7 15
REMARK SMILES IDX 8 16 12 17 9 18 11 19 10 20 13 21 15 22 14 23 21 24 22 25
REMARK SMILES IDX 23 26 24 27 25 29 26 30 27 31 91 32 28 33 90 34 29 35 30 36
REMARK SMILES IDX 31 37 84 38 32 39 89 40 83 41 85 42 33 43 88 44 82 45 81 46
REMARK SMILES IDX 34 48 68 49 47 50 67 51 48 52 51 53 66 54 86 55 49 56 50 57
REMARK SMILES IDX 65 59 87 60 52 61 35 62 36 63 45 64 37 65 38 66 44 67 46 68
REMARK SMILES IDX 39 69 40 70 41 71 42 72 43 73 69 74 70 75 79 76 71 77 72 78
REMARK SMILES IDX 78 79 80 80 73 81 74 82 75 83 76 84 77 85 53 86 54 87 63 88
REMARK SMILES IDX 55 89 56 90 62 91 64 92 57 93 58 94 59 95 60 96 61 97
REMARK H PARENT 18 6 5 12 5 13 23 28 85 47 51 58
REMARK Flexibility Score: inf
ROOT
ATOM      1  C   UNL A   1      34.961  23.036  23.673  1.00  0.00     0.023 C 
ENDROOT
BRANCH   1   2
ATOM      2  C   UNL A   1      34.197  24.247  23.144  1.00  0.00     0.116 C 
BRANCH   2   3
ATOM      3  N   UNL A   1      33.578  25.018  24.203  1.00  0.00    -0.355 N 
ATOM      4  C   UNL A   1      32.342  25.569  24.343  1.00  0.00     0.231 C 
ATOM      5  O   UNL A   1      32.135  26.154  25.413  1.00  0.00    -0.274 OA
ATOM      6  H   UNL A   1      34.171  25.176  24.975  1.00  0.00     0.163 HD
BRANCH   4   7
ATOM      7  C   UNL A   1      31.227  25.426  23.289  1.00  0.00     0.092 C 
ATOM      8  C   UNL A   1      30.726  23.957  23.296  1.00  0.00     0.027 C 
ATOM      9  C   UNL A   1      31.806  25.667  21.880  1.00  0.00     0.027 C 
BRANCH   7  10
ATOM     10  C   UNL A   1      30.022  26.367  23.546  1.00  0.00     0.277 C 
BRANCH  10  11
ATOM     11  N   UNL A   1      30.119  27.669  22.875  1.00  0.00    -0.342 N 
ATOM     12  H   UNL A   1      29.289  27.796  22.296  1.00  0.00     0.346 HD
ATOM     13  H   UNL A   1      30.979  27.660  22.325  1.00  0.00     0.346 HD
BRANCH  11  14
ATOM     14  C   UNL A   1      30.214  28.802  23.802  1.00  0.00     0.297 C 
BRANCH  14  15
ATOM     15  C   UNL A   1      29.671  30.094  23.233  1.00  0.00     0.010 A 
ATOM     16  C   UNL A   1      29.501  31.230  24.058  1.00  0.00     0.013 A 
ATOM     17  C   UNL A   1      29.249  30.140  21.893  1.00  0.00     0.060 A 
ATOM     18  C   UNL A   1      28.878  32.384  23.573  1.00  0.00     0.051 A 
ATOM     19  C   UNL A   1      28.638  31.289  21.445  1.00  0.00     0.166 A 
ATOM     20  C   UNL A   1      28.448  32.377  22.265  1.00  0.00     0.165 A 
ATOM     21  O   UNL A   1      28.133  31.483  20.198  1.00  0.00    -0.454 OA
ATOM     22  O   UNL A   1      27.793  33.390  21.636  1.00  0.00    -0.454 OA
ATOM     23  C   UNL A   1      27.568  32.802  20.339  1.00  0.00     0.468 C 
ENDBRANCH  14  15
ENDBRANCH  11  14
ENDBRANCH  10  11
ENDBRANCH   7  10
ENDBRANCH   4   7
ENDBRANCH   2   3
ENDBRANCH   1   2
BRANCH   1  24
ATOM     24  C   UNL A   1      36.484  23.173  23.651  1.00  0.00     0.023 C 
BRANCH  24  25
ATOM     25  C   UNL A   1      37.143  23.463  24.996  1.00  0.00     0.116 C 
BRANCH  25  26
ATOM     26  N   UNL A   1      38.276  22.594  25.286  1.00  0.00    -0.352 N 
ATOM     27  C   UNL A   1      39.399  22.861  26.033  1.00  0.00     0.251 C 
ATOM     28  H   UNL A   1      38.232  21.692  24.893  1.00  0.00     0.163 HD
ATOM     29  O   UNL A   1      40.307  22.038  26.103  1.00  0.00    -0.269 OA
BRANCH  27  30
ATOM     30  C   UNL A   1      39.521  24.168  26.710  1.00  0.00     0.039 A 
ATOM     31  C   UNL A   1      38.930  24.335  27.965  1.00  0.00     0.014 A 
ATOM     32  C   UNL A   1      40.272  25.198  26.136  1.00  0.00     0.014 A 
ATOM     33  C   UNL A   1      39.178  25.501  28.692  1.00  0.00     0.010 A 
ATOM     34  C   UNL A   1      40.564  26.333  26.886  1.00  0.00     0.010 A 
ATOM     35  C   UNL A   1      40.041  26.482  28.180  1.00  0.00    -0.014 A 
BRANCH  35  36
ATOM     36  C   UNL A   1      40.465  27.645  29.000  1.00  0.00     0.031 A 
ATOM     37  C   UNL A   1      41.745  27.594  29.783  1.00  0.00     0.074 A 
ATOM     38  C   UNL A   1      39.641  28.705  29.114  1.00  0.00     0.049 A 
ATOM     39  N   UNL A   1      42.217  28.454  30.646  1.00  0.00    -0.248 NA
ATOM     40  C   UNL A   1      42.594  26.409  29.585  1.00  0.00     0.031 C 
ATOM     41  C   UNL A   1      38.352  28.853  28.434  1.00  0.00     0.029 A 
ATOM     42  N   UNL A   1      39.753  29.851  29.861  1.00  0.00    -0.354 N 
ATOM     43  C   UNL A   1      43.409  27.913  31.107  1.00  0.00     0.074 A 
ATOM     44  C   UNL A   1      43.569  26.629  30.455  1.00  0.00     0.031 C 
ATOM     45  C   UNL A   1      37.801  30.026  28.784  1.00  0.00     0.029 A 
ATOM     46  C   UNL A   1      38.673  30.693  29.745  1.00  0.00     0.049 A 
ATOM     47  H   UNL A   1      40.534  30.052  30.426  1.00  0.00     0.167 HD
ATOM     48  C   UNL A   1      44.299  28.445  31.979  1.00  0.00     0.037 A 
ATOM     49  C   UNL A   1      38.402  31.861  30.360  1.00  0.00     0.037 A 
ATOM     50  C   UNL A   1      44.143  29.729  32.609  1.00  0.00     0.049 A 
ATOM     51  C   UNL A   1      39.385  32.413  31.353  1.00  0.00     0.074 A 
ATOM     52  C   UNL A   1      45.023  30.389  33.449  1.00  0.00     0.029 A 
ATOM     53  N   UNL A   1      43.029  30.545  32.478  1.00  0.00    -0.354 N 
ATOM     54  N   UNL A   1      40.538  31.917  31.732  1.00  0.00    -0.248 NA
ATOM     55  C   UNL A   1      39.026  33.675  32.014  1.00  0.00     0.031 C 
ATOM     56  C   UNL A   1      44.424  31.586  33.856  1.00  0.00     0.029 A 
ATOM     57  C   UNL A   1      43.185  31.688  33.244  1.00  0.00     0.049 A 
ATOM     58  H   UNL A   1      42.243  30.343  31.920  1.00  0.00     0.167 HD
ATOM     59  C   UNL A   1      41.048  32.810  32.667  1.00  0.00     0.074 A 
ATOM     60  C   UNL A   1      40.083  33.884  32.788  1.00  0.00     0.031 C 
ATOM     61  C   UNL A   1      42.209  32.742  33.363  1.00  0.00     0.037 A 
BRANCH  48  62
ATOM     62  C   UNL A   1      45.519  27.630  32.300  1.00  0.00     0.058 A 
ATOM     63  C   UNL A   1      45.528  26.711  33.362  1.00  0.00     0.135 A 
ATOM     64  C   UNL A   1      46.689  27.761  31.536  1.00  0.00     0.135 A 
ATOM     65  F   UNL A   1      44.440  26.558  34.133  1.00  0.00    -0.206 F 
ATOM     66  C   UNL A   1      46.667  25.978  33.678  1.00  0.00     0.059 A 
ATOM     67  C   UNL A   1      47.833  27.021  31.820  1.00  0.00     0.059 A 
ATOM     68  F   UNL A   1      46.733  28.626  30.509  1.00  0.00    -0.206 F 
ATOM     69  C   UNL A   1      47.817  26.146  32.906  1.00  0.00     0.060 A 
BRANCH  69  70
ATOM     70  S   UNL A   1      49.296  25.205  33.341  1.00  0.00     0.124 S 
ATOM     71  O   UNL A   1      50.056  26.196  34.096  1.00  0.00    -0.237 OA
ATOM     72  O   UNL A   1      48.748  24.100  34.120  1.00  0.00    -0.237 OA
ATOM     73  O   UNL A   1      49.857  24.837  32.045  1.00  0.00    -0.744 OA
ENDBRANCH  69  70
ENDBRANCH  48  62
BRANCH  49  74
ATOM     74  C   UNL A   1      37.146  32.586  30.043  1.00  0.00     0.058 A 
ATOM     75  C   UNL A   1      35.964  32.309  30.744  1.00  0.00     0.135 A 
ATOM     76  C   UNL A   1      37.108  33.592  29.065  1.00  0.00     0.135 A 
ATOM     77  F   UNL A   1      35.951  31.351  31.683  1.00  0.00    -0.206 F 
ATOM     78  C   UNL A   1      34.786  33.005  30.490  1.00  0.00     0.059 A 
ATOM     79  C   UNL A   1      35.948  34.313  28.804  1.00  0.00     0.059 A 
ATOM     80  F   UNL A   1      38.218  33.902  28.375  1.00  0.00    -0.206 F 
ATOM     81  C   UNL A   1      34.789  34.008  29.520  1.00  0.00     0.060 A 
BRANCH  81  82
ATOM     82  S   UNL A   1      33.275  34.955  29.247  1.00  0.00     0.124 S 
ATOM     83  O   UNL A   1      33.807  36.233  28.787  1.00  0.00    -0.237 OA
ATOM     84  O   UNL A   1      32.585  34.151  28.244  1.00  0.00    -0.237 OA
ATOM     85  O   UNL A   1      32.648  34.969  30.566  1.00  0.00    -0.744 OA
ENDBRANCH  81  82
ENDBRANCH  49  74
BRANCH  61  86
ATOM     86  C   UNL A   1      42.503  33.860  34.323  1.00  0.00     0.058 A 
ATOM     87  C   UNL A   1      42.158  33.764  35.679  1.00  0.00     0.135 A 
ATOM     88  C   UNL A   1      43.196  35.005  33.898  1.00  0.00     0.135 A 
ATOM     89  F   UNL A   1      41.485  32.693  36.131  1.00  0.00    -0.206 F 
ATOM     90  C   UNL A   1      42.486  34.768  36.583  1.00  0.00     0.059 A 
ATOM     91  C   UNL A   1      43.550  36.013  34.790  1.00  0.00     0.059 A 
ATOM     92  F   UNL A   1      43.552  35.141  32.612  1.00  0.00    -0.206 F 
ATOM     93  C   UNL A   1      43.187  35.887  36.130  1.00  0.00     0.060 A 
BRANCH  93  94
ATOM     94  S   UNL A   1      43.658  37.157  37.325  1.00  0.00     0.124 S 
ATOM     95  O   UNL A   1      43.877  38.309  36.457  1.00  0.00    -0.237 OA
ATOM     96  O   UNL A   1      42.484  37.227  38.188  1.00  0.00    -0.237 OA
ATOM     97  O   UNL A   1      44.856  36.604  37.951  1.00  0.00    -0.744 OA
ENDBRANCH  93  94
ENDBRANCH  61  86
ENDBRANCH  35  36
ENDBRANCH  27  30
ENDBRANCH  25  26
ENDBRANCH  24  25
ENDBRANCH   1  24
TORSDOF 18
ENDMDL
MODEL 3
REMARK VINA RESULT:     -11.2      3.191      8.518
REMARK SMILES CC(C)(C[NH2+]Cc1ccc2c(c1)OCO2)C(=O)NCCCCNC(=O)c1ccc(-c2c3nc(c(-c4c(F)cc(S(=O)(=O)[O-])cc4F)c4ccc([nH]4)c(-c4c(F)cc(S(=O)(=O)[O-])cc4F)c4nc(c(-c5c(F)cc(S(=O)(=O)[O-])cc5F)c5ccc2[nH]5)C=C4)C=C3)cc1
REMARK SMILES IDX 20 1 19 2 18 3 16 4 17 5 2 7 1 8 3 9 4 10 5 11 6 14 7 15
REMARK SMILES IDX 8 16 12 17 9 18 11 19 10 20 13 21 15 22 14 23 21 24 22 25
REMARK SMILES IDX 23 26 24 27 25 29 26 30 27 31 91 32 28 33 90 34 29 35 30 36
REMARK SMILES IDX 31 37 84 38 32 39 89 40 83 41 85 42 33 43 88 44 82 45 81 46
REMARK SMILES IDX 34 48 68 49 47 50 67 51 48 52 51 53 66 54 86 55 49 56 50 57
REMARK SMILES IDX 65 59 87 60 52 61 35 62 36 63 45 64 37 65 38 66 44 67 46 68
REMARK SMILES IDX 39 69 40 70 41 71 42 72 43 73 69 74 70 75 79 76 71 77 72 78
REMARK SMILES IDX 78 79 80 80 73 81 74 82 75 83 76 84 77 85 53 86 54 87 63 88
REMARK SMILES IDX 55 89 56 90 62 91 64 92 57 93 58 94 59 95 60 96 61 97
REMARK H PARENT 18 6 5 12 5 13 23 28 85 47 51 58
REMARK Flexibility Score: inf
ROOT
ATOM      1  C   UNL A   1      37.393  22.119  24.801  1.00  0.00     0.023 C 
ENDROOT
BRANCH   1   2
ATOM      2  C   UNL A   1      36.439  21.105  25.426  1.00  0.00     0.116 C 
BRANCH   2   3
ATOM      3  N   UNL A   1      35.558  21.705  26.408  1.00  0.00    -0.355 N 
ATOM      4  C   UNL A   1      34.223  21.964  26.413  1.00  0.00     0.231 C 
ATOM      5  O   UNL A   1      33.780  22.474  27.449  1.00  0.00    -0.274 OA
ATOM      6  H   UNL A   1      36.017  21.980  27.235  1.00  0.00     0.163 HD
BRANCH   4   7
ATOM      7  C   UNL A   1      33.283  21.590  25.249  1.00  0.00     0.092 C 
ATOM      8  C   UNL A   1      33.382  20.060  25.007  1.00  0.00     0.027 C 
ATOM      9  C   UNL A   1      33.772  22.256  23.947  1.00  0.00     0.027 C 
BRANCH   7  10
ATOM     10  C   UNL A   1      31.802  21.957  25.521  1.00  0.00     0.277 C 
BRANCH  10  11
ATOM     11  N   UNL A   1      31.423  23.305  25.079  1.00  0.00    -0.342 N 
ATOM     12  H   UNL A   1      30.601  23.230  24.481  1.00  0.00     0.346 HD
ATOM     13  H   UNL A   1      32.227  23.696  24.587  1.00  0.00     0.346 HD
BRANCH  11  14
ATOM     14  C   UNL A   1      31.110  24.219  26.183  1.00  0.00     0.297 C 
BRANCH  14  15
ATOM     15  C   UNL A   1      31.898  25.509  26.140  1.00  0.00     0.010 A 
ATOM     16  C   UNL A   1      33.233  25.523  25.670  1.00  0.00     0.013 A 
ATOM     17  C   UNL A   1      31.330  26.688  26.651  1.00  0.00     0.060 A 
ATOM     18  C   UNL A   1      34.010  26.683  25.750  1.00  0.00     0.051 A 
ATOM     19  C   UNL A   1      32.122  27.813  26.718  1.00  0.00     0.166 A 
ATOM     20  C   UNL A   1      33.428  27.808  26.289  1.00  0.00     0.165 A 
ATOM     21  O   UNL A   1      31.745  29.017  27.225  1.00  0.00    -0.454 OA
ATOM     22  O   UNL A   1      34.039  29.008  26.478  1.00  0.00    -0.454 OA
ATOM     23  C   UNL A   1      32.976  29.757  27.102  1.00  0.00     0.468 C 
ENDBRANCH  14  15
ENDBRANCH  11  14
ENDBRANCH  10  11
ENDBRANCH   7  10
ENDBRANCH   4   7
ENDBRANCH   2   3
ENDBRANCH   1   2
BRANCH   1  24
ATOM     24  C   UNL A   1      37.208  23.560  25.279  1.00  0.00     0.023 C 
BRANCH  24  25
ATOM     25  C   UNL A   1      38.109  23.996  26.430  1.00  0.00     0.116 C 
BRANCH  25  26
ATOM     26  N   UNL A   1      39.526  23.767  26.177  1.00  0.00    -0.352 N 
ATOM     27  C   UNL A   1      40.607  24.509  26.591  1.00  0.00     0.251 C 
ATOM     28  H   UNL A   1      39.738  22.973  25.635  1.00  0.00     0.163 HD
ATOM     29  O   UNL A   1      41.738  24.222  26.211  1.00  0.00    -0.269 OA
BRANCH  27  30
ATOM     30  C   UNL A   1      40.386  25.683  27.460  1.00  0.00     0.039 A 
ATOM     31  C   UNL A   1      39.466  25.584  28.506  1.00  0.00     0.014 A 
ATOM     32  C   UNL A   1      41.134  26.850  27.280  1.00  0.00     0.014 A 
ATOM     33  C   UNL A   1      39.368  26.620  29.437  1.00  0.00     0.010 A 
ATOM     34  C   UNL A   1      41.077  27.856  28.241  1.00  0.00     0.010 A 
ATOM     35  C   UNL A   1      40.213  27.737  29.341  1.00  0.00    -0.014 A 
BRANCH  35  36
ATOM     36  C   UNL A   1      40.260  28.767  30.409  1.00  0.00     0.031 A 
ATOM     37  C   UNL A   1      41.210  28.621  31.562  1.00  0.00     0.074 A 
ATOM     38  C   UNL A   1      39.372  29.780  30.385  1.00  0.00     0.049 A 
ATOM     39  N   UNL A   1      41.309  29.346  32.645  1.00  0.00    -0.248 NA
ATOM     40  C   UNL A   1      42.158  27.497  31.498  1.00  0.00     0.031 C 
ATOM     41  C   UNL A   1      38.373  30.006  29.338  1.00  0.00     0.029 A 
ATOM     42  N   UNL A   1      39.150  30.798  31.278  1.00  0.00    -0.354 N 
ATOM     43  C   UNL A   1      42.318  28.763  33.399  1.00  0.00     0.074 A 
ATOM     44  C   UNL A   1      42.773  27.599  32.668  1.00  0.00     0.031 C 
ATOM     45  C   UNL A   1      37.655  31.100  29.642  1.00  0.00     0.029 A 
ATOM     46  C   UNL A   1      38.112  31.627  30.924  1.00  0.00     0.049 A 
ATOM     47  H   UNL A   1      39.685  30.925  32.095  1.00  0.00     0.167 HD
ATOM     48  C   UNL A   1      42.830  29.171  34.585  1.00  0.00     0.037 A 
ATOM     49  C   UNL A   1      37.572  32.680  31.568  1.00  0.00     0.037 A 
ATOM     50  C   UNL A   1      42.384  30.339  35.298  1.00  0.00     0.049 A 
ATOM     51  C   UNL A   1      38.131  33.091  32.901  1.00  0.00     0.074 A 
ATOM     52  C   UNL A   1      42.889  30.878  36.469  1.00  0.00     0.029 A 
ATOM     53  N   UNL A   1      41.322  31.144  34.915  1.00  0.00    -0.354 N 
ATOM     54  N   UNL A   1      39.126  32.565  33.572  1.00  0.00    -0.248 NA
ATOM     55  C   UNL A   1      37.486  34.228  33.571  1.00  0.00     0.031 C 
ATOM     56  C   UNL A   1      42.107  31.986  36.813  1.00  0.00     0.029 A 
ATOM     57  C   UNL A   1      41.136  32.157  35.840  1.00  0.00     0.049 A 
ATOM     58  H   UNL A   1      40.780  31.015  34.102  1.00  0.00     0.167 HD
ATOM     59  C   UNL A   1      39.235  33.312  34.739  1.00  0.00     0.074 A 
ATOM     60  C   UNL A   1      38.211  34.335  34.676  1.00  0.00     0.031 C 
ATOM     61  C   UNL A   1      40.103  33.161  35.769  1.00  0.00     0.037 A 
BRANCH  48  62
ATOM     62  C   UNL A   1      43.930  28.341  35.182  1.00  0.00     0.058 A 
ATOM     63  C   UNL A   1      45.276  28.556  34.844  1.00  0.00     0.135 A 
ATOM     64  C   UNL A   1      43.641  27.325  36.106  1.00  0.00     0.135 A 
ATOM     65  F   UNL A   1      45.606  29.506  33.954  1.00  0.00    -0.206 F 
ATOM     66  C   UNL A   1      46.293  27.769  35.373  1.00  0.00     0.059 A 
ATOM     67  C   UNL A   1      44.644  26.540  36.666  1.00  0.00     0.059 A 
ATOM     68  F   UNL A   1      42.369  27.078  36.463  1.00  0.00    -0.206 F 
ATOM     69  C   UNL A   1      45.966  26.757  36.277  1.00  0.00     0.060 A 
BRANCH  69  70
ATOM     70  S   UNL A   1      47.293  25.727  36.939  1.00  0.00     0.124 S 
ATOM     71  O   UNL A   1      46.867  25.565  38.326  1.00  0.00    -0.237 OA
ATOM     72  O   UNL A   1      47.208  24.532  36.107  1.00  0.00    -0.237 OA
ATOM     73  O   UNL A   1      48.487  26.542  36.740  1.00  0.00    -0.744 OA
ENDBRANCH  69  70
ENDBRANCH  48  62
BRANCH  49  74
ATOM     74  C   UNL A   1      36.443  33.421  30.951  1.00  0.00     0.058 A 
ATOM     75  C   UNL A   1      36.649  34.236  29.829  1.00  0.00     0.135 A 
ATOM     76  C   UNL A   1      35.134  33.301  31.443  1.00  0.00     0.135 A 
ATOM     77  F   UNL A   1      37.884  34.386  29.328  1.00  0.00    -0.206 F 
ATOM     78  C   UNL A   1      35.597  34.906  29.213  1.00  0.00     0.059 A 
ATOM     79  C   UNL A   1      34.063  33.947  30.835  1.00  0.00     0.059 A 
ATOM     80  F   UNL A   1      34.884  32.522  32.508  1.00  0.00    -0.206 F 
ATOM     81  C   UNL A   1      34.306  34.753  29.721  1.00  0.00     0.060 A 
BRANCH  81  82
ATOM     82  S   UNL A   1      32.937  35.568  28.871  1.00  0.00     0.124 S 
ATOM     83  O   UNL A   1      32.134  36.040  29.994  1.00  0.00    -0.237 OA
ATOM     84  O   UNL A   1      33.624  36.599  28.099  1.00  0.00    -0.237 OA
ATOM     85  O   UNL A   1      32.347  34.493  28.079  1.00  0.00    -0.744 OA
ENDBRANCH  81  82
ENDBRANCH  49  74
BRANCH  61  86
ATOM     86  C   UNL A   1      39.985  34.122  36.917  1.00  0.00     0.058 A 
ATOM     87  C   UNL A   1      40.537  35.409  36.848  1.00  0.00     0.135 A 
ATOM     88  C   UNL A   1      39.257  33.777  38.067  1.00  0.00     0.135 A 
ATOM     89  F   UNL A   1      41.251  35.782  35.774  1.00  0.00    -0.206 F 
ATOM     90  C   UNL A   1      40.375  36.323  37.884  1.00  0.00     0.059 A 
ATOM     91  C   UNL A   1      39.066  34.683  39.106  1.00  0.00     0.059 A 
ATOM     92  F   UNL A   1      38.706  32.559  38.178  1.00  0.00    -0.206 F 
ATOM     93  C   UNL A   1      39.633  35.953  39.007  1.00  0.00     0.060 A 
BRANCH  93  94
ATOM     94  S   UNL A   1      39.381  37.169  40.318  1.00  0.00     0.124 S 
ATOM     95  O   UNL A   1      38.818  38.290  39.574  1.00  0.00    -0.237 OA
ATOM     96  O   UNL A   1      38.461  36.477  41.215  1.00  0.00    -0.237 OA
ATOM     97  O   UNL A   1      40.725  37.378  40.849  1.00  0.00    -0.744 OA
ENDBRANCH  93  94
ENDBRANCH  61  86
ENDBRANCH  35  36
ENDBRANCH  27  30
ENDBRANCH  25  26
ENDBRANCH  24  25
ENDBRANCH   1  24
TORSDOF 18
ENDMDL
