MODEL 1
REMARK VINA RESULT:     -12.4      0.000      0.000
REMARK SMILES Cc1cc(S(=O)(=O)Nc2ccc(F)cc2C(=O)NCCCCNC(=O)c2ccc(-c3c4nc(c(-c5c(F)cc(S(=O)(=O)[O-])cc5F)c5ccc([nH]5)c(-c5c(F)cc(S(=O)(=O)[O-])cc5F)c5nc(c(-c6c(F)cc(S(=O)(=O)[O-])cc6F)c6ccc3[nH]6)C=C5)C=C4)cc2)c(C)s1
REMARK SMILES IDX 20 1 19 2 18 3 16 4 17 5 15 7 9 8 10 9 11 10 14 11 12 12
REMARK SMILES IDX 13 13 8 14 5 16 6 17 7 18 4 19 1 20 2 21 3 22 94 23 92 24
REMARK SMILES IDX 93 25 21 26 22 27 23 28 24 29 25 31 26 32 27 33 91 34 28 35
REMARK SMILES IDX 90 36 29 37 30 38 31 39 84 40 32 41 89 42 83 43 85 44 33 45
REMARK SMILES IDX 88 46 82 47 81 48 34 50 68 51 47 52 67 53 48 54 51 55 66 56
REMARK SMILES IDX 86 57 49 58 50 59 65 61 87 62 52 63 35 64 36 65 45 66 37 67
REMARK SMILES IDX 38 68 44 69 46 70 39 71 40 72 41 73 42 74 43 75 69 76 70 77
REMARK SMILES IDX 79 78 71 79 72 80 78 81 80 82 73 83 74 84 75 85 76 86 77 87
REMARK SMILES IDX 53 88 54 89 63 90 55 91 56 92 62 93 64 94 57 95 58 96 59 97
REMARK SMILES IDX 60 98 61 99
REMARK H PARENT 18 6 8 15 23 30 85 49 51 60
REMARK Flexibility Score: inf
ROOT
ATOM      1  C   UNL A   1      32.906  30.075  27.063  1.00  0.00     0.023 C 
ENDROOT
BRANCH   1   2
ATOM      2  C   UNL A   1      32.168  30.203  25.735  1.00  0.00     0.116 C 
BRANCH   2   3
ATOM      3  N   UNL A   1      32.868  29.694  24.582  1.00  0.00    -0.352 N 
ATOM      4  C   UNL A   1      32.424  29.002  23.486  1.00  0.00     0.253 C 
ATOM      5  O   UNL A   1      33.280  28.725  22.639  1.00  0.00    -0.269 OA
ATOM      6  H   UNL A   1      33.836  29.875  24.583  1.00  0.00     0.163 HD
BRANCH   4   7
ATOM      7  C   UNL A   1      31.023  28.529  23.216  1.00  0.00     0.066 A 
ATOM      8  C   UNL A   1      30.368  27.371  23.693  1.00  0.00     0.062 A 
ATOM      9  C   UNL A   1      28.966  27.272  23.604  1.00  0.00     0.030 A 
ATOM     10  C   UNL A   1      28.230  28.209  22.882  1.00  0.00     0.041 A 
ATOM     11  C   UNL A   1      30.253  29.460  22.485  1.00  0.00     0.055 A 
ATOM     12  C   UNL A   1      28.886  29.280  22.303  1.00  0.00     0.124 A 
ATOM     13  F   UNL A   1      28.192  30.167  21.579  1.00  0.00    -0.207 F 
BRANCH   8  14
ATOM     14  N   UNL A   1      31.071  26.333  24.355  1.00  0.00    -0.279 N 
ATOM     15  H   UNL A   1      31.193  26.395  25.330  1.00  0.00     0.180 HD
BRANCH  14  16
ATOM     16  S   UNL A   1      31.710  24.992  23.543  1.00  0.00     0.263 S 
ATOM     17  O   UNL A   1      32.039  25.452  22.208  1.00  0.00    -0.201 OA
ATOM     18  O   UNL A   1      30.753  23.929  23.751  1.00  0.00    -0.201 OA
BRANCH  16  19
ATOM     19  C   UNL A   1      33.223  24.323  24.108  1.00  0.00     0.101 A 
ATOM     20  C   UNL A   1      36.585  22.801  23.296  1.00  0.00     0.056 C 
ATOM     21  C   UNL A   1      35.337  23.344  23.905  1.00  0.00     0.003 A 
ATOM     22  C   UNL A   1      34.441  24.243  23.364  1.00  0.00     0.037 A 
ATOM     23  S   UNL A   1      34.846  22.839  25.453  1.00  0.00    -0.145 S 
ATOM     24  C   UNL A   1      33.358  23.691  25.339  1.00  0.00     0.022 A 
ATOM     25  C   UNL A   1      32.419  23.600  26.498  1.00  0.00     0.058 C 
ENDBRANCH  16  19
ENDBRANCH  14  16
ENDBRANCH   8  14
ENDBRANCH   4   7
ENDBRANCH   2   3
ENDBRANCH   1   2
BRANCH   1  26
ATOM     26  C   UNL A   1      34.212  29.281  27.060  1.00  0.00     0.023 C 
BRANCH  26  27
ATOM     27  C   UNL A   1      35.423  29.903  27.751  1.00  0.00     0.116 C 
BRANCH  27  28
ATOM     28  N   UNL A   1      35.419  29.813  29.203  1.00  0.00    -0.352 N 
ATOM     29  C   UNL A   1      36.447  29.768  30.119  1.00  0.00     0.251 C 
ATOM     30  H   UNL A   1      34.520  29.778  29.605  1.00  0.00     0.163 HD
ATOM     31  O   UNL A   1      36.178  29.717  31.317  1.00  0.00    -0.269 OA
BRANCH  29  32
ATOM     32  C   UNL A   1      37.866  29.708  29.693  1.00  0.00     0.039 A 
ATOM     33  C   UNL A   1      38.837  29.479  30.674  1.00  0.00     0.014 A 
ATOM     34  C   UNL A   1      38.260  29.856  28.363  1.00  0.00     0.014 A 
ATOM     35  C   UNL A   1      40.171  29.278  30.309  1.00  0.00     0.010 A 
ATOM     36  C   UNL A   1      39.572  29.562  27.987  1.00  0.00     0.010 A 
ATOM     37  C   UNL A   1      40.540  29.248  28.953  1.00  0.00    -0.014 A 
BRANCH  37  38
ATOM     38  C   UNL A   1      41.911  28.840  28.541  1.00  0.00     0.031 A 
ATOM     39  C   UNL A   1      43.041  29.833  28.517  1.00  0.00     0.074 A 
ATOM     40  C   UNL A   1      42.125  27.573  28.125  1.00  0.00     0.049 A 
ATOM     41  N   UNL A   1      44.281  29.661  28.135  1.00  0.00    -0.248 NA
ATOM     42  C   UNL A   1      42.733  31.206  28.945  1.00  0.00     0.031 C 
ATOM     43  C   UNL A   1      41.101  26.528  28.031  1.00  0.00     0.029 A 
ATOM     44  N   UNL A   1      43.272  26.946  27.705  1.00  0.00    -0.354 N 
ATOM     45  C   UNL A   1      44.894  30.901  28.259  1.00  0.00     0.074 A 
ATOM     46  C   UNL A   1      43.878  31.830  28.703  1.00  0.00     0.031 C 
ATOM     47  C   UNL A   1      41.674  25.382  27.632  1.00  0.00     0.029 A 
ATOM     48  C   UNL A   1      43.097  25.614  27.405  1.00  0.00     0.049 A 
ATOM     49  H   UNL A   1      44.138  27.406  27.625  1.00  0.00     0.167 HD
ATOM     50  C   UNL A   1      46.190  31.233  28.047  1.00  0.00     0.037 A 
ATOM     51  C   UNL A   1      43.980  24.680  27.003  1.00  0.00     0.037 A 
ATOM     52  C   UNL A   1      47.213  30.299  27.652  1.00  0.00     0.049 A 
ATOM     53  C   UNL A   1      45.422  25.062  26.820  1.00  0.00     0.074 A 
ATOM     54  C   UNL A   1      48.568  30.528  27.480  1.00  0.00     0.029 A 
ATOM     55  N   UNL A   1      46.998  28.957  27.379  1.00  0.00    -0.354 N 
ATOM     56  N   UNL A   1      45.989  26.232  26.984  1.00  0.00    -0.248 NA
ATOM     57  C   UNL A   1      46.343  23.997  26.397  1.00  0.00     0.031 C 
ATOM     58  C   UNL A   1      49.168  29.329  27.081  1.00  0.00     0.029 A 
ATOM     59  C   UNL A   1      48.192  28.346  27.033  1.00  0.00     0.049 A 
ATOM     60  H   UNL A   1      46.125  28.504  27.424  1.00  0.00     0.167 HD
ATOM     61  C   UNL A   1      47.335  26.045  26.694  1.00  0.00     0.074 A 
ATOM     62  C   UNL A   1      47.500  24.644  26.362  1.00  0.00     0.031 C 
ATOM     63  C   UNL A   1      48.340  26.954  26.696  1.00  0.00     0.037 A 
BRANCH  50  64
ATOM     64  C   UNL A   1      46.587  32.667  28.267  1.00  0.00     0.058 A 
ATOM     65  C   UNL A   1      46.526  33.597  27.218  1.00  0.00     0.135 A 
ATOM     66  C   UNL A   1      47.070  33.109  29.509  1.00  0.00     0.135 A 
ATOM     67  F   UNL A   1      46.068  33.229  26.011  1.00  0.00    -0.206 F 
ATOM     68  C   UNL A   1      46.936  34.916  27.391  1.00  0.00     0.059 A 
ATOM     69  C   UNL A   1      47.464  34.428  29.711  1.00  0.00     0.059 A 
ATOM     70  F   UNL A   1      47.128  32.263  30.550  1.00  0.00    -0.206 F 
ATOM     71  C   UNL A   1      47.405  35.321  28.642  1.00  0.00     0.060 A 
BRANCH  71  72
ATOM     72  S   UNL A   1      47.888  37.046  28.870  1.00  0.00     0.124 S 
ATOM     73  O   UNL A   1      47.110  37.714  27.834  1.00  0.00    -0.237 OA
ATOM     74  O   UNL A   1      47.473  37.305  30.246  1.00  0.00    -0.237 OA
ATOM     75  O   UNL A   1      49.333  37.022  28.658  1.00  0.00    -0.744 OA
ENDBRANCH  71  72
ENDBRANCH  50  64
BRANCH  51  76
ATOM     76  C   UNL A   1      43.529  23.280  26.796  1.00  0.00     0.058 A 
ATOM     77  C   UNL A   1      43.215  22.443  27.877  1.00  0.00     0.135 A 
ATOM     78  C   UNL A   1      43.447  22.740  25.503  1.00  0.00     0.135 A 
ATOM     79  F   UNL A   1      43.288  22.910  29.133  1.00  0.00    -0.206 F 
ATOM     80  C   UNL A   1      42.855  21.114  27.686  1.00  0.00     0.059 A 
ATOM     81  C   UNL A   1      43.071  21.418  25.286  1.00  0.00     0.059 A 
ATOM     82  F   UNL A   1      43.727  23.508  24.439  1.00  0.00    -0.206 F 
ATOM     83  C   UNL A   1      42.795  20.608  26.386  1.00  0.00     0.060 A 
BRANCH  83  84
ATOM     84  S   UNL A   1      42.350  18.873  26.156  1.00  0.00     0.124 S 
ATOM     85  O   UNL A   1      40.946  18.981  25.775  1.00  0.00    -0.237 OA
ATOM     86  O   UNL A   1      43.265  18.458  25.097  1.00  0.00    -0.237 OA
ATOM     87  O   UNL A   1      42.603  18.283  27.466  1.00  0.00    -0.744 OA
ENDBRANCH  83  84
ENDBRANCH  51  76
BRANCH  63  88
ATOM     88  C   UNL A   1      49.711  26.463  26.328  1.00  0.00     0.058 A 
ATOM     89  C   UNL A   1      50.553  25.898  27.297  1.00  0.00     0.135 A 
ATOM     90  C   UNL A   1      50.207  26.598  25.023  1.00  0.00     0.135 A 
ATOM     91  F   UNL A   1      50.127  25.749  28.562  1.00  0.00    -0.206 F 
ATOM     92  C   UNL A   1      51.846  25.490  26.987  1.00  0.00     0.059 A 
ATOM     93  C   UNL A   1      51.489  26.178  24.684  1.00  0.00     0.059 A 
ATOM     94  F   UNL A   1      49.433  27.121  24.058  1.00  0.00    -0.206 F 
ATOM     95  C   UNL A   1      52.306  25.637  25.677  1.00  0.00     0.060 A 
BRANCH  95  96
ATOM     96  S   UNL A   1      53.974  25.073  25.276  1.00  0.00     0.124 S 
ATOM     97  O   UNL A   1      54.643  25.182  26.569  1.00  0.00    -0.237 OA
ATOM     98  O   UNL A   1      53.738  23.715  24.796  1.00  0.00    -0.237 OA
ATOM     99  O   UNL A   1      54.414  26.022  24.257  1.00  0.00    -0.744 OA
ENDBRANCH  95  96
ENDBRANCH  63  88
ENDBRANCH  37  38
ENDBRANCH  29  32
ENDBRANCH  27  28
ENDBRANCH  26  27
ENDBRANCH   1  26
TORSDOF 17
ENDMDL
MODEL 2
REMARK VINA RESULT:     -12.4      6.744     12.254
REMARK SMILES Cc1cc(S(=O)(=O)Nc2ccc(F)cc2C(=O)NCCCCNC(=O)c2ccc(-c3c4nc(c(-c5c(F)cc(S(=O)(=O)[O-])cc5F)c5ccc([nH]5)c(-c5c(F)cc(S(=O)(=O)[O-])cc5F)c5nc(c(-c6c(F)cc(S(=O)(=O)[O-])cc6F)c6ccc3[nH]6)C=C5)C=C4)cc2)c(C)s1
REMARK SMILES IDX 20 1 19 2 18 3 16 4 17 5 15 7 9 8 10 9 11 10 14 11 12 12
REMARK SMILES IDX 13 13 8 14 5 16 6 17 7 18 4 19 1 20 2 21 3 22 94 23 92 24
REMARK SMILES IDX 93 25 21 26 22 27 23 28 24 29 25 31 26 32 27 33 91 34 28 35
REMARK SMILES IDX 90 36 29 37 30 38 31 39 84 40 32 41 89 42 83 43 85 44 33 45
REMARK SMILES IDX 88 46 82 47 81 48 34 50 68 51 47 52 67 53 48 54 51 55 66 56
REMARK SMILES IDX 86 57 49 58 50 59 65 61 87 62 52 63 35 64 36 65 45 66 37 67
REMARK SMILES IDX 38 68 44 69 46 70 39 71 40 72 41 73 42 74 43 75 69 76 70 77
REMARK SMILES IDX 79 78 71 79 72 80 78 81 80 82 73 83 74 84 75 85 76 86 77 87
REMARK SMILES IDX 53 88 54 89 63 90 55 91 56 92 62 93 64 94 57 95 58 96 59 97
REMARK SMILES IDX 60 98 61 99
REMARK H PARENT 18 6 8 15 23 30 85 49 51 60
REMARK Flexibility Score: inf
ROOT
ATOM      1  C   UNL A   1      39.319  21.781  26.189  1.00  0.00     0.023 C 
ENDROOT
BRANCH   1   2
ATOM      2  C   UNL A   1      38.033  22.579  26.006  1.00  0.00     0.116 C 
BRANCH   2   3
ATOM      3  N   UNL A   1      37.741  22.988  24.654  1.00  0.00    -0.352 N 
ATOM      4  C   UNL A   1      36.618  22.834  23.884  1.00  0.00     0.253 C 
ATOM      5  O   UNL A   1      36.668  23.327  22.752  1.00  0.00    -0.269 OA
ATOM      6  H   UNL A   1      38.479  23.461  24.205  1.00  0.00     0.163 HD
BRANCH   4   7
ATOM      7  C   UNL A   1      35.351  22.115  24.256  1.00  0.00     0.066 A 
ATOM      8  C   UNL A   1      34.022  22.592  24.246  1.00  0.00     0.062 A 
ATOM      9  C   UNL A   1      32.949  21.682  24.305  1.00  0.00     0.030 A 
ATOM     10  C   UNL A   1      33.175  20.332  24.565  1.00  0.00     0.041 A 
ATOM     11  C   UNL A   1      35.550  20.743  24.526  1.00  0.00     0.055 A 
ATOM     12  C   UNL A   1      34.475  19.880  24.704  1.00  0.00     0.124 A 
ATOM     13  F   UNL A   1      34.699  18.591  24.987  1.00  0.00    -0.207 F 
BRANCH   8  14
ATOM     14  N   UNL A   1      33.723  23.969  24.079  1.00  0.00    -0.279 N 
ATOM     15  H   UNL A   1      34.112  24.444  23.309  1.00  0.00     0.180 HD
BRANCH  14  16
ATOM     16  S   UNL A   1      32.725  24.828  25.142  1.00  0.00     0.263 S 
ATOM     17  O   UNL A   1      33.052  24.351  26.471  1.00  0.00    -0.201 OA
ATOM     18  O   UNL A   1      31.389  24.691  24.608  1.00  0.00    -0.201 OA
BRANCH  16  19
ATOM     19  C   UNL A   1      32.955  26.556  25.282  1.00  0.00     0.101 A 
ATOM     20  C   UNL A   1      32.417  29.738  27.248  1.00  0.00     0.056 C 
ATOM     21  C   UNL A   1      32.750  28.668  26.264  1.00  0.00     0.003 A 
ATOM     22  C   UNL A   1      32.919  27.318  26.491  1.00  0.00     0.037 A 
ATOM     23  S   UNL A   1      32.948  29.047  24.618  1.00  0.00    -0.145 S 
ATOM     24  C   UNL A   1      33.096  27.392  24.180  1.00  0.00     0.022 A 
ATOM     25  C   UNL A   1      33.291  27.075  22.732  1.00  0.00     0.058 C 
ENDBRANCH  16  19
ENDBRANCH  14  16
ENDBRANCH   8  14
ENDBRANCH   4   7
ENDBRANCH   2   3
ENDBRANCH   1   2
BRANCH   1  26
ATOM     26  C   UNL A   1      40.230  22.184  27.348  1.00  0.00     0.023 C 
BRANCH  26  27
ATOM     27  C   UNL A   1      41.533  22.905  27.009  1.00  0.00     0.116 C 
BRANCH  27  28
ATOM     28  N   UNL A   1      41.422  23.930  25.982  1.00  0.00    -0.352 N 
ATOM     29  C   UNL A   1      41.330  25.301  26.067  1.00  0.00     0.251 C 
ATOM     30  H   UNL A   1      41.411  23.581  25.061  1.00  0.00     0.163 HD
ATOM     31  O   UNL A   1      41.271  25.961  25.031  1.00  0.00    -0.269 OA
BRANCH  29  32
ATOM     32  C   UNL A   1      41.228  25.996  27.373  1.00  0.00     0.039 A 
ATOM     33  C   UNL A   1      42.306  26.789  27.781  1.00  0.00     0.014 A 
ATOM     34  C   UNL A   1      40.104  25.897  28.192  1.00  0.00     0.014 A 
ATOM     35  C   UNL A   1      42.205  27.570  28.936  1.00  0.00     0.010 A 
ATOM     36  C   UNL A   1      39.965  26.746  29.292  1.00  0.00     0.010 A 
ATOM     37  C   UNL A   1      41.005  27.609  29.665  1.00  0.00    -0.014 A 
BRANCH  37  38
ATOM     38  C   UNL A   1      40.815  28.582  30.776  1.00  0.00     0.031 A 
ATOM     39  C   UNL A   1      41.677  28.529  32.008  1.00  0.00     0.074 A 
ATOM     40  C   UNL A   1      39.813  29.484  30.699  1.00  0.00     0.049 A 
ATOM     41  N   UNL A   1      41.613  29.263  33.091  1.00  0.00    -0.248 NA
ATOM     42  C   UNL A   1      42.725  27.498  32.047  1.00  0.00     0.031 C 
ATOM     43  C   UNL A   1      38.859  29.597  29.592  1.00  0.00     0.029 A 
ATOM     44  N   UNL A   1      39.430  30.479  31.565  1.00  0.00    -0.354 N 
ATOM     45  C   UNL A   1      42.595  28.773  33.943  1.00  0.00     0.074 A 
ATOM     46  C   UNL A   1      43.208  27.646  33.273  1.00  0.00     0.031 C 
ATOM     47  C   UNL A   1      38.036  30.632  29.822  1.00  0.00     0.029 A 
ATOM     48  C   UNL A   1      38.376  31.236  31.106  1.00  0.00     0.049 A 
ATOM     49  H   UNL A   1      39.867  30.636  32.432  1.00  0.00     0.167 HD
ATOM     50  C   UNL A   1      42.971  29.233  35.159  1.00  0.00     0.037 A 
ATOM     51  C   UNL A   1      37.756  32.301  31.650  1.00  0.00     0.037 A 
ATOM     52  C   UNL A   1      42.395  30.385  35.805  1.00  0.00     0.049 A 
ATOM     53  C   UNL A   1      38.222  32.823  32.980  1.00  0.00     0.074 A 
ATOM     54  C   UNL A   1      42.757  30.969  37.007  1.00  0.00     0.029 A 
ATOM     55  N   UNL A   1      41.344  31.135  35.298  1.00  0.00    -0.354 N 
ATOM     56  N   UNL A   1      39.183  32.370  33.749  1.00  0.00    -0.248 NA
ATOM     57  C   UNL A   1      37.521  33.998  33.515  1.00  0.00     0.031 C 
ATOM     58  C   UNL A   1      41.910  32.059  37.238  1.00  0.00     0.029 A 
ATOM     59  C   UNL A   1      41.040  32.171  36.165  1.00  0.00     0.049 A 
ATOM     60  H   UNL A   1      40.883  30.956  34.447  1.00  0.00     0.167 HD
ATOM     61  C   UNL A   1      39.208  33.210  34.856  1.00  0.00     0.074 A 
ATOM     62  C   UNL A   1      38.180  34.209  34.647  1.00  0.00     0.031 C 
ATOM     63  C   UNL A   1      40.008  33.152  35.949  1.00  0.00     0.037 A 
BRANCH  50  64
ATOM     64  C   UNL A   1      44.082  28.508  35.867  1.00  0.00     0.058 A 
ATOM     65  C   UNL A   1      45.423  28.850  35.638  1.00  0.00     0.135 A 
ATOM     66  C   UNL A   1      43.817  27.441  36.741  1.00  0.00     0.135 A 
ATOM     67  F   UNL A   1      45.733  29.865  34.815  1.00  0.00    -0.206 F 
ATOM     68  C   UNL A   1      46.465  28.157  36.247  1.00  0.00     0.059 A 
ATOM     69  C   UNL A   1      44.842  26.748  37.378  1.00  0.00     0.059 A 
ATOM     70  F   UNL A   1      42.550  27.088  37.010  1.00  0.00    -0.206 F 
ATOM     71  C   UNL A   1      46.163  27.106  37.115  1.00  0.00     0.060 A 
BRANCH  71  72
ATOM     72  S   UNL A   1      47.520  26.244  37.938  1.00  0.00     0.124 S 
ATOM     73  O   UNL A   1      48.674  27.025  37.509  1.00  0.00    -0.237 OA
ATOM     74  O   UNL A   1      47.156  26.366  39.347  1.00  0.00    -0.237 OA
ATOM     75  O   UNL A   1      47.437  24.891  37.396  1.00  0.00    -0.744 OA
ENDBRANCH  71  72
ENDBRANCH  50  64
BRANCH  51  76
ATOM     76  C   UNL A   1      36.661  32.975  30.907  1.00  0.00     0.058 A 
ATOM     77  C   UNL A   1      36.924  33.828  29.825  1.00  0.00     0.135 A 
ATOM     78  C   UNL A   1      35.324  32.808  31.300  1.00  0.00     0.135 A 
ATOM     79  F   UNL A   1      38.187  34.028  29.418  1.00  0.00    -0.206 F 
ATOM     80  C   UNL A   1      35.903  34.509  29.172  1.00  0.00     0.059 A 
ATOM     81  C   UNL A   1      34.283  33.464  30.650  1.00  0.00     0.059 A 
ATOM     82  F   UNL A   1      35.025  31.992  32.323  1.00  0.00    -0.206 F 
ATOM     83  C   UNL A   1      34.586  34.327  29.598  1.00  0.00     0.060 A 
BRANCH  83  84
ATOM     84  S   UNL A   1      33.273  35.237  28.755  1.00  0.00     0.124 S 
ATOM     85  O   UNL A   1      32.508  35.755  29.885  1.00  0.00    -0.237 OA
ATOM     86  O   UNL A   1      34.025  36.226  27.991  1.00  0.00    -0.237 OA
ATOM     87  O   UNL A   1      32.606  34.210  27.961  1.00  0.00    -0.744 OA
ENDBRANCH  83  84
ENDBRANCH  51  76
BRANCH  63  88
ATOM     88  C   UNL A   1      39.804  34.200  37.006  1.00  0.00     0.058 A 
ATOM     89  C   UNL A   1      40.478  35.428  36.936  1.00  0.00     0.135 A 
ATOM     90  C   UNL A   1      38.974  33.965  38.113  1.00  0.00     0.135 A 
ATOM     91  F   UNL A   1      41.285  35.700  35.899  1.00  0.00    -0.206 F 
ATOM     92  C   UNL A   1      40.344  36.386  37.935  1.00  0.00     0.059 A 
ATOM     93  C   UNL A   1      38.809  34.918  39.114  1.00  0.00     0.059 A 
ATOM     94  F   UNL A   1      38.298  32.810  38.216  1.00  0.00    -0.206 F 
ATOM     95  C   UNL A   1      39.510  36.121  39.022  1.00  0.00     0.060 A 
BRANCH  95  96
ATOM     96  S   UNL A   1      39.317  37.386  40.296  1.00  0.00     0.124 S 
ATOM     97  O   UNL A   1      40.601  38.076  40.226  1.00  0.00    -0.237 OA
ATOM     98  O   UNL A   1      38.163  38.141  39.814  1.00  0.00    -0.237 OA
ATOM     99  O   UNL A   1      39.084  36.608  41.509  1.00  0.00    -0.744 OA
ENDBRANCH  95  96
ENDBRANCH  63  88
ENDBRANCH  37  38
ENDBRANCH  29  32
ENDBRANCH  27  28
ENDBRANCH  26  27
ENDBRANCH   1  26
TORSDOF 17
ENDMDL
MODEL 3
REMARK VINA RESULT:     -12.2      6.949     12.150
REMARK SMILES Cc1cc(S(=O)(=O)Nc2ccc(F)cc2C(=O)NCCCCNC(=O)c2ccc(-c3c4nc(c(-c5c(F)cc(S(=O)(=O)[O-])cc5F)c5ccc([nH]5)c(-c5c(F)cc(S(=O)(=O)[O-])cc5F)c5nc(c(-c6c(F)cc(S(=O)(=O)[O-])cc6F)c6ccc3[nH]6)C=C5)C=C4)cc2)c(C)s1
REMARK SMILES IDX 20 1 19 2 18 3 16 4 17 5 15 7 9 8 10 9 11 10 14 11 12 12
REMARK SMILES IDX 13 13 8 14 5 16 6 17 7 18 4 19 1 20 2 21 3 22 94 23 92 24
REMARK SMILES IDX 93 25 21 26 22 27 23 28 24 29 25 31 26 32 27 33 91 34 28 35
REMARK SMILES IDX 90 36 29 37 30 38 31 39 84 40 32 41 89 42 83 43 85 44 33 45
REMARK SMILES IDX 88 46 82 47 81 48 34 50 68 51 47 52 67 53 48 54 51 55 66 56
REMARK SMILES IDX 86 57 49 58 50 59 65 61 87 62 52 63 35 64 36 65 45 66 37 67
REMARK SMILES IDX 38 68 44 69 46 70 39 71 40 72 41 73 42 74 43 75 69 76 70 77
REMARK SMILES IDX 79 78 71 79 72 80 78 81 80 82 73 83 74 84 75 85 76 86 77 87
REMARK SMILES IDX 53 88 54 89 63 90 55 91 56 92 62 93 64 94 57 95 58 96 59 97
REMARK SMILES IDX 60 98 61 99
REMARK H PARENT 18 6 8 15 23 30 85 49 51 60
REMARK Flexibility Score: inf
ROOT
ATOM      1  C   UNL A   1      38.798  22.998  26.400  1.00  0.00     0.023 C 
ENDROOT
BRANCH   1   2
ATOM      2  C   UNL A   1      37.691  22.101  25.858  1.00  0.00     0.116 C 
BRANCH   2   3
ATOM      3  N   UNL A   1      37.343  22.307  24.475  1.00  0.00    -0.352 N 
ATOM      4  C   UNL A   1      36.243  22.881  23.892  1.00  0.00     0.253 C 
ATOM      5  O   UNL A   1      36.251  22.933  22.658  1.00  0.00    -0.269 OA
ATOM      6  H   UNL A   1      38.015  21.977  23.834  1.00  0.00     0.163 HD
BRANCH   4   7
ATOM      7  C   UNL A   1      35.027  23.427  24.587  1.00  0.00     0.066 A 
ATOM      8  C   UNL A   1      34.126  22.767  25.453  1.00  0.00     0.062 A 
ATOM      9  C   UNL A   1      33.253  23.520  26.262  1.00  0.00     0.030 A 
ATOM     10  C   UNL A   1      33.128  24.896  26.086  1.00  0.00     0.041 A 
ATOM     11  C   UNL A   1      34.874  24.821  24.426  1.00  0.00     0.055 A 
ATOM     12  C   UNL A   1      33.920  25.530  25.146  1.00  0.00     0.124 A 
ATOM     13  F   UNL A   1      33.781  26.847  24.946  1.00  0.00    -0.207 F 
BRANCH   8  14
ATOM     14  N   UNL A   1      34.137  21.358  25.611  1.00  0.00    -0.279 N 
ATOM     15  H   UNL A   1      34.780  20.960  26.241  1.00  0.00     0.180 HD
BRANCH  14  16
ATOM     16  S   UNL A   1      33.090  20.331  24.764  1.00  0.00     0.263 S 
ATOM     17  O   UNL A   1      33.198  20.711  23.370  1.00  0.00    -0.201 OA
ATOM     18  O   UNL A   1      31.829  20.410  25.465  1.00  0.00    -0.201 OA
BRANCH  16  19
ATOM     19  C   UNL A   1      33.455  18.621  24.730  1.00  0.00     0.101 A 
ATOM     20  C   UNL A   1      32.427  15.082  25.567  1.00  0.00     0.056 C 
ATOM     21  C   UNL A   1      33.092  16.348  25.144  1.00  0.00     0.003 A 
ATOM     22  C   UNL A   1      32.508  17.554  24.814  1.00  0.00     0.037 A 
ATOM     23  S   UNL A   1      34.788  16.437  25.046  1.00  0.00    -0.145 S 
ATOM     24  C   UNL A   1      34.753  18.124  24.723  1.00  0.00     0.022 A 
ATOM     25  C   UNL A   1      36.064  18.820  24.540  1.00  0.00     0.058 C 
ENDBRANCH  16  19
ENDBRANCH  14  16
ENDBRANCH   8  14
ENDBRANCH   4   7
ENDBRANCH   2   3
ENDBRANCH   1   2
BRANCH   1  26
ATOM     26  C   UNL A   1      40.100  22.320  26.824  1.00  0.00     0.023 C 
BRANCH  26  27
ATOM     27  C   UNL A   1      41.370  23.167  26.836  1.00  0.00     0.116 C 
BRANCH  27  28
ATOM     28  N   UNL A   1      41.408  24.236  25.851  1.00  0.00    -0.352 N 
ATOM     29  C   UNL A   1      41.451  25.606  25.991  1.00  0.00     0.251 C 
ATOM     30  H   UNL A   1      41.401  23.926  24.916  1.00  0.00     0.163 HD
ATOM     31  O   UNL A   1      41.504  26.308  24.982  1.00  0.00    -0.269 OA
BRANCH  29  32
ATOM     32  C   UNL A   1      41.364  26.256  27.321  1.00  0.00     0.039 A 
ATOM     33  C   UNL A   1      42.432  27.061  27.730  1.00  0.00     0.014 A 
ATOM     34  C   UNL A   1      40.261  26.105  28.161  1.00  0.00     0.014 A 
ATOM     35  C   UNL A   1      42.341  27.803  28.911  1.00  0.00     0.010 A 
ATOM     36  C   UNL A   1      40.128  26.915  29.290  1.00  0.00     0.010 A 
ATOM     37  C   UNL A   1      41.157  27.791  29.668  1.00  0.00    -0.014 A 
BRANCH  37  38
ATOM     38  C   UNL A   1      40.970  28.723  30.814  1.00  0.00     0.031 A 
ATOM     39  C   UNL A   1      41.841  28.631  32.037  1.00  0.00     0.074 A 
ATOM     40  C   UNL A   1      39.964  29.622  30.775  1.00  0.00     0.049 A 
ATOM     41  N   UNL A   1      41.782  29.327  33.145  1.00  0.00    -0.248 NA
ATOM     42  C   UNL A   1      42.895  27.605  32.032  1.00  0.00     0.031 C 
ATOM     43  C   UNL A   1      39.001  29.769  29.680  1.00  0.00     0.029 A 
ATOM     44  N   UNL A   1      39.582  30.584  31.678  1.00  0.00    -0.354 N 
ATOM     45  C   UNL A   1      42.773  28.812  33.972  1.00  0.00     0.074 A 
ATOM     46  C   UNL A   1      43.386  27.713  33.259  1.00  0.00     0.031 C 
ATOM     47  C   UNL A   1      38.174  30.791  29.951  1.00  0.00     0.029 A 
ATOM     48  C   UNL A   1      38.521  31.351  31.254  1.00  0.00     0.049 A 
ATOM     49  H   UNL A   1      40.025  30.713  32.547  1.00  0.00     0.167 HD
ATOM     50  C   UNL A   1      43.155  29.232  35.201  1.00  0.00     0.037 A 
ATOM     51  C   UNL A   1      37.900  32.393  31.839  1.00  0.00     0.037 A 
ATOM     52  C   UNL A   1      42.578  30.357  35.891  1.00  0.00     0.049 A 
ATOM     53  C   UNL A   1      38.373  32.871  33.183  1.00  0.00     0.074 A 
ATOM     54  C   UNL A   1      42.946  30.901  37.110  1.00  0.00     0.029 A 
ATOM     55  N   UNL A   1      41.520  31.119  35.418  1.00  0.00    -0.354 N 
ATOM     56  N   UNL A   1      39.341  32.397  33.929  1.00  0.00    -0.248 NA
ATOM     57  C   UNL A   1      37.670  34.023  33.764  1.00  0.00     0.031 C 
ATOM     58  C   UNL A   1      42.096  31.977  37.385  1.00  0.00     0.029 A 
ATOM     59  C   UNL A   1      41.218  32.123  36.323  1.00  0.00     0.049 A 
ATOM     60  H   UNL A   1      41.053  30.968  34.564  1.00  0.00     0.167 HD
ATOM     61  C   UNL A   1      39.371  33.197  35.064  1.00  0.00     0.074 A 
ATOM     62  C   UNL A   1      38.336  34.198  34.898  1.00  0.00     0.031 C 
ATOM     63  C   UNL A   1      40.179  33.106  36.148  1.00  0.00     0.037 A 
BRANCH  50  64
ATOM     64  C   UNL A   1      44.275  28.488  35.874  1.00  0.00     0.058 A 
ATOM     65  C   UNL A   1      44.005  27.445  36.773  1.00  0.00     0.135 A 
ATOM     66  C   UNL A   1      45.617  28.838  35.660  1.00  0.00     0.135 A 
ATOM     67  F   UNL A   1      42.739  27.065  37.011  1.00  0.00    -0.206 F 
ATOM     68  C   UNL A   1      45.028  26.778  37.442  1.00  0.00     0.059 A 
ATOM     69  C   UNL A   1      46.657  28.171  36.300  1.00  0.00     0.059 A 
ATOM     70  F   UNL A   1      45.930  29.815  34.793  1.00  0.00    -0.206 F 
ATOM     71  C   UNL A   1      46.351  27.150  37.199  1.00  0.00     0.060 A 
BRANCH  71  72
ATOM     72  S   UNL A   1      47.673  26.246  38.035  1.00  0.00     0.124 S 
ATOM     73  O   UNL A   1      48.835  26.605  37.231  1.00  0.00    -0.237 OA
ATOM     74  O   UNL A   1      47.630  26.811  39.382  1.00  0.00    -0.237 OA
ATOM     75  O   UNL A   1      47.243  24.855  37.938  1.00  0.00    -0.744 OA
ENDBRANCH  71  72
ENDBRANCH  50  64
BRANCH  51  76
ATOM     76  C   UNL A   1      36.796  33.087  31.128  1.00  0.00     0.058 A 
ATOM     77  C   UNL A   1      35.452  32.853  31.452  1.00  0.00     0.135 A 
ATOM     78  C   UNL A   1      37.071  33.972  30.073  1.00  0.00     0.135 A 
ATOM     79  F   UNL A   1      35.137  32.007  32.446  1.00  0.00    -0.206 F 
ATOM     80  C   UNL A   1      34.418  33.453  30.743  1.00  0.00     0.059 A 
ATOM     81  C   UNL A   1      36.053  34.600  29.362  1.00  0.00     0.059 A 
ATOM     82  F   UNL A   1      38.343  34.236  29.736  1.00  0.00    -0.206 F 
ATOM     83  C   UNL A   1      34.729  34.319  29.693  1.00  0.00     0.060 A 
BRANCH  83  84
ATOM     84  S   UNL A   1      33.374  35.073  28.766  1.00  0.00     0.124 S 
ATOM     85  O   UNL A   1      34.090  36.042  27.943  1.00  0.00    -0.237 OA
ATOM     86  O   UNL A   1      32.812  33.929  28.056  1.00  0.00    -0.237 OA
ATOM     87  O   UNL A   1      32.526  35.639  29.810  1.00  0.00    -0.744 OA
ENDBRANCH  83  84
ENDBRANCH  51  76
BRANCH  63  88
ATOM     88  C   UNL A   1      39.978  34.114  37.243  1.00  0.00     0.058 A 
ATOM     89  C   UNL A   1      39.044  33.885  38.264  1.00  0.00     0.135 A 
ATOM     90  C   UNL A   1      40.679  35.330  37.251  1.00  0.00     0.135 A 
ATOM     91  F   UNL A   1      38.346  32.739  38.300  1.00  0.00    -0.206 F 
ATOM     92  C   UNL A   1      38.804  34.832  39.254  1.00  0.00     0.059 A 
ATOM     93  C   UNL A   1      40.470  36.284  38.243  1.00  0.00     0.059 A 
ATOM     94  F   UNL A   1      41.592  35.588  36.301  1.00  0.00    -0.206 F 
ATOM     95  C   UNL A   1      39.520  36.031  39.233  1.00  0.00     0.060 A 
BRANCH  95  96
ATOM     96  S   UNL A   1      39.226  37.239  40.541  1.00  0.00     0.124 S 
ATOM     97  O   UNL A   1      40.547  37.840  40.695  1.00  0.00    -0.237 OA
ATOM     98  O   UNL A   1      38.203  38.098  39.950  1.00  0.00    -0.237 OA
ATOM     99  O   UNL A   1      38.772  36.419  41.661  1.00  0.00    -0.744 OA
ENDBRANCH  95  96
ENDBRANCH  63  88
ENDBRANCH  37  38
ENDBRANCH  29  32
ENDBRANCH  27  28
ENDBRANCH  26  27
ENDBRANCH   1  26
TORSDOF 17
ENDMDL
