MODEL 1
REMARK VINA RESULT:     -10.6      0.000      0.000
REMARK SMILES O=C(NCCCCNC(=O)[C@H]1CSC2(CCCCC2)[NH2+]1)c1ccc(-c2c3nc(c(-c4c(F)cc(S(=O)(=O)[O-])cc4F)c4ccc([nH]4)c(-c4c(F)cc(S(=O)(=O)[O-])cc4F)c4nc(c(-c5c(F)cc(S(=O)(=O)[O-])cc5F)c5ccc2[nH]5)C=C4)C=C3)cc1
REMARK SMILES IDX 4 1 3 2 1 3 2 4 21 6 22 7 86 8 23 9 85 10 24 11 25 12 26 13
REMARK SMILES IDX 79 14 27 15 84 16 78 17 80 18 28 19 83 20 77 21 76 22 29 24
REMARK SMILES IDX 63 25 42 26 62 27 43 28 46 29 61 30 81 31 44 32 45 33 60 35
REMARK SMILES IDX 82 36 47 37 30 38 31 39 40 40 32 41 33 42 39 43 41 44 34 45
REMARK SMILES IDX 35 46 36 47 37 48 38 49 64 50 65 51 74 52 66 53 67 54 73 55
REMARK SMILES IDX 75 56 68 57 69 58 70 59 71 60 72 61 48 62 49 63 58 64 50 65
REMARK SMILES IDX 51 66 57 67 59 68 52 69 53 70 54 71 55 72 56 73 5 74 6 75
REMARK SMILES IDX 7 76 8 77 9 78 10 80 11 81 12 82 20 83 13 84 14 85 15 88
REMARK SMILES IDX 19 89 16 90 18 91 17 92
REMARK H PARENT 3 5 80 23 46 34 8 79 20 86 20 87
REMARK Flexibility Score: inf
ROOT
ATOM      1  C   UNL A   1      34.411  32.411  28.164  1.00  0.00     0.116 C 
ENDROOT
BRANCH   1   2
ATOM      2  N   UNL A   1      33.788  31.129  27.863  1.00  0.00    -0.352 N 
ATOM      3  O   UNL A   1      33.770  28.895  27.491  1.00  0.00    -0.269 OA
ATOM      4  C   UNL A   1      34.393  29.891  27.839  1.00  0.00     0.251 C 
ATOM      5  H   UNL A   1      32.826  31.149  27.653  1.00  0.00     0.163 HD
BRANCH   4   6
ATOM      6  C   UNL A   1      35.822  29.804  28.195  1.00  0.00     0.039 A 
ATOM      7  C   UNL A   1      36.798  30.097  27.240  1.00  0.00     0.014 A 
ATOM      8  C   UNL A   1      36.183  29.345  29.463  1.00  0.00     0.014 A 
ATOM      9  C   UNL A   1      38.126  29.791  27.503  1.00  0.00     0.010 A 
ATOM     10  C   UNL A   1      37.529  29.109  29.752  1.00  0.00     0.010 A 
ATOM     11  C   UNL A   1      38.507  29.294  28.761  1.00  0.00    -0.014 A 
BRANCH  11  12
ATOM     12  C   UNL A   1      39.939  29.014  29.023  1.00  0.00     0.031 A 
ATOM     13  C   UNL A   1      40.812  30.017  29.725  1.00  0.00     0.074 A 
ATOM     14  C   UNL A   1      40.436  27.818  28.654  1.00  0.00     0.049 A 
ATOM     15  N   UNL A   1      42.076  29.921  30.049  1.00  0.00    -0.248 NA
ATOM     16  C   UNL A   1      40.192  31.295  30.110  1.00  0.00     0.031 C 
ATOM     17  C   UNL A   1      39.679  26.772  27.960  1.00  0.00     0.029 A 
ATOM     18  N   UNL A   1      41.678  27.269  28.828  1.00  0.00    -0.354 N 
ATOM     19  C   UNL A   1      42.412  31.128  30.651  1.00  0.00     0.074 A 
ATOM     20  C   UNL A   1      41.219  31.949  30.636  1.00  0.00     0.031 C 
ATOM     21  C   UNL A   1      40.457  25.691  27.811  1.00  0.00     0.029 A 
ATOM     22  C   UNL A   1      41.782  25.986  28.344  1.00  0.00     0.049 A 
ATOM     23  H   UNL A   1      42.425  27.746  29.256  1.00  0.00     0.167 HD
ATOM     24  C   UNL A   1      43.604  31.511  31.172  1.00  0.00     0.037 A 
ATOM     25  C   UNL A   1      42.831  25.144  28.320  1.00  0.00     0.037 A 
ATOM     26  C   UNL A   1      44.778  30.676  31.200  1.00  0.00     0.049 A 
ATOM     27  C   UNL A   1      44.137  25.592  28.905  1.00  0.00     0.074 A 
ATOM     28  C   UNL A   1      46.026  30.961  31.728  1.00  0.00     0.029 A 
ATOM     29  N   UNL A   1      44.851  29.392  30.680  1.00  0.00    -0.354 N 
ATOM     30  N   UNL A   1      44.431  26.734  29.478  1.00  0.00    -0.248 NA
ATOM     31  C   UNL A   1      45.254  24.644  28.832  1.00  0.00     0.031 C 
ATOM     32  C   UNL A   1      46.862  29.862  31.499  1.00  0.00     0.029 A 
ATOM     33  C   UNL A   1      46.125  28.877  30.861  1.00  0.00     0.049 A 
ATOM     34  H   UNL A   1      44.107  28.916  30.246  1.00  0.00     0.167 HD
ATOM     35  C   UNL A   1      45.768  26.640  29.842  1.00  0.00     0.074 A 
ATOM     36  C   UNL A   1      46.218  25.322  29.442  1.00  0.00     0.031 C 
ATOM     37  C   UNL A   1      46.554  27.565  30.448  1.00  0.00     0.037 A 
BRANCH  24  38
ATOM     38  C   UNL A   1      43.705  32.901  31.737  1.00  0.00     0.058 A 
ATOM     39  C   UNL A   1      43.496  33.163  33.100  1.00  0.00     0.135 A 
ATOM     40  C   UNL A   1      44.060  33.981  30.911  1.00  0.00     0.135 A 
ATOM     41  F   UNL A   1      43.141  32.170  33.932  1.00  0.00    -0.206 F 
ATOM     42  C   UNL A   1      43.609  34.448  33.620  1.00  0.00     0.059 A 
ATOM     43  C   UNL A   1      44.198  35.272  31.414  1.00  0.00     0.059 A 
ATOM     44  F   UNL A   1      44.272  33.787  29.600  1.00  0.00    -0.206 F 
ATOM     45  C   UNL A   1      43.957  35.498  32.768  1.00  0.00     0.060 A 
BRANCH  45  46
ATOM     46  S   UNL A   1      44.097  37.162  33.454  1.00  0.00     0.124 S 
ATOM     47  O   UNL A   1      44.191  37.969  32.241  1.00  0.00    -0.237 OA
ATOM     48  O   UNL A   1      42.855  37.297  34.209  1.00  0.00    -0.237 OA
ATOM     49  O   UNL A   1      45.312  37.096  34.261  1.00  0.00    -0.744 OA
ENDBRANCH  45  46
ENDBRANCH  24  38
BRANCH  25  50
ATOM     50  C   UNL A   1      42.671  23.796  27.719  1.00  0.00     0.058 A 
ATOM     51  C   UNL A   1      42.789  23.605  26.336  1.00  0.00     0.135 A 
ATOM     52  C   UNL A   1      42.448  22.667  28.522  1.00  0.00     0.135 A 
ATOM     53  F   UNL A   1      43.000  24.655  25.528  1.00  0.00    -0.206 F 
ATOM     54  C   UNL A   1      42.689  22.339  25.766  1.00  0.00     0.059 A 
ATOM     55  C   UNL A   1      42.369  21.390  27.981  1.00  0.00     0.059 A 
ATOM     56  F   UNL A   1      42.348  22.799  29.855  1.00  0.00    -0.206 F 
ATOM     57  C   UNL A   1      42.483  21.237  26.599  1.00  0.00     0.060 A 
BRANCH  57  58
ATOM     58  S   UNL A   1      42.426  19.589  25.864  1.00  0.00     0.124 S 
ATOM     59  O   UNL A   1      43.445  19.696  24.828  1.00  0.00    -0.237 OA
ATOM     60  O   UNL A   1      42.755  18.732  26.999  1.00  0.00    -0.237 OA
ATOM     61  O   UNL A   1      41.049  19.484  25.391  1.00  0.00    -0.744 OA
ENDBRANCH  57  58
ENDBRANCH  25  50
BRANCH  37  62
ATOM     62  C   UNL A   1      47.975  27.168  30.723  1.00  0.00     0.058 A 
ATOM     63  C   UNL A   1      48.341  26.549  31.929  1.00  0.00     0.135 A 
ATOM     64  C   UNL A   1      48.975  27.390  29.765  1.00  0.00     0.135 A 
ATOM     65  F   UNL A   1      47.421  26.324  32.879  1.00  0.00    -0.206 F 
ATOM     66  C   UNL A   1      49.659  26.189  32.186  1.00  0.00     0.059 A 
ATOM     67  C   UNL A   1      50.296  27.018  29.993  1.00  0.00     0.059 A 
ATOM     68  F   UNL A   1      48.673  27.973  28.593  1.00  0.00    -0.206 F 
ATOM     69  C   UNL A   1      50.630  26.431  31.213  1.00  0.00     0.060 A 
BRANCH  69  70
ATOM     70  S   UNL A   1      52.337  25.946  31.547  1.00  0.00     0.124 S 
ATOM     71  O   UNL A   1      52.166  24.568  31.994  1.00  0.00    -0.237 OA
ATOM     72  O   UNL A   1      52.974  26.115  30.244  1.00  0.00    -0.237 OA
ATOM     73  O   UNL A   1      52.763  26.893  32.573  1.00  0.00    -0.744 OA
ENDBRANCH  69  70
ENDBRANCH  37  62
ENDBRANCH  11  12
ENDBRANCH   4   6
ENDBRANCH   1   2
BRANCH   1  74
ATOM     74  C   UNL A   1      33.431  33.572  28.279  1.00  0.00     0.023 C 
BRANCH  74  75
ATOM     75  C   UNL A   1      34.066  34.955  28.433  1.00  0.00     0.023 C 
BRANCH  75  76
ATOM     76  C   UNL A   1      33.280  35.925  29.313  1.00  0.00     0.116 C 
BRANCH  76  77
ATOM     77  N   UNL A   1      32.686  35.287  30.469  1.00  0.00    -0.351 N 
ATOM     78  C   UNL A   1      32.961  35.363  31.793  1.00  0.00     0.279 C 
ATOM     79  H   UNL A   1      31.939  34.683  30.251  1.00  0.00     0.163 HD
ATOM     80  O   UNL A   1      32.111  34.865  32.550  1.00  0.00    -0.268 OA
BRANCH  78  81
ATOM     81  C   UNL A   1      34.256  35.950  32.426  1.00  0.00     0.283 C 
ATOM     82  C   UNL A   1      34.544  35.884  33.909  1.00  0.00     0.151 C 
ATOM     83  N   UNL A   1      35.439  35.321  31.757  1.00  0.00    -0.322 N 
ATOM     84  S   UNL A   1      35.094  34.192  34.153  1.00  0.00    -0.089 SA
ATOM     85  C   UNL A   1      35.843  34.101  32.484  1.00  0.00     0.143 C 
ATOM     86  H   UNL A   1      36.214  35.983  31.752  1.00  0.00     0.348 HD
ATOM     87  H   UNL A   1      35.189  35.072  30.800  1.00  0.00     0.348 HD
ATOM     88  C   UNL A   1      35.416  32.822  31.737  1.00  0.00     0.081 C 
ATOM     89  C   UNL A   1      37.377  34.130  32.643  1.00  0.00     0.081 C 
ATOM     90  C   UNL A   1      35.982  31.538  32.354  1.00  0.00     0.007 C 
ATOM     91  C   UNL A   1      37.936  32.860  33.292  1.00  0.00     0.007 C 
ATOM     92  C   UNL A   1      37.496  31.606  32.542  1.00  0.00     0.001 C 
ENDBRANCH  78  81
ENDBRANCH  76  77
ENDBRANCH  75  76
ENDBRANCH  74  75
ENDBRANCH   1  74
TORSDOF 14
ENDMDL
MODEL 2
REMARK VINA RESULT:     -10.6      0.579      8.611
REMARK SMILES O=C(NCCCCNC(=O)[C@H]1CSC2(CCCCC2)[NH2+]1)c1ccc(-c2c3nc(c(-c4c(F)cc(S(=O)(=O)[O-])cc4F)c4ccc([nH]4)c(-c4c(F)cc(S(=O)(=O)[O-])cc4F)c4nc(c(-c5c(F)cc(S(=O)(=O)[O-])cc5F)c5ccc2[nH]5)C=C4)C=C3)cc1
REMARK SMILES IDX 4 1 3 2 1 3 2 4 21 6 22 7 86 8 23 9 85 10 24 11 25 12 26 13
REMARK SMILES IDX 79 14 27 15 84 16 78 17 80 18 28 19 83 20 77 21 76 22 29 24
REMARK SMILES IDX 63 25 42 26 62 27 43 28 46 29 61 30 81 31 44 32 45 33 60 35
REMARK SMILES IDX 82 36 47 37 30 38 31 39 40 40 32 41 33 42 39 43 41 44 34 45
REMARK SMILES IDX 35 46 36 47 37 48 38 49 64 50 65 51 74 52 66 53 67 54 73 55
REMARK SMILES IDX 75 56 68 57 69 58 70 59 71 60 72 61 48 62 49 63 58 64 50 65
REMARK SMILES IDX 51 66 57 67 59 68 52 69 53 70 54 71 55 72 56 73 5 74 6 75
REMARK SMILES IDX 7 76 8 77 9 78 10 80 11 81 12 82 20 83 13 84 14 85 15 88
REMARK SMILES IDX 19 89 16 90 18 91 17 92
REMARK H PARENT 3 5 80 23 46 34 8 79 20 86 20 87
REMARK Flexibility Score: inf
ROOT
ATOM      1  C   UNL A   1      34.509  32.387  28.170  1.00  0.00     0.116 C 
ENDROOT
BRANCH   1   2
ATOM      2  N   UNL A   1      33.868  31.103  27.922  1.00  0.00    -0.352 N 
ATOM      3  O   UNL A   1      33.822  28.858  27.622  1.00  0.00    -0.269 OA
ATOM      4  C   UNL A   1      34.461  29.859  27.926  1.00  0.00     0.251 C 
ATOM      5  H   UNL A   1      32.902  31.126  27.732  1.00  0.00     0.163 HD
BRANCH   4   6
ATOM      6  C   UNL A   1      35.897  29.769  28.255  1.00  0.00     0.039 A 
ATOM      7  C   UNL A   1      36.855  30.050  27.278  1.00  0.00     0.014 A 
ATOM      8  C   UNL A   1      36.281  29.320  29.520  1.00  0.00     0.014 A 
ATOM      9  C   UNL A   1      38.187  29.740  27.518  1.00  0.00     0.010 A 
ATOM     10  C   UNL A   1      37.632  29.081  29.785  1.00  0.00     0.010 A 
ATOM     11  C   UNL A   1      38.590  29.253  28.773  1.00  0.00    -0.014 A 
BRANCH  11  12
ATOM     12  C   UNL A   1      40.026  28.970  29.010  1.00  0.00     0.031 A 
ATOM     13  C   UNL A   1      40.635  27.653  28.617  1.00  0.00     0.074 A 
ATOM     14  C   UNL A   1      40.789  29.941  29.549  1.00  0.00     0.049 A 
ATOM     15  N   UNL A   1      41.876  27.254  28.736  1.00  0.00    -0.248 NA
ATOM     16  C   UNL A   1      39.739  26.650  28.020  1.00  0.00     0.031 C 
ATOM     17  C   UNL A   1      40.300  31.255  29.974  1.00  0.00     0.029 A 
ATOM     18  N   UNL A   1      42.132  29.986  29.811  1.00  0.00    -0.354 N 
ATOM     19  C   UNL A   1      41.909  25.951  28.253  1.00  0.00     0.074 A 
ATOM     20  C   UNL A   1      40.558  25.619  27.853  1.00  0.00     0.031 C 
ATOM     21  C   UNL A   1      41.335  31.994  30.397  1.00  0.00     0.029 A 
ATOM     22  C   UNL A   1      42.548  31.189  30.329  1.00  0.00     0.049 A 
ATOM     23  H   UNL A   1      42.741  29.230  29.646  1.00  0.00     0.167 HD
ATOM     24  C   UNL A   1      42.970  25.113  28.152  1.00  0.00     0.037 A 
ATOM     25  C   UNL A   1      43.770  31.597  30.720  1.00  0.00     0.037 A 
ATOM     26  C   UNL A   1      44.314  25.463  28.535  1.00  0.00     0.049 A 
ATOM     27  C   UNL A   1      44.926  30.650  30.595  1.00  0.00     0.074 A 
ATOM     28  C   UNL A   1      45.463  24.695  28.446  1.00  0.00     0.029 A 
ATOM     29  N   UNL A   1      44.693  26.683  29.077  1.00  0.00    -0.354 N 
ATOM     30  N   UNL A   1      44.938  29.426  30.127  1.00  0.00    -0.248 NA
ATOM     31  C   UNL A   1      46.232  31.137  31.056  1.00  0.00     0.031 C 
ATOM     32  C   UNL A   1      46.530  25.439  28.965  1.00  0.00     0.029 A 
ATOM     33  C   UNL A   1      46.054  26.684  29.343  1.00  0.00     0.049 A 
ATOM     34  H   UNL A   1      44.084  27.437  29.249  1.00  0.00     0.167 HD
ATOM     35  C   UNL A   1      46.254  28.994  30.232  1.00  0.00     0.074 A 
ATOM     36  C   UNL A   1      47.012  30.098  30.788  1.00  0.00     0.031 C 
ATOM     37  C   UNL A   1      46.786  27.791  29.903  1.00  0.00     0.037 A 
BRANCH  24  38
ATOM     38  C   UNL A   1      42.719  23.728  27.623  1.00  0.00     0.058 A 
ATOM     39  C   UNL A   1      42.769  23.440  26.250  1.00  0.00     0.135 A 
ATOM     40  C   UNL A   1      42.466  22.664  28.505  1.00  0.00     0.135 A 
ATOM     41  F   UNL A   1      42.992  24.421  25.361  1.00  0.00    -0.206 F 
ATOM     42  C   UNL A   1      42.553  22.152  25.768  1.00  0.00     0.059 A 
ATOM     43  C   UNL A   1      42.268  21.364  28.047  1.00  0.00     0.059 A 
ATOM     44  F   UNL A   1      42.408  22.884  29.828  1.00  0.00    -0.206 F 
ATOM     45  C   UNL A   1      42.299  21.121  26.674  1.00  0.00     0.060 A 
BRANCH  45  46
ATOM     46  S   UNL A   1      42.018  19.455  26.036  1.00  0.00     0.124 S 
ATOM     47  O   UNL A   1      42.908  19.434  24.881  1.00  0.00    -0.237 OA
ATOM     48  O   UNL A   1      42.420  18.616  27.160  1.00  0.00    -0.237 OA
ATOM     49  O   UNL A   1      40.590  19.445  25.731  1.00  0.00    -0.744 OA
ENDBRANCH  45  46
ENDBRANCH  24  38
BRANCH  25  50
ATOM     50  C   UNL A   1      43.943  32.967  31.263  1.00  0.00     0.058 A 
ATOM     51  C   UNL A   1      43.891  33.209  32.643  1.00  0.00     0.135 A 
ATOM     52  C   UNL A   1      44.214  34.052  30.415  1.00  0.00     0.135 A 
ATOM     53  F   UNL A   1      43.633  32.202  33.491  1.00  0.00    -0.206 F 
ATOM     54  C   UNL A   1      44.100  34.481  33.165  1.00  0.00     0.059 A 
ATOM     55  C   UNL A   1      44.451  35.328  30.914  1.00  0.00     0.059 A 
ATOM     56  F   UNL A   1      44.293  33.865  29.088  1.00  0.00    -0.206 F 
ATOM     57  C   UNL A   1      44.384  35.533  32.292  1.00  0.00     0.060 A 
BRANCH  57  58
ATOM     58  S   UNL A   1      44.725  37.167  32.980  1.00  0.00     0.124 S 
ATOM     59  O   UNL A   1      44.349  36.981  34.375  1.00  0.00    -0.237 OA
ATOM     60  O   UNL A   1      46.153  37.322  32.717  1.00  0.00    -0.237 OA
ATOM     61  O   UNL A   1      43.857  38.044  32.200  1.00  0.00    -0.744 OA
ENDBRANCH  57  58
ENDBRANCH  25  50
BRANCH  37  62
ATOM     62  C   UNL A   1      48.260  27.620  30.126  1.00  0.00     0.058 A 
ATOM     63  C   UNL A   1      49.196  27.992  29.148  1.00  0.00     0.135 A 
ATOM     64  C   UNL A   1      48.743  27.098  31.336  1.00  0.00     0.135 A 
ATOM     65  F   UNL A   1      48.782  28.487  27.972  1.00  0.00    -0.206 F 
ATOM     66  C   UNL A   1      50.561  27.826  29.352  1.00  0.00     0.059 A 
ATOM     67  C   UNL A   1      50.105  26.944  31.570  1.00  0.00     0.059 A 
ATOM     68  F   UNL A   1      47.887  26.735  32.305  1.00  0.00    -0.206 F 
ATOM     69  C   UNL A   1      51.006  27.298  30.565  1.00  0.00     0.060 A 
BRANCH  69  70
ATOM     70  S   UNL A   1      52.781  27.100  30.830  1.00  0.00     0.124 S 
ATOM     71  O   UNL A   1      53.242  26.769  29.486  1.00  0.00    -0.237 OA
ATOM     72  O   UNL A   1      53.174  28.416  31.328  1.00  0.00    -0.237 OA
ATOM     73  O   UNL A   1      52.859  26.019  31.808  1.00  0.00    -0.744 OA
ENDBRANCH  69  70
ENDBRANCH  37  62
ENDBRANCH  11  12
ENDBRANCH   4   6
ENDBRANCH   1   2
BRANCH   1  74
ATOM     74  C   UNL A   1      33.544  33.564  28.251  1.00  0.00     0.023 C 
BRANCH  74  75
ATOM     75  C   UNL A   1      34.189  34.925  28.514  1.00  0.00     0.023 C 
BRANCH  75  76
ATOM     76  C   UNL A   1      33.316  35.905  29.296  1.00  0.00     0.116 C 
BRANCH  76  77
ATOM     77  N   UNL A   1      32.676  35.301  30.446  1.00  0.00    -0.351 N 
ATOM     78  C   UNL A   1      32.910  35.402  31.777  1.00  0.00     0.279 C 
ATOM     79  H   UNL A   1      31.927  34.703  30.218  1.00  0.00     0.163 HD
ATOM     80  O   UNL A   1      32.029  34.933  32.516  1.00  0.00    -0.268 OA
BRANCH  78  81
ATOM     81  C   UNL A   1      34.193  35.984  32.438  1.00  0.00     0.283 C 
ATOM     82  C   UNL A   1      34.474  35.869  33.919  1.00  0.00     0.151 C 
ATOM     83  N   UNL A   1      35.389  35.398  31.754  1.00  0.00    -0.322 N 
ATOM     84  S   UNL A   1      35.047  34.177  34.105  1.00  0.00    -0.089 SA
ATOM     85  C   UNL A   1      35.807  34.159  32.438  1.00  0.00     0.143 C 
ATOM     86  H   UNL A   1      36.154  36.071  31.777  1.00  0.00     0.348 HD
ATOM     87  H   UNL A   1      35.147  35.180  30.786  1.00  0.00     0.348 HD
ATOM     88  C   UNL A   1      35.403  32.901  31.642  1.00  0.00     0.081 C 
ATOM     89  C   UNL A   1      37.339  34.203  32.606  1.00  0.00     0.081 C 
ATOM     90  C   UNL A   1      35.985  31.604  32.216  1.00  0.00     0.007 C 
ATOM     91  C   UNL A   1      37.914  32.919  33.212  1.00  0.00     0.007 C 
ATOM     92  C   UNL A   1      37.496  31.687  32.415  1.00  0.00     0.001 C 
ENDBRANCH  78  81
ENDBRANCH  76  77
ENDBRANCH  75  76
ENDBRANCH  74  75
ENDBRANCH   1  74
TORSDOF 14
ENDMDL
MODEL 3
REMARK VINA RESULT:     -10.4      4.938     11.881
REMARK SMILES O=C(NCCCCNC(=O)[C@H]1CSC2(CCCCC2)[NH2+]1)c1ccc(-c2c3nc(c(-c4c(F)cc(S(=O)(=O)[O-])cc4F)c4ccc([nH]4)c(-c4c(F)cc(S(=O)(=O)[O-])cc4F)c4nc(c(-c5c(F)cc(S(=O)(=O)[O-])cc5F)c5ccc2[nH]5)C=C4)C=C3)cc1
REMARK SMILES IDX 4 1 3 2 1 3 2 4 21 6 22 7 86 8 23 9 85 10 24 11 25 12 26 13
REMARK SMILES IDX 79 14 27 15 84 16 78 17 80 18 28 19 83 20 77 21 76 22 29 24
REMARK SMILES IDX 63 25 42 26 62 27 43 28 46 29 61 30 81 31 44 32 45 33 60 35
REMARK SMILES IDX 82 36 47 37 30 38 31 39 40 40 32 41 33 42 39 43 41 44 34 45
REMARK SMILES IDX 35 46 36 47 37 48 38 49 64 50 65 51 74 52 66 53 67 54 73 55
REMARK SMILES IDX 75 56 68 57 69 58 70 59 71 60 72 61 48 62 49 63 58 64 50 65
REMARK SMILES IDX 51 66 57 67 59 68 52 69 53 70 54 71 55 72 56 73 5 74 6 75
REMARK SMILES IDX 7 76 8 77 9 78 10 80 11 81 12 82 20 83 13 84 14 85 15 88
REMARK SMILES IDX 19 89 16 90 18 91 17 92
REMARK H PARENT 3 5 80 23 46 34 8 79 20 86 20 87
REMARK Flexibility Score: inf
ROOT
ATOM      1  C   UNL A   1      41.114  22.985  27.431  1.00  0.00     0.116 C 
ENDROOT
BRANCH   1   2
ATOM      2  N   UNL A   1      41.192  23.793  26.221  1.00  0.00    -0.352 N 
ATOM      3  O   UNL A   1      41.170  25.727  25.043  1.00  0.00    -0.269 OA
ATOM      4  C   UNL A   1      41.179  25.168  26.133  1.00  0.00     0.251 C 
ATOM      5  H   UNL A   1      41.263  23.301  25.371  1.00  0.00     0.163 HD
BRANCH   4   6
ATOM      6  C   UNL A   1      41.125  25.949  27.385  1.00  0.00     0.039 A 
ATOM      7  C   UNL A   1      39.993  25.880  28.201  1.00  0.00     0.014 A 
ATOM      8  C   UNL A   1      42.173  26.816  27.694  1.00  0.00     0.014 A 
ATOM      9  C   UNL A   1      39.847  26.784  29.244  1.00  0.00     0.010 A 
ATOM     10  C   UNL A   1      42.057  27.673  28.791  1.00  0.00     0.010 A 
ATOM     11  C   UNL A   1      40.876  27.691  29.550  1.00  0.00    -0.014 A 
BRANCH  11  12
ATOM     12  C   UNL A   1      40.704  28.616  30.696  1.00  0.00     0.031 A 
ATOM     13  C   UNL A   1      41.611  28.549  31.893  1.00  0.00     0.074 A 
ATOM     14  C   UNL A   1      39.739  29.552  30.623  1.00  0.00     0.049 A 
ATOM     15  N   UNL A   1      41.609  29.296  32.968  1.00  0.00    -0.248 NA
ATOM     16  C   UNL A   1      42.650  27.508  31.891  1.00  0.00     0.031 C 
ATOM     17  C   UNL A   1      38.798  29.704  29.510  1.00  0.00     0.029 A 
ATOM     18  N   UNL A   1      39.402  30.564  31.482  1.00  0.00    -0.354 N 
ATOM     19  C   UNL A   1      42.625  28.805  33.780  1.00  0.00     0.074 A 
ATOM     20  C   UNL A   1      43.215  27.684  33.079  1.00  0.00     0.031 C 
ATOM     21  C   UNL A   1      38.023  30.775  29.731  1.00  0.00     0.029 A 
ATOM     22  C   UNL A   1      38.372  31.350  31.025  1.00  0.00     0.049 A 
ATOM     23  H   UNL A   1      39.853  30.714  32.345  1.00  0.00     0.167 HD
ATOM     24  C   UNL A   1      43.028  29.253  34.994  1.00  0.00     0.037 A 
ATOM     25  C   UNL A   1      37.765  32.410  31.588  1.00  0.00     0.037 A 
ATOM     26  C   UNL A   1      42.446  30.384  35.671  1.00  0.00     0.049 A 
ATOM     27  C   UNL A   1      38.232  32.886  32.931  1.00  0.00     0.074 A 
ATOM     28  C   UNL A   1      42.800  30.934  36.892  1.00  0.00     0.029 A 
ATOM     29  N   UNL A   1      41.389  31.141  35.187  1.00  0.00    -0.354 N 
ATOM     30  N   UNL A   1      39.201  32.414  33.678  1.00  0.00    -0.248 NA
ATOM     31  C   UNL A   1      37.521  34.031  33.512  1.00  0.00     0.031 C 
ATOM     32  C   UNL A   1      41.937  32.002  37.160  1.00  0.00     0.029 A 
ATOM     33  C   UNL A   1      41.068  32.143  36.090  1.00  0.00     0.049 A 
ATOM     34  H   UNL A   1      40.934  30.989  34.328  1.00  0.00     0.167 HD
ATOM     35  C   UNL A   1      39.221  33.209  34.818  1.00  0.00     0.074 A 
ATOM     36  C   UNL A   1      38.181  34.205  34.650  1.00  0.00     0.031 C 
ATOM     37  C   UNL A   1      40.024  33.119  35.906  1.00  0.00     0.037 A 
BRANCH  24  38
ATOM     38  C   UNL A   1      44.140  28.508  35.680  1.00  0.00     0.058 A 
ATOM     39  C   UNL A   1      43.885  27.444  36.559  1.00  0.00     0.135 A 
ATOM     40  C   UNL A   1      45.482  28.835  35.421  1.00  0.00     0.135 A 
ATOM     41  F   UNL A   1      42.622  27.098  36.853  1.00  0.00    -0.206 F 
ATOM     42  C   UNL A   1      44.919  26.746  37.177  1.00  0.00     0.059 A 
ATOM     43  C   UNL A   1      46.533  28.138  36.012  1.00  0.00     0.059 A 
ATOM     44  F   UNL A   1      45.782  29.844  34.588  1.00  0.00    -0.206 F 
ATOM     45  C   UNL A   1      46.240  27.104  36.900  1.00  0.00     0.060 A 
BRANCH  45  46
ATOM     46  S   UNL A   1      47.573  26.194  37.710  1.00  0.00     0.124 S 
ATOM     47  O   UNL A   1      47.127  26.205  39.100  1.00  0.00    -0.237 OA
ATOM     48  O   UNL A   1      47.522  24.898  37.040  1.00  0.00    -0.237 OA
ATOM     49  O   UNL A   1      48.757  26.997  37.423  1.00  0.00    -0.744 OA
ENDBRANCH  45  46
ENDBRANCH  24  38
BRANCH  25  50
ATOM     50  C   UNL A   1      36.652  33.082  30.871  1.00  0.00     0.058 A 
ATOM     51  C   UNL A   1      35.321  32.901  31.273  1.00  0.00     0.135 A 
ATOM     52  C   UNL A   1      36.903  33.956  29.802  1.00  0.00     0.135 A 
ATOM     53  F   UNL A   1      35.033  32.073  32.289  1.00  0.00    -0.206 F 
ATOM     54  C   UNL A   1      34.275  33.563  30.639  1.00  0.00     0.059 A 
ATOM     55  C   UNL A   1      35.878  34.647  29.168  1.00  0.00     0.059 A 
ATOM     56  F   UNL A   1      38.163  34.175  29.395  1.00  0.00    -0.206 F 
ATOM     57  C   UNL A   1      34.564  34.437  29.589  1.00  0.00     0.060 A 
BRANCH  57  58
ATOM     58  S   UNL A   1      33.211  35.348  28.817  1.00  0.00     0.124 S 
ATOM     59  O   UNL A   1      33.936  36.341  28.035  1.00  0.00    -0.237 OA
ATOM     60  O   UNL A   1      32.531  34.305  28.054  1.00  0.00    -0.237 OA
ATOM     61  O   UNL A   1      32.462  35.863  29.959  1.00  0.00    -0.744 OA
ENDBRANCH  57  58
ENDBRANCH  25  50
BRANCH  37  62
ATOM     62  C   UNL A   1      39.812  34.136  36.989  1.00  0.00     0.058 A 
ATOM     63  C   UNL A   1      40.373  35.421  36.906  1.00  0.00     0.135 A 
ATOM     64  C   UNL A   1      39.024  33.831  38.109  1.00  0.00     0.135 A 
ATOM     65  F   UNL A   1      41.141  35.755  35.858  1.00  0.00    -0.206 F 
ATOM     66  C   UNL A   1      40.182  36.360  37.913  1.00  0.00     0.059 A 
ATOM     67  C   UNL A   1      38.803  34.763  39.118  1.00  0.00     0.059 A 
ATOM     68  F   UNL A   1      38.461  32.619  38.230  1.00  0.00    -0.206 F 
ATOM     69  C   UNL A   1      39.398  36.020  39.017  1.00  0.00     0.060 A 
BRANCH  69  70
ATOM     70  S   UNL A   1      39.141  37.251  40.313  1.00  0.00     0.124 S 
ATOM     71  O   UNL A   1      38.492  36.455  41.348  1.00  0.00    -0.237 OA
ATOM     72  O   UNL A   1      40.504  37.686  40.610  1.00  0.00    -0.237 OA
ATOM     73  O   UNL A   1      38.299  38.253  39.666  1.00  0.00    -0.744 OA
ENDBRANCH  69  70
ENDBRANCH  37  62
ENDBRANCH  11  12
ENDBRANCH   4   6
ENDBRANCH   1   2
BRANCH   1  74
ATOM     74  C   UNL A   1      40.390  21.656  27.251  1.00  0.00     0.023 C 
BRANCH  74  75
ATOM     75  C   UNL A   1      39.553  21.532  25.977  1.00  0.00     0.023 C 
BRANCH  75  76
ATOM     76  C   UNL A   1      38.264  22.352  25.977  1.00  0.00     0.116 C 
BRANCH  76  77
ATOM     77  N   UNL A   1      37.803  22.684  24.645  1.00  0.00    -0.351 N 
ATOM     78  C   UNL A   1      36.582  22.618  24.061  1.00  0.00     0.279 C 
ATOM     79  H   UNL A   1      38.511  23.023  24.051  1.00  0.00     0.163 HD
ATOM     80  O   UNL A   1      36.476  23.199  22.969  1.00  0.00    -0.268 OA
BRANCH  78  81
ATOM     81  C   UNL A   1      35.350  21.837  24.603  1.00  0.00     0.283 C 
ATOM     82  C   UNL A   1      35.174  21.501  26.067  1.00  0.00     0.151 C 
ATOM     83  N   UNL A   1      34.108  22.572  24.206  1.00  0.00    -0.322 N 
ATOM     84  S   UNL A   1      34.612  23.047  26.786  1.00  0.00    -0.089 SA
ATOM     85  C   UNL A   1      33.736  23.542  25.254  1.00  0.00     0.143 C 
ATOM     86  H   UNL A   1      33.347  21.905  24.079  1.00  0.00     0.348 HD
ATOM     87  H   UNL A   1      34.280  23.073  23.334  1.00  0.00     0.348 HD
ATOM     88  C   UNL A   1      34.080  24.988  24.845  1.00  0.00     0.081 C 
ATOM     89  C   UNL A   1      32.220  23.414  25.504  1.00  0.00     0.081 C 
ATOM     90  C   UNL A   1      33.538  26.043  25.816  1.00  0.00     0.007 C 
ATOM     91  C   UNL A   1      31.687  24.447  26.502  1.00  0.00     0.007 C 
ATOM     92  C   UNL A   1      32.044  25.869  26.082  1.00  0.00     0.001 C 
ENDBRANCH  78  81
ENDBRANCH  76  77
ENDBRANCH  75  76
ENDBRANCH  74  75
ENDBRANCH   1  74
TORSDOF 14
ENDMDL
