MODEL 1
REMARK VINA RESULT:     -13.3      0.000      0.000
REMARK SMILES Cc1ccc(C(=O)NCCCCNC(=O)c2ccc(-c3c4nc(c(-c5c(F)cc(S(=O)(=O)[O-])cc5F)c5ccc([nH]5)c(-c5c(F)cc(S(=O)(=O)[O-])cc5F)c5nc(c(-c6c(F)cc(S(=O)(=O)[O-])cc6F)c6ccc3[nH]6)C=C5)C=C4)cc2)c(Oc2cccc(F)c2C(N)=O)c1
REMARK SMILES IDX 10 1 9 2 8 3 6 4 7 5 5 7 1 8 2 9 3 10 94 11 4 12 82 13 83 14
REMARK SMILES IDX 84 15 85 16 90 17 86 18 88 19 87 20 89 21 91 22 92 23 93 24
REMARK SMILES IDX 11 27 12 28 13 29 14 30 15 32 16 33 17 34 81 35 18 36 80 37
REMARK SMILES IDX 19 38 20 39 21 40 74 41 22 42 79 43 73 44 75 45 23 46 78 47
REMARK SMILES IDX 72 48 71 49 24 51 58 52 37 53 57 54 38 55 41 56 56 57 76 58
REMARK SMILES IDX 39 59 40 60 55 62 77 63 42 64 25 65 26 66 35 67 27 68 28 69
REMARK SMILES IDX 34 70 36 71 29 72 30 73 31 74 32 75 33 76 59 77 60 78 69 79
REMARK SMILES IDX 61 80 62 81 68 82 70 83 63 84 64 85 65 86 66 87 67 88 43 89
REMARK SMILES IDX 44 90 53 91 45 92 46 93 52 94 54 95 47 96 48 97 49 98 50 99
REMARK SMILES IDX 51 100
REMARK H PARENT 8 6 92 25 92 26 13 31 75 50 41 61
REMARK Flexibility Score: inf
ROOT
ATOM      1  C   UNL A   1      33.402  27.250  25.484  1.00  0.00     0.023 C 
ENDROOT
BRANCH   1   2
ATOM      2  C   UNL A   1      33.740  25.761  25.571  1.00  0.00     0.116 C 
BRANCH   2   3
ATOM      3  N   UNL A   1      34.625  25.266  24.537  1.00  0.00    -0.352 N 
ATOM      4  C   UNL A   1      34.742  24.080  23.851  1.00  0.00     0.255 C 
ATOM      5  O   UNL A   1      35.587  24.072  22.948  1.00  0.00    -0.269 OA
ATOM      6  H   UNL A   1      35.298  25.931  24.264  1.00  0.00     0.163 HD
BRANCH   4   7
ATOM      7  C   UNL A   1      34.039  22.787  24.137  1.00  0.00     0.082 A 
ATOM      8  C   UNL A   1      32.517  18.848  25.179  1.00  0.00     0.044 C 
ATOM      9  C   UNL A   1      33.064  20.194  24.811  1.00  0.00    -0.047 A 
ATOM     10  C   UNL A   1      34.283  20.637  25.315  1.00  0.00     0.004 A 
ATOM     11  C   UNL A   1      32.373  21.016  23.920  1.00  0.00     0.051 A 
ATOM     12  C   UNL A   1      34.764  21.907  24.974  1.00  0.00     0.018 A 
ATOM     13  C   UNL A   1      32.826  22.315  23.616  1.00  0.00     0.140 A 
BRANCH  13  14
ATOM     14  O   UNL A   1      32.120  23.053  22.710  1.00  0.00    -0.456 OA
BRANCH  14  15
ATOM     15  C   UNL A   1      31.588  24.286  23.049  1.00  0.00     0.143 A 
ATOM     16  C   UNL A   1      30.711  24.174  24.141  1.00  0.00     0.048 A 
ATOM     17  C   UNL A   1      31.711  25.527  22.391  1.00  0.00     0.117 A 
ATOM     18  C   UNL A   1      29.970  25.267  24.584  1.00  0.00     0.007 A 
ATOM     19  C   UNL A   1      30.945  26.610  22.847  1.00  0.00     0.139 A 
ATOM     20  C   UNL A   1      30.076  26.485  23.927  1.00  0.00     0.040 A 
ATOM     21  F   UNL A   1      30.999  27.798  22.223  1.00  0.00    -0.206 F 
BRANCH  17  22
ATOM     22  C   UNL A   1      32.617  25.854  21.269  1.00  0.00     0.255 C 
ATOM     23  N   UNL A   1      32.192  25.621  19.993  1.00  0.00    -0.365 N 
ATOM     24  O   UNL A   1      33.723  26.342  21.474  1.00  0.00    -0.269 OA
ATOM     25  H   UNL A   1      31.304  25.229  19.834  1.00  0.00     0.159 HD
ATOM     26  H   UNL A   1      32.775  25.845  19.232  1.00  0.00     0.159 HD
ENDBRANCH  17  22
ENDBRANCH  14  15
ENDBRANCH  13  14
ENDBRANCH   4   7
ENDBRANCH   2   3
ENDBRANCH   1   2
BRANCH   1  27
ATOM     27  C   UNL A   1      34.105  28.166  26.475  1.00  0.00     0.023 C 
BRANCH  27  28
ATOM     28  C   UNL A   1      33.248  29.295  27.024  1.00  0.00     0.116 C 
BRANCH  28  29
ATOM     29  N   UNL A   1      33.821  30.620  26.909  1.00  0.00    -0.352 N 
ATOM     30  C   UNL A   1      34.893  31.143  27.619  1.00  0.00     0.251 C 
ATOM     31  H   UNL A   1      33.400  31.221  26.252  1.00  0.00     0.163 HD
ATOM     32  O   UNL A   1      34.984  32.347  27.798  1.00  0.00    -0.269 OA
BRANCH  30  33
ATOM     33  C   UNL A   1      35.992  30.229  28.028  1.00  0.00     0.039 A 
ATOM     34  C   UNL A   1      35.944  29.696  29.325  1.00  0.00     0.014 A 
ATOM     35  C   UNL A   1      37.134  30.058  27.252  1.00  0.00     0.014 A 
ATOM     36  C   UNL A   1      37.094  29.156  29.903  1.00  0.00     0.010 A 
ATOM     37  C   UNL A   1      38.294  29.619  27.855  1.00  0.00     0.010 A 
ATOM     38  C   UNL A   1      38.286  29.195  29.191  1.00  0.00    -0.014 A 
BRANCH  38  39
ATOM     39  C   UNL A   1      39.603  28.849  29.713  1.00  0.00     0.031 A 
ATOM     40  C   UNL A   1      40.197  27.532  29.376  1.00  0.00     0.074 A 
ATOM     41  C   UNL A   1      40.377  29.840  30.208  1.00  0.00     0.049 A 
ATOM     42  N   UNL A   1      41.355  27.129  29.780  1.00  0.00    -0.248 NA
ATOM     43  C   UNL A   1      39.494  26.526  28.576  1.00  0.00     0.031 C 
ATOM     44  C   UNL A   1      41.836  29.904  30.214  1.00  0.00     0.029 A 
ATOM     45  N   UNL A   1      39.981  30.912  31.012  1.00  0.00    -0.354 N 
ATOM     46  C   UNL A   1      41.681  26.022  29.033  1.00  0.00     0.074 A 
ATOM     47  C   UNL A   1      40.449  25.603  28.418  1.00  0.00     0.031 C 
ATOM     48  C   UNL A   1      42.233  30.790  31.139  1.00  0.00     0.029 A 
ATOM     49  C   UNL A   1      41.052  31.168  31.894  1.00  0.00     0.049 A 
ATOM     50  H   UNL A   1      39.123  31.394  30.971  1.00  0.00     0.167 HD
ATOM     51  C   UNL A   1      42.993  25.688  28.889  1.00  0.00     0.037 A 
ATOM     52  C   UNL A   1      40.917  30.959  33.240  1.00  0.00     0.037 A 
ATOM     53  C   UNL A   1      43.817  26.358  29.893  1.00  0.00     0.049 A 
ATOM     54  C   UNL A   1      41.848  29.916  33.818  1.00  0.00     0.074 A 
ATOM     55  C   UNL A   1      44.752  27.375  29.847  1.00  0.00     0.029 A 
ATOM     56  N   UNL A   1      43.536  26.140  31.241  1.00  0.00    -0.354 N 
ATOM     57  N   UNL A   1      42.526  29.059  33.105  1.00  0.00    -0.248 NA
ATOM     58  C   UNL A   1      42.068  29.743  35.252  1.00  0.00     0.031 C 
ATOM     59  C   UNL A   1      44.920  27.864  31.175  1.00  0.00     0.029 A 
ATOM     60  C   UNL A   1      44.136  27.103  32.027  1.00  0.00     0.049 A 
ATOM     61  H   UNL A   1      42.984  25.401  31.585  1.00  0.00     0.167 HD
ATOM     62  C   UNL A   1      43.193  28.198  33.936  1.00  0.00     0.074 A 
ATOM     63  C   UNL A   1      42.912  28.697  35.269  1.00  0.00     0.031 C 
ATOM     64  C   UNL A   1      43.901  27.128  33.466  1.00  0.00     0.037 A 
BRANCH  51  65
ATOM     65  C   UNL A   1      43.557  24.909  27.716  1.00  0.00     0.058 A 
ATOM     66  C   UNL A   1      44.361  23.769  27.936  1.00  0.00     0.135 A 
ATOM     67  C   UNL A   1      43.472  25.315  26.363  1.00  0.00     0.135 A 
ATOM     68  F   UNL A   1      44.553  23.293  29.174  1.00  0.00    -0.206 F 
ATOM     69  C   UNL A   1      45.027  23.096  26.903  1.00  0.00     0.059 A 
ATOM     70  C   UNL A   1      44.081  24.627  25.312  1.00  0.00     0.059 A 
ATOM     71  F   UNL A   1      42.858  26.446  25.994  1.00  0.00    -0.206 F 
ATOM     72  C   UNL A   1      44.882  23.534  25.592  1.00  0.00     0.060 A 
BRANCH  72  73
ATOM     73  S   UNL A   1      45.758  22.695  24.256  1.00  0.00     0.124 S 
ATOM     74  O   UNL A   1      46.691  23.727  23.818  1.00  0.00    -0.237 OA
ATOM     75  O   UNL A   1      46.348  21.546  24.935  1.00  0.00    -0.237 OA
ATOM     76  O   UNL A   1      44.695  22.372  23.307  1.00  0.00    -0.744 OA
ENDBRANCH  72  73
ENDBRANCH  51  65
BRANCH  52  77
ATOM     77  C   UNL A   1      39.539  31.239  33.733  1.00  0.00     0.058 A 
ATOM     78  C   UNL A   1      39.228  32.574  34.052  1.00  0.00     0.135 A 
ATOM     79  C   UNL A   1      38.478  30.378  33.411  1.00  0.00     0.135 A 
ATOM     80  F   UNL A   1      40.207  33.433  34.384  1.00  0.00    -0.206 F 
ATOM     81  C   UNL A   1      37.952  33.082  33.861  1.00  0.00     0.059 A 
ATOM     82  C   UNL A   1      37.189  30.873  33.209  1.00  0.00     0.059 A 
ATOM     83  F   UNL A   1      38.715  29.092  33.119  1.00  0.00    -0.206 F 
ATOM     84  C   UNL A   1      36.967  32.243  33.346  1.00  0.00     0.060 A 
BRANCH  84  85
ATOM     85  S   UNL A   1      35.502  33.027  32.631  1.00  0.00     0.124 S 
ATOM     86  O   UNL A   1      34.604  33.100  33.780  1.00  0.00    -0.237 OA
ATOM     87  O   UNL A   1      36.055  34.304  32.185  1.00  0.00    -0.237 OA
ATOM     88  O   UNL A   1      35.108  32.103  31.573  1.00  0.00    -0.744 OA
ENDBRANCH  84  85
ENDBRANCH  52  77
BRANCH  64  89
ATOM     89  C   UNL A   1      44.480  26.035  34.332  1.00  0.00     0.058 A 
ATOM     90  C   UNL A   1      43.717  25.009  34.917  1.00  0.00     0.135 A 
ATOM     91  C   UNL A   1      45.880  25.925  34.498  1.00  0.00     0.135 A 
ATOM     92  F   UNL A   1      42.391  24.931  34.724  1.00  0.00    -0.206 F 
ATOM     93  C   UNL A   1      44.288  23.999  35.693  1.00  0.00     0.059 A 
ATOM     94  C   UNL A   1      46.476  24.895  35.223  1.00  0.00     0.059 A 
ATOM     95  F   UNL A   1      46.718  26.822  33.954  1.00  0.00    -0.206 F 
ATOM     96  C   UNL A   1      45.669  23.954  35.847  1.00  0.00     0.060 A 
BRANCH  96  97
ATOM     97  S   UNL A   1      46.424  22.638  36.822  1.00  0.00     0.124 S 
ATOM     98  O   UNL A   1      47.810  22.696  36.365  1.00  0.00    -0.237 OA
ATOM     99  O   UNL A   1      46.197  23.076  38.196  1.00  0.00    -0.237 OA
ATOM    100  O   UNL A   1      45.672  21.454  36.418  1.00  0.00    -0.744 OA
ENDBRANCH  96  97
ENDBRANCH  64  89
ENDBRANCH  38  39
ENDBRANCH  30  33
ENDBRANCH  28  29
ENDBRANCH  27  28
ENDBRANCH   1  27
TORSDOF 17
ENDMDL
MODEL 2
REMARK VINA RESULT:     -13.3      1.156      1.605
REMARK SMILES Cc1ccc(C(=O)NCCCCNC(=O)c2ccc(-c3c4nc(c(-c5c(F)cc(S(=O)(=O)[O-])cc5F)c5ccc([nH]5)c(-c5c(F)cc(S(=O)(=O)[O-])cc5F)c5nc(c(-c6c(F)cc(S(=O)(=O)[O-])cc6F)c6ccc3[nH]6)C=C5)C=C4)cc2)c(Oc2cccc(F)c2C(N)=O)c1
REMARK SMILES IDX 10 1 9 2 8 3 6 4 7 5 5 7 1 8 2 9 3 10 94 11 4 12 82 13 83 14
REMARK SMILES IDX 84 15 85 16 90 17 86 18 88 19 87 20 89 21 91 22 92 23 93 24
REMARK SMILES IDX 11 27 12 28 13 29 14 30 15 32 16 33 17 34 81 35 18 36 80 37
REMARK SMILES IDX 19 38 20 39 21 40 74 41 22 42 79 43 73 44 75 45 23 46 78 47
REMARK SMILES IDX 72 48 71 49 24 51 58 52 37 53 57 54 38 55 41 56 56 57 76 58
REMARK SMILES IDX 39 59 40 60 55 62 77 63 42 64 25 65 26 66 35 67 27 68 28 69
REMARK SMILES IDX 34 70 36 71 29 72 30 73 31 74 32 75 33 76 59 77 60 78 69 79
REMARK SMILES IDX 61 80 62 81 68 82 70 83 63 84 64 85 65 86 66 87 67 88 43 89
REMARK SMILES IDX 44 90 53 91 45 92 46 93 52 94 54 95 47 96 48 97 49 98 50 99
REMARK SMILES IDX 51 100
REMARK H PARENT 8 6 92 25 92 26 13 31 75 50 41 61
REMARK Flexibility Score: inf
ROOT
ATOM      1  C   UNL A   1      31.476  28.023  27.449  1.00  0.00     0.023 C 
ENDROOT
BRANCH   1   2
ATOM      2  C   UNL A   1      32.120  26.913  26.617  1.00  0.00     0.116 C 
BRANCH   2   3
ATOM      3  N   UNL A   1      31.621  25.578  26.875  1.00  0.00    -0.352 N 
ATOM      4  C   UNL A   1      32.031  24.310  26.536  1.00  0.00     0.255 C 
ATOM      5  O   UNL A   1      31.377  23.390  27.040  1.00  0.00    -0.269 OA
ATOM      6  H   UNL A   1      30.799  25.579  27.417  1.00  0.00     0.163 HD
BRANCH   4   7
ATOM      7  C   UNL A   1      33.105  23.929  25.561  1.00  0.00     0.082 A 
ATOM      8  C   UNL A   1      36.601  22.958  23.163  1.00  0.00     0.044 C 
ATOM      9  C   UNL A   1      35.409  23.314  23.999  1.00  0.00    -0.047 A 
ATOM     10  C   UNL A   1      35.519  23.475  25.377  1.00  0.00     0.004 A 
ATOM     11  C   UNL A   1      34.168  23.530  23.399  1.00  0.00     0.051 A 
ATOM     12  C   UNL A   1      34.387  23.786  26.140  1.00  0.00     0.018 A 
ATOM     13  C   UNL A   1      33.016  23.791  24.168  1.00  0.00     0.140 A 
BRANCH  13  14
ATOM     14  O   UNL A   1      31.840  24.027  23.516  1.00  0.00    -0.456 OA
BRANCH  14  15
ATOM     15  C   UNL A   1      31.286  25.296  23.475  1.00  0.00     0.143 A 
ATOM     16  C   UNL A   1      29.944  25.274  23.889  1.00  0.00     0.048 A 
ATOM     17  C   UNL A   1      31.832  26.497  22.976  1.00  0.00     0.117 A 
ATOM     18  C   UNL A   1      29.150  26.417  23.819  1.00  0.00     0.007 A 
ATOM     19  C   UNL A   1      31.010  27.631  22.903  1.00  0.00     0.139 A 
ATOM     20  C   UNL A   1      29.680  27.595  23.311  1.00  0.00     0.040 A 
ATOM     21  F   UNL A   1      31.476  28.783  22.394  1.00  0.00    -0.206 F 
BRANCH  17  22
ATOM     22  C   UNL A   1      33.229  26.731  22.550  1.00  0.00     0.255 C 
ATOM     23  N   UNL A   1      34.084  27.349  23.415  1.00  0.00    -0.365 N 
ATOM     24  O   UNL A   1      33.622  26.361  21.449  1.00  0.00    -0.269 OA
ATOM     25  H   UNL A   1      33.763  27.643  24.297  1.00  0.00     0.159 HD
ATOM     26  H   UNL A   1      35.021  27.500  23.156  1.00  0.00     0.159 HD
ENDBRANCH  17  22
ENDBRANCH  14  15
ENDBRANCH  13  14
ENDBRANCH   4   7
ENDBRANCH   2   3
ENDBRANCH   1   2
BRANCH   1  27
ATOM     27  C   UNL A   1      31.968  29.440  27.189  1.00  0.00     0.023 C 
BRANCH  27  28
ATOM     28  C   UNL A   1      33.436  29.550  26.812  1.00  0.00     0.116 C 
BRANCH  28  29
ATOM     29  N   UNL A   1      33.996  30.884  26.883  1.00  0.00    -0.352 N 
ATOM     30  C   UNL A   1      34.995  31.338  27.732  1.00  0.00     0.251 C 
ATOM     31  H   UNL A   1      33.624  31.546  26.255  1.00  0.00     0.163 HD
ATOM     32  O   UNL A   1      35.051  32.518  28.040  1.00  0.00    -0.269 OA
BRANCH  30  33
ATOM     33  C   UNL A   1      36.069  30.395  28.141  1.00  0.00     0.039 A 
ATOM     34  C   UNL A   1      36.017  29.877  29.443  1.00  0.00     0.014 A 
ATOM     35  C   UNL A   1      37.197  30.181  27.356  1.00  0.00     0.014 A 
ATOM     36  C   UNL A   1      37.155  29.307  30.016  1.00  0.00     0.010 A 
ATOM     37  C   UNL A   1      38.349  29.712  27.952  1.00  0.00     0.010 A 
ATOM     38  C   UNL A   1      38.340  29.302  29.292  1.00  0.00    -0.014 A 
BRANCH  38  39
ATOM     39  C   UNL A   1      39.651  28.921  29.806  1.00  0.00     0.031 A 
ATOM     40  C   UNL A   1      40.223  27.602  29.436  1.00  0.00     0.074 A 
ATOM     41  C   UNL A   1      40.442  29.885  30.325  1.00  0.00     0.049 A 
ATOM     42  N   UNL A   1      41.373  27.169  29.830  1.00  0.00    -0.248 NA
ATOM     43  C   UNL A   1      39.503  26.628  28.612  1.00  0.00     0.031 C 
ATOM     44  C   UNL A   1      41.902  29.924  30.332  1.00  0.00     0.029 A 
ATOM     45  N   UNL A   1      40.064  30.944  31.155  1.00  0.00    -0.354 N 
ATOM     46  C   UNL A   1      41.680  26.076  29.056  1.00  0.00     0.074 A 
ATOM     47  C   UNL A   1      40.442  25.693  28.431  1.00  0.00     0.031 C 
ATOM     48  C   UNL A   1      42.314  30.780  31.280  1.00  0.00     0.029 A 
ATOM     49  C   UNL A   1      41.139  31.159  32.044  1.00  0.00     0.049 A 
ATOM     50  H   UNL A   1      39.215  31.442  31.126  1.00  0.00     0.167 HD
ATOM     51  C   UNL A   1      42.986  25.723  28.903  1.00  0.00     0.037 A 
ATOM     52  C   UNL A   1      41.000  30.919  33.384  1.00  0.00     0.037 A 
ATOM     53  C   UNL A   1      43.821  26.353  29.924  1.00  0.00     0.049 A 
ATOM     54  C   UNL A   1      41.913  29.846  33.935  1.00  0.00     0.074 A 
ATOM     55  C   UNL A   1      44.774  27.354  29.903  1.00  0.00     0.029 A 
ATOM     56  N   UNL A   1      43.536  26.107  31.266  1.00  0.00    -0.354 N 
ATOM     57  N   UNL A   1      42.577  28.995  33.202  1.00  0.00    -0.248 NA
ATOM     58  C   UNL A   1      42.130  29.634  35.365  1.00  0.00     0.031 C 
ATOM     59  C   UNL A   1      44.950  27.808  31.243  1.00  0.00     0.029 A 
ATOM     60  C   UNL A   1      44.152  27.039  32.075  1.00  0.00     0.049 A 
ATOM     61  H   UNL A   1      42.972  25.369  31.592  1.00  0.00     0.167 HD
ATOM     62  C   UNL A   1      43.229  28.103  34.011  1.00  0.00     0.074 A 
ATOM     63  C   UNL A   1      42.955  28.574  35.356  1.00  0.00     0.031 C 
ATOM     64  C   UNL A   1      43.917  27.033  33.514  1.00  0.00     0.037 A 
BRANCH  51  65
ATOM     65  C   UNL A   1      43.538  24.963  27.712  1.00  0.00     0.058 A 
ATOM     66  C   UNL A   1      44.025  23.647  27.866  1.00  0.00     0.135 A 
ATOM     67  C   UNL A   1      43.755  25.523  26.430  1.00  0.00     0.135 A 
ATOM     68  F   UNL A   1      43.912  23.007  29.038  1.00  0.00    -0.206 F 
ATOM     69  C   UNL A   1      44.676  22.950  26.839  1.00  0.00     0.059 A 
ATOM     70  C   UNL A   1      44.350  24.827  25.376  1.00  0.00     0.059 A 
ATOM     71  F   UNL A   1      43.471  26.802  26.151  1.00  0.00    -0.206 F 
ATOM     72  C   UNL A   1      44.836  23.550  25.596  1.00  0.00     0.060 A 
BRANCH  72  73
ATOM     73  S   UNL A   1      45.698  22.676  24.275  1.00  0.00     0.124 S 
ATOM     74  O   UNL A   1      46.326  21.578  25.003  1.00  0.00    -0.237 OA
ATOM     75  O   UNL A   1      44.611  22.306  23.375  1.00  0.00    -0.237 OA
ATOM     76  O   UNL A   1      46.620  23.682  23.750  1.00  0.00    -0.744 OA
ENDBRANCH  72  73
ENDBRANCH  51  65
BRANCH  52  77
ATOM     77  C   UNL A   1      39.627  31.211  33.884  1.00  0.00     0.058 A 
ATOM     78  C   UNL A   1      39.335  32.545  34.221  1.00  0.00     0.135 A 
ATOM     79  C   UNL A   1      38.554  30.369  33.552  1.00  0.00     0.135 A 
ATOM     80  F   UNL A   1      40.325  33.387  34.563  1.00  0.00    -0.206 F 
ATOM     81  C   UNL A   1      38.065  33.073  34.040  1.00  0.00     0.059 A 
ATOM     82  C   UNL A   1      37.271  30.883  33.360  1.00  0.00     0.059 A 
ATOM     83  F   UNL A   1      38.774  29.084  33.242  1.00  0.00    -0.206 F 
ATOM     84  C   UNL A   1      37.067  32.254  33.516  1.00  0.00     0.060 A 
BRANCH  84  85
ATOM     85  S   UNL A   1      35.612  33.066  32.815  1.00  0.00     0.124 S 
ATOM     86  O   UNL A   1      35.173  32.098  31.815  1.00  0.00    -0.237 OA
ATOM     87  O   UNL A   1      34.757  33.180  33.996  1.00  0.00    -0.237 OA
ATOM     88  O   UNL A   1      36.144  34.321  32.296  1.00  0.00    -0.744 OA
ENDBRANCH  84  85
ENDBRANCH  52  77
BRANCH  64  89
ATOM     89  C   UNL A   1      44.477  25.909  34.353  1.00  0.00     0.058 A 
ATOM     90  C   UNL A   1      43.743  24.772  34.733  1.00  0.00     0.135 A 
ATOM     91  C   UNL A   1      45.848  25.896  34.703  1.00  0.00     0.135 A 
ATOM     92  F   UNL A   1      42.468  24.607  34.350  1.00  0.00    -0.206 F 
ATOM     93  C   UNL A   1      44.300  23.738  35.489  1.00  0.00     0.059 A 
ATOM     94  C   UNL A   1      46.437  24.850  35.410  1.00  0.00     0.059 A 
ATOM     95  F   UNL A   1      46.662  26.908  34.363  1.00  0.00    -0.206 F 
ATOM     96  C   UNL A   1      45.646  23.789  35.830  1.00  0.00     0.060 A 
BRANCH  96  97
ATOM     97  S   UNL A   1      46.386  22.448  36.781  1.00  0.00     0.124 S 
ATOM     98  O   UNL A   1      47.804  22.625  36.479  1.00  0.00    -0.237 OA
ATOM     99  O   UNL A   1      45.993  22.761  38.152  1.00  0.00    -0.237 OA
ATOM    100  O   UNL A   1      45.761  21.257  36.215  1.00  0.00    -0.744 OA
ENDBRANCH  96  97
ENDBRANCH  64  89
ENDBRANCH  38  39
ENDBRANCH  30  33
ENDBRANCH  28  29
ENDBRANCH  27  28
ENDBRANCH   1  27
TORSDOF 17
ENDMDL
MODEL 3
REMARK VINA RESULT:     -13.1      1.529      2.890
REMARK SMILES Cc1ccc(C(=O)NCCCCNC(=O)c2ccc(-c3c4nc(c(-c5c(F)cc(S(=O)(=O)[O-])cc5F)c5ccc([nH]5)c(-c5c(F)cc(S(=O)(=O)[O-])cc5F)c5nc(c(-c6c(F)cc(S(=O)(=O)[O-])cc6F)c6ccc3[nH]6)C=C5)C=C4)cc2)c(Oc2cccc(F)c2C(N)=O)c1
REMARK SMILES IDX 10 1 9 2 8 3 6 4 7 5 5 7 1 8 2 9 3 10 94 11 4 12 82 13 83 14
REMARK SMILES IDX 84 15 85 16 90 17 86 18 88 19 87 20 89 21 91 22 92 23 93 24
REMARK SMILES IDX 11 27 12 28 13 29 14 30 15 32 16 33 17 34 81 35 18 36 80 37
REMARK SMILES IDX 19 38 20 39 21 40 74 41 22 42 79 43 73 44 75 45 23 46 78 47
REMARK SMILES IDX 72 48 71 49 24 51 58 52 37 53 57 54 38 55 41 56 56 57 76 58
REMARK SMILES IDX 39 59 40 60 55 62 77 63 42 64 25 65 26 66 35 67 27 68 28 69
REMARK SMILES IDX 34 70 36 71 29 72 30 73 31 74 32 75 33 76 59 77 60 78 69 79
REMARK SMILES IDX 61 80 62 81 68 82 70 83 63 84 64 85 65 86 66 87 67 88 43 89
REMARK SMILES IDX 44 90 53 91 45 92 46 93 52 94 54 95 47 96 48 97 49 98 50 99
REMARK SMILES IDX 51 100
REMARK H PARENT 8 6 92 25 92 26 13 31 75 50 41 61
REMARK Flexibility Score: inf
ROOT
ATOM      1  C   UNL A   1      34.063  28.223  24.869  1.00  0.00     0.023 C 
ENDROOT
BRANCH   1   2
ATOM      2  C   UNL A   1      34.051  28.683  23.411  1.00  0.00     0.116 C 
BRANCH   2   3
ATOM      3  N   UNL A   1      33.977  27.622  22.428  1.00  0.00    -0.352 N 
ATOM      4  C   UNL A   1      32.975  26.800  21.967  1.00  0.00     0.255 C 
ATOM      5  O   UNL A   1      33.288  26.063  21.025  1.00  0.00    -0.269 OA
ATOM      6  H   UNL A   1      34.842  27.449  21.991  1.00  0.00     0.163 HD
BRANCH   4   7
ATOM      7  C   UNL A   1      31.597  26.633  22.535  1.00  0.00     0.082 A 
ATOM      8  C   UNL A   1      27.567  26.737  24.167  1.00  0.00     0.044 C 
ATOM      9  C   UNL A   1      28.963  26.722  23.620  1.00  0.00    -0.047 A 
ATOM     10  C   UNL A   1      29.512  27.851  23.018  1.00  0.00     0.004 A 
ATOM     11  C   UNL A   1      29.754  25.579  23.740  1.00  0.00     0.051 A 
ATOM     12  C   UNL A   1      30.810  27.806  22.495  1.00  0.00     0.018 A 
ATOM     13  C   UNL A   1      31.041  25.513  23.169  1.00  0.00     0.140 A 
BRANCH  13  14
ATOM     14  O   UNL A   1      31.775  24.378  23.354  1.00  0.00    -0.456 OA
BRANCH  14  15
ATOM     15  C   UNL A   1      32.539  24.196  24.495  1.00  0.00     0.143 A 
ATOM     16  C   UNL A   1      33.900  24.429  24.234  1.00  0.00     0.048 A 
ATOM     17  C   UNL A   1      32.155  23.712  25.763  1.00  0.00     0.117 A 
ATOM     18  C   UNL A   1      34.869  24.194  25.206  1.00  0.00     0.007 A 
ATOM     19  C   UNL A   1      33.151  23.471  26.721  1.00  0.00     0.139 A 
ATOM     20  C   UNL A   1      34.496  23.700  26.449  1.00  0.00     0.040 A 
ATOM     21  F   UNL A   1      32.834  22.969  27.926  1.00  0.00    -0.206 F 
BRANCH  17  22
ATOM     22  C   UNL A   1      30.778  23.464  26.241  1.00  0.00     0.255 C 
ATOM     23  N   UNL A   1      30.230  22.229  26.051  1.00  0.00    -0.365 N 
ATOM     24  O   UNL A   1      30.143  24.341  26.817  1.00  0.00    -0.269 OA
ATOM     25  H   UNL A   1      30.744  21.528  25.588  1.00  0.00     0.159 HD
ATOM     26  H   UNL A   1      29.319  22.039  26.374  1.00  0.00     0.159 HD
ENDBRANCH  17  22
ENDBRANCH  14  15
ENDBRANCH  13  14
ENDBRANCH   4   7
ENDBRANCH   2   3
ENDBRANCH   1   2
BRANCH   1  27
ATOM     27  C   UNL A   1      32.783  28.445  25.663  1.00  0.00     0.023 C 
BRANCH  27  28
ATOM     28  C   UNL A   1      32.969  29.152  26.995  1.00  0.00     0.116 C 
BRANCH  28  29
ATOM     29  N   UNL A   1      33.444  30.518  26.910  1.00  0.00    -0.352 N 
ATOM     30  C   UNL A   1      34.466  31.105  27.643  1.00  0.00     0.251 C 
ATOM     31  H   UNL A   1      32.988  31.097  26.257  1.00  0.00     0.163 HD
ATOM     32  O   UNL A   1      34.466  32.309  27.844  1.00  0.00    -0.269 OA
BRANCH  30  33
ATOM     33  C   UNL A   1      35.624  30.267  28.051  1.00  0.00     0.039 A 
ATOM     34  C   UNL A   1      35.657  29.806  29.375  1.00  0.00     0.014 A 
ATOM     35  C   UNL A   1      36.739  30.107  27.235  1.00  0.00     0.014 A 
ATOM     36  C   UNL A   1      36.855  29.353  29.929  1.00  0.00     0.010 A 
ATOM     37  C   UNL A   1      37.944  29.756  27.808  1.00  0.00     0.010 A 
ATOM     38  C   UNL A   1      38.012  29.407  29.163  1.00  0.00    -0.014 A 
BRANCH  38  39
ATOM     39  C   UNL A   1      39.366  29.153  29.644  1.00  0.00     0.031 A 
ATOM     40  C   UNL A   1      40.014  27.853  29.341  1.00  0.00     0.074 A 
ATOM     41  C   UNL A   1      40.106  30.203  30.061  1.00  0.00     0.049 A 
ATOM     42  N   UNL A   1      41.206  27.528  29.713  1.00  0.00    -0.248 NA
ATOM     43  C   UNL A   1      39.332  26.776  28.618  1.00  0.00     0.031 C 
ATOM     44  C   UNL A   1      41.559  30.340  30.002  1.00  0.00     0.029 A 
ATOM     45  N   UNL A   1      39.688  31.291  30.832  1.00  0.00    -0.354 N 
ATOM     46  C   UNL A   1      41.559  26.405  29.003  1.00  0.00     0.074 A 
ATOM     47  C   UNL A   1      40.327  25.896  28.460  1.00  0.00     0.031 C 
ATOM     48  C   UNL A   1      41.947  31.287  30.869  1.00  0.00     0.029 A 
ATOM     49  C   UNL A   1      40.779  31.640  31.656  1.00  0.00     0.049 A 
ATOM     50  H   UNL A   1      38.805  31.727  30.806  1.00  0.00     0.167 HD
ATOM     51  C   UNL A   1      42.879  26.131  28.818  1.00  0.00     0.037 A 
ATOM     52  C   UNL A   1      40.709  31.488  33.015  1.00  0.00     0.037 A 
ATOM     53  C   UNL A   1      43.707  26.887  29.756  1.00  0.00     0.049 A 
ATOM     54  C   UNL A   1      41.715  30.521  33.598  1.00  0.00     0.074 A 
ATOM     55  C   UNL A   1      44.585  27.946  29.625  1.00  0.00     0.029 A 
ATOM     56  N   UNL A   1      43.493  26.718  31.122  1.00  0.00    -0.354 N 
ATOM     57  N   UNL A   1      42.408  29.666  32.896  1.00  0.00    -0.248 NA
ATOM     58  C   UNL A   1      42.002  30.427  35.028  1.00  0.00     0.031 C 
ATOM     59  C   UNL A   1      44.781  28.504  30.921  1.00  0.00     0.029 A 
ATOM     60  C   UNL A   1      44.072  27.745  31.839  1.00  0.00     0.049 A 
ATOM     61  H   UNL A   1      42.994  25.969  31.523  1.00  0.00     0.167 HD
ATOM     62  C   UNL A   1      43.152  28.880  33.735  1.00  0.00     0.074 A 
ATOM     63  C   UNL A   1      42.899  29.426  35.056  1.00  0.00     0.031 C 
ATOM     64  C   UNL A   1      43.894  27.826  33.283  1.00  0.00     0.037 A 
BRANCH  51  65
ATOM     65  C   UNL A   1      43.436  25.327  27.658  1.00  0.00     0.058 A 
ATOM     66  C   UNL A   1      43.590  23.927  27.767  1.00  0.00     0.135 A 
ATOM     67  C   UNL A   1      43.975  25.886  26.476  1.00  0.00     0.135 A 
ATOM     68  F   UNL A   1      43.151  23.271  28.850  1.00  0.00    -0.206 F 
ATOM     69  C   UNL A   1      44.230  23.153  26.790  1.00  0.00     0.059 A 
ATOM     70  C   UNL A   1      44.566  25.127  25.464  1.00  0.00     0.059 A 
ATOM     71  F   UNL A   1      44.029  27.209  26.270  1.00  0.00    -0.206 F 
ATOM     72  C   UNL A   1      44.717  23.763  25.640  1.00  0.00     0.060 A 
BRANCH  72  73
ATOM     73  S   UNL A   1      45.569  22.783  24.388  1.00  0.00     0.124 S 
ATOM     74  O   UNL A   1      46.156  21.717  25.193  1.00  0.00    -0.237 OA
ATOM     75  O   UNL A   1      44.482  22.386  23.500  1.00  0.00    -0.237 OA
ATOM     76  O   UNL A   1      46.524  23.727  23.813  1.00  0.00    -0.744 OA
ENDBRANCH  72  73
ENDBRANCH  51  65
BRANCH  52  77
ATOM     77  C   UNL A   1      39.340  31.721  33.553  1.00  0.00     0.058 A 
ATOM     78  C   UNL A   1      38.969  33.053  33.813  1.00  0.00     0.135 A 
ATOM     79  C   UNL A   1      38.315  30.789  33.324  1.00  0.00     0.135 A 
ATOM     80  F   UNL A   1      39.911  33.981  34.056  1.00  0.00    -0.206 F 
ATOM     81  C   UNL A   1      37.659  33.482  33.653  1.00  0.00     0.059 A 
ATOM     82  C   UNL A   1      36.993  31.203  33.154  1.00  0.00     0.059 A 
ATOM     83  F   UNL A   1      38.612  29.503  33.091  1.00  0.00    -0.206 F 
ATOM     84  C   UNL A   1      36.701  32.564  33.227  1.00  0.00     0.060 A 
BRANCH  84  85
ATOM     85  S   UNL A   1      35.167  33.228  32.538  1.00  0.00     0.124 S 
ATOM     86  O   UNL A   1      34.879  32.281  31.466  1.00  0.00    -0.237 OA
ATOM     87  O   UNL A   1      34.281  33.152  33.698  1.00  0.00    -0.237 OA
ATOM     88  O   UNL A   1      35.543  34.573  32.115  1.00  0.00    -0.744 OA
ENDBRANCH  84  85
ENDBRANCH  52  77
BRANCH  64  89
ATOM     89  C   UNL A   1      44.564  26.805  34.172  1.00  0.00     0.058 A 
ATOM     90  C   UNL A   1      43.897  25.712  34.754  1.00  0.00     0.135 A 
ATOM     91  C   UNL A   1      45.965  26.839  34.366  1.00  0.00     0.135 A 
ATOM     92  F   UNL A   1      42.591  25.498  34.537  1.00  0.00    -0.206 F 
ATOM     93  C   UNL A   1      44.553  24.771  35.551  1.00  0.00     0.059 A 
ATOM     94  C   UNL A   1      46.648  25.881  35.112  1.00  0.00     0.059 A 
ATOM     95  F   UNL A   1      46.718  27.811  33.828  1.00  0.00    -0.206 F 
ATOM     96  C   UNL A   1      45.928  24.868  35.732  1.00  0.00     0.060 A 
BRANCH  96  97
ATOM     97  S   UNL A   1      46.792  23.644  36.734  1.00  0.00     0.124 S 
ATOM     98  O   UNL A   1      47.959  24.403  37.176  1.00  0.00    -0.237 OA
ATOM     99  O   UNL A   1      45.820  23.326  37.776  1.00  0.00    -0.237 OA
ATOM    100  O   UNL A   1      47.057  22.568  35.786  1.00  0.00    -0.744 OA
ENDBRANCH  96  97
ENDBRANCH  64  89
ENDBRANCH  38  39
ENDBRANCH  30  33
ENDBRANCH  28  29
ENDBRANCH  27  28
ENDBRANCH   1  27
TORSDOF 17
ENDMDL
