MODEL 1
REMARK VINA RESULT:     -12.7      0.000      0.000
REMARK SMILES COc1ccccc1-c1nnc(S[C@@H](C)C(=O)NCCCCNC(=O)c2ccc(-c3c4nc(c(-c5c(F)cc(S(=O)(=O)[O-])cc5F)c5ccc([nH]5)c(-c5c(F)cc(S(=O)(=O)[O-])cc5F)c5nc(c(-c6c(F)cc(S(=O)(=O)[O-])cc6F)c6ccc3[nH]6)C=C5)C=C4)cc2)n1-c1ccccc1
REMARK SMILES IDX 20 1 19 2 18 3 16 4 17 5 14 7 15 8 13 9 12 10 9 11 10 12
REMARK SMILES IDX 92 13 11 14 8 15 3 16 4 17 5 18 7 19 6 20 2 21 1 22 93 23
REMARK SMILES IDX 94 24 98 25 95 26 97 27 96 28 21 29 22 30 23 31 24 32 25 34
REMARK SMILES IDX 26 35 27 36 91 37 28 38 90 39 29 40 30 41 31 42 84 43 32 44
REMARK SMILES IDX 89 45 83 46 85 47 33 48 88 49 82 50 81 51 34 53 68 54 47 55
REMARK SMILES IDX 67 56 48 57 51 58 66 59 86 60 49 61 50 62 65 64 87 65 52 66
REMARK SMILES IDX 35 67 36 68 45 69 37 70 38 71 44 72 46 73 39 74 40 75 41 76
REMARK SMILES IDX 42 77 43 78 69 79 70 80 79 81 71 82 72 83 78 84 80 85 73 86
REMARK SMILES IDX 74 87 75 88 76 89 77 90 53 91 54 92 63 93 55 94 56 95 62 96
REMARK SMILES IDX 64 97 57 98 58 99 59 100 60 101 61 102
REMARK H PARENT 18 6 23 33 85 52 51 63
REMARK Flexibility Score: inf
ROOT
ATOM      1  C   UNL A   1      35.753  21.846  24.350  1.00  0.00     0.023 C 
ENDROOT
BRANCH   1   2
ATOM      2  C   UNL A   1      35.682  20.706  25.371  1.00  0.00     0.116 C 
BRANCH   2   3
ATOM      3  N   UNL A   1      34.452  19.991  25.605  1.00  0.00    -0.355 N 
ATOM      4  C   UNL A   1      33.181  20.498  25.441  1.00  0.00     0.233 C 
ATOM      5  O   UNL A   1      32.384  19.698  24.931  1.00  0.00    -0.274 OA
ATOM      6  H   UNL A   1      34.527  19.057  25.910  1.00  0.00     0.163 HD
BRANCH   4   7
ATOM      7  C   UNL A   1      32.635  21.801  26.066  1.00  0.00     0.141 C 
ATOM      8  C   UNL A   1      33.393  22.317  27.302  1.00  0.00     0.030 C 
BRANCH   7   9
ATOM      9  S   UNL A   1      30.914  22.222  26.291  1.00  0.00    -0.073 SA
BRANCH   9  10
ATOM     10  C   UNL A   1      30.557  23.887  26.030  1.00  0.00     0.196 A 
ATOM     11  C   UNL A   1      30.415  26.004  25.502  1.00  0.00     0.173 A 
ATOM     12  N   UNL A   1      29.709  25.815  26.598  1.00  0.00    -0.129 NA
ATOM     13  N   UNL A   1      31.088  24.829  25.165  1.00  0.00    -0.270 N 
ATOM     14  N   UNL A   1      29.749  24.486  26.885  1.00  0.00    -0.122 NA
BRANCH  11  15
ATOM     15  C   UNL A   1      30.334  27.183  24.656  1.00  0.00     0.062 A 
ATOM     16  C   UNL A   1      31.128  28.309  24.915  1.00  0.00     0.129 A 
ATOM     17  C   UNL A   1      30.874  29.511  24.260  1.00  0.00     0.047 A 
ATOM     18  C   UNL A   1      29.922  29.558  23.246  1.00  0.00     0.004 A 
ATOM     19  C   UNL A   1      29.472  27.205  23.563  1.00  0.00     0.016 A 
ATOM     20  C   UNL A   1      29.268  28.391  22.859  1.00  0.00     0.001 A 
BRANCH  16  21
ATOM     21  O   UNL A   1      32.169  28.294  25.814  1.00  0.00    -0.496 OA
ATOM     22  C   UNL A   1      32.928  29.509  25.758  1.00  0.00     0.278 C 
ENDBRANCH  16  21
ENDBRANCH  11  15
BRANCH  13  23
ATOM     23  C   UNL A   1      32.144  24.725  24.230  1.00  0.00     0.050 A 
ATOM     24  C   UNL A   1      33.375  25.322  24.477  1.00  0.00     0.027 A 
ATOM     25  C   UNL A   1      31.956  23.979  23.061  1.00  0.00     0.027 A 
ATOM     26  C   UNL A   1      34.376  25.259  23.501  1.00  0.00     0.002 A 
ATOM     27  C   UNL A   1      32.939  23.951  22.075  1.00  0.00     0.002 A 
ATOM     28  C   UNL A   1      34.147  24.606  22.290  1.00  0.00     0.000 A 
ENDBRANCH  13  23
ENDBRANCH   9  10
ENDBRANCH   7   9
ENDBRANCH   4   7
ENDBRANCH   2   3
ENDBRANCH   1   2
BRANCH   1  29
ATOM     29  C   UNL A   1      36.779  22.979  24.575  1.00  0.00     0.023 C 
BRANCH  29  30
ATOM     30  C   UNL A   1      37.624  22.890  25.846  1.00  0.00     0.116 C 
BRANCH  30  31
ATOM     31  N   UNL A   1      38.815  22.072  25.869  1.00  0.00    -0.352 N 
ATOM     32  C   UNL A   1      40.074  22.413  26.354  1.00  0.00     0.251 C 
ATOM     33  H   UNL A   1      38.725  21.166  25.496  1.00  0.00     0.163 HD
ATOM     34  O   UNL A   1      40.956  21.555  26.311  1.00  0.00    -0.269 OA
BRANCH  32  35
ATOM     35  C   UNL A   1      40.390  23.748  26.983  1.00  0.00     0.039 A 
ATOM     36  C   UNL A   1      39.727  24.899  26.526  1.00  0.00     0.014 A 
ATOM     37  C   UNL A   1      41.398  23.930  27.933  1.00  0.00     0.014 A 
ATOM     38  C   UNL A   1      40.057  26.165  27.040  1.00  0.00     0.010 A 
ATOM     39  C   UNL A   1      41.749  25.171  28.432  1.00  0.00     0.010 A 
ATOM     40  C   UNL A   1      41.074  26.295  27.999  1.00  0.00    -0.014 A 
BRANCH  40  41
ATOM     41  C   UNL A   1      41.177  27.474  28.859  1.00  0.00     0.031 A 
ATOM     42  C   UNL A   1      42.223  28.412  28.357  1.00  0.00     0.074 A 
ATOM     43  C   UNL A   1      40.258  27.917  29.746  1.00  0.00     0.049 A 
ATOM     44  N   UNL A   1      43.395  28.621  28.855  1.00  0.00    -0.248 NA
ATOM     45  C   UNL A   1      42.023  29.027  27.030  1.00  0.00     0.031 C 
ATOM     46  C   UNL A   1      38.945  27.356  30.067  1.00  0.00     0.029 A 
ATOM     47  N   UNL A   1      40.284  29.061  30.490  1.00  0.00    -0.354 N 
ATOM     48  C   UNL A   1      43.986  29.571  28.029  1.00  0.00     0.074 A 
ATOM     49  C   UNL A   1      43.217  29.581  26.813  1.00  0.00     0.031 C 
ATOM     50  C   UNL A   1      38.232  28.261  30.785  1.00  0.00     0.029 A 
ATOM     51  C   UNL A   1      39.072  29.412  31.081  1.00  0.00     0.049 A 
ATOM     52  H   UNL A   1      41.101  29.600  30.602  1.00  0.00     0.167 HD
ATOM     53  C   UNL A   1      44.895  30.466  28.504  1.00  0.00     0.037 A 
ATOM     54  C   UNL A   1      38.786  30.582  31.720  1.00  0.00     0.037 A 
ATOM     55  C   UNL A   1      45.322  30.115  29.835  1.00  0.00     0.049 A 
ATOM     56  C   UNL A   1      40.087  31.207  32.086  1.00  0.00     0.074 A 
ATOM     57  C   UNL A   1      45.914  29.001  30.403  1.00  0.00     0.029 A 
ATOM     58  N   UNL A   1      44.766  30.815  30.879  1.00  0.00    -0.354 N 
ATOM     59  N   UNL A   1      40.919  30.704  32.956  1.00  0.00    -0.248 NA
ATOM     60  C   UNL A   1      40.668  32.152  31.145  1.00  0.00     0.031 C 
ATOM     61  C   UNL A   1      45.260  28.839  31.659  1.00  0.00     0.029 A 
ATOM     62  C   UNL A   1      44.368  29.901  31.822  1.00  0.00     0.049 A 
ATOM     63  H   UNL A   1      44.670  31.793  30.940  1.00  0.00     0.167 HD
ATOM     64  C   UNL A   1      42.175  30.912  32.405  1.00  0.00     0.074 A 
ATOM     65  C   UNL A   1      41.963  31.880  31.331  1.00  0.00     0.031 C 
ATOM     66  C   UNL A   1      43.216  30.071  32.679  1.00  0.00     0.037 A 
BRANCH  53  67
ATOM     67  C   UNL A   1      45.125  31.840  27.928  1.00  0.00     0.058 A 
ATOM     68  C   UNL A   1      46.385  32.154  27.380  1.00  0.00     0.135 A 
ATOM     69  C   UNL A   1      44.250  32.935  28.111  1.00  0.00     0.135 A 
ATOM     70  F   UNL A   1      47.303  31.194  27.186  1.00  0.00    -0.206 F 
ATOM     71  C   UNL A   1      46.763  33.462  27.081  1.00  0.00     0.059 A 
ATOM     72  C   UNL A   1      44.583  34.238  27.760  1.00  0.00     0.059 A 
ATOM     73  F   UNL A   1      43.070  32.813  28.731  1.00  0.00    -0.206 F 
ATOM     74  C   UNL A   1      45.855  34.498  27.280  1.00  0.00     0.060 A 
BRANCH  74  75
ATOM     75  S   UNL A   1      46.361  36.195  26.959  1.00  0.00     0.124 S 
ATOM     76  O   UNL A   1      45.066  36.852  26.773  1.00  0.00    -0.237 OA
ATOM     77  O   UNL A   1      47.076  36.534  28.185  1.00  0.00    -0.237 OA
ATOM     78  O   UNL A   1      47.188  36.082  25.766  1.00  0.00    -0.744 OA
ENDBRANCH  74  75
ENDBRANCH  53  67
BRANCH  54  79
ATOM     79  C   UNL A   1      37.513  31.359  31.768  1.00  0.00     0.058 A 
ATOM     80  C   UNL A   1      36.864  31.636  32.992  1.00  0.00     0.135 A 
ATOM     81  C   UNL A   1      37.068  32.105  30.660  1.00  0.00     0.135 A 
ATOM     82  F   UNL A   1      37.229  30.993  34.111  1.00  0.00    -0.206 F 
ATOM     83  C   UNL A   1      35.881  32.630  33.116  1.00  0.00     0.059 A 
ATOM     84  C   UNL A   1      36.086  33.093  30.758  1.00  0.00     0.059 A 
ATOM     85  F   UNL A   1      37.648  31.963  29.458  1.00  0.00    -0.206 F 
ATOM     86  C   UNL A   1      35.515  33.371  31.994  1.00  0.00     0.060 A 
BRANCH  86  87
ATOM     87  S   UNL A   1      34.389  34.779  32.177  1.00  0.00     0.124 S 
ATOM     88  O   UNL A   1      35.218  35.737  32.901  1.00  0.00    -0.237 OA
ATOM     89  O   UNL A   1      34.087  35.116  30.790  1.00  0.00    -0.237 OA
ATOM     90  O   UNL A   1      33.273  34.222  32.936  1.00  0.00    -0.744 OA
ENDBRANCH  86  87
ENDBRANCH  54  79
BRANCH  66  91
ATOM     91  C   UNL A   1      43.074  29.099  33.824  1.00  0.00     0.058 A 
ATOM     92  C   UNL A   1      43.313  29.404  35.177  1.00  0.00     0.135 A 
ATOM     93  C   UNL A   1      42.518  27.840  33.545  1.00  0.00     0.135 A 
ATOM     94  F   UNL A   1      43.747  30.617  35.546  1.00  0.00    -0.206 F 
ATOM     95  C   UNL A   1      43.049  28.487  36.196  1.00  0.00     0.059 A 
ATOM     96  C   UNL A   1      42.216  26.924  34.547  1.00  0.00     0.059 A 
ATOM     97  F   UNL A   1      42.214  27.507  32.279  1.00  0.00    -0.206 F 
ATOM     98  C   UNL A   1      42.495  27.248  35.871  1.00  0.00     0.060 A 
BRANCH  98  99
ATOM     99  S   UNL A   1      42.082  26.092  37.194  1.00  0.00     0.124 S 
ATOM    100  O   UNL A   1      42.362  24.801  36.573  1.00  0.00    -0.237 OA
ATOM    101  O   UNL A   1      42.994  26.492  38.262  1.00  0.00    -0.237 OA
ATOM    102  O   UNL A   1      40.671  26.364  37.458  1.00  0.00    -0.744 OA
ENDBRANCH  98  99
ENDBRANCH  66  91
ENDBRANCH  40  41
ENDBRANCH  32  35
ENDBRANCH  30  31
ENDBRANCH  29  30
ENDBRANCH   1  29
TORSDOF 19
ENDMDL
MODEL 2
REMARK VINA RESULT:     -12.5      2.911      9.393
REMARK SMILES COc1ccccc1-c1nnc(S[C@@H](C)C(=O)NCCCCNC(=O)c2ccc(-c3c4nc(c(-c5c(F)cc(S(=O)(=O)[O-])cc5F)c5ccc([nH]5)c(-c5c(F)cc(S(=O)(=O)[O-])cc5F)c5nc(c(-c6c(F)cc(S(=O)(=O)[O-])cc6F)c6ccc3[nH]6)C=C5)C=C4)cc2)n1-c1ccccc1
REMARK SMILES IDX 20 1 19 2 18 3 16 4 17 5 14 7 15 8 13 9 12 10 9 11 10 12
REMARK SMILES IDX 92 13 11 14 8 15 3 16 4 17 5 18 7 19 6 20 2 21 1 22 93 23
REMARK SMILES IDX 94 24 98 25 95 26 97 27 96 28 21 29 22 30 23 31 24 32 25 34
REMARK SMILES IDX 26 35 27 36 91 37 28 38 90 39 29 40 30 41 31 42 84 43 32 44
REMARK SMILES IDX 89 45 83 46 85 47 33 48 88 49 82 50 81 51 34 53 68 54 47 55
REMARK SMILES IDX 67 56 48 57 51 58 66 59 86 60 49 61 50 62 65 64 87 65 52 66
REMARK SMILES IDX 35 67 36 68 45 69 37 70 38 71 44 72 46 73 39 74 40 75 41 76
REMARK SMILES IDX 42 77 43 78 69 79 70 80 79 81 71 82 72 83 78 84 80 85 73 86
REMARK SMILES IDX 74 87 75 88 76 89 77 90 53 91 54 92 63 93 55 94 56 95 62 96
REMARK SMILES IDX 64 97 57 98 58 99 59 100 60 101 61 102
REMARK H PARENT 18 6 23 33 85 52 51 63
REMARK Flexibility Score: inf
ROOT
ATOM      1  C   UNL A   1      31.993  30.339  25.762  1.00  0.00     0.023 C 
ENDROOT
BRANCH   1   2
ATOM      2  C   UNL A   1      30.927  29.601  24.947  1.00  0.00     0.116 C 
BRANCH   2   3
ATOM      3  N   UNL A   1      30.792  29.817  23.528  1.00  0.00    -0.355 N 
ATOM      4  C   UNL A   1      30.810  28.837  22.559  1.00  0.00     0.233 C 
ATOM      5  O   UNL A   1      29.980  29.010  21.654  1.00  0.00    -0.274 OA
ATOM      6  H   UNL A   1      30.676  30.746  23.224  1.00  0.00     0.163 HD
BRANCH   4   7
ATOM      7  C   UNL A   1      31.906  27.765  22.371  1.00  0.00     0.141 C 
ATOM      8  C   UNL A   1      33.357  28.264  22.499  1.00  0.00     0.030 C 
BRANCH   7   9
ATOM      9  S   UNL A   1      31.906  26.457  21.155  1.00  0.00    -0.073 SA
BRANCH   9  10
ATOM     10  C   UNL A   1      32.565  24.970  21.720  1.00  0.00     0.196 A 
ATOM     11  C   UNL A   1      33.373  23.232  22.772  1.00  0.00     0.173 A 
ATOM     12  N   UNL A   1      33.799  23.182  21.527  1.00  0.00    -0.129 NA
ATOM     13  N   UNL A   1      32.684  24.426  22.988  1.00  0.00    -0.270 N 
ATOM     14  N   UNL A   1      33.242  24.229  20.862  1.00  0.00    -0.122 NA
BRANCH  11  15
ATOM     15  C   UNL A   1      33.424  22.124  23.712  1.00  0.00     0.062 A 
ATOM     16  C   UNL A   1      34.567  21.892  24.487  1.00  0.00     0.129 A 
ATOM     17  C   UNL A   1      34.703  20.701  25.197  1.00  0.00     0.047 A 
ATOM     18  C   UNL A   1      33.641  19.802  25.248  1.00  0.00     0.004 A 
ATOM     19  C   UNL A   1      32.325  21.282  23.864  1.00  0.00     0.016 A 
ATOM     20  C   UNL A   1      32.434  20.124  24.632  1.00  0.00     0.001 A 
BRANCH  16  21
ATOM     21  O   UNL A   1      35.598  22.798  24.583  1.00  0.00    -0.496 OA
ATOM     22  C   UNL A   1      36.767  22.338  23.890  1.00  0.00     0.278 C 
ENDBRANCH  16  21
ENDBRANCH  11  15
BRANCH  13  23
ATOM     23  C   UNL A   1      32.329  24.954  24.251  1.00  0.00     0.050 A 
ATOM     24  C   UNL A   1      31.031  24.833  24.734  1.00  0.00     0.027 A 
ATOM     25  C   UNL A   1      33.308  25.570  25.038  1.00  0.00     0.027 A 
ATOM     26  C   UNL A   1      30.695  25.426  25.956  1.00  0.00     0.002 A 
ATOM     27  C   UNL A   1      32.963  26.193  26.235  1.00  0.00     0.002 A 
ATOM     28  C   UNL A   1      31.649  26.134  26.687  1.00  0.00     0.000 A 
ENDBRANCH  13  23
ENDBRANCH   9  10
ENDBRANCH   7   9
ENDBRANCH   4   7
ENDBRANCH   2   3
ENDBRANCH   1   2
BRANCH   1  29
ATOM     29  C   UNL A   1      33.391  29.697  25.907  1.00  0.00     0.023 C 
BRANCH  29  30
ATOM     30  C   UNL A   1      34.079  29.862  27.262  1.00  0.00     0.116 C 
BRANCH  30  31
ATOM     31  N   UNL A   1      33.867  31.061  28.041  1.00  0.00    -0.352 N 
ATOM     32  C   UNL A   1      34.747  31.663  28.935  1.00  0.00     0.251 C 
ATOM     33  H   UNL A   1      32.997  31.505  27.924  1.00  0.00     0.163 HD
ATOM     34  O   UNL A   1      34.387  32.708  29.478  1.00  0.00    -0.269 OA
BRANCH  32  35
ATOM     35  C   UNL A   1      36.133  31.136  29.220  1.00  0.00     0.039 A 
ATOM     36  C   UNL A   1      36.298  29.788  29.576  1.00  0.00     0.014 A 
ATOM     37  C   UNL A   1      37.269  31.949  29.262  1.00  0.00     0.014 A 
ATOM     38  C   UNL A   1      37.567  29.290  29.922  1.00  0.00     0.010 A 
ATOM     39  C   UNL A   1      38.519  31.479  29.621  1.00  0.00     0.010 A 
ATOM     40  C   UNL A   1      38.679  30.146  29.941  1.00  0.00    -0.014 A 
BRANCH  40  41
ATOM     41  C   UNL A   1      40.048  29.632  29.877  1.00  0.00     0.031 A 
ATOM     42  C   UNL A   1      40.551  29.279  31.236  1.00  0.00     0.074 A 
ATOM     43  C   UNL A   1      40.686  29.151  28.787  1.00  0.00     0.049 A 
ATOM     44  N   UNL A   1      41.409  29.927  31.949  1.00  0.00    -0.248 NA
ATOM     45  C   UNL A   1      39.861  28.200  31.971  1.00  0.00     0.031 C 
ATOM     46  C   UNL A   1      40.187  29.008  27.418  1.00  0.00     0.029 A 
ATOM     47  N   UNL A   1      41.923  28.579  28.715  1.00  0.00    -0.354 N 
ATOM     48  C   UNL A   1      41.536  29.201  33.129  1.00  0.00     0.074 A 
ATOM     49  C   UNL A   1      40.397  28.324  33.187  1.00  0.00     0.031 C 
ATOM     50  C   UNL A   1      41.035  28.220  26.710  1.00  0.00     0.029 A 
ATOM     51  C   UNL A   1      42.195  27.900  27.529  1.00  0.00     0.049 A 
ATOM     52  H   UNL A   1      42.577  28.643  29.449  1.00  0.00     0.167 HD
ATOM     53  C   UNL A   1      42.700  29.181  33.835  1.00  0.00     0.037 A 
ATOM     54  C   UNL A   1      43.273  27.104  27.275  1.00  0.00     0.037 A 
ATOM     55  C   UNL A   1      43.618  30.180  33.350  1.00  0.00     0.049 A 
ATOM     56  C   UNL A   1      44.318  27.454  28.276  1.00  0.00     0.074 A 
ATOM     57  C   UNL A   1      43.568  31.555  33.203  1.00  0.00     0.029 A 
ATOM     58  N   UNL A   1      44.637  29.754  32.532  1.00  0.00    -0.354 N 
ATOM     59  N   UNL A   1      44.928  28.607  28.322  1.00  0.00    -0.248 NA
ATOM     60  C   UNL A   1      44.353  26.683  29.509  1.00  0.00     0.031 C 
ATOM     61  C   UNL A   1      44.207  31.813  31.955  1.00  0.00     0.029 A 
ATOM     62  C   UNL A   1      44.678  30.599  31.451  1.00  0.00     0.049 A 
ATOM     63  H   UNL A   1      45.229  28.983  32.691  1.00  0.00     0.167 HD
ATOM     64  C   UNL A   1      45.029  28.900  29.674  1.00  0.00     0.074 A 
ATOM     65  C   UNL A   1      44.732  27.642  30.358  1.00  0.00     0.031 C 
ATOM     66  C   UNL A   1      45.061  30.191  30.118  1.00  0.00     0.037 A 
BRANCH  53  67
ATOM     67  C   UNL A   1      43.151  28.038  34.708  1.00  0.00     0.058 A 
ATOM     68  C   UNL A   1      43.448  28.284  36.064  1.00  0.00     0.135 A 
ATOM     69  C   UNL A   1      43.541  26.770  34.219  1.00  0.00     0.135 A 
ATOM     70  F   UNL A   1      43.145  29.465  36.625  1.00  0.00    -0.206 F 
ATOM     71  C   UNL A   1      44.123  27.359  36.860  1.00  0.00     0.059 A 
ATOM     72  C   UNL A   1      44.157  25.809  35.012  1.00  0.00     0.059 A 
ATOM     73  F   UNL A   1      43.437  26.438  32.927  1.00  0.00    -0.206 F 
ATOM     74  C   UNL A   1      44.477  26.126  36.321  1.00  0.00     0.060 A 
BRANCH  74  75
ATOM     75  S   UNL A   1      45.407  24.954  37.323  1.00  0.00     0.124 S 
ATOM     76  O   UNL A   1      44.997  25.341  38.674  1.00  0.00    -0.237 OA
ATOM     77  O   UNL A   1      44.896  23.675  36.845  1.00  0.00    -0.237 OA
ATOM     78  O   UNL A   1      46.793  25.241  36.979  1.00  0.00    -0.744 OA
ENDBRANCH  74  75
ENDBRANCH  53  67
BRANCH  54  79
ATOM     79  C   UNL A   1      43.372  25.862  26.453  1.00  0.00     0.058 A 
ATOM     80  C   UNL A   1      44.346  25.725  25.439  1.00  0.00     0.135 A 
ATOM     81  C   UNL A   1      42.725  24.674  26.843  1.00  0.00     0.135 A 
ATOM     82  F   UNL A   1      45.033  26.795  25.013  1.00  0.00    -0.206 F 
ATOM     83  C   UNL A   1      44.693  24.481  24.892  1.00  0.00     0.059 A 
ATOM     84  C   UNL A   1      43.049  23.426  26.306  1.00  0.00     0.059 A 
ATOM     85  F   UNL A   1      41.821  24.677  27.834  1.00  0.00    -0.206 F 
ATOM     86  C   UNL A   1      44.054  23.331  25.350  1.00  0.00     0.060 A 
BRANCH  86  87
ATOM     87  S   UNL A   1      44.623  21.704  24.792  1.00  0.00     0.124 S 
ATOM     88  O   UNL A   1      45.919  21.593  25.453  1.00  0.00    -0.237 OA
ATOM     89  O   UNL A   1      43.574  20.821  25.292  1.00  0.00    -0.237 OA
ATOM     90  O   UNL A   1      44.674  21.845  23.340  1.00  0.00    -0.744 OA
ENDBRANCH  86  87
ENDBRANCH  54  79
BRANCH  66  91
ATOM     91  C   UNL A   1      45.298  31.291  29.114  1.00  0.00     0.058 A 
ATOM     92  C   UNL A   1      46.560  31.696  28.642  1.00  0.00     0.135 A 
ATOM     93  C   UNL A   1      44.174  31.856  28.489  1.00  0.00     0.135 A 
ATOM     94  F   UNL A   1      47.685  31.137  29.109  1.00  0.00    -0.206 F 
ATOM     95  C   UNL A   1      46.697  32.644  27.625  1.00  0.00     0.059 A 
ATOM     96  C   UNL A   1      44.286  32.776  27.451  1.00  0.00     0.059 A 
ATOM     97  F   UNL A   1      42.939  31.471  28.854  1.00  0.00    -0.206 F 
ATOM     98  C   UNL A   1      45.551  33.175  27.032  1.00  0.00     0.060 A 
BRANCH  98  99
ATOM     99  S   UNL A   1      45.726  34.343  25.666  1.00  0.00     0.124 S 
ATOM    100  O   UNL A   1      47.157  34.276  25.386  1.00  0.00    -0.237 OA
ATOM    101  O   UNL A   1      44.853  33.770  24.645  1.00  0.00    -0.237 OA
ATOM    102  O   UNL A   1      45.260  35.605  26.234  1.00  0.00    -0.744 OA
ENDBRANCH  98  99
ENDBRANCH  66  91
ENDBRANCH  40  41
ENDBRANCH  32  35
ENDBRANCH  30  31
ENDBRANCH  29  30
ENDBRANCH   1  29
TORSDOF 19
ENDMDL
MODEL 3
REMARK VINA RESULT:     -12.1      2.709      9.279
REMARK SMILES COc1ccccc1-c1nnc(S[C@@H](C)C(=O)NCCCCNC(=O)c2ccc(-c3c4nc(c(-c5c(F)cc(S(=O)(=O)[O-])cc5F)c5ccc([nH]5)c(-c5c(F)cc(S(=O)(=O)[O-])cc5F)c5nc(c(-c6c(F)cc(S(=O)(=O)[O-])cc6F)c6ccc3[nH]6)C=C5)C=C4)cc2)n1-c1ccccc1
REMARK SMILES IDX 20 1 19 2 18 3 16 4 17 5 14 7 15 8 13 9 12 10 9 11 10 12
REMARK SMILES IDX 92 13 11 14 8 15 3 16 4 17 5 18 7 19 6 20 2 21 1 22 93 23
REMARK SMILES IDX 94 24 98 25 95 26 97 27 96 28 21 29 22 30 23 31 24 32 25 34
REMARK SMILES IDX 26 35 27 36 91 37 28 38 90 39 29 40 30 41 31 42 84 43 32 44
REMARK SMILES IDX 89 45 83 46 85 47 33 48 88 49 82 50 81 51 34 53 68 54 47 55
REMARK SMILES IDX 67 56 48 57 51 58 66 59 86 60 49 61 50 62 65 64 87 65 52 66
REMARK SMILES IDX 35 67 36 68 45 69 37 70 38 71 44 72 46 73 39 74 40 75 41 76
REMARK SMILES IDX 42 77 43 78 69 79 70 80 79 81 71 82 72 83 78 84 80 85 73 86
REMARK SMILES IDX 74 87 75 88 76 89 77 90 53 91 54 92 63 93 55 94 56 95 62 96
REMARK SMILES IDX 64 97 57 98 58 99 59 100 60 101 61 102
REMARK H PARENT 18 6 23 33 85 52 51 63
REMARK Flexibility Score: inf
ROOT
ATOM      1  C   UNL A   1      32.192  29.323  26.177  1.00  0.00     0.023 C 
ENDROOT
BRANCH   1   2
ATOM      2  C   UNL A   1      32.508  29.112  24.694  1.00  0.00     0.116 C 
BRANCH   2   3
ATOM      3  N   UNL A   1      31.454  28.986  23.718  1.00  0.00    -0.355 N 
ATOM      4  C   UNL A   1      30.265  28.314  23.899  1.00  0.00     0.233 C 
ATOM      5  O   UNL A   1      29.281  28.894  23.417  1.00  0.00    -0.274 OA
ATOM      6  H   UNL A   1      31.597  29.418  22.845  1.00  0.00     0.163 HD
BRANCH   4   7
ATOM      7  C   UNL A   1      30.110  26.851  24.371  1.00  0.00     0.141 C 
ATOM      8  C   UNL A   1      28.896  26.092  23.807  1.00  0.00     0.030 C 
BRANCH   7   9
ATOM      9  S   UNL A   1      30.388  26.241  26.026  1.00  0.00    -0.073 SA
BRANCH   9  10
ATOM     10  C   UNL A   1      31.599  25.020  26.133  1.00  0.00     0.196 A 
ATOM     11  C   UNL A   1      33.165  23.512  25.904  1.00  0.00     0.173 A 
ATOM     12  N   UNL A   1      32.514  23.250  27.019  1.00  0.00    -0.129 NA
ATOM     13  N   UNL A   1      32.539  24.559  25.227  1.00  0.00    -0.270 N 
ATOM     14  N   UNL A   1      31.584  24.228  27.189  1.00  0.00    -0.122 NA
BRANCH  11  15
ATOM     15  C   UNL A   1      34.454  22.947  25.544  1.00  0.00     0.062 A 
ATOM     16  C   UNL A   1      34.547  21.663  24.991  1.00  0.00     0.129 A 
ATOM     17  C   UNL A   1      35.785  21.036  24.876  1.00  0.00     0.047 A 
ATOM     18  C   UNL A   1      36.947  21.741  25.182  1.00  0.00     0.004 A 
ATOM     19  C   UNL A   1      35.621  23.684  25.731  1.00  0.00     0.016 A 
ATOM     20  C   UNL A   1      36.865  23.081  25.550  1.00  0.00     0.001 A 
BRANCH  16  21
ATOM     21  O   UNL A   1      33.449  20.962  24.550  1.00  0.00    -0.496 OA
ATOM     22  C   UNL A   1      33.650  19.546  24.660  1.00  0.00     0.278 C 
ENDBRANCH  16  21
ENDBRANCH  11  15
BRANCH  13  23
ATOM     23  C   UNL A   1      32.778  24.929  23.883  1.00  0.00     0.050 A 
ATOM     24  C   UNL A   1      33.573  26.028  23.577  1.00  0.00     0.027 A 
ATOM     25  C   UNL A   1      32.239  24.153  22.851  1.00  0.00     0.027 A 
ATOM     26  C   UNL A   1      33.733  26.408  22.240  1.00  0.00     0.002 A 
ATOM     27  C   UNL A   1      32.367  24.556  21.523  1.00  0.00     0.002 A 
ATOM     28  C   UNL A   1      33.104  25.695  21.219  1.00  0.00     0.000 A 
ENDBRANCH  13  23
ENDBRANCH   9  10
ENDBRANCH   7   9
ENDBRANCH   4   7
ENDBRANCH   2   3
ENDBRANCH   1   2
BRANCH   1  29
ATOM     29  C   UNL A   1      33.349  29.248  27.199  1.00  0.00     0.023 C 
BRANCH  29  30
ATOM     30  C   UNL A   1      34.275  30.462  27.270  1.00  0.00     0.116 C 
BRANCH  30  31
ATOM     31  N   UNL A   1      34.061  31.478  28.275  1.00  0.00    -0.352 N 
ATOM     32  C   UNL A   1      34.922  31.856  29.301  1.00  0.00     0.251 C 
ATOM     33  H   UNL A   1      33.205  31.959  28.229  1.00  0.00     0.163 HD
ATOM     34  O   UNL A   1      34.565  32.775  30.039  1.00  0.00    -0.269 OA
BRANCH  32  35
ATOM     35  C   UNL A   1      36.287  31.246  29.509  1.00  0.00     0.039 A 
ATOM     36  C   UNL A   1      36.402  29.855  29.673  1.00  0.00     0.014 A 
ATOM     37  C   UNL A   1      37.451  32.002  29.663  1.00  0.00     0.014 A 
ATOM     38  C   UNL A   1      37.650  29.269  29.946  1.00  0.00     0.010 A 
ATOM     39  C   UNL A   1      38.681  31.443  29.953  1.00  0.00     0.010 A 
ATOM     40  C   UNL A   1      38.793  30.073  30.084  1.00  0.00    -0.014 A 
BRANCH  40  41
ATOM     41  C   UNL A   1      40.143  29.524  29.948  1.00  0.00     0.031 A 
ATOM     42  C   UNL A   1      40.738  29.234  31.285  1.00  0.00     0.074 A 
ATOM     43  C   UNL A   1      40.687  28.968  28.844  1.00  0.00     0.049 A 
ATOM     44  N   UNL A   1      41.660  29.899  31.896  1.00  0.00    -0.248 NA
ATOM     45  C   UNL A   1      40.084  28.213  32.129  1.00  0.00     0.031 C 
ATOM     46  C   UNL A   1      40.085  28.763  27.526  1.00  0.00     0.029 A 
ATOM     47  N   UNL A   1      41.905  28.365  28.714  1.00  0.00    -0.354 N 
ATOM     48  C   UNL A   1      41.860  29.236  33.102  1.00  0.00     0.074 A 
ATOM     49  C   UNL A   1      40.711  28.391  33.293  1.00  0.00     0.031 C 
ATOM     50  C   UNL A   1      40.862  27.917  26.803  1.00  0.00     0.029 A 
ATOM     51  C   UNL A   1      42.073  27.615  27.551  1.00  0.00     0.049 A 
ATOM     52  H   UNL A   1      42.613  28.452  29.392  1.00  0.00     0.167 HD
ATOM     53  C   UNL A   1      43.073  29.227  33.720  1.00  0.00     0.037 A 
ATOM     54  C   UNL A   1      43.113  26.781  27.264  1.00  0.00     0.037 A 
ATOM     55  C   UNL A   1      43.971  30.176  33.114  1.00  0.00     0.049 A 
ATOM     56  C   UNL A   1      44.237  27.160  28.164  1.00  0.00     0.074 A 
ATOM     57  C   UNL A   1      43.938  31.541  32.894  1.00  0.00     0.029 A 
ATOM     58  N   UNL A   1      44.918  29.681  32.249  1.00  0.00    -0.354 N 
ATOM     59  N   UNL A   1      44.872  28.299  28.100  1.00  0.00    -0.248 NA
ATOM     60  C   UNL A   1      44.349  26.457  29.433  1.00  0.00     0.031 C 
ATOM     61  C   UNL A   1      44.487  31.715  31.590  1.00  0.00     0.029 A 
ATOM     62  C   UNL A   1      44.895  30.465  31.122  1.00  0.00     0.049 A 
ATOM     63  H   UNL A   1      45.505  28.906  32.407  1.00  0.00     0.167 HD
ATOM     64  C   UNL A   1      45.079  28.663  29.423  1.00  0.00     0.074 A 
ATOM     65  C   UNL A   1      44.809  27.452  30.196  1.00  0.00     0.031 C 
ATOM     66  C   UNL A   1      45.169  29.975  29.790  1.00  0.00     0.037 A 
BRANCH  53  67
ATOM     67  C   UNL A   1      43.565  28.122  34.621  1.00  0.00     0.058 A 
ATOM     68  C   UNL A   1      44.069  28.449  35.897  1.00  0.00     0.135 A 
ATOM     69  C   UNL A   1      43.794  26.793  34.197  1.00  0.00     0.135 A 
ATOM     70  F   UNL A   1      43.930  29.690  36.388  1.00  0.00    -0.206 F 
ATOM     71  C   UNL A   1      44.786  27.537  36.671  1.00  0.00     0.059 A 
ATOM     72  C   UNL A   1      44.450  25.851  34.980  1.00  0.00     0.059 A 
ATOM     73  F   UNL A   1      43.484  26.371  32.966  1.00  0.00    -0.206 F 
ATOM     74  C   UNL A   1      44.975  26.242  36.200  1.00  0.00     0.060 A 
BRANCH  74  75
ATOM     75  S   UNL A   1      45.957  25.081  37.165  1.00  0.00     0.124 S 
ATOM     76  O   UNL A   1      45.053  24.798  38.281  1.00  0.00    -0.237 OA
ATOM     77  O   UNL A   1      46.156  23.992  36.216  1.00  0.00    -0.237 OA
ATOM     78  O   UNL A   1      47.151  25.845  37.499  1.00  0.00    -0.744 OA
ENDBRANCH  74  75
ENDBRANCH  53  67
BRANCH  54  79
ATOM     79  C   UNL A   1      43.127  25.494  26.508  1.00  0.00     0.058 A 
ATOM     80  C   UNL A   1      43.937  25.318  25.365  1.00  0.00     0.135 A 
ATOM     81  C   UNL A   1      42.586  24.317  27.059  1.00  0.00     0.135 A 
ATOM     82  F   UNL A   1      44.516  26.376  24.778  1.00  0.00    -0.206 F 
ATOM     83  C   UNL A   1      44.238  24.052  24.842  1.00  0.00     0.059 A 
ATOM     84  C   UNL A   1      42.865  23.047  26.551  1.00  0.00     0.059 A 
ATOM     85  F   UNL A   1      41.844  24.358  28.177  1.00  0.00    -0.206 F 
ATOM     86  C   UNL A   1      43.714  22.917  25.458  1.00  0.00     0.060 A 
BRANCH  86  87
ATOM     87  S   UNL A   1      44.244  21.273  24.912  1.00  0.00     0.124 S 
ATOM     88  O   UNL A   1      45.484  21.090  25.660  1.00  0.00    -0.237 OA
ATOM     89  O   UNL A   1      43.123  20.434  25.321  1.00  0.00    -0.237 OA
ATOM     90  O   UNL A   1      44.405  21.433  23.469  1.00  0.00    -0.744 OA
ENDBRANCH  86  87
ENDBRANCH  54  79
BRANCH  66  91
ATOM     91  C   UNL A   1      45.352  31.013  28.710  1.00  0.00     0.058 A 
ATOM     92  C   UNL A   1      44.307  31.627  27.994  1.00  0.00     0.135 A 
ATOM     93  C   UNL A   1      46.646  31.516  28.503  1.00  0.00     0.135 A 
ATOM     94  F   UNL A   1      43.030  31.281  28.203  1.00  0.00    -0.206 F 
ATOM     95  C   UNL A   1      44.545  32.664  27.090  1.00  0.00     0.059 A 
ATOM     96  C   UNL A   1      46.902  32.571  27.633  1.00  0.00     0.059 A 
ATOM     97  F   UNL A   1      47.682  31.011  29.196  1.00  0.00    -0.206 F 
ATOM     98  C   UNL A   1      45.848  33.133  26.919  1.00  0.00     0.060 A 
BRANCH  98  99
ATOM     99  S   UNL A   1      46.146  34.524  25.808  1.00  0.00     0.124 S 
ATOM    100  O   UNL A   1      45.209  34.257  24.722  1.00  0.00    -0.237 OA
ATOM    101  O   UNL A   1      45.830  35.676  26.649  1.00  0.00    -0.237 OA
ATOM    102  O   UNL A   1      47.559  34.388  25.461  1.00  0.00    -0.744 OA
ENDBRANCH  98  99
ENDBRANCH  66  91
ENDBRANCH  40  41
ENDBRANCH  32  35
ENDBRANCH  30  31
ENDBRANCH  29  30
ENDBRANCH   1  29
TORSDOF 19
ENDMDL
