MODEL 1
REMARK VINA RESULT:     -12.6      0.000      0.000
REMARK SMILES Cc1nsc(N(C)C(=O)c2ccc(=O)n(C)n2)c1C(=O)NCCCCNC(=O)c1ccc(-c2c3nc(c(-c4c(F)cc(S(=O)(=O)[O-])cc4F)c4ccc([nH]4)c(-c4c(F)cc(S(=O)(=O)[O-])cc4F)c4nc(c(-c5c(F)cc(S(=O)(=O)[O-])cc5F)c5ccc2[nH]5)C=C4)C=C3)cc1
REMARK SMILES IDX 23 1 22 2 21 3 19 4 20 5 18 7 1 8 2 9 3 10 4 11 5 12 6 13
REMARK SMILES IDX 7 14 8 15 9 16 10 17 11 18 17 19 12 20 15 21 13 22 16 23
REMARK SMILES IDX 14 24 24 25 25 26 26 27 27 28 28 30 29 31 30 32 94 33 31 34
REMARK SMILES IDX 93 35 32 36 33 37 34 38 87 39 35 40 92 41 86 42 88 43 36 44
REMARK SMILES IDX 91 45 85 46 84 47 37 49 71 50 50 51 70 52 51 53 54 54 69 55
REMARK SMILES IDX 89 56 52 57 53 58 68 60 90 61 55 62 38 63 39 64 48 65 40 66
REMARK SMILES IDX 41 67 47 68 49 69 42 70 43 71 44 72 45 73 46 74 72 75 73 76
REMARK SMILES IDX 82 77 74 78 75 79 81 80 83 81 76 82 77 83 78 84 79 85 80 86
REMARK SMILES IDX 56 87 57 88 66 89 58 90 59 91 65 92 67 93 60 94 61 95 62 96
REMARK SMILES IDX 63 97 64 98
REMARK H PARENT 21 6 26 29 88 48 54 59
REMARK Flexibility Score: inf
ROOT
ATOM      1  C   UNL A   1      32.082  30.965  26.743  1.00  0.00     0.023 C 
ENDROOT
BRANCH   1   2
ATOM      2  C   UNL A   1      31.563  30.062  25.624  1.00  0.00     0.116 C 
BRANCH   2   3
ATOM      3  N   UNL A   1      32.461  29.712  24.545  1.00  0.00    -0.352 N 
ATOM      4  C   UNL A   1      32.357  28.708  23.594  1.00  0.00     0.256 C 
ATOM      5  O   UNL A   1      33.049  28.822  22.581  1.00  0.00    -0.269 OA
ATOM      6  H   UNL A   1      33.268  30.273  24.474  1.00  0.00     0.163 HD
BRANCH   4   7
ATOM      7  C   UNL A   1      31.490  27.536  23.781  1.00  0.00     0.097 A 
ATOM      8  C   UNL A   1      29.120  28.477  22.973  1.00  0.00     0.069 C 
ATOM      9  C   UNL A   1      30.053  27.441  23.507  1.00  0.00     0.066 A 
ATOM     10  N   UNL A   1      29.485  26.258  23.732  1.00  0.00    -0.195 NA
ATOM     11  S   UNL A   1      30.643  25.166  24.083  1.00  0.00    -0.017 S 
ATOM     12  C   UNL A   1      31.979  26.244  24.062  1.00  0.00     0.131 A 
BRANCH  12  13
ATOM     13  N   UNL A   1      33.256  25.673  24.324  1.00  0.00    -0.299 N 
ATOM     14  C   UNL A   1      34.018  25.941  25.551  1.00  0.00     0.154 C 
BRANCH  13  15
ATOM     15  C   UNL A   1      33.824  24.837  23.339  1.00  0.00     0.279 C 
ATOM     16  O   UNL A   1      33.963  25.150  22.156  1.00  0.00    -0.267 OA
BRANCH  15  17
ATOM     17  C   UNL A   1      34.468  23.504  23.778  1.00  0.00     0.149 A 
ATOM     18  C   UNL A   1      35.923  23.393  23.531  1.00  0.00     0.042 A 
ATOM     19  N   UNL A   1      33.756  22.565  24.332  1.00  0.00    -0.165 NA
ATOM     20  C   UNL A   1      36.540  22.297  23.974  1.00  0.00     0.076 A 
ATOM     21  N   UNL A   1      34.418  21.431  24.772  1.00  0.00    -0.232 N 
ATOM     22  C   UNL A   1      35.791  21.242  24.685  1.00  0.00     0.266 A 
ATOM     23  C   UNL A   1      33.615  20.393  25.390  1.00  0.00     0.178 C 
ATOM     24  O   UNL A   1      36.403  20.285  25.150  1.00  0.00    -0.268 OA
ENDBRANCH  15  17
ENDBRANCH  13  15
ENDBRANCH  12  13
ENDBRANCH   4   7
ENDBRANCH   2   3
ENDBRANCH   1   2
BRANCH   1  25
ATOM     25  C   UNL A   1      33.423  30.647  27.406  1.00  0.00     0.023 C 
BRANCH  25  26
ATOM     26  C   UNL A   1      34.356  31.827  27.637  1.00  0.00     0.116 C 
BRANCH  26  27
ATOM     27  N   UNL A   1      34.305  32.365  28.989  1.00  0.00    -0.352 N 
ATOM     28  C   UNL A   1      35.107  32.022  30.063  1.00  0.00     0.251 C 
ATOM     29  H   UNL A   1      33.621  33.053  29.158  1.00  0.00     0.163 HD
ATOM     30  O   UNL A   1      34.748  32.287  31.200  1.00  0.00    -0.269 OA
BRANCH  28  31
ATOM     31  C   UNL A   1      36.397  31.332  29.826  1.00  0.00     0.039 A 
ATOM     32  C   UNL A   1      37.586  32.066  29.777  1.00  0.00     0.014 A 
ATOM     33  C   UNL A   1      36.417  29.950  29.618  1.00  0.00     0.014 A 
ATOM     34  C   UNL A   1      38.792  31.392  29.590  1.00  0.00     0.010 A 
ATOM     35  C   UNL A   1      37.616  29.272  29.506  1.00  0.00     0.010 A 
ATOM     36  C   UNL A   1      38.805  29.991  29.474  1.00  0.00    -0.014 A 
BRANCH  36  37
ATOM     37  C   UNL A   1      40.077  29.271  29.530  1.00  0.00     0.031 A 
ATOM     38  C   UNL A   1      40.555  29.068  30.922  1.00  0.00     0.074 A 
ATOM     39  C   UNL A   1      40.682  28.667  28.482  1.00  0.00     0.049 A 
ATOM     40  N   UNL A   1      41.469  29.740  31.540  1.00  0.00    -0.248 NA
ATOM     41  C   UNL A   1      39.806  28.151  31.800  1.00  0.00     0.031 C 
ATOM     42  C   UNL A   1      40.152  28.495  27.126  1.00  0.00     0.029 A 
ATOM     43  N   UNL A   1      41.876  28.003  28.424  1.00  0.00    -0.354 N 
ATOM     44  C   UNL A   1      41.621  29.109  32.771  1.00  0.00     0.074 A 
ATOM     45  C   UNL A   1      40.426  28.335  32.970  1.00  0.00     0.031 C 
ATOM     46  C   UNL A   1      40.911  27.600  26.450  1.00  0.00     0.029 A 
ATOM     47  C   UNL A   1      42.076  27.269  27.253  1.00  0.00     0.049 A 
ATOM     48  H   UNL A   1      42.542  28.039  29.149  1.00  0.00     0.167 HD
ATOM     49  C   UNL A   1      42.859  29.000  33.331  1.00  0.00     0.037 A 
ATOM     50  C   UNL A   1      43.132  26.466  26.958  1.00  0.00     0.037 A 
ATOM     51  C   UNL A   1      43.798  29.842  32.634  1.00  0.00     0.049 A 
ATOM     52  C   UNL A   1      44.270  26.935  27.781  1.00  0.00     0.074 A 
ATOM     53  C   UNL A   1      44.086  31.186  32.547  1.00  0.00     0.029 A 
ATOM     54  N   UNL A   1      44.362  29.230  31.546  1.00  0.00    -0.354 N 
ATOM     55  N   UNL A   1      44.839  28.099  27.626  1.00  0.00    -0.248 NA
ATOM     56  C   UNL A   1      44.597  26.231  29.017  1.00  0.00     0.031 C 
ATOM     57  C   UNL A   1      44.736  31.375  31.291  1.00  0.00     0.029 A 
ATOM     58  C   UNL A   1      44.869  30.140  30.663  1.00  0.00     0.049 A 
ATOM     59  H   UNL A   1      44.398  28.255  31.419  1.00  0.00     0.167 HD
ATOM     60  C   UNL A   1      45.232  28.450  28.899  1.00  0.00     0.074 A 
ATOM     61  C   UNL A   1      45.226  27.213  29.668  1.00  0.00     0.031 C 
ATOM     62  C   UNL A   1      45.184  29.747  29.308  1.00  0.00     0.037 A 
BRANCH  49  63
ATOM     63  C   UNL A   1      43.368  27.802  34.117  1.00  0.00     0.058 A 
ATOM     64  C   UNL A   1      43.816  28.001  35.443  1.00  0.00     0.135 A 
ATOM     65  C   UNL A   1      43.721  26.561  33.545  1.00  0.00     0.135 A 
ATOM     66  F   UNL A   1      43.552  29.149  36.089  1.00  0.00    -0.206 F 
ATOM     67  C   UNL A   1      44.604  27.068  36.121  1.00  0.00     0.059 A 
ATOM     68  C   UNL A   1      44.463  25.596  34.221  1.00  0.00     0.059 A 
ATOM     69  F   UNL A   1      43.452  26.252  32.272  1.00  0.00    -0.206 F 
ATOM     70  C   UNL A   1      44.928  25.870  35.495  1.00  0.00     0.060 A 
BRANCH  70  71
ATOM     71  S   UNL A   1      45.988  24.684  36.342  1.00  0.00     0.124 S 
ATOM     72  O   UNL A   1      46.648  25.532  37.328  1.00  0.00    -0.237 OA
ATOM     73  O   UNL A   1      45.013  23.733  36.865  1.00  0.00    -0.237 OA
ATOM     74  O   UNL A   1      46.840  24.174  35.272  1.00  0.00    -0.744 OA
ENDBRANCH  70  71
ENDBRANCH  49  63
BRANCH  50  75
ATOM     75  C   UNL A   1      43.225  25.199  26.181  1.00  0.00     0.058 A 
ATOM     76  C   UNL A   1      44.246  25.020  25.224  1.00  0.00     0.135 A 
ATOM     77  C   UNL A   1      42.561  24.033  26.604  1.00  0.00     0.135 A 
ATOM     78  F   UNL A   1      44.923  26.078  24.752  1.00  0.00    -0.206 F 
ATOM     79  C   UNL A   1      44.661  23.755  24.800  1.00  0.00     0.059 A 
ATOM     80  C   UNL A   1      42.954  22.759  26.186  1.00  0.00     0.059 A 
ATOM     81  F   UNL A   1      41.580  24.096  27.516  1.00  0.00    -0.206 F 
ATOM     82  C   UNL A   1      44.034  22.625  25.318  1.00  0.00     0.060 A 
BRANCH  82  83
ATOM     83  S   UNL A   1      44.731  20.994  24.959  1.00  0.00     0.124 S 
ATOM     84  O   UNL A   1      46.068  21.101  25.530  1.00  0.00    -0.237 OA
ATOM     85  O   UNL A   1      43.809  20.106  25.658  1.00  0.00    -0.237 OA
ATOM     86  O   UNL A   1      44.679  20.918  23.500  1.00  0.00    -0.744 OA
ENDBRANCH  82  83
ENDBRANCH  50  75
BRANCH  62  87
ATOM     87  C   UNL A   1      45.341  30.821  28.281  1.00  0.00     0.058 A 
ATOM     88  C   UNL A   1      44.308  31.361  27.499  1.00  0.00     0.135 A 
ATOM     89  C   UNL A   1      46.610  31.412  28.180  1.00  0.00     0.135 A 
ATOM     90  F   UNL A   1      43.057  30.884  27.582  1.00  0.00    -0.206 F 
ATOM     91  C   UNL A   1      44.533  32.451  26.655  1.00  0.00     0.059 A 
ATOM     92  C   UNL A   1      46.850  32.511  27.370  1.00  0.00     0.059 A 
ATOM     93  F   UNL A   1      47.626  30.950  28.929  1.00  0.00    -0.206 F 
ATOM     94  C   UNL A   1      45.807  33.027  26.608  1.00  0.00     0.060 A 
BRANCH  94  95
ATOM     95  S   UNL A   1      46.074  34.506  25.607  1.00  0.00     0.124 S 
ATOM     96  O   UNL A   1      45.626  35.569  26.500  1.00  0.00    -0.237 OA
ATOM     97  O   UNL A   1      47.510  34.455  25.348  1.00  0.00    -0.237 OA
ATOM     98  O   UNL A   1      45.231  34.281  24.434  1.00  0.00    -0.744 OA
ENDBRANCH  94  95
ENDBRANCH  62  87
ENDBRANCH  36  37
ENDBRANCH  28  31
ENDBRANCH  26  27
ENDBRANCH  25  26
ENDBRANCH   1  25
TORSDOF 17
ENDMDL
MODEL 2
REMARK VINA RESULT:     -12.2      1.322      2.095
REMARK SMILES Cc1nsc(N(C)C(=O)c2ccc(=O)n(C)n2)c1C(=O)NCCCCNC(=O)c1ccc(-c2c3nc(c(-c4c(F)cc(S(=O)(=O)[O-])cc4F)c4ccc([nH]4)c(-c4c(F)cc(S(=O)(=O)[O-])cc4F)c4nc(c(-c5c(F)cc(S(=O)(=O)[O-])cc5F)c5ccc2[nH]5)C=C4)C=C3)cc1
REMARK SMILES IDX 23 1 22 2 21 3 19 4 20 5 18 7 1 8 2 9 3 10 4 11 5 12 6 13
REMARK SMILES IDX 7 14 8 15 9 16 10 17 11 18 17 19 12 20 15 21 13 22 16 23
REMARK SMILES IDX 14 24 24 25 25 26 26 27 27 28 28 30 29 31 30 32 94 33 31 34
REMARK SMILES IDX 93 35 32 36 33 37 34 38 87 39 35 40 92 41 86 42 88 43 36 44
REMARK SMILES IDX 91 45 85 46 84 47 37 49 71 50 50 51 70 52 51 53 54 54 69 55
REMARK SMILES IDX 89 56 52 57 53 58 68 60 90 61 55 62 38 63 39 64 48 65 40 66
REMARK SMILES IDX 41 67 47 68 49 69 42 70 43 71 44 72 45 73 46 74 72 75 73 76
REMARK SMILES IDX 82 77 74 78 75 79 81 80 83 81 76 82 77 83 78 84 79 85 80 86
REMARK SMILES IDX 56 87 57 88 66 89 58 90 59 91 65 92 67 93 60 94 61 95 62 96
REMARK SMILES IDX 63 97 64 98
REMARK H PARENT 21 6 26 29 88 48 54 59
REMARK Flexibility Score: inf
ROOT
ATOM      1  C   UNL A   1      34.809  29.375  27.280  1.00  0.00     0.023 C 
ENDROOT
BRANCH   1   2
ATOM      2  C   UNL A   1      34.068  28.360  26.411  1.00  0.00     0.116 C 
BRANCH   2   3
ATOM      3  N   UNL A   1      32.892  27.715  26.951  1.00  0.00    -0.352 N 
ATOM      4  C   UNL A   1      31.754  27.256  26.303  1.00  0.00     0.256 C 
ATOM      5  O   UNL A   1      31.055  26.441  26.907  1.00  0.00    -0.269 OA
ATOM      6  H   UNL A   1      32.900  27.580  27.927  1.00  0.00     0.163 HD
BRANCH   4   7
ATOM      7  C   UNL A   1      31.364  27.733  24.969  1.00  0.00     0.097 A 
ATOM      8  C   UNL A   1      31.267  30.379  25.341  1.00  0.00     0.069 C 
ATOM      9  C   UNL A   1      31.145  29.120  24.548  1.00  0.00     0.066 A 
ATOM     10  N   UNL A   1      30.821  29.307  23.272  1.00  0.00    -0.195 NA
ATOM     11  S   UNL A   1      30.951  27.892  22.473  1.00  0.00    -0.017 S 
ATOM     12  C   UNL A   1      31.349  26.910  23.824  1.00  0.00     0.131 A 
BRANCH  12  13
ATOM     13  N   UNL A   1      31.568  25.530  23.558  1.00  0.00    -0.299 N 
ATOM     14  C   UNL A   1      30.485  24.537  23.522  1.00  0.00     0.154 C 
BRANCH  13  15
ATOM     15  C   UNL A   1      32.896  25.096  23.354  1.00  0.00     0.279 C 
ATOM     16  O   UNL A   1      33.677  25.599  22.546  1.00  0.00    -0.267 OA
BRANCH  15  17
ATOM     17  C   UNL A   1      33.483  24.030  24.306  1.00  0.00     0.149 A 
ATOM     18  C   UNL A   1      34.065  24.556  25.561  1.00  0.00     0.042 A 
ATOM     19  N   UNL A   1      33.446  22.766  24.001  1.00  0.00    -0.165 NA
ATOM     20  C   UNL A   1      34.503  23.668  26.455  1.00  0.00     0.076 A 
ATOM     21  N   UNL A   1      33.920  21.864  24.940  1.00  0.00    -0.232 N 
ATOM     22  C   UNL A   1      34.405  22.219  26.192  1.00  0.00     0.266 A 
ATOM     23  C   UNL A   1      33.872  20.457  24.591  1.00  0.00     0.178 C 
ATOM     24  O   UNL A   1      34.744  21.429  27.069  1.00  0.00    -0.268 OA
ENDBRANCH  15  17
ENDBRANCH  13  15
ENDBRANCH  12  13
ENDBRANCH   4   7
ENDBRANCH   2   3
ENDBRANCH   1   2
BRANCH   1  25
ATOM     25  C   UNL A   1      34.213  30.769  27.484  1.00  0.00     0.023 C 
BRANCH  25  26
ATOM     26  C   UNL A   1      35.160  31.835  28.017  1.00  0.00     0.116 C 
BRANCH  26  27
ATOM     27  N   UNL A   1      34.760  32.389  29.303  1.00  0.00    -0.352 N 
ATOM     28  C   UNL A   1      35.240  32.045  30.555  1.00  0.00     0.251 C 
ATOM     29  H   UNL A   1      34.069  33.091  29.279  1.00  0.00     0.163 HD
ATOM     30  O   UNL A   1      34.596  32.329  31.554  1.00  0.00    -0.269 OA
BRANCH  28  31
ATOM     31  C   UNL A   1      36.533  31.330  30.675  1.00  0.00     0.039 A 
ATOM     32  C   UNL A   1      36.560  29.933  30.721  1.00  0.00     0.014 A 
ATOM     33  C   UNL A   1      37.722  32.059  30.776  1.00  0.00     0.014 A 
ATOM     34  C   UNL A   1      37.790  29.280  30.797  1.00  0.00     0.010 A 
ATOM     35  C   UNL A   1      38.945  31.414  30.777  1.00  0.00     0.010 A 
ATOM     36  C   UNL A   1      38.982  30.025  30.806  1.00  0.00    -0.014 A 
BRANCH  36  37
ATOM     37  C   UNL A   1      40.263  29.342  30.633  1.00  0.00     0.031 A 
ATOM     38  C   UNL A   1      40.976  29.134  31.921  1.00  0.00     0.074 A 
ATOM     39  C   UNL A   1      40.699  28.769  29.488  1.00  0.00     0.049 A 
ATOM     40  N   UNL A   1      41.963  29.824  32.388  1.00  0.00    -0.248 NA
ATOM     41  C   UNL A   1      40.410  28.184  32.897  1.00  0.00     0.031 C 
ATOM     42  C   UNL A   1      39.952  28.600  28.238  1.00  0.00     0.029 A 
ATOM     43  N   UNL A   1      41.883  28.140  29.217  1.00  0.00    -0.354 N 
ATOM     44  C   UNL A   1      42.338  29.181  33.565  1.00  0.00     0.074 A 
ATOM     45  C   UNL A   1      41.214  28.371  33.948  1.00  0.00     0.031 C 
ATOM     46  C   UNL A   1      40.608  27.736  27.427  1.00  0.00     0.029 A 
ATOM     47  C   UNL A   1      41.901  27.428  28.016  1.00  0.00     0.049 A 
ATOM     48  H   UNL A   1      42.661  28.186  29.820  1.00  0.00     0.167 HD
ATOM     49  C   UNL A   1      43.654  29.101  33.906  1.00  0.00     0.037 A 
ATOM     50  C   UNL A   1      42.913  26.660  27.534  1.00  0.00     0.037 A 
ATOM     51  C   UNL A   1      44.439  29.979  33.075  1.00  0.00     0.049 A 
ATOM     52  C   UNL A   1      44.161  27.151  28.161  1.00  0.00     0.074 A 
ATOM     53  C   UNL A   1      44.673  31.332  32.965  1.00  0.00     0.029 A 
ATOM     54  N   UNL A   1      44.828  29.398  31.897  1.00  0.00    -0.354 N 
ATOM     55  N   UNL A   1      44.664  28.333  27.933  1.00  0.00    -0.248 NA
ATOM     56  C   UNL A   1      44.711  26.441  29.311  1.00  0.00     0.031 C 
ATOM     57  C   UNL A   1      45.096  31.556  31.621  1.00  0.00     0.029 A 
ATOM     58  C   UNL A   1      45.154  30.334  30.957  1.00  0.00     0.049 A 
ATOM     59  H   UNL A   1      44.867  28.426  31.748  1.00  0.00     0.167 HD
ATOM     60  C   UNL A   1      45.258  28.678  29.128  1.00  0.00     0.074 A 
ATOM     61  C   UNL A   1      45.414  27.431  29.865  1.00  0.00     0.031 C 
ATOM     62  C   UNL A   1      45.245  29.968  29.562  1.00  0.00     0.037 A 
BRANCH  49  63
ATOM     63  C   UNL A   1      44.321  27.908  34.573  1.00  0.00     0.058 A 
ATOM     64  C   UNL A   1      44.196  26.636  33.969  1.00  0.00     0.135 A 
ATOM     65  C   UNL A   1      44.797  27.896  35.902  1.00  0.00     0.135 A 
ATOM     66  F   UNL A   1      43.741  26.518  32.711  1.00  0.00    -0.206 F 
ATOM     67  C   UNL A   1      44.463  25.447  34.652  1.00  0.00     0.059 A 
ATOM     68  C   UNL A   1      45.117  26.726  36.585  1.00  0.00     0.059 A 
ATOM     69  F   UNL A   1      44.887  29.005  36.644  1.00  0.00    -0.206 F 
ATOM     70  C   UNL A   1      44.917  25.505  35.965  1.00  0.00     0.060 A 
BRANCH  70  71
ATOM     71  S   UNL A   1      45.213  23.975  36.870  1.00  0.00     0.124 S 
ATOM     72  O   UNL A   1      46.670  23.927  36.896  1.00  0.00    -0.237 OA
ATOM     73  O   UNL A   1      44.557  24.251  38.144  1.00  0.00    -0.237 OA
ATOM     74  O   UNL A   1      44.559  22.965  36.042  1.00  0.00    -0.744 OA
ENDBRANCH  70  71
ENDBRANCH  49  63
BRANCH  50  75
ATOM     75  C   UNL A   1      42.906  25.407  26.729  1.00  0.00     0.058 A 
ATOM     76  C   UNL A   1      43.556  25.356  25.478  1.00  0.00     0.135 A 
ATOM     77  C   UNL A   1      42.589  24.167  27.313  1.00  0.00     0.135 A 
ATOM     78  F   UNL A   1      43.883  26.490  24.840  1.00  0.00    -0.206 F 
ATOM     79  C   UNL A   1      43.970  24.155  24.897  1.00  0.00     0.059 A 
ATOM     80  C   UNL A   1      42.984  22.953  26.745  1.00  0.00     0.059 A 
ATOM     81  F   UNL A   1      41.977  24.107  28.504  1.00  0.00    -0.206 F 
ATOM     82  C   UNL A   1      43.714  22.957  25.559  1.00  0.00     0.060 A 
BRANCH  82  83
ATOM     83  S   UNL A   1      44.460  21.432  24.931  1.00  0.00     0.124 S 
ATOM     84  O   UNL A   1      44.542  21.700  23.500  1.00  0.00    -0.237 OA
ATOM     85  O   UNL A   1      45.731  21.396  25.647  1.00  0.00    -0.237 OA
ATOM     86  O   UNL A   1      43.500  20.401  25.319  1.00  0.00    -0.744 OA
ENDBRANCH  82  83
ENDBRANCH  50  75
BRANCH  62  87
ATOM     87  C   UNL A   1      45.198  31.060  28.542  1.00  0.00     0.058 A 
ATOM     88  C   UNL A   1      46.307  31.598  27.871  1.00  0.00     0.135 A 
ATOM     89  C   UNL A   1      43.923  31.495  28.148  1.00  0.00     0.135 A 
ATOM     90  F   UNL A   1      47.553  31.191  28.156  1.00  0.00    -0.206 F 
ATOM     91  C   UNL A   1      46.147  32.531  26.843  1.00  0.00     0.059 A 
ATOM     92  C   UNL A   1      43.740  32.398  27.112  1.00  0.00     0.059 A 
ATOM     93  F   UNL A   1      42.829  30.988  28.740  1.00  0.00    -0.206 F 
ATOM     94  C   UNL A   1      44.857  32.914  26.462  1.00  0.00     0.060 A 
BRANCH  94  95
ATOM     95  S   UNL A   1      44.642  34.029  25.059  1.00  0.00     0.124 S 
ATOM     96  O   UNL A   1      43.632  34.957  25.554  1.00  0.00    -0.237 OA
ATOM     97  O   UNL A   1      45.983  34.581  24.888  1.00  0.00    -0.237 OA
ATOM     98  O   UNL A   1      44.201  33.144  23.983  1.00  0.00    -0.744 OA
ENDBRANCH  94  95
ENDBRANCH  62  87
ENDBRANCH  36  37
ENDBRANCH  28  31
ENDBRANCH  26  27
ENDBRANCH  25  26
ENDBRANCH   1  25
TORSDOF 17
ENDMDL
MODEL 3
REMARK VINA RESULT:     -12.2      1.743      4.039
REMARK SMILES Cc1nsc(N(C)C(=O)c2ccc(=O)n(C)n2)c1C(=O)NCCCCNC(=O)c1ccc(-c2c3nc(c(-c4c(F)cc(S(=O)(=O)[O-])cc4F)c4ccc([nH]4)c(-c4c(F)cc(S(=O)(=O)[O-])cc4F)c4nc(c(-c5c(F)cc(S(=O)(=O)[O-])cc5F)c5ccc2[nH]5)C=C4)C=C3)cc1
REMARK SMILES IDX 23 1 22 2 21 3 19 4 20 5 18 7 1 8 2 9 3 10 4 11 5 12 6 13
REMARK SMILES IDX 7 14 8 15 9 16 10 17 11 18 17 19 12 20 15 21 13 22 16 23
REMARK SMILES IDX 14 24 24 25 25 26 26 27 27 28 28 30 29 31 30 32 94 33 31 34
REMARK SMILES IDX 93 35 32 36 33 37 34 38 87 39 35 40 92 41 86 42 88 43 36 44
REMARK SMILES IDX 91 45 85 46 84 47 37 49 71 50 50 51 70 52 51 53 54 54 69 55
REMARK SMILES IDX 89 56 52 57 53 58 68 60 90 61 55 62 38 63 39 64 48 65 40 66
REMARK SMILES IDX 41 67 47 68 49 69 42 70 43 71 44 72 45 73 46 74 72 75 73 76
REMARK SMILES IDX 82 77 74 78 75 79 81 80 83 81 76 82 77 83 78 84 79 85 80 86
REMARK SMILES IDX 56 87 57 88 66 89 58 90 59 91 65 92 67 93 60 94 61 95 62 96
REMARK SMILES IDX 63 97 64 98
REMARK H PARENT 21 6 26 29 88 48 54 59
REMARK Flexibility Score: inf
ROOT
ATOM      1  C   UNL A   1      34.041  29.018  27.103  1.00  0.00     0.023 C 
ENDROOT
BRANCH   1   2
ATOM      2  C   UNL A   1      33.408  27.941  26.224  1.00  0.00     0.116 C 
BRANCH   2   3
ATOM      3  N   UNL A   1      32.046  27.536  26.496  1.00  0.00    -0.352 N 
ATOM      4  C   UNL A   1      31.280  26.543  25.904  1.00  0.00     0.256 C 
ATOM      5  O   UNL A   1      30.290  26.153  26.526  1.00  0.00    -0.269 OA
ATOM      6  H   UNL A   1      31.595  28.042  27.211  1.00  0.00     0.163 HD
BRANCH   4   7
ATOM      7  C   UNL A   1      31.598  25.989  24.581  1.00  0.00     0.097 A 
ATOM      8  C   UNL A   1      32.091  23.427  25.166  1.00  0.00     0.069 C 
ATOM      9  C   UNL A   1      31.961  24.606  24.259  1.00  0.00     0.066 A 
ATOM     10  N   UNL A   1      32.182  24.335  22.975  1.00  0.00    -0.195 NA
ATOM     11  S   UNL A   1      31.782  25.635  22.077  1.00  0.00    -0.017 S 
ATOM     12  C   UNL A   1      31.389  26.689  23.375  1.00  0.00     0.131 A 
BRANCH  12  13
ATOM     13  N   UNL A   1      30.959  27.997  23.017  1.00  0.00    -0.299 N 
ATOM     14  C   UNL A   1      31.888  29.083  22.678  1.00  0.00     0.154 C 
BRANCH  13  15
ATOM     15  C   UNL A   1      29.573  28.265  23.024  1.00  0.00     0.279 C 
ATOM     16  O   UNL A   1      28.710  27.462  23.380  1.00  0.00    -0.267 OA
BRANCH  15  17
ATOM     17  C   UNL A   1      29.093  29.702  22.725  1.00  0.00     0.149 A 
ATOM     18  C   UNL A   1      29.154  30.640  23.868  1.00  0.00     0.042 A 
ATOM     19  N   UNL A   1      28.678  30.037  21.537  1.00  0.00    -0.165 NA
ATOM     20  C   UNL A   1      28.836  31.914  23.636  1.00  0.00     0.076 A 
ATOM     21  N   UNL A   1      28.340  31.364  21.325  1.00  0.00    -0.232 N 
ATOM     22  C   UNL A   1      28.440  32.362  22.286  1.00  0.00     0.266 A 
ATOM     23  C   UNL A   1      27.880  31.726  19.997  1.00  0.00     0.178 C 
ATOM     24  O   UNL A   1      28.232  33.555  22.089  1.00  0.00    -0.268 OA
ENDBRANCH  15  17
ENDBRANCH  13  15
ENDBRANCH  12  13
ENDBRANCH   4   7
ENDBRANCH   2   3
ENDBRANCH   1   2
BRANCH   1  25
ATOM     25  C   UNL A   1      33.312  30.347  27.308  1.00  0.00     0.023 C 
BRANCH  25  26
ATOM     26  C   UNL A   1      34.190  31.581  27.456  1.00  0.00     0.116 C 
BRANCH  26  27
ATOM     27  N   UNL A   1      34.080  32.231  28.754  1.00  0.00    -0.352 N 
ATOM     28  C   UNL A   1      34.895  32.053  29.858  1.00  0.00     0.251 C 
ATOM     29  H   UNL A   1      33.340  32.874  28.858  1.00  0.00     0.163 HD
ATOM     30  O   UNL A   1      34.503  32.388  30.965  1.00  0.00    -0.269 OA
BRANCH  28  31
ATOM     31  C   UNL A   1      36.240  31.453  29.688  1.00  0.00     0.039 A 
ATOM     32  C   UNL A   1      37.378  32.160  30.089  1.00  0.00     0.014 A 
ATOM     33  C   UNL A   1      36.368  30.193  29.096  1.00  0.00     0.014 A 
ATOM     34  C   UNL A   1      38.630  31.561  29.955  1.00  0.00     0.010 A 
ATOM     35  C   UNL A   1      37.600  29.569  29.030  1.00  0.00     0.010 A 
ATOM     36  C   UNL A   1      38.735  30.256  29.442  1.00  0.00    -0.014 A 
BRANCH  36  37
ATOM     37  C   UNL A   1      40.008  29.542  29.535  1.00  0.00     0.031 A 
ATOM     38  C   UNL A   1      40.378  29.219  30.938  1.00  0.00     0.074 A 
ATOM     39  C   UNL A   1      40.701  29.037  28.490  1.00  0.00     0.049 A 
ATOM     40  N   UNL A   1      41.232  29.839  31.682  1.00  0.00    -0.248 NA
ATOM     41  C   UNL A   1      39.574  28.224  31.670  1.00  0.00     0.031 C 
ATOM     42  C   UNL A   1      40.281  28.983  27.086  1.00  0.00     0.029 A 
ATOM     43  N   UNL A   1      41.905  28.388  28.468  1.00  0.00    -0.354 N 
ATOM     44  C   UNL A   1      41.295  29.102  32.862  1.00  0.00     0.074 A 
ATOM     45  C   UNL A   1      40.098  28.307  32.896  1.00  0.00     0.031 C 
ATOM     46  C   UNL A   1      41.102  28.156  26.396  1.00  0.00     0.029 A 
ATOM     47  C   UNL A   1      42.205  27.761  27.257  1.00  0.00     0.049 A 
ATOM     48  H   UNL A   1      42.511  28.363  29.244  1.00  0.00     0.167 HD
ATOM     49  C   UNL A   1      42.486  28.952  33.507  1.00  0.00     0.037 A 
ATOM     50  C   UNL A   1      43.291  26.994  26.977  1.00  0.00     0.037 A 
ATOM     51  C   UNL A   1      43.466  29.858  32.962  1.00  0.00     0.049 A 
ATOM     52  C   UNL A   1      44.355  27.395  27.926  1.00  0.00     0.074 A 
ATOM     53  C   UNL A   1      43.743  31.206  33.017  1.00  0.00     0.029 A 
ATOM     54  N   UNL A   1      44.122  29.348  31.874  1.00  0.00    -0.354 N 
ATOM     55  N   UNL A   1      44.919  28.572  27.919  1.00  0.00    -0.248 NA
ATOM     56  C   UNL A   1      44.594  26.586  29.117  1.00  0.00     0.031 C 
ATOM     57  C   UNL A   1      44.487  31.509  31.838  1.00  0.00     0.029 A 
ATOM     58  C   UNL A   1      44.685  30.335  31.116  1.00  0.00     0.049 A 
ATOM     59  H   UNL A   1      44.180  28.388  31.664  1.00  0.00     0.167 HD
ATOM     60  C   UNL A   1      45.207  28.811  29.245  1.00  0.00     0.074 A 
ATOM     61  C   UNL A   1      45.156  27.510  29.900  1.00  0.00     0.031 C 
ATOM     62  C   UNL A   1      45.110  30.066  29.761  1.00  0.00     0.037 A 
BRANCH  49  63
ATOM     63  C   UNL A   1      42.948  27.692  34.222  1.00  0.00     0.058 A 
ATOM     64  C   UNL A   1      43.225  27.760  35.607  1.00  0.00     0.135 A 
ATOM     65  C   UNL A   1      43.419  26.530  33.574  1.00  0.00     0.135 A 
ATOM     66  F   UNL A   1      42.837  28.824  36.329  1.00  0.00    -0.206 F 
ATOM     67  C   UNL A   1      43.965  26.783  36.277  1.00  0.00     0.059 A 
ATOM     68  C   UNL A   1      44.115  25.520  34.233  1.00  0.00     0.059 A 
ATOM     69  F   UNL A   1      43.318  26.351  32.252  1.00  0.00    -0.206 F 
ATOM     70  C   UNL A   1      44.412  25.669  35.577  1.00  0.00     0.060 A 
BRANCH  70  71
ATOM     71  S   UNL A   1      45.412  24.431  36.422  1.00  0.00     0.124 S 
ATOM     72  O   UNL A   1      46.758  24.811  36.010  1.00  0.00    -0.237 OA
ATOM     73  O   UNL A   1      45.074  24.679  37.819  1.00  0.00    -0.237 OA
ATOM     74  O   UNL A   1      44.913  23.171  35.877  1.00  0.00    -0.744 OA
ENDBRANCH  70  71
ENDBRANCH  49  63
BRANCH  50  75
ATOM     75  C   UNL A   1      43.461  25.802  26.102  1.00  0.00     0.058 A 
ATOM     76  C   UNL A   1      44.652  25.617  25.368  1.00  0.00     0.135 A 
ATOM     77  C   UNL A   1      42.639  24.670  26.242  1.00  0.00     0.135 A 
ATOM     78  F   UNL A   1      45.491  26.645  25.170  1.00  0.00    -0.206 F 
ATOM     79  C   UNL A   1      45.059  24.363  24.904  1.00  0.00     0.059 A 
ATOM     80  C   UNL A   1      43.020  23.408  25.778  1.00  0.00     0.059 A 
ATOM     81  F   UNL A   1      41.488  24.740  26.928  1.00  0.00    -0.206 F 
ATOM     82  C   UNL A   1      44.253  23.254  25.148  1.00  0.00     0.060 A 
BRANCH  82  83
ATOM     83  S   UNL A   1      44.892  21.605  24.765  1.00  0.00     0.124 S 
ATOM     84  O   UNL A   1      44.050  20.752  25.596  1.00  0.00    -0.237 OA
ATOM     85  O   UNL A   1      44.667  21.515  23.327  1.00  0.00    -0.237 OA
ATOM     86  O   UNL A   1      46.293  21.683  25.171  1.00  0.00    -0.744 OA
ENDBRANCH  82  83
ENDBRANCH  50  75
BRANCH  62  87
ATOM     87  C   UNL A   1      45.333  31.228  28.848  1.00  0.00     0.058 A 
ATOM     88  C   UNL A   1      46.584  31.726  28.452  1.00  0.00     0.135 A 
ATOM     89  C   UNL A   1      44.191  31.787  28.254  1.00  0.00     0.135 A 
ATOM     90  F   UNL A   1      47.721  31.205  28.937  1.00  0.00    -0.206 F 
ATOM     91  C   UNL A   1      46.689  32.739  27.495  1.00  0.00     0.059 A 
ATOM     92  C   UNL A   1      44.273  32.773  27.283  1.00  0.00     0.059 A 
ATOM     93  F   UNL A   1      42.972  31.325  28.579  1.00  0.00    -0.206 F 
ATOM     94  C   UNL A   1      45.527  33.246  26.906  1.00  0.00     0.060 A 
BRANCH  94  95
ATOM     95  S   UNL A   1      45.663  34.472  25.588  1.00  0.00     0.124 S 
ATOM     96  O   UNL A   1      45.304  35.707  26.276  1.00  0.00    -0.237 OA
ATOM     97  O   UNL A   1      47.062  34.350  25.189  1.00  0.00    -0.237 OA
ATOM     98  O   UNL A   1      44.698  34.011  24.592  1.00  0.00    -0.744 OA
ENDBRANCH  94  95
ENDBRANCH  62  87
ENDBRANCH  36  37
ENDBRANCH  28  31
ENDBRANCH  26  27
ENDBRANCH  25  26
ENDBRANCH   1  25
TORSDOF 17
ENDMDL
