MODEL 1
REMARK VINA RESULT:     -10.5      0.000      0.000
REMARK SMILES CC[C@](C)(NC(=O)CCOc1ccc(Cl)c(Cl)c1)C(=O)NCCCCNC(=O)c1ccc(-c2c3nc(c(-c4c(F)cc(S(=O)(=O)[O-])cc4F)c4ccc([nH]4)c(-c4c(F)cc(S(=O)(=O)[O-])cc4F)c4nc(c(-c5c(F)cc(S(=O)(=O)[O-])cc5F)c5ccc2[nH]5)C=C4)C=C3)cc1
REMARK SMILES IDX 22 1 21 2 19 3 20 4 3 6 4 7 2 8 1 9 5 10 6 11 7 13 8 14 9 15
REMARK SMILES IDX 10 16 11 17 12 18 18 19 13 20 16 21 14 22 17 23 15 24 23 25
REMARK SMILES IDX 24 26 25 27 26 28 27 29 28 31 29 32 30 33 94 34 31 35 93 36
REMARK SMILES IDX 32 37 33 38 34 39 87 40 35 41 92 42 86 43 88 44 36 45 91 46
REMARK SMILES IDX 85 47 84 48 37 50 71 51 50 52 70 53 51 54 54 55 69 56 89 57
REMARK SMILES IDX 52 58 53 59 68 61 90 62 55 63 38 64 39 65 48 66 40 67 41 68
REMARK SMILES IDX 47 69 49 70 42 71 43 72 44 73 45 74 46 75 72 76 73 77 82 78
REMARK SMILES IDX 74 79 75 80 81 81 83 82 76 83 77 84 78 85 79 86 80 87 56 88
REMARK SMILES IDX 57 89 66 90 58 91 59 92 65 93 67 94 60 95 61 96 62 97 63 98
REMARK SMILES IDX 64 99
REMARK H PARENT 21 5 5 12 26 30 88 49 54 60
REMARK Flexibility Score: inf
ROOT
ATOM      1  C   UNL A   1      33.171  28.406  23.433  1.00  0.00     0.116 C 
ENDROOT
BRANCH   1   2
ATOM      2  N   UNL A   1      32.061  29.336  23.517  1.00  0.00    -0.354 N 
ATOM      3  C   UNL A   1      30.721  29.116  23.616  1.00  0.00     0.245 C 
ATOM      4  O   UNL A   1      30.016  30.098  23.865  1.00  0.00    -0.272 OA
ATOM      5  H   UNL A   1      32.320  30.285  23.501  1.00  0.00     0.163 HD
BRANCH   3   6
ATOM      6  C   UNL A   1      30.125  27.680  23.549  1.00  0.00     0.116 C 
ATOM      7  C   UNL A   1      30.826  26.907  22.427  1.00  0.00     0.045 C 
BRANCH   6   8
ATOM      8  C   UNL A   1      28.591  27.848  23.259  1.00  0.00     0.035 C 
ATOM      9  C   UNL A   1      27.651  26.797  23.840  1.00  0.00     0.007 C 
ENDBRANCH   6   8
BRANCH   6  10
ATOM     10  N   UNL A   1      30.292  26.985  24.850  1.00  0.00    -0.342 N 
ATOM     11  C   UNL A   1      30.415  25.669  25.173  1.00  0.00     0.224 C 
ATOM     12  H   UNL A   1      30.317  27.590  25.626  1.00  0.00     0.164 HD
ATOM     13  O   UNL A   1      30.580  25.399  26.368  1.00  0.00    -0.275 OA
BRANCH  11  14
ATOM     14  C   UNL A   1      30.440  24.577  24.127  1.00  0.00     0.141 C 
BRANCH  14  15
ATOM     15  C   UNL A   1      31.312  23.379  24.517  1.00  0.00     0.239 C 
BRANCH  15  16
ATOM     16  O   UNL A   1      32.396  23.105  23.617  1.00  0.00    -0.493 OA
BRANCH  16  17
ATOM     17  C   UNL A   1      33.675  23.333  24.039  1.00  0.00     0.120 A 
ATOM     18  C   UNL A   1      34.195  24.566  24.418  1.00  0.00     0.048 A 
ATOM     19  C   UNL A   1      34.474  22.195  24.163  1.00  0.00     0.068 A 
ATOM     20  C   UNL A   1      35.405  24.638  25.112  1.00  0.00     0.026 A 
ATOM     21  C   UNL A   1      35.712  22.266  24.813  1.00  0.00     0.063 A 
ATOM     22  C   UNL A   1      36.153  23.484  25.336  1.00  0.00     0.059 A 
ATOM     23  Cl  UNL A   1      36.610  20.801  25.003  1.00  0.00    -0.083 Cl
ATOM     24  Cl  UNL A   1      37.582  23.627  26.294  1.00  0.00    -0.083 Cl
ENDBRANCH  16  17
ENDBRANCH  15  16
ENDBRANCH  14  15
ENDBRANCH  11  14
ENDBRANCH   6  10
ENDBRANCH   3   6
ENDBRANCH   1   2
BRANCH   1  25
ATOM     25  C   UNL A   1      33.964  28.286  24.733  1.00  0.00     0.023 C 
BRANCH  25  26
ATOM     26  C   UNL A   1      33.133  27.974  25.973  1.00  0.00     0.023 C 
BRANCH  26  27
ATOM     27  C   UNL A   1      33.820  28.310  27.283  1.00  0.00     0.116 C 
BRANCH  27  28
ATOM     28  N   UNL A   1      33.679  29.711  27.647  1.00  0.00    -0.352 N 
ATOM     29  C   UNL A   1      34.614  30.545  28.212  1.00  0.00     0.251 C 
ATOM     30  H   UNL A   1      32.799  30.114  27.466  1.00  0.00     0.163 HD
ATOM     31  O   UNL A   1      34.314  31.666  28.572  1.00  0.00    -0.269 OA
BRANCH  29  32
ATOM     32  C   UNL A   1      35.980  30.018  28.399  1.00  0.00     0.039 A 
ATOM     33  C   UNL A   1      36.873  30.082  27.330  1.00  0.00     0.014 A 
ATOM     34  C   UNL A   1      36.384  29.548  29.651  1.00  0.00     0.014 A 
ATOM     35  C   UNL A   1      38.201  29.715  27.535  1.00  0.00     0.010 A 
ATOM     36  C   UNL A   1      37.723  29.276  29.876  1.00  0.00     0.010 A 
ATOM     37  C   UNL A   1      38.640  29.340  28.816  1.00  0.00    -0.014 A 
BRANCH  37  38
ATOM     38  C   UNL A   1      40.054  28.976  29.064  1.00  0.00     0.031 A 
ATOM     39  C   UNL A   1      40.987  29.997  29.654  1.00  0.00     0.074 A 
ATOM     40  C   UNL A   1      40.501  27.757  28.706  1.00  0.00     0.049 A 
ATOM     41  N   UNL A   1      42.268  29.902  29.896  1.00  0.00    -0.248 NA
ATOM     42  C   UNL A   1      40.411  31.313  29.983  1.00  0.00     0.031 C 
ATOM     43  C   UNL A   1      39.694  26.709  28.074  1.00  0.00     0.029 A 
ATOM     44  N   UNL A   1      41.746  27.193  28.816  1.00  0.00    -0.354 N 
ATOM     45  C   UNL A   1      42.651  31.146  30.383  1.00  0.00     0.074 A 
ATOM     46  C   UNL A   1      41.485  31.998  30.345  1.00  0.00     0.031 C 
ATOM     47  C   UNL A   1      40.456  25.621  27.884  1.00  0.00     0.029 A 
ATOM     48  C   UNL A   1      41.812  25.904  28.344  1.00  0.00     0.049 A 
ATOM     49  H   UNL A   1      42.519  27.667  29.198  1.00  0.00     0.167 HD
ATOM     50  C   UNL A   1      43.862  31.531  30.851  1.00  0.00     0.037 A 
ATOM     51  C   UNL A   1      42.852  25.050  28.289  1.00  0.00     0.037 A 
ATOM     52  C   UNL A   1      45.002  30.658  30.917  1.00  0.00     0.049 A 
ATOM     53  C   UNL A   1      44.185  25.498  28.824  1.00  0.00     0.074 A 
ATOM     54  C   UNL A   1      46.257  30.922  31.436  1.00  0.00     0.029 A 
ATOM     55  N   UNL A   1      45.026  29.352  30.450  1.00  0.00    -0.354 N 
ATOM     56  N   UNL A   1      44.514  26.654  29.351  1.00  0.00    -0.248 NA
ATOM     57  C   UNL A   1      45.285  24.527  28.767  1.00  0.00     0.031 C 
ATOM     58  C   UNL A   1      47.054  29.790  31.240  1.00  0.00     0.029 A 
ATOM     59  C   UNL A   1      46.281  28.803  30.648  1.00  0.00     0.049 A 
ATOM     60  H   UNL A   1      44.263  28.884  30.040  1.00  0.00     0.167 HD
ATOM     61  C   UNL A   1      45.852  26.539  29.714  1.00  0.00     0.074 A 
ATOM     62  C   UNL A   1      46.264  25.197  29.357  1.00  0.00     0.031 C 
ATOM     63  C   UNL A   1      46.665  27.459  30.291  1.00  0.00     0.037 A 
BRANCH  50  64
ATOM     64  C   UNL A   1      44.006  32.950  31.326  1.00  0.00     0.058 A 
ATOM     65  C   UNL A   1      44.273  34.006  30.438  1.00  0.00     0.135 A 
ATOM     66  C   UNL A   1      43.852  33.265  32.686  1.00  0.00     0.135 A 
ATOM     67  F   UNL A   1      44.449  33.760  29.130  1.00  0.00    -0.206 F 
ATOM     68  C   UNL A   1      44.412  35.315  30.884  1.00  0.00     0.059 A 
ATOM     69  C   UNL A   1      43.956  34.574  33.151  1.00  0.00     0.059 A 
ATOM     70  F   UNL A   1      43.601  32.296  33.581  1.00  0.00    -0.206 F 
ATOM     71  C   UNL A   1      44.251  35.590  32.242  1.00  0.00     0.060 A 
BRANCH  71  72
ATOM     72  S   UNL A   1      44.425  37.297  32.803  1.00  0.00     0.124 S 
ATOM     73  O   UNL A   1      43.160  37.504  33.500  1.00  0.00    -0.237 OA
ATOM     74  O   UNL A   1      45.611  37.226  33.650  1.00  0.00    -0.237 OA
ATOM     75  O   UNL A   1      44.588  38.048  31.562  1.00  0.00    -0.744 OA
ENDBRANCH  71  72
ENDBRANCH  50  64
BRANCH  51  76
ATOM     76  C   UNL A   1      42.665  23.681  27.737  1.00  0.00     0.058 A 
ATOM     77  C   UNL A   1      42.707  23.451  26.354  1.00  0.00     0.135 A 
ATOM     78  C   UNL A   1      42.455  22.575  28.576  1.00  0.00     0.135 A 
ATOM     79  F   UNL A   1      42.903  24.475  25.509  1.00  0.00    -0.206 F 
ATOM     80  C   UNL A   1      42.530  22.178  25.819  1.00  0.00     0.059 A 
ATOM     81  C   UNL A   1      42.301  21.289  28.068  1.00  0.00     0.059 A 
ATOM     82  F   UNL A   1      42.425  22.738  29.908  1.00  0.00    -0.206 F 
ATOM     83  C   UNL A   1      42.329  21.103  26.686  1.00  0.00     0.060 A 
BRANCH  83  84
ATOM     84  S   UNL A   1      42.143  19.449  25.985  1.00  0.00     0.124 S 
ATOM     85  O   UNL A   1      42.670  18.613  27.057  1.00  0.00    -0.237 OA
ATOM     86  O   UNL A   1      40.701  19.372  25.765  1.00  0.00    -0.237 OA
ATOM     87  O   UNL A   1      42.951  19.505  24.771  1.00  0.00    -0.744 OA
ENDBRANCH  83  84
ENDBRANCH  51  76
BRANCH  63  88
ATOM     88  C   UNL A   1      48.071  27.035  30.607  1.00  0.00     0.058 A 
ATOM     89  C   UNL A   1      49.130  27.264  29.715  1.00  0.00     0.135 A 
ATOM     90  C   UNL A   1      48.372  26.443  31.846  1.00  0.00     0.135 A 
ATOM     91  F   UNL A   1      48.895  27.821  28.516  1.00  0.00    -0.206 F 
ATOM     92  C   UNL A   1      50.434  26.901  30.030  1.00  0.00     0.059 A 
ATOM     93  C   UNL A   1      49.673  26.100  32.193  1.00  0.00     0.059 A 
ATOM     94  F   UNL A   1      47.396  26.214  32.740  1.00  0.00    -0.206 F 
ATOM     95  C   UNL A   1      50.696  26.322  31.274  1.00  0.00     0.060 A 
BRANCH  95  96
ATOM     96  S   UNL A   1      52.400  25.890  31.684  1.00  0.00     0.124 S 
ATOM     97  O   UNL A   1      52.251  24.511  32.137  1.00  0.00    -0.237 OA
ATOM     98  O   UNL A   1      53.083  26.068  30.407  1.00  0.00    -0.237 OA
ATOM     99  O   UNL A   1      52.756  26.856  32.719  1.00  0.00    -0.744 OA
ENDBRANCH  95  96
ENDBRANCH  63  88
ENDBRANCH  37  38
ENDBRANCH  29  32
ENDBRANCH  27  28
ENDBRANCH  26  27
ENDBRANCH  25  26
ENDBRANCH   1  25
TORSDOF 20
ENDMDL
MODEL 2
REMARK VINA RESULT:     -10.5      4.892     10.378
REMARK SMILES CC[C@](C)(NC(=O)CCOc1ccc(Cl)c(Cl)c1)C(=O)NCCCCNC(=O)c1ccc(-c2c3nc(c(-c4c(F)cc(S(=O)(=O)[O-])cc4F)c4ccc([nH]4)c(-c4c(F)cc(S(=O)(=O)[O-])cc4F)c4nc(c(-c5c(F)cc(S(=O)(=O)[O-])cc5F)c5ccc2[nH]5)C=C4)C=C3)cc1
REMARK SMILES IDX 22 1 21 2 19 3 20 4 3 6 4 7 2 8 1 9 5 10 6 11 7 13 8 14 9 15
REMARK SMILES IDX 10 16 11 17 12 18 18 19 13 20 16 21 14 22 17 23 15 24 23 25
REMARK SMILES IDX 24 26 25 27 26 28 27 29 28 31 29 32 30 33 94 34 31 35 93 36
REMARK SMILES IDX 32 37 33 38 34 39 87 40 35 41 92 42 86 43 88 44 36 45 91 46
REMARK SMILES IDX 85 47 84 48 37 50 71 51 50 52 70 53 51 54 54 55 69 56 89 57
REMARK SMILES IDX 52 58 53 59 68 61 90 62 55 63 38 64 39 65 48 66 40 67 41 68
REMARK SMILES IDX 47 69 49 70 42 71 43 72 44 73 45 74 46 75 72 76 73 77 82 78
REMARK SMILES IDX 74 79 75 80 81 81 83 82 76 83 77 84 78 85 79 86 80 87 56 88
REMARK SMILES IDX 57 89 66 90 58 91 59 92 65 93 67 94 60 95 61 96 62 97 63 98
REMARK SMILES IDX 64 99
REMARK H PARENT 21 5 5 12 26 30 88 49 54 60
REMARK Flexibility Score: inf
ROOT
ATOM      1  C   UNL A   1      36.318  23.895  26.103  1.00  0.00     0.116 C 
ENDROOT
BRANCH   1   2
ATOM      2  N   UNL A   1      35.653  22.671  26.507  1.00  0.00    -0.354 N 
ATOM      3  C   UNL A   1      34.439  22.161  26.159  1.00  0.00     0.245 C 
ATOM      4  O   UNL A   1      34.206  21.000  26.508  1.00  0.00    -0.272 OA
ATOM      5  H   UNL A   1      36.164  22.115  27.137  1.00  0.00     0.163 HD
BRANCH   3   6
ATOM      6  C   UNL A   1      33.451  22.955  25.256  1.00  0.00     0.116 C 
ATOM      7  C   UNL A   1      33.356  24.394  25.774  1.00  0.00     0.045 C 
BRANCH   6   8
ATOM      8  C   UNL A   1      32.069  22.218  25.352  1.00  0.00     0.035 C 
ATOM      9  C   UNL A   1      30.887  23.014  25.896  1.00  0.00     0.007 C 
ENDBRANCH   6   8
BRANCH   6  10
ATOM     10  N   UNL A   1      33.906  22.934  23.843  1.00  0.00    -0.342 N 
ATOM     11  C   UNL A   1      33.426  23.536  22.720  1.00  0.00     0.224 C 
ATOM     12  H   UNL A   1      34.704  22.379  23.688  1.00  0.00     0.164 HD
ATOM     13  O   UNL A   1      34.058  23.352  21.674  1.00  0.00    -0.275 OA
BRANCH  11  14
ATOM     14  C   UNL A   1      32.231  24.462  22.745  1.00  0.00     0.141 C 
BRANCH  14  15
ATOM     15  C   UNL A   1      32.372  25.665  21.807  1.00  0.00     0.239 C 
BRANCH  15  16
ATOM     16  O   UNL A   1      33.118  26.765  22.347  1.00  0.00    -0.493 OA
BRANCH  16  17
ATOM     17  C   UNL A   1      32.666  27.370  23.485  1.00  0.00     0.120 A 
ATOM     18  C   UNL A   1      31.331  27.531  23.841  1.00  0.00     0.048 A 
ATOM     19  C   UNL A   1      33.658  27.779  24.379  1.00  0.00     0.068 A 
ATOM     20  C   UNL A   1      30.986  27.886  25.147  1.00  0.00     0.026 A 
ATOM     21  C   UNL A   1      33.320  28.186  25.675  1.00  0.00     0.063 A 
ATOM     22  C   UNL A   1      31.982  28.187  26.076  1.00  0.00     0.059 A 
ATOM     23  Cl  UNL A   1      34.606  28.598  26.754  1.00  0.00    -0.083 Cl
ATOM     24  Cl  UNL A   1      31.492  28.511  27.700  1.00  0.00    -0.083 Cl
ENDBRANCH  16  17
ENDBRANCH  15  16
ENDBRANCH  14  15
ENDBRANCH  11  14
ENDBRANCH   6  10
ENDBRANCH   3   6
ENDBRANCH   1   2
BRANCH   1  25
ATOM     25  C   UNL A   1      37.751  23.678  25.620  1.00  0.00     0.023 C 
BRANCH  25  26
ATOM     26  C   UNL A   1      38.624  22.833  26.543  1.00  0.00     0.023 C 
BRANCH  26  27
ATOM     27  C   UNL A   1      39.799  23.582  27.143  1.00  0.00     0.116 C 
BRANCH  27  28
ATOM     28  N   UNL A   1      40.731  24.063  26.135  1.00  0.00    -0.352 N 
ATOM     29  C   UNL A   1      41.282  25.316  26.009  1.00  0.00     0.251 C 
ATOM     30  H   UNL A   1      41.004  23.405  25.454  1.00  0.00     0.163 HD
ATOM     31  O   UNL A   1      41.958  25.606  25.042  1.00  0.00    -0.269 OA
BRANCH  29  32
ATOM     32  C   UNL A   1      40.991  26.302  27.067  1.00  0.00     0.039 A 
ATOM     33  C   UNL A   1      40.086  25.960  28.071  1.00  0.00     0.014 A 
ATOM     34  C   UNL A   1      41.681  27.517  27.101  1.00  0.00     0.014 A 
ATOM     35  C   UNL A   1      39.908  26.826  29.147  1.00  0.00     0.010 A 
ATOM     36  C   UNL A   1      41.574  28.330  28.217  1.00  0.00     0.010 A 
ATOM     37  C   UNL A   1      40.674  28.001  29.241  1.00  0.00    -0.014 A 
BRANCH  37  38
ATOM     38  C   UNL A   1      40.524  28.921  30.392  1.00  0.00     0.031 A 
ATOM     39  C   UNL A   1      41.413  28.753  31.593  1.00  0.00     0.074 A 
ATOM     40  C   UNL A   1      39.558  29.859  30.373  1.00  0.00     0.049 A 
ATOM     41  N   UNL A   1      41.407  29.411  32.722  1.00  0.00    -0.248 NA
ATOM     42  C   UNL A   1      42.418  27.677  31.531  1.00  0.00     0.031 C 
ATOM     43  C   UNL A   1      38.603  30.073  29.281  1.00  0.00     0.029 A 
ATOM     44  N   UNL A   1      39.213  30.807  31.302  1.00  0.00    -0.354 N 
ATOM     45  C   UNL A   1      42.388  28.818  33.508  1.00  0.00     0.074 A 
ATOM     46  C   UNL A   1      42.926  27.709  32.753  1.00  0.00     0.031 C 
ATOM     47  C   UNL A   1      37.805  31.107  29.590  1.00  0.00     0.029 A 
ATOM     48  C   UNL A   1      38.163  31.605  30.914  1.00  0.00     0.049 A 
ATOM     49  H   UNL A   1      39.673  30.905  32.166  1.00  0.00     0.167 HD
ATOM     50  C   UNL A   1      42.822  29.187  34.735  1.00  0.00     0.037 A 
ATOM     51  C   UNL A   1      37.560  32.623  31.558  1.00  0.00     0.037 A 
ATOM     52  C   UNL A   1      42.302  30.317  35.455  1.00  0.00     0.049 A 
ATOM     53  C   UNL A   1      38.068  33.021  32.917  1.00  0.00     0.074 A 
ATOM     54  C   UNL A   1      42.714  30.824  36.674  1.00  0.00     0.029 A 
ATOM     55  N   UNL A   1      41.254  31.116  35.021  1.00  0.00    -0.354 N 
ATOM     56  N   UNL A   1      39.048  32.497  33.617  1.00  0.00    -0.248 NA
ATOM     57  C   UNL A   1      37.398  34.151  33.572  1.00  0.00     0.031 C 
ATOM     58  C   UNL A   1      41.885  31.902  37.000  1.00  0.00     0.029 A 
ATOM     59  C   UNL A   1      40.991  32.100  35.959  1.00  0.00     0.049 A 
ATOM     60  H   UNL A   1      40.770  31.002  34.171  1.00  0.00     0.167 HD
ATOM     61  C   UNL A   1      39.129  33.253  34.781  1.00  0.00     0.074 A 
ATOM     62  C   UNL A   1      38.107  34.275  34.684  1.00  0.00     0.031 C 
ATOM     63  C   UNL A   1      39.972  33.114  35.835  1.00  0.00     0.037 A 
BRANCH  50  64
ATOM     64  C   UNL A   1      43.911  28.364  35.367  1.00  0.00     0.058 A 
ATOM     65  C   UNL A   1      43.624  27.283  36.217  1.00  0.00     0.135 A 
ATOM     66  C   UNL A   1      45.262  28.644  35.099  1.00  0.00     0.135 A 
ATOM     67  F   UNL A   1      42.352  26.982  36.522  1.00  0.00    -0.206 F 
ATOM     68  C   UNL A   1      44.634  26.530  36.803  1.00  0.00     0.059 A 
ATOM     69  C   UNL A   1      46.289  27.883  35.651  1.00  0.00     0.059 A 
ATOM     70  F   UNL A   1      45.594  29.669  34.299  1.00  0.00    -0.206 F 
ATOM     71  C   UNL A   1      45.965  26.836  36.513  1.00  0.00     0.060 A 
BRANCH  71  72
ATOM     72  S   UNL A   1      47.264  25.842  37.275  1.00  0.00     0.124 S 
ATOM     73  O   UNL A   1      47.833  26.789  38.229  1.00  0.00    -0.237 OA
ATOM     74  O   UNL A   1      46.510  24.736  37.854  1.00  0.00    -0.237 OA
ATOM     75  O   UNL A   1      48.127  25.490  36.152  1.00  0.00    -0.744 OA
ENDBRANCH  71  72
ENDBRANCH  50  64
BRANCH  51  76
ATOM     76  C   UNL A   1      36.437  33.353  30.911  1.00  0.00     0.058 A 
ATOM     77  C   UNL A   1      36.665  34.204  29.820  1.00  0.00     0.135 A 
ATOM     78  C   UNL A   1      35.115  33.206  31.358  1.00  0.00     0.135 A 
ATOM     79  F   UNL A   1      37.912  34.381  29.356  1.00  0.00    -0.206 F 
ATOM     80  C   UNL A   1      35.628  34.899  29.205  1.00  0.00     0.059 A 
ATOM     81  C   UNL A   1      34.056  33.869  30.745  1.00  0.00     0.059 A 
ATOM     82  F   UNL A   1      34.839  32.389  32.386  1.00  0.00    -0.206 F 
ATOM     83  C   UNL A   1      34.325  34.722  29.675  1.00  0.00     0.060 A 
BRANCH  83  84
ATOM     84  S   UNL A   1      32.979  35.595  28.843  1.00  0.00     0.124 S 
ATOM     85  O   UNL A   1      33.706  36.623  28.106  1.00  0.00    -0.237 OA
ATOM     86  O   UNL A   1      32.380  34.534  28.038  1.00  0.00    -0.237 OA
ATOM     87  O   UNL A   1      32.155  36.073  29.949  1.00  0.00    -0.744 OA
ENDBRANCH  83  84
ENDBRANCH  51  76
BRANCH  63  88
ATOM     88  C   UNL A   1      39.852  34.113  36.951  1.00  0.00     0.058 A 
ATOM     89  C   UNL A   1      40.487  35.363  36.893  1.00  0.00     0.135 A 
ATOM     90  C   UNL A   1      39.043  33.837  38.066  1.00  0.00     0.135 A 
ATOM     91  F   UNL A   1      41.277  35.674  35.853  1.00  0.00    -0.206 F 
ATOM     92  C   UNL A   1      40.343  36.297  37.914  1.00  0.00     0.059 A 
ATOM     93  C   UNL A   1      38.861  34.767  39.082  1.00  0.00     0.059 A 
ATOM     94  F   UNL A   1      38.404  32.661  38.162  1.00  0.00    -0.206 F 
ATOM     95  C   UNL A   1      39.525  35.990  39.003  1.00  0.00     0.060 A 
BRANCH  95  96
ATOM     96  S   UNL A   1      39.317  37.226  40.302  1.00  0.00     0.124 S 
ATOM     97  O   UNL A   1      38.576  36.471  41.308  1.00  0.00    -0.237 OA
ATOM     98  O   UNL A   1      40.697  37.554  40.644  1.00  0.00    -0.237 OA
ATOM     99  O   UNL A   1      38.570  38.292  39.641  1.00  0.00    -0.744 OA
ENDBRANCH  95  96
ENDBRANCH  63  88
ENDBRANCH  37  38
ENDBRANCH  29  32
ENDBRANCH  27  28
ENDBRANCH  26  27
ENDBRANCH  25  26
ENDBRANCH   1  25
TORSDOF 20
ENDMDL
MODEL 3
REMARK VINA RESULT:     -10.3      3.580      6.434
REMARK SMILES CC[C@](C)(NC(=O)CCOc1ccc(Cl)c(Cl)c1)C(=O)NCCCCNC(=O)c1ccc(-c2c3nc(c(-c4c(F)cc(S(=O)(=O)[O-])cc4F)c4ccc([nH]4)c(-c4c(F)cc(S(=O)(=O)[O-])cc4F)c4nc(c(-c5c(F)cc(S(=O)(=O)[O-])cc5F)c5ccc2[nH]5)C=C4)C=C3)cc1
REMARK SMILES IDX 22 1 21 2 19 3 20 4 3 6 4 7 2 8 1 9 5 10 6 11 7 13 8 14 9 15
REMARK SMILES IDX 10 16 11 17 12 18 18 19 13 20 16 21 14 22 17 23 15 24 23 25
REMARK SMILES IDX 24 26 25 27 26 28 27 29 28 31 29 32 30 33 94 34 31 35 93 36
REMARK SMILES IDX 32 37 33 38 34 39 87 40 35 41 92 42 86 43 88 44 36 45 91 46
REMARK SMILES IDX 85 47 84 48 37 50 71 51 50 52 70 53 51 54 54 55 69 56 89 57
REMARK SMILES IDX 52 58 53 59 68 61 90 62 55 63 38 64 39 65 48 66 40 67 41 68
REMARK SMILES IDX 47 69 49 70 42 71 43 72 44 73 45 74 46 75 72 76 73 77 82 78
REMARK SMILES IDX 74 79 75 80 81 81 83 82 76 83 77 84 78 85 79 86 80 87 56 88
REMARK SMILES IDX 57 89 66 90 58 91 59 92 65 93 67 94 60 95 61 96 62 97 63 98
REMARK SMILES IDX 64 99
REMARK H PARENT 21 5 5 12 26 30 88 49 54 60
REMARK Flexibility Score: inf
ROOT
ATOM      1  C   UNL A   1      34.898  33.609  30.776  1.00  0.00     0.116 C 
ENDROOT
BRANCH   1   2
ATOM      2  N   UNL A   1      36.188  34.162  31.140  1.00  0.00    -0.354 N 
ATOM      3  C   UNL A   1      36.951  33.984  32.254  1.00  0.00     0.245 C 
ATOM      4  O   UNL A   1      38.101  34.430  32.214  1.00  0.00    -0.272 OA
ATOM      5  H   UNL A   1      36.579  34.765  30.469  1.00  0.00     0.163 HD
BRANCH   3   6
ATOM      6  C   UNL A   1      36.442  33.147  33.463  1.00  0.00     0.116 C 
ATOM      7  C   UNL A   1      35.021  33.600  33.814  1.00  0.00     0.045 C 
BRANCH   6   8
ATOM      8  C   UNL A   1      37.439  33.419  34.645  1.00  0.00     0.035 C 
ATOM      9  C   UNL A   1      36.853  33.505  36.050  1.00  0.00     0.007 C 
ENDBRANCH   6   8
BRANCH   6  10
ATOM     10  N   UNL A   1      36.467  31.698  33.142  1.00  0.00    -0.342 N 
ATOM     11  C   UNL A   1      37.420  30.741  33.312  1.00  0.00     0.224 C 
ATOM     12  H   UNL A   1      35.639  31.367  32.726  1.00  0.00     0.164 HD
ATOM     13  O   UNL A   1      37.124  29.591  32.971  1.00  0.00    -0.275 OA
BRANCH  11  14
ATOM     14  C   UNL A   1      38.751  31.031  33.969  1.00  0.00     0.141 C 
BRANCH  14  15
ATOM     15  C   UNL A   1      39.911  30.226  33.376  1.00  0.00     0.239 C 
BRANCH  15  16
ATOM     16  O   UNL A   1      40.911  29.824  34.325  1.00  0.00    -0.493 OA
BRANCH  16  17
ATOM     17  C   UNL A   1      41.692  28.741  34.037  1.00  0.00     0.120 A 
ATOM     18  C   UNL A   1      42.798  28.741  33.195  1.00  0.00     0.048 A 
ATOM     19  C   UNL A   1      41.368  27.571  34.727  1.00  0.00     0.068 A 
ATOM     20  C   UNL A   1      43.694  27.670  33.206  1.00  0.00     0.026 A 
ATOM     21  C   UNL A   1      42.234  26.472  34.705  1.00  0.00     0.063 A 
ATOM     22  C   UNL A   1      43.429  26.544  33.983  1.00  0.00     0.059 A 
ATOM     23  Cl  UNL A   1      41.810  25.088  35.649  1.00  0.00    -0.083 Cl
ATOM     24  Cl  UNL A   1      44.629  25.303  34.036  1.00  0.00    -0.083 Cl
ENDBRANCH  16  17
ENDBRANCH  15  16
ENDBRANCH  14  15
ENDBRANCH  11  14
ENDBRANCH   6  10
ENDBRANCH   3   6
ENDBRANCH   1   2
BRANCH   1  25
ATOM     25  C   UNL A   1      34.141  34.453  29.753  1.00  0.00     0.023 C 
BRANCH  25  26
ATOM     26  C   UNL A   1      33.717  33.712  28.489  1.00  0.00     0.023 C 
BRANCH  26  27
ATOM     27  C   UNL A   1      34.635  32.568  28.102  1.00  0.00     0.116 C 
BRANCH  27  28
ATOM     28  N   UNL A   1      33.925  31.310  27.937  1.00  0.00    -0.352 N 
ATOM     29  C   UNL A   1      34.436  30.034  27.940  1.00  0.00     0.251 C 
ATOM     30  H   UNL A   1      32.951  31.381  27.805  1.00  0.00     0.163 HD
ATOM     31  O   UNL A   1      33.733  29.080  27.669  1.00  0.00    -0.269 OA
BRANCH  29  32
ATOM     32  C   UNL A   1      35.870  29.869  28.244  1.00  0.00     0.039 A 
ATOM     33  C   UNL A   1      36.240  29.470  29.527  1.00  0.00     0.014 A 
ATOM     34  C   UNL A   1      36.823  30.029  27.234  1.00  0.00     0.014 A 
ATOM     35  C   UNL A   1      37.577  29.180  29.787  1.00  0.00     0.010 A 
ATOM     36  C   UNL A   1      38.134  29.647  27.469  1.00  0.00     0.010 A 
ATOM     37  C   UNL A   1      38.526  29.236  28.751  1.00  0.00    -0.014 A 
BRANCH  37  38
ATOM     38  C   UNL A   1      39.947  28.902  28.998  1.00  0.00     0.031 A 
ATOM     39  C   UNL A   1      40.859  29.942  29.589  1.00  0.00     0.074 A 
ATOM     40  C   UNL A   1      40.420  27.693  28.637  1.00  0.00     0.049 A 
ATOM     41  N   UNL A   1      42.141  29.873  29.830  1.00  0.00    -0.248 NA
ATOM     42  C   UNL A   1      40.255  31.245  29.920  1.00  0.00     0.031 C 
ATOM     43  C   UNL A   1      39.635  26.629  28.004  1.00  0.00     0.029 A 
ATOM     44  N   UNL A   1      41.677  27.156  28.746  1.00  0.00    -0.354 N 
ATOM     45  C   UNL A   1      42.499  31.125  30.319  1.00  0.00     0.074 A 
ATOM     46  C   UNL A   1      41.314  31.951  30.282  1.00  0.00     0.031 C 
ATOM     47  C   UNL A   1      40.420  25.558  27.812  1.00  0.00     0.029 A 
ATOM     48  C   UNL A   1      41.770  25.869  28.271  1.00  0.00     0.049 A 
ATOM     49  H   UNL A   1      42.440  27.646  29.128  1.00  0.00     0.167 HD
ATOM     50  C   UNL A   1      43.701  31.535  30.786  1.00  0.00     0.037 A 
ATOM     51  C   UNL A   1      42.828  25.037  28.215  1.00  0.00     0.037 A 
ATOM     52  C   UNL A   1      44.859  30.686  30.851  1.00  0.00     0.049 A 
ATOM     53  C   UNL A   1      44.151  25.513  28.750  1.00  0.00     0.074 A 
ATOM     54  C   UNL A   1      46.108  30.975  31.369  1.00  0.00     0.029 A 
ATOM     55  N   UNL A   1      44.911  29.382  30.382  1.00  0.00    -0.354 N 
ATOM     56  N   UNL A   1      44.456  26.675  29.279  1.00  0.00    -0.248 NA
ATOM     57  C   UNL A   1      45.271  24.566  28.690  1.00  0.00     0.031 C 
ATOM     58  C   UNL A   1      46.930  29.861  31.171  1.00  0.00     0.029 A 
ATOM     59  C   UNL A   1      46.178  28.859  30.578  1.00  0.00     0.049 A 
ATOM     60  H   UNL A   1      44.158  28.898  29.971  1.00  0.00     0.167 HD
ATOM     61  C   UNL A   1      45.796  26.588  29.641  1.00  0.00     0.074 A 
ATOM     62  C   UNL A   1      46.237  25.256  29.281  1.00  0.00     0.031 C 
ATOM     63  C   UNL A   1      46.589  27.524  30.218  1.00  0.00     0.037 A 
BRANCH  50  64
ATOM     64  C   UNL A   1      43.816  32.956  31.264  1.00  0.00     0.058 A 
ATOM     65  C   UNL A   1      44.142  34.007  30.390  1.00  0.00     0.135 A 
ATOM     66  C   UNL A   1      43.571  33.277  32.610  1.00  0.00     0.135 A 
ATOM     67  F   UNL A   1      44.404  33.755  29.098  1.00  0.00    -0.206 F 
ATOM     68  C   UNL A   1      44.253  35.318  30.839  1.00  0.00     0.059 A 
ATOM     69  C   UNL A   1      43.646  34.587  33.074  1.00  0.00     0.059 A 
ATOM     70  F   UNL A   1      43.260  32.312  33.490  1.00  0.00    -0.206 F 
ATOM     71  C   UNL A   1      44.002  35.599  32.183  1.00  0.00     0.060 A 
BRANCH  71  72
ATOM     72  S   UNL A   1      44.141  37.308  32.746  1.00  0.00     0.124 S 
ATOM     73  O   UNL A   1      45.479  37.313  33.330  1.00  0.00    -0.237 OA
ATOM     74  O   UNL A   1      43.990  38.058  31.504  1.00  0.00    -0.237 OA
ATOM     75  O   UNL A   1      43.042  37.445  33.697  1.00  0.00    -0.744 OA
ENDBRANCH  71  72
ENDBRANCH  50  64
BRANCH  51  76
ATOM     76  C   UNL A   1      42.669  23.666  27.661  1.00  0.00     0.058 A 
ATOM     77  C   UNL A   1      42.520  22.560  28.511  1.00  0.00     0.135 A 
ATOM     78  C   UNL A   1      42.650  23.431  26.278  1.00  0.00     0.135 A 
ATOM     79  F   UNL A   1      42.534  22.730  29.842  1.00  0.00    -0.206 F 
ATOM     80  C   UNL A   1      42.375  21.269  28.012  1.00  0.00     0.059 A 
ATOM     81  C   UNL A   1      42.480  22.154  25.753  1.00  0.00     0.059 A 
ATOM     82  F   UNL A   1      42.769  24.457  25.421  1.00  0.00    -0.206 F 
ATOM     83  C   UNL A   1      42.354  21.077  26.630  1.00  0.00     0.060 A 
BRANCH  83  84
ATOM     84  S   UNL A   1      42.123  19.403  25.991  1.00  0.00     0.124 S 
ATOM     85  O   UNL A   1      40.686  19.378  25.744  1.00  0.00    -0.237 OA
ATOM     86  O   UNL A   1      42.976  19.409  24.806  1.00  0.00    -0.237 OA
ATOM     87  O   UNL A   1      42.592  18.558  27.086  1.00  0.00    -0.744 OA
ENDBRANCH  83  84
ENDBRANCH  51  76
BRANCH  63  88
ATOM     88  C   UNL A   1      48.005  27.129  30.533  1.00  0.00     0.058 A 
ATOM     89  C   UNL A   1      49.041  27.290  29.601  1.00  0.00     0.135 A 
ATOM     90  C   UNL A   1      48.337  26.638  31.807  1.00  0.00     0.135 A 
ATOM     91  F   UNL A   1      48.775  27.749  28.367  1.00  0.00    -0.206 F 
ATOM     92  C   UNL A   1      50.354  26.956  29.912  1.00  0.00     0.059 A 
ATOM     93  C   UNL A   1      49.648  26.327  32.149  1.00  0.00     0.059 A 
ATOM     94  F   UNL A   1      47.385  26.478  32.740  1.00  0.00    -0.206 F 
ATOM     95  C   UNL A   1      50.648  26.477  31.191  1.00  0.00     0.060 A 
BRANCH  95  96
ATOM     96  S   UNL A   1      52.363  26.083  31.593  1.00  0.00     0.124 S 
ATOM     97  O   UNL A   1      52.255  24.684  31.994  1.00  0.00    -0.237 OA
ATOM     98  O   UNL A   1      53.045  26.329  30.326  1.00  0.00    -0.237 OA
ATOM     99  O   UNL A   1      52.685  27.021  32.664  1.00  0.00    -0.744 OA
ENDBRANCH  95  96
ENDBRANCH  63  88
ENDBRANCH  37  38
ENDBRANCH  29  32
ENDBRANCH  27  28
ENDBRANCH  26  27
ENDBRANCH  25  26
ENDBRANCH   1  25
TORSDOF 20
ENDMDL
