MODEL 1
REMARK VINA RESULT:     -12.7      0.000      0.000
REMARK SMILES CC(C)[C@@H](NC(=O)[C@@H]1CC[C@@H]2CCCC[C@@H]2[NH2+]1)C(=O)NCCCCNC(=O)c1ccc(-c2c3nc(c(-c4c(F)cc(S(=O)(=O)[O-])cc4F)c4ccc([nH]4)c(-c4c(F)cc(S(=O)(=O)[O-])cc4F)c4nc(c(-c5c(F)cc(S(=O)(=O)[O-])cc5F)c5ccc2[nH]5)C=C4)C=C3)cc1
REMARK SMILES IDX 23 1 22 2 21 3 20 4 18 5 19 6 4 8 2 9 1 10 3 11 5 12 6 13
REMARK SMILES IDX 7 15 8 16 9 17 17 18 10 19 16 20 11 23 15 24 12 25 14 26
REMARK SMILES IDX 13 27 24 28 25 29 26 30 27 32 28 33 29 34 93 35 30 36 92 37
REMARK SMILES IDX 31 38 32 39 33 40 86 41 34 42 91 43 85 44 87 45 35 46 90 47
REMARK SMILES IDX 84 48 83 49 36 51 70 52 49 53 69 54 50 55 53 56 68 57 88 58
REMARK SMILES IDX 51 59 52 60 67 62 89 63 54 64 37 65 38 66 47 67 39 68 40 69
REMARK SMILES IDX 46 70 48 71 41 72 42 73 43 74 44 75 45 76 71 77 72 78 81 79
REMARK SMILES IDX 73 80 74 81 80 82 82 83 75 84 76 85 77 86 78 87 79 88 55 89
REMARK SMILES IDX 56 90 65 91 57 92 58 93 64 94 66 95 59 96 60 97 61 98 62 99
REMARK SMILES IDX 63 100
REMARK H PARENT 20 7 5 14 17 21 17 22 25 31 87 50 53 61
REMARK Flexibility Score: inf
ROOT
ATOM      1  C   UNL A   1      34.985  31.745  27.821  1.00  0.00     0.023 C 
ENDROOT
BRANCH   1   2
ATOM      2  C   UNL A   1      34.179  30.447  27.769  1.00  0.00     0.023 C 
BRANCH   2   3
ATOM      3  C   UNL A   1      33.282  30.223  26.538  1.00  0.00     0.116 C 
BRANCH   3   4
ATOM      4  N   UNL A   1      33.742  29.268  25.485  1.00  0.00    -0.354 N 
ATOM      5  C   UNL A   1      33.633  27.853  25.523  1.00  0.00     0.242 C 
ATOM      6  O   UNL A   1      34.363  27.577  26.518  1.00  0.00    -0.273 OA
ATOM      7  H   UNL A   1      34.162  29.660  24.685  1.00  0.00     0.163 HD
BRANCH   5   8
ATOM      8  C   UNL A   1      32.580  26.488  24.308  1.00  0.00     0.174 C 
BRANCH   8   9
ATOM      9  C   UNL A   1      30.748  26.991  24.024  1.00  0.00     0.015 C 
ATOM     10  C   UNL A   1      29.937  25.995  25.029  1.00  0.00     0.010 C 
ATOM     11  C   UNL A   1      30.556  29.029  23.603  1.00  0.00     0.010 C 
ENDBRANCH   8   9
BRANCH   8  12
ATOM     12  N   UNL A   1      32.938  25.772  23.017  1.00  0.00    -0.339 N 
ATOM     13  C   UNL A   1      33.252  24.470  23.255  1.00  0.00     0.278 C 
ATOM     14  H   UNL A   1      32.942  26.193  22.127  1.00  0.00     0.164 HD
ATOM     15  O   UNL A   1      33.270  23.532  22.492  1.00  0.00    -0.268 OA
BRANCH  13  16
ATOM     16  C   UNL A   1      33.505  24.557  24.717  1.00  0.00     0.272 C 
ATOM     17  C   UNL A   1      35.413  24.515  24.766  1.00  0.00     0.076 C 
ATOM     18  N   UNL A   1      32.466  23.155  25.279  1.00  0.00    -0.333 N 
ATOM     19  C   UNL A   1      36.387  22.943  25.195  1.00  0.00     0.016 C 
ATOM     20  C   UNL A   1      33.273  21.605  25.714  1.00  0.00     0.186 C 
ATOM     21  H   UNL A   1      31.806  22.949  24.528  1.00  0.00     0.347 HD
ATOM     22  H   UNL A   1      32.061  23.480  26.157  1.00  0.00     0.347 HD
ATOM     23  C   UNL A   1      35.365  21.322  25.446  1.00  0.00     0.048 C 
ATOM     24  C   UNL A   1      32.036  20.266  25.086  1.00  0.00     0.065 C 
ATOM     25  C   UNL A   1      35.940  19.554  24.995  1.00  0.00     0.010 C 
ATOM     26  C   UNL A   1      32.799  18.698  24.344  1.00  0.00     0.006 C 
ATOM     27  C   UNL A   1      34.665  18.368  24.249  1.00  0.00     0.001 C 
ENDBRANCH  13  16
ENDBRANCH   8  12
ENDBRANCH   5   8
ENDBRANCH   3   4
ENDBRANCH   2   3
ENDBRANCH   1   2
BRANCH   1  28
ATOM     28  C   UNL A   1      35.816  31.978  29.063  1.00  0.00     0.116 C 
BRANCH  28  29
ATOM     29  N   UNL A   1      35.603  31.023  30.138  1.00  0.00    -0.352 N 
ATOM     30  C   UNL A   1      36.564  30.168  30.645  1.00  0.00     0.251 C 
ATOM     31  H   UNL A   1      34.704  30.981  30.535  1.00  0.00     0.163 HD
ATOM     32  O   UNL A   1      36.292  29.309  31.474  1.00  0.00    -0.269 OA
BRANCH  30  33
ATOM     33  C   UNL A   1      37.926  30.286  30.081  1.00  0.00     0.039 A 
ATOM     34  C   UNL A   1      39.006  30.385  30.960  1.00  0.00     0.014 A 
ATOM     35  C   UNL A   1      38.127  30.055  28.718  1.00  0.00     0.014 A 
ATOM     36  C   UNL A   1      40.294  30.139  30.483  1.00  0.00     0.010 A 
ATOM     37  C   UNL A   1      39.399  29.723  28.267  1.00  0.00     0.010 A 
ATOM     38  C   UNL A   1      40.491  29.741  29.149  1.00  0.00    -0.014 A 
BRANCH  38  39
ATOM     39  C   UNL A   1      41.827  29.298  28.673  1.00  0.00     0.031 A 
ATOM     40  C   UNL A   1      42.954  30.286  28.561  1.00  0.00     0.074 A 
ATOM     41  C   UNL A   1      41.999  28.026  28.258  1.00  0.00     0.049 A 
ATOM     42  N   UNL A   1      44.170  30.104  28.119  1.00  0.00    -0.248 NA
ATOM     43  C   UNL A   1      42.660  31.673  28.959  1.00  0.00     0.031 C 
ATOM     44  C   UNL A   1      40.958  26.995  28.213  1.00  0.00     0.029 A 
ATOM     45  N   UNL A   1      43.116  27.381  27.786  1.00  0.00    -0.354 N 
ATOM     46  C   UNL A   1      44.774  31.355  28.149  1.00  0.00     0.074 A 
ATOM     47  C   UNL A   1      43.777  32.295  28.615  1.00  0.00     0.031 C 
ATOM     48  C   UNL A   1      41.491  25.843  27.771  1.00  0.00     0.029 A 
ATOM     49  C   UNL A   1      42.908  26.054  27.492  1.00  0.00     0.049 A 
ATOM     50  H   UNL A   1      43.985  27.828  27.670  1.00  0.00     0.167 HD
ATOM     51  C   UNL A   1      46.049  31.687  27.841  1.00  0.00     0.037 A 
ATOM     52  C   UNL A   1      43.769  25.110  27.066  1.00  0.00     0.037 A 
ATOM     53  C   UNL A   1      47.055  30.742  27.441  1.00  0.00     0.049 A 
ATOM     54  C   UNL A   1      45.217  25.472  26.879  1.00  0.00     0.074 A 
ATOM     55  C   UNL A   1      48.393  30.964  27.168  1.00  0.00     0.029 A 
ATOM     56  N   UNL A   1      46.833  29.382  27.283  1.00  0.00    -0.354 N 
ATOM     57  N   UNL A   1      45.788  26.648  26.981  1.00  0.00    -0.248 NA
ATOM     58  C   UNL A   1      46.140  24.379  26.546  1.00  0.00     0.031 C 
ATOM     59  C   UNL A   1      48.984  29.734  26.848  1.00  0.00     0.029 A 
ATOM     60  C   UNL A   1      48.014  28.748  26.936  1.00  0.00     0.049 A 
ATOM     61  H   UNL A   1      45.965  28.933  27.399  1.00  0.00     0.167 HD
ATOM     62  C   UNL A   1      47.142  26.433  26.750  1.00  0.00     0.074 A 
ATOM     63  C   UNL A   1      47.305  25.014  26.511  1.00  0.00     0.031 C 
ATOM     64  C   UNL A   1      48.157  27.330  26.733  1.00  0.00     0.037 A 
BRANCH  51  65
ATOM     65  C   UNL A   1      46.419  33.137  27.950  1.00  0.00     0.058 A 
ATOM     66  C   UNL A   1      46.167  34.036  26.901  1.00  0.00     0.135 A 
ATOM     67  C   UNL A   1      47.049  33.632  29.102  1.00  0.00     0.135 A 
ATOM     68  F   UNL A   1      45.587  33.606  25.769  1.00  0.00    -0.206 F 
ATOM     69  C   UNL A   1      46.565  35.366  26.972  1.00  0.00     0.059 A 
ATOM     70  C   UNL A   1      47.435  34.965  29.205  1.00  0.00     0.059 A 
ATOM     71  F   UNL A   1      47.314  32.814  30.132  1.00  0.00    -0.206 F 
ATOM     72  C   UNL A   1      47.209  35.818  28.125  1.00  0.00     0.060 A 
BRANCH  72  73
ATOM     73  S   UNL A   1      47.750  37.538  28.200  1.00  0.00     0.124 S 
ATOM     74  O   UNL A   1      47.472  37.988  26.839  1.00  0.00    -0.237 OA
ATOM     75  O   UNL A   1      46.894  38.099  29.240  1.00  0.00    -0.237 OA
ATOM     76  O   UNL A   1      49.163  37.429  28.550  1.00  0.00    -0.744 OA
ENDBRANCH  72  73
ENDBRANCH  51  65
BRANCH  52  77
ATOM     77  C   UNL A   1      43.307  23.714  26.859  1.00  0.00     0.058 A 
ATOM     78  C   UNL A   1      43.063  22.872  27.954  1.00  0.00     0.135 A 
ATOM     79  C   UNL A   1      43.097  23.196  25.573  1.00  0.00     0.135 A 
ATOM     80  F   UNL A   1      43.251  23.326  29.203  1.00  0.00    -0.206 F 
ATOM     81  C   UNL A   1      42.648  21.556  27.785  1.00  0.00     0.059 A 
ATOM     82  C   UNL A   1      42.667  21.886  25.377  1.00  0.00     0.059 A 
ATOM     83  F   UNL A   1      43.298  23.970  24.496  1.00  0.00    -0.206 F 
ATOM     84  C   UNL A   1      42.458  21.070  26.490  1.00  0.00     0.060 A 
BRANCH  84  85
ATOM     85  S   UNL A   1      41.878  19.373  26.272  1.00  0.00     0.124 S 
ATOM     86  O   UNL A   1      40.445  19.573  26.098  1.00  0.00    -0.237 OA
ATOM     87  O   UNL A   1      42.612  18.941  25.086  1.00  0.00    -0.237 OA
ATOM     88  O   UNL A   1      42.281  18.724  27.517  1.00  0.00    -0.744 OA
ENDBRANCH  84  85
ENDBRANCH  52  77
BRANCH  64  89
ATOM     89  C   UNL A   1      49.536  26.796  26.491  1.00  0.00     0.058 A 
ATOM     90  C   UNL A   1      50.288  26.218  27.525  1.00  0.00     0.135 A 
ATOM     91  C   UNL A   1      50.093  26.828  25.204  1.00  0.00     0.135 A 
ATOM     92  F   UNL A   1      49.796  26.172  28.773  1.00  0.00    -0.206 F 
ATOM     93  C   UNL A   1      51.558  25.703  27.293  1.00  0.00     0.059 A 
ATOM     94  C   UNL A   1      51.355  26.305  24.947  1.00  0.00     0.059 A 
ATOM     95  F   UNL A   1      49.407  27.366  24.184  1.00  0.00    -0.206 F 
ATOM     96  C   UNL A   1      52.085  25.755  26.001  1.00  0.00     0.060 A 
BRANCH  96  97
ATOM     97  S   UNL A   1      53.721  25.057  25.694  1.00  0.00     0.124 S 
ATOM     98  O   UNL A   1      53.396  23.660  25.420  1.00  0.00    -0.237 OA
ATOM     99  O   UNL A   1      54.192  25.834  24.551  1.00  0.00    -0.237 OA
ATOM    100  O   UNL A   1      54.431  25.305  26.945  1.00  0.00    -0.744 OA
ENDBRANCH  96  97
ENDBRANCH  64  89
ENDBRANCH  38  39
ENDBRANCH  30  33
ENDBRANCH  28  29
ENDBRANCH   1  28
TORSDOF 17
ENDMDL
MODEL 2
REMARK VINA RESULT:     -12.6      6.169      8.388
REMARK SMILES CC(C)[C@@H](NC(=O)[C@@H]1CC[C@@H]2CCCC[C@@H]2[NH2+]1)C(=O)NCCCCNC(=O)c1ccc(-c2c3nc(c(-c4c(F)cc(S(=O)(=O)[O-])cc4F)c4ccc([nH]4)c(-c4c(F)cc(S(=O)(=O)[O-])cc4F)c4nc(c(-c5c(F)cc(S(=O)(=O)[O-])cc5F)c5ccc2[nH]5)C=C4)C=C3)cc1
REMARK SMILES IDX 23 1 22 2 21 3 20 4 18 5 19 6 4 8 2 9 1 10 3 11 5 12 6 13
REMARK SMILES IDX 7 15 8 16 9 17 17 18 10 19 16 20 11 23 15 24 12 25 14 26
REMARK SMILES IDX 13 27 24 28 25 29 26 30 27 32 28 33 29 34 93 35 30 36 92 37
REMARK SMILES IDX 31 38 32 39 33 40 86 41 34 42 91 43 85 44 87 45 35 46 90 47
REMARK SMILES IDX 84 48 83 49 36 51 70 52 49 53 69 54 50 55 53 56 68 57 88 58
REMARK SMILES IDX 51 59 52 60 67 62 89 63 54 64 37 65 38 66 47 67 39 68 40 69
REMARK SMILES IDX 46 70 48 71 41 72 42 73 43 74 44 75 45 76 71 77 72 78 81 79
REMARK SMILES IDX 73 80 74 81 80 82 82 83 75 84 76 85 77 86 78 87 79 88 55 89
REMARK SMILES IDX 56 90 65 91 57 92 58 93 64 94 66 95 59 96 60 97 61 98 62 99
REMARK SMILES IDX 63 100
REMARK H PARENT 20 7 5 14 17 21 17 22 25 31 87 50 53 61
REMARK Flexibility Score: inf
ROOT
ATOM      1  C   UNL A   1      33.489  30.828  27.326  1.00  0.00     0.023 C 
ENDROOT
BRANCH   1   2
ATOM      2  C   UNL A   1      34.207  29.521  27.661  1.00  0.00     0.023 C 
BRANCH   2   3
ATOM      3  C   UNL A   1      34.421  28.519  26.512  1.00  0.00     0.116 C 
BRANCH   3   4
ATOM      4  N   UNL A   1      33.288  28.256  25.574  1.00  0.00    -0.354 N 
ATOM      5  C   UNL A   1      33.338  27.476  24.389  1.00  0.00     0.242 C 
ATOM      6  O   UNL A   1      34.157  28.140  23.691  1.00  0.00    -0.273 OA
ATOM      7  H   UNL A   1      32.421  28.664  25.801  1.00  0.00     0.163 HD
BRANCH   5   8
ATOM      8  C   UNL A   1      32.358  25.692  23.835  1.00  0.00     0.174 C 
BRANCH   8   9
ATOM      9  C   UNL A   1      30.465  25.740  24.163  1.00  0.00     0.015 C 
ATOM     10  C   UNL A   1      30.343  25.147  25.677  1.00  0.00     0.010 C 
ATOM     11  C   UNL A   1      29.549  27.357  23.206  1.00  0.00     0.010 C 
ENDBRANCH   8   9
BRANCH   8  12
ATOM     12  N   UNL A   1      32.466  24.795  22.614  1.00  0.00    -0.339 N 
ATOM     13  C   UNL A   1      32.954  23.572  22.952  1.00  0.00     0.278 C 
ATOM     14  H   UNL A   1      32.217  25.064  21.700  1.00  0.00     0.164 HD
ATOM     15  O   UNL A   1      32.882  22.523  22.354  1.00  0.00    -0.268 OA
BRANCH  13  16
ATOM     16  C   UNL A   1      33.538  23.913  24.275  1.00  0.00     0.272 C 
ATOM     17  C   UNL A   1      35.399  23.980  23.852  1.00  0.00     0.076 C 
ATOM     18  N   UNL A   1      32.795  22.571  25.280  1.00  0.00    -0.333 N 
ATOM     19  C   UNL A   1      36.586  22.555  24.253  1.00  0.00     0.016 C 
ATOM     20  C   UNL A   1      33.822  21.160  25.724  1.00  0.00     0.186 C 
ATOM     21  H   UNL A   1      31.997  22.209  24.756  1.00  0.00     0.347 HD
ATOM     22  H   UNL A   1      32.582  23.016  26.172  1.00  0.00     0.347 HD
ATOM     23  C   UNL A   1      35.807  20.947  24.988  1.00  0.00     0.048 C 
ATOM     24  C   UNL A   1      32.599  19.672  25.630  1.00  0.00     0.065 C 
ATOM     25  C   UNL A   1      36.418  19.161  24.675  1.00  0.00     0.010 C 
ATOM     26  C   UNL A   1      33.304  18.044  24.961  1.00  0.00     0.006 C 
ATOM     27  C   UNL A   1      35.117  17.802  24.454  1.00  0.00     0.001 C 
ENDBRANCH  13  16
ENDBRANCH   8  12
ENDBRANCH   5   8
ENDBRANCH   3   4
ENDBRANCH   2   3
ENDBRANCH   1   2
BRANCH   1  28
ATOM     28  C   UNL A   1      34.237  32.109  27.620  1.00  0.00     0.116 C 
BRANCH  28  29
ATOM     29  N   UNL A   1      33.409  33.299  27.724  1.00  0.00    -0.352 N 
ATOM     30  C   UNL A   1      33.513  34.258  28.714  1.00  0.00     0.251 C 
ATOM     31  H   UNL A   1      32.718  33.431  27.035  1.00  0.00     0.163 HD
ATOM     32  O   UNL A   1      32.712  35.179  28.808  1.00  0.00    -0.269 OA
BRANCH  30  33
ATOM     33  C   UNL A   1      34.596  34.078  29.704  1.00  0.00     0.039 A 
ATOM     34  C   UNL A   1      34.344  33.299  30.835  1.00  0.00     0.014 A 
ATOM     35  C   UNL A   1      35.896  34.476  29.381  1.00  0.00     0.014 A 
ATOM     36  C   UNL A   1      35.420  32.823  31.584  1.00  0.00     0.010 A 
ATOM     37  C   UNL A   1      36.966  33.928  30.077  1.00  0.00     0.010 A 
ATOM     38  C   UNL A   1      36.739  33.078  31.172  1.00  0.00    -0.014 A 
BRANCH  38  39
ATOM     39  C   UNL A   1      37.892  32.429  31.849  1.00  0.00     0.031 A 
ATOM     40  C   UNL A   1      38.353  32.923  33.191  1.00  0.00     0.074 A 
ATOM     41  C   UNL A   1      38.576  31.455  31.214  1.00  0.00     0.049 A 
ATOM     42  N   UNL A   1      39.366  32.523  33.913  1.00  0.00    -0.248 NA
ATOM     43  C   UNL A   1      37.600  34.043  33.779  1.00  0.00     0.031 C 
ATOM     44  C   UNL A   1      38.298  30.959  29.863  1.00  0.00     0.029 A 
ATOM     45  N   UNL A   1      39.655  30.709  31.619  1.00  0.00    -0.354 N 
ATOM     46  C   UNL A   1      39.397  33.363  35.019  1.00  0.00     0.074 A 
ATOM     47  C   UNL A   1      38.325  34.321  34.852  1.00  0.00     0.031 C 
ATOM     48  C   UNL A   1      39.161  29.972  29.566  1.00  0.00     0.029 A 
ATOM     49  C   UNL A   1      40.059  29.772  30.698  1.00  0.00     0.049 A 
ATOM     50  H   UNL A   1      40.098  30.834  32.490  1.00  0.00     0.167 HD
ATOM     51  C   UNL A   1      40.226  33.327  36.088  1.00  0.00     0.037 A 
ATOM     52  C   UNL A   1      41.031  28.841  30.769  1.00  0.00     0.037 A 
ATOM     53  C   UNL A   1      41.247  32.335  36.283  1.00  0.00     0.049 A 
ATOM     54  C   UNL A   1      41.837  28.722  32.033  1.00  0.00     0.074 A 
ATOM     55  C   UNL A   1      42.100  32.168  37.361  1.00  0.00     0.029 A 
ATOM     56  N   UNL A   1      41.536  31.320  35.383  1.00  0.00    -0.354 N 
ATOM     57  N   UNL A   1      41.805  29.482  33.102  1.00  0.00    -0.248 NA
ATOM     58  C   UNL A   1      42.789  27.607  32.113  1.00  0.00     0.031 C 
ATOM     59  C   UNL A   1      42.903  31.048  37.113  1.00  0.00     0.029 A 
ATOM     60  C   UNL A   1      42.539  30.511  35.888  1.00  0.00     0.049 A 
ATOM     61  H   UNL A   1      41.094  31.194  34.513  1.00  0.00     0.167 HD
ATOM     62  C   UNL A   1      42.714  28.922  33.991  1.00  0.00     0.074 A 
ATOM     63  C   UNL A   1      43.274  27.756  33.339  1.00  0.00     0.031 C 
ATOM     64  C   UNL A   1      43.058  29.339  35.234  1.00  0.00     0.037 A 
BRANCH  51  65
ATOM     65  C   UNL A   1      40.035  34.386  37.134  1.00  0.00     0.058 A 
ATOM     66  C   UNL A   1      39.226  34.162  38.260  1.00  0.00     0.135 A 
ATOM     67  C   UNL A   1      40.644  35.643  37.002  1.00  0.00     0.135 A 
ATOM     68  F   UNL A   1      38.604  32.983  38.420  1.00  0.00    -0.206 F 
ATOM     69  C   UNL A   1      38.995  35.161  39.198  1.00  0.00     0.059 A 
ATOM     70  C   UNL A   1      40.445  36.650  37.940  1.00  0.00     0.059 A 
ATOM     71  F   UNL A   1      41.425  35.908  35.942  1.00  0.00    -0.206 F 
ATOM     72  C   UNL A   1      39.600  36.406  39.023  1.00  0.00     0.060 A 
BRANCH  72  73
ATOM     73  S   UNL A   1      39.272  37.710  40.228  1.00  0.00     0.124 S 
ATOM     74  O   UNL A   1      38.928  36.927  41.412  1.00  0.00    -0.237 OA
ATOM     75  O   UNL A   1      40.546  38.420  40.287  1.00  0.00    -0.237 OA
ATOM     76  O   UNL A   1      38.172  38.455  39.624  1.00  0.00    -0.744 OA
ENDBRANCH  72  73
ENDBRANCH  51  65
BRANCH  52  77
ATOM     77  C   UNL A   1      41.248  27.899  29.642  1.00  0.00     0.058 A 
ATOM     78  C   UNL A   1      42.376  28.018  28.818  1.00  0.00     0.135 A 
ATOM     79  C   UNL A   1      40.341  26.865  29.368  1.00  0.00     0.135 A 
ATOM     80  F   UNL A   1      43.270  28.995  29.043  1.00  0.00    -0.206 F 
ATOM     81  C   UNL A   1      42.591  27.161  27.745  1.00  0.00     0.059 A 
ATOM     82  C   UNL A   1      40.541  25.983  28.310  1.00  0.00     0.059 A 
ATOM     83  F   UNL A   1      39.257  26.699  30.142  1.00  0.00    -0.206 F 
ATOM     84  C   UNL A   1      41.663  26.148  27.495  1.00  0.00     0.060 A 
BRANCH  84  85
ATOM     85  S   UNL A   1      41.964  25.007  26.127  1.00  0.00     0.124 S 
ATOM     86  O   UNL A   1      40.891  24.038  26.313  1.00  0.00    -0.237 OA
ATOM     87  O   UNL A   1      41.844  25.877  24.961  1.00  0.00    -0.237 OA
ATOM     88  O   UNL A   1      43.314  24.518  26.396  1.00  0.00    -0.744 OA
ENDBRANCH  84  85
ENDBRANCH  52  77
BRANCH  64  89
ATOM     89  C   UNL A   1      44.051  28.504  35.983  1.00  0.00     0.058 A 
ATOM     90  C   UNL A   1      45.429  28.755  35.900  1.00  0.00     0.135 A 
ATOM     91  C   UNL A   1      43.616  27.468  36.823  1.00  0.00     0.135 A 
ATOM     92  F   UNL A   1      45.890  29.733  35.104  1.00  0.00    -0.206 F 
ATOM     93  C   UNL A   1      46.347  27.993  36.614  1.00  0.00     0.059 A 
ATOM     94  C   UNL A   1      44.515  26.703  37.558  1.00  0.00     0.059 A 
ATOM     95  F   UNL A   1      42.306  27.196  36.937  1.00  0.00    -0.206 F 
ATOM     96  C   UNL A   1      45.879  26.966  37.437  1.00  0.00     0.060 A 
BRANCH  96  97
ATOM     97  S   UNL A   1      47.069  25.997  38.389  1.00  0.00     0.124 S 
ATOM     98  O   UNL A   1      46.229  25.477  39.464  1.00  0.00    -0.237 OA
ATOM     99  O   UNL A   1      47.534  25.013  37.415  1.00  0.00    -0.237 OA
ATOM    100  O   UNL A   1      48.063  26.989  38.789  1.00  0.00    -0.744 OA
ENDBRANCH  96  97
ENDBRANCH  64  89
ENDBRANCH  38  39
ENDBRANCH  30  33
ENDBRANCH  28  29
ENDBRANCH   1  28
TORSDOF 17
ENDMDL
MODEL 3
REMARK VINA RESULT:     -12.5      6.515     12.170
REMARK SMILES CC(C)[C@@H](NC(=O)[C@@H]1CC[C@@H]2CCCC[C@@H]2[NH2+]1)C(=O)NCCCCNC(=O)c1ccc(-c2c3nc(c(-c4c(F)cc(S(=O)(=O)[O-])cc4F)c4ccc([nH]4)c(-c4c(F)cc(S(=O)(=O)[O-])cc4F)c4nc(c(-c5c(F)cc(S(=O)(=O)[O-])cc5F)c5ccc2[nH]5)C=C4)C=C3)cc1
REMARK SMILES IDX 23 1 22 2 21 3 20 4 18 5 19 6 4 8 2 9 1 10 3 11 5 12 6 13
REMARK SMILES IDX 7 15 8 16 9 17 17 18 10 19 16 20 11 23 15 24 12 25 14 26
REMARK SMILES IDX 13 27 24 28 25 29 26 30 27 32 28 33 29 34 93 35 30 36 92 37
REMARK SMILES IDX 31 38 32 39 33 40 86 41 34 42 91 43 85 44 87 45 35 46 90 47
REMARK SMILES IDX 84 48 83 49 36 51 70 52 49 53 69 54 50 55 53 56 68 57 88 58
REMARK SMILES IDX 51 59 52 60 67 62 89 63 54 64 37 65 38 66 47 67 39 68 40 69
REMARK SMILES IDX 46 70 48 71 41 72 42 73 43 74 44 75 45 76 71 77 72 78 81 79
REMARK SMILES IDX 73 80 74 81 80 82 82 83 75 84 76 85 77 86 78 87 79 88 55 89
REMARK SMILES IDX 56 90 65 91 57 92 58 93 64 94 66 95 59 96 60 97 61 98 62 99
REMARK SMILES IDX 63 100
REMARK H PARENT 20 7 5 14 17 21 17 22 25 31 87 50 53 61
REMARK Flexibility Score: inf
ROOT
ATOM      1  C   UNL A   1      41.289  22.147  26.306  1.00  0.00     0.023 C 
ENDROOT
BRANCH   1   2
ATOM      2  C   UNL A   1      39.899  21.795  26.837  1.00  0.00     0.023 C 
BRANCH   2   3
ATOM      3  C   UNL A   1      38.710  21.984  25.879  1.00  0.00     0.116 C 
BRANCH   3   4
ATOM      4  N   UNL A   1      37.407  22.449  26.443  1.00  0.00    -0.354 N 
ATOM      5  C   UNL A   1      36.559  23.447  25.896  1.00  0.00     0.242 C 
ATOM      6  O   UNL A   1      37.300  24.469  25.971  1.00  0.00    -0.273 OA
ATOM      7  H   UNL A   1      37.107  22.020  27.277  1.00  0.00     0.163 HD
BRANCH   5   8
ATOM      8  C   UNL A   1      34.590  23.365  25.140  1.00  0.00     0.174 C 
BRANCH   8   9
ATOM      9  C   UNL A   1      34.322  21.924  23.898  1.00  0.00     0.015 C 
ATOM     10  C   UNL A   1      34.601  20.600  24.809  1.00  0.00     0.010 C 
ATOM     11  C   UNL A   1      32.848  22.377  22.486  1.00  0.00     0.010 C 
ENDBRANCH   8   9
BRANCH   8  12
ATOM     12  N   UNL A   1      33.229  23.501  25.800  1.00  0.00    -0.339 N 
ATOM     13  C   UNL A   1      32.611  24.646  25.405  1.00  0.00     0.278 C 
ATOM     14  H   UNL A   1      32.845  22.847  26.429  1.00  0.00     0.164 HD
ATOM     15  O   UNL A   1      31.438  24.940  25.446  1.00  0.00    -0.268 OA
BRANCH  13  16
ATOM     16  C   UNL A   1      33.792  25.375  24.875  1.00  0.00     0.272 C 
ATOM     17  C   UNL A   1      34.179  26.556  26.325  1.00  0.00     0.076 C 
ATOM     18  N   UNL A   1      33.090  25.954  23.283  1.00  0.00    -0.333 N 
ATOM     19  C   UNL A   1      33.670  28.384  26.314  1.00  0.00     0.016 C 
ATOM     20  C   UNL A   1      32.566  27.672  23.147  1.00  0.00     0.186 C 
ATOM     21  H   UNL A   1      32.275  25.375  23.085  1.00  0.00     0.347 HD
ATOM     22  H   UNL A   1      33.866  25.877  22.626  1.00  0.00     0.347 HD
ATOM     23  C   UNL A   1      32.601  28.986  24.821  1.00  0.00     0.048 C 
ATOM     24  C   UNL A   1      30.992  27.571  22.040  1.00  0.00     0.065 C 
ATOM     25  C   UNL A   1      31.238  30.326  24.886  1.00  0.00     0.010 C 
ATOM     26  C   UNL A   1      29.580  28.760  22.473  1.00  0.00     0.006 C 
ATOM     27  C   UNL A   1      29.667  30.048  23.864  1.00  0.00     0.001 C 
ENDBRANCH  13  16
ENDBRANCH   8  12
ENDBRANCH   5   8
ENDBRANCH   3   4
ENDBRANCH   2   3
ENDBRANCH   1   2
BRANCH   1  28
ATOM     28  C   UNL A   1      41.856  23.486  26.722  1.00  0.00     0.116 C 
BRANCH  28  29
ATOM     29  N   UNL A   1      41.891  24.494  25.675  1.00  0.00    -0.352 N 
ATOM     30  C   UNL A   1      41.798  25.858  25.880  1.00  0.00     0.251 C 
ATOM     31  H   UNL A   1      41.988  24.181  24.747  1.00  0.00     0.163 HD
ATOM     32  O   UNL A   1      41.720  26.648  24.948  1.00  0.00    -0.269 OA
BRANCH  30  33
ATOM     33  C   UNL A   1      41.716  26.317  27.284  1.00  0.00     0.039 A 
ATOM     34  C   UNL A   1      42.785  27.040  27.813  1.00  0.00     0.014 A 
ATOM     35  C   UNL A   1      40.497  26.235  27.962  1.00  0.00     0.014 A 
ATOM     36  C   UNL A   1      42.593  27.779  28.981  1.00  0.00     0.010 A 
ATOM     37  C   UNL A   1      40.285  27.041  29.074  1.00  0.00     0.010 A 
ATOM     38  C   UNL A   1      41.324  27.838  29.582  1.00  0.00    -0.014 A 
BRANCH  38  39
ATOM     39  C   UNL A   1      41.055  28.761  30.714  1.00  0.00     0.031 A 
ATOM     40  C   UNL A   1      41.858  28.654  31.980  1.00  0.00     0.074 A 
ATOM     41  C   UNL A   1      40.031  29.635  30.634  1.00  0.00     0.049 A 
ATOM     42  N   UNL A   1      41.738  29.330  33.092  1.00  0.00    -0.248 NA
ATOM     43  C   UNL A   1      42.905  27.619  32.015  1.00  0.00     0.031 C 
ATOM     44  C   UNL A   1      39.107  29.765  29.504  1.00  0.00     0.029 A 
ATOM     45  N   UNL A   1      39.588  30.579  31.527  1.00  0.00    -0.354 N 
ATOM     46  C   UNL A   1      42.665  28.781  33.969  1.00  0.00     0.074 A 
ATOM     47  C   UNL A   1      43.311  27.689  33.274  1.00  0.00     0.031 C 
ATOM     48  C   UNL A   1      38.230  30.751  29.758  1.00  0.00     0.029 A 
ATOM     49  C   UNL A   1      38.521  31.317  31.071  1.00  0.00     0.049 A 
ATOM     50  H   UNL A   1      39.997  30.715  32.412  1.00  0.00     0.167 HD
ATOM     51  C   UNL A   1      42.969  29.166  35.232  1.00  0.00     0.037 A 
ATOM     52  C   UNL A   1      37.867  32.348  31.640  1.00  0.00     0.037 A 
ATOM     53  C   UNL A   1      42.372  30.291  35.897  1.00  0.00     0.049 A 
ATOM     54  C   UNL A   1      38.326  32.856  32.978  1.00  0.00     0.074 A 
ATOM     55  C   UNL A   1      42.654  30.806  37.150  1.00  0.00     0.029 A 
ATOM     56  N   UNL A   1      41.385  31.095  35.345  1.00  0.00    -0.354 N 
ATOM     57  N   UNL A   1      39.255  32.368  33.767  1.00  0.00    -0.248 NA
ATOM     58  C   UNL A   1      37.671  34.065  33.494  1.00  0.00     0.031 C 
ATOM     59  C   UNL A   1      41.838  31.926  37.356  1.00  0.00     0.029 A 
ATOM     60  C   UNL A   1      41.061  32.114  36.223  1.00  0.00     0.049 A 
ATOM     61  H   UNL A   1      40.976  30.961  34.461  1.00  0.00     0.167 HD
ATOM     62  C   UNL A   1      39.312  33.226  34.859  1.00  0.00     0.074 A 
ATOM     63  C   UNL A   1      38.331  34.266  34.626  1.00  0.00     0.031 C 
ATOM     64  C   UNL A   1      40.103  33.154  35.957  1.00  0.00     0.037 A 
BRANCH  51  65
ATOM     65  C   UNL A   1      44.012  28.365  35.954  1.00  0.00     0.058 A 
ATOM     66  C   UNL A   1      43.659  27.295  36.792  1.00  0.00     0.135 A 
ATOM     67  C   UNL A   1      45.373  28.678  35.828  1.00  0.00     0.135 A 
ATOM     68  F   UNL A   1      42.367  26.969  36.963  1.00  0.00    -0.206 F 
ATOM     69  C   UNL A   1      44.615  26.590  37.513  1.00  0.00     0.059 A 
ATOM     70  C   UNL A   1      46.350  27.973  36.522  1.00  0.00     0.059 A 
ATOM     71  F   UNL A   1      45.762  29.694  35.041  1.00  0.00    -0.206 F 
ATOM     72  C   UNL A   1      45.959  26.945  37.379  1.00  0.00     0.060 A 
BRANCH  72  73
ATOM     73  S   UNL A   1      47.195  26.046  38.341  1.00  0.00     0.124 S 
ATOM     74  O   UNL A   1      46.352  25.306  39.275  1.00  0.00    -0.237 OA
ATOM     75  O   UNL A   1      47.870  25.244  37.326  1.00  0.00    -0.237 OA
ATOM     76  O   UNL A   1      48.001  27.112  38.928  1.00  0.00    -0.744 OA
ENDBRANCH  72  73
ENDBRANCH  51  65
BRANCH  52  77
ATOM     77  C   UNL A   1      36.758  33.020  30.917  1.00  0.00     0.058 A 
ATOM     78  C   UNL A   1      35.425  32.812  31.299  1.00  0.00     0.135 A 
ATOM     79  C   UNL A   1      37.004  33.881  29.837  1.00  0.00     0.135 A 
ATOM     80  F   UNL A   1      35.143  31.995  32.326  1.00  0.00    -0.206 F 
ATOM     81  C   UNL A   1      34.368  33.414  30.625  1.00  0.00     0.059 A 
ATOM     82  C   UNL A   1      35.965  34.509  29.155  1.00  0.00     0.059 A 
ATOM     83  F   UNL A   1      38.264  34.128  29.447  1.00  0.00    -0.206 F 
ATOM     84  C   UNL A   1      34.649  34.258  29.549  1.00  0.00     0.060 A 
BRANCH  84  85
ATOM     85  S   UNL A   1      33.279  35.075  28.700  1.00  0.00     0.124 S 
ATOM     86  O   UNL A   1      33.977  36.107  27.944  1.00  0.00    -0.237 OA
ATOM     87  O   UNL A   1      32.703  33.986  27.916  1.00  0.00    -0.237 OA
ATOM     88  O   UNL A   1      32.445  35.550  29.802  1.00  0.00    -0.744 OA
ENDBRANCH  84  85
ENDBRANCH  52  77
BRANCH  64  89
ATOM     89  C   UNL A   1      39.970  34.255  36.966  1.00  0.00     0.058 A 
ATOM     90  C   UNL A   1      40.762  35.410  36.896  1.00  0.00     0.135 A 
ATOM     91  C   UNL A   1      39.012  34.168  37.988  1.00  0.00     0.135 A 
ATOM     92  F   UNL A   1      41.694  35.533  35.938  1.00  0.00    -0.206 F 
ATOM     93  C   UNL A   1      40.621  36.440  37.820  1.00  0.00     0.059 A 
ATOM     94  C   UNL A   1      38.845  35.192  38.913  1.00  0.00     0.059 A 
ATOM     95  F   UNL A   1      38.229  33.083  38.089  1.00  0.00    -0.206 F 
ATOM     96  C   UNL A   1      39.662  36.319  38.828  1.00  0.00     0.060 A 
BRANCH  96  97
ATOM     97  S   UNL A   1      39.457  37.670  40.008  1.00  0.00     0.124 S 
ATOM     98  O   UNL A   1      39.323  36.941  41.266  1.00  0.00    -0.237 OA
ATOM     99  O   UNL A   1      40.694  38.428  39.844  1.00  0.00    -0.237 OA
ATOM    100  O   UNL A   1      38.250  38.344  39.538  1.00  0.00    -0.744 OA
ENDBRANCH  96  97
ENDBRANCH  64  89
ENDBRANCH  38  39
ENDBRANCH  30  33
ENDBRANCH  28  29
ENDBRANCH   1  28
TORSDOF 17
ENDMDL
