MODEL 1
REMARK VINA RESULT:      -9.1      0.000      0.000
REMARK SMILES C#CCN(CC(=O)NCCCCNC(=O)c1ccc(-c2c3nc(c(-c4c(F)cc(S(=O)(=O)[O-])cc4F)c4ccc([nH]4)c(-c4c(F)cc(S(=O)(=O)[O-])cc4F)c4nc(c(-c5c(F)cc(S(=O)(=O)[O-])cc5F)c5ccc2[nH]5)C=C4)C=C3)cc1)C(=O)Cc1csc(-c2ccsc2)n1
REMARK SMILES IDX 9 1 8 2 6 3 7 4 5 6 4 7 3 8 2 9 1 10 82 11 83 12 84 13 85 14
REMARK SMILES IDX 86 15 94 16 87 17 88 18 89 19 90 20 93 21 91 22 92 23 10 24
REMARK SMILES IDX 11 25 12 26 13 27 14 28 15 30 16 31 17 32 81 33 18 34 80 35
REMARK SMILES IDX 19 36 20 37 21 38 74 39 22 40 79 41 73 42 75 43 23 44 78 45
REMARK SMILES IDX 72 46 71 47 24 49 58 50 37 51 57 52 38 53 41 54 56 55 76 56
REMARK SMILES IDX 39 57 40 58 55 60 77 61 42 62 25 63 26 64 35 65 27 66 28 67
REMARK SMILES IDX 34 68 36 69 29 70 30 71 31 72 32 73 33 74 59 75 60 76 69 77
REMARK SMILES IDX 61 78 62 79 68 80 70 81 63 82 64 83 65 84 66 85 67 86 43 87
REMARK SMILES IDX 44 88 53 89 45 90 46 91 52 92 54 93 47 94 48 95 49 96 50 97
REMARK SMILES IDX 51 98
REMARK H PARENT 8 5 13 29 75 48 41 59
REMARK Flexibility Score: inf
ROOT
ATOM      1  C   UNL A   1      43.898  39.815  32.038  1.00  0.00     0.116 C 
ENDROOT
BRANCH   1   2
ATOM      2  N   UNL A   1      44.557  40.286  30.842  1.00  0.00    -0.355 N 
ATOM      3  C   UNL A   1      44.229  40.039  29.543  1.00  0.00     0.239 C 
ATOM      4  O   UNL A   1      44.869  40.615  28.662  1.00  0.00    -0.273 OA
ATOM      5  H   UNL A   1      45.344  40.858  30.983  1.00  0.00     0.163 HD
BRANCH   3   6
ATOM      6  C   UNL A   1      43.058  39.110  29.199  1.00  0.00     0.220 C 
BRANCH   6   7
ATOM      7  N   UNL A   1      42.545  39.228  27.827  1.00  0.00    -0.322 N 
BRANCH   7   8
ATOM      8  C   UNL A   1      42.975  38.224  26.850  1.00  0.00     0.209 C 
BRANCH   8   9
ATOM      9  C   UNL A   1      42.558  36.814  27.239  1.00  0.00    -0.085 C 
ATOM     10  C   UNL A   1      42.200  35.606  27.572  1.00  0.00     0.006 C 
ENDBRANCH   8   9
ENDBRANCH   7   8
BRANCH   7  11
ATOM     11  C   UNL A   1      41.643  40.208  27.409  1.00  0.00     0.229 C 
ATOM     12  O   UNL A   1      40.993  40.864  28.234  1.00  0.00    -0.274 OA
BRANCH  11  13
ATOM     13  C   UNL A   1      41.338  40.412  25.930  1.00  0.00     0.157 C 
BRANCH  13  14
ATOM     14  C   UNL A   1      42.265  41.323  25.187  1.00  0.00     0.061 A 
ATOM     15  C   UNL A   1      43.343  41.991  25.743  1.00  0.00     0.091 A 
ATOM     16  N   UNL A   1      42.049  41.628  23.854  1.00  0.00    -0.241 NA
ATOM     17  S   UNL A   1      44.168  42.895  24.544  1.00  0.00    -0.122 S 
ATOM     18  C   UNL A   1      42.962  42.462  23.403  1.00  0.00     0.124 A 
BRANCH  18  19
ATOM     19  C   UNL A   1      42.883  43.006  22.006  1.00  0.00     0.021 A 
ATOM     20  C   UNL A   1      43.982  43.617  21.328  1.00  0.00     0.023 A 
ATOM     21  C   UNL A   1      41.753  42.968  21.218  1.00  0.00     0.076 A 
ATOM     22  C   UNL A   1      43.660  43.987  20.040  1.00  0.00     0.065 A 
ATOM     23  S   UNL A   1      42.021  43.664  19.674  1.00  0.00    -0.152 S 
ENDBRANCH  18  19
ENDBRANCH  13  14
ENDBRANCH  11  13
ENDBRANCH   7  11
ENDBRANCH   6   7
ENDBRANCH   3   6
ENDBRANCH   1   2
BRANCH   1  24
ATOM     24  C   UNL A   1      44.286  38.378  32.376  1.00  0.00     0.023 C 
BRANCH  24  25
ATOM     25  C   UNL A   1      45.776  38.070  32.227  1.00  0.00     0.023 C 
BRANCH  25  26
ATOM     26  C   UNL A   1      46.131  37.158  31.061  1.00  0.00     0.116 C 
BRANCH  26  27
ATOM     27  N   UNL A   1      47.182  37.696  30.211  1.00  0.00    -0.352 N 
ATOM     28  C   UNL A   1      47.920  37.042  29.255  1.00  0.00     0.251 C 
ATOM     29  H   UNL A   1      47.392  38.650  30.338  1.00  0.00     0.163 HD
ATOM     30  O   UNL A   1      48.850  37.614  28.693  1.00  0.00    -0.269 OA
BRANCH  28  31
ATOM     31  C   UNL A   1      47.607  35.632  28.946  1.00  0.00     0.039 A 
ATOM     32  C   UNL A   1      47.891  34.655  29.901  1.00  0.00     0.014 A 
ATOM     33  C   UNL A   1      46.987  35.289  27.742  1.00  0.00     0.014 A 
ATOM     34  C   UNL A   1      47.490  33.337  29.676  1.00  0.00     0.010 A 
ATOM     35  C   UNL A   1      46.524  33.990  27.551  1.00  0.00     0.010 A 
ATOM     36  C   UNL A   1      46.770  33.003  28.516  1.00  0.00    -0.014 A 
BRANCH  36  37
ATOM     37  C   UNL A   1      46.258  31.625  28.304  1.00  0.00     0.031 A 
ATOM     38  C   UNL A   1      44.832  31.290  28.648  1.00  0.00     0.074 A 
ATOM     39  C   UNL A   1      47.097  30.664  27.868  1.00  0.00     0.049 A 
ATOM     40  N   UNL A   1      44.222  30.134  28.596  1.00  0.00    -0.248 NA
ATOM     41  C   UNL A   1      43.987  32.390  29.141  1.00  0.00     0.031 C 
ATOM     42  C   UNL A   1      48.518  30.854  27.562  1.00  0.00     0.029 A 
ATOM     43  N   UNL A   1      46.883  29.331  27.619  1.00  0.00    -0.354 N 
ATOM     44  C   UNL A   1      42.935  30.362  29.065  1.00  0.00     0.074 A 
ATOM     45  C   UNL A   1      42.861  31.758  29.440  1.00  0.00     0.031 C 
ATOM     46  C   UNL A   1      49.041  29.686  27.153  1.00  0.00     0.029 A 
ATOM     47  C   UNL A   1      48.007  28.658  27.201  1.00  0.00     0.049 A 
ATOM     48  H   UNL A   1      46.005  28.897  27.731  1.00  0.00     0.167 HD
ATOM     49  C   UNL A   1      41.902  29.493  29.153  1.00  0.00     0.037 A 
ATOM     50  C   UNL A   1      48.187  27.357  26.900  1.00  0.00     0.037 A 
ATOM     51  C   UNL A   1      41.970  28.116  28.740  1.00  0.00     0.049 A 
ATOM     52  C   UNL A   1      47.012  26.417  26.984  1.00  0.00     0.074 A 
ATOM     53  C   UNL A   1      40.954  27.176  28.713  1.00  0.00     0.029 A 
ATOM     54  N   UNL A   1      43.113  27.480  28.281  1.00  0.00    -0.354 N 
ATOM     55  N   UNL A   1      45.779  26.673  27.350  1.00  0.00    -0.248 NA
ATOM     56  C   UNL A   1      47.250  25.018  26.604  1.00  0.00     0.031 C 
ATOM     57  C   UNL A   1      41.494  25.961  28.280  1.00  0.00     0.029 A 
ATOM     58  C   UNL A   1      42.834  26.156  27.989  1.00  0.00     0.049 A 
ATOM     59  H   UNL A   1      43.994  27.907  28.178  1.00  0.00     0.167 HD
ATOM     60  C   UNL A   1      45.089  25.472  27.219  1.00  0.00     0.074 A 
ATOM     61  C   UNL A   1      46.038  24.496  26.725  1.00  0.00     0.031 C 
ATOM     62  C   UNL A   1      43.788  25.201  27.485  1.00  0.00     0.037 A 
BRANCH  49  63
ATOM     63  C   UNL A   1      40.597  29.998  29.706  1.00  0.00     0.058 A 
ATOM     64  C   UNL A   1      39.472  30.178  28.887  1.00  0.00     0.135 A 
ATOM     65  C   UNL A   1      40.450  30.230  31.083  1.00  0.00     0.135 A 
ATOM     66  F   UNL A   1      39.563  29.987  27.561  1.00  0.00    -0.206 F 
ATOM     67  C   UNL A   1      38.249  30.581  29.411  1.00  0.00     0.059 A 
ATOM     68  C   UNL A   1      39.229  30.608  31.633  1.00  0.00     0.059 A 
ATOM     69  F   UNL A   1      41.496  30.077  31.910  1.00  0.00    -0.206 F 
ATOM     70  C   UNL A   1      38.135  30.787  30.787  1.00  0.00     0.060 A 
BRANCH  70  71
ATOM     71  S   UNL A   1      36.529  31.266  31.456  1.00  0.00     0.124 S 
ATOM     72  O   UNL A   1      36.511  32.698  31.175  1.00  0.00    -0.237 OA
ATOM     73  O   UNL A   1      35.607  30.455  30.666  1.00  0.00    -0.237 OA
ATOM     74  O   UNL A   1      36.625  30.905  32.867  1.00  0.00    -0.744 OA
ENDBRANCH  70  71
ENDBRANCH  49  63
BRANCH  50  75
ATOM     75  C   UNL A   1      49.527  26.860  26.486  1.00  0.00     0.058 A 
ATOM     76  C   UNL A   1      49.902  26.830  25.135  1.00  0.00     0.135 A 
ATOM     77  C   UNL A   1      50.451  26.389  27.432  1.00  0.00     0.135 A 
ATOM     78  F   UNL A   1      49.053  27.266  24.192  1.00  0.00    -0.206 F 
ATOM     79  C   UNL A   1      51.133  26.319  24.731  1.00  0.00     0.059 A 
ATOM     80  C   UNL A   1      51.698  25.900  27.055  1.00  0.00     0.059 A 
ATOM     81  F   UNL A   1      50.149  26.416  28.739  1.00  0.00    -0.206 F 
ATOM     82  C   UNL A   1      52.022  25.852  25.701  1.00  0.00     0.060 A 
BRANCH  82  83
ATOM     83  S   UNL A   1      53.623  25.205  25.170  1.00  0.00     0.124 S 
ATOM     84  O   UNL A   1      53.388  23.767  25.220  1.00  0.00    -0.237 OA
ATOM     85  O   UNL A   1      53.763  25.784  23.838  1.00  0.00    -0.237 OA
ATOM     86  O   UNL A   1      54.544  25.732  26.174  1.00  0.00    -0.744 OA
ENDBRANCH  82  83
ENDBRANCH  50  75
BRANCH  62  87
ATOM     87  C   UNL A   1      43.301  23.805  27.211  1.00  0.00     0.058 A 
ATOM     88  C   UNL A   1      43.310  22.813  28.204  1.00  0.00     0.135 A 
ATOM     89  C   UNL A   1      42.770  23.472  25.954  1.00  0.00     0.135 A 
ATOM     90  F   UNL A   1      43.812  23.078  29.420  1.00  0.00    -0.206 F 
ATOM     91  C   UNL A   1      42.834  21.530  27.952  1.00  0.00     0.059 A 
ATOM     92  C   UNL A   1      42.262  22.205  25.689  1.00  0.00     0.059 A 
ATOM     93  F   UNL A   1      42.726  24.389  24.974  1.00  0.00    -0.206 F 
ATOM     94  C   UNL A   1      42.312  21.236  26.690  1.00  0.00     0.060 A 
BRANCH  94  95
ATOM     95  S   UNL A   1      41.669  19.577  26.384  1.00  0.00     0.124 S 
ATOM     96  O   UNL A   1      40.249  19.846  26.182  1.00  0.00    -0.237 OA
ATOM     97  O   UNL A   1      42.412  19.167  25.196  1.00  0.00    -0.237 OA
ATOM     98  O   UNL A   1      42.004  18.853  27.606  1.00  0.00    -0.744 OA
ENDBRANCH  94  95
ENDBRANCH  62  87
ENDBRANCH  36  37
ENDBRANCH  28  31
ENDBRANCH  26  27
ENDBRANCH  25  26
ENDBRANCH  24  25
ENDBRANCH   1  24
TORSDOF 21
ENDMDL
MODEL 2
REMARK VINA RESULT:      -8.9      5.424     12.419
REMARK SMILES C#CCN(CC(=O)NCCCCNC(=O)c1ccc(-c2c3nc(c(-c4c(F)cc(S(=O)(=O)[O-])cc4F)c4ccc([nH]4)c(-c4c(F)cc(S(=O)(=O)[O-])cc4F)c4nc(c(-c5c(F)cc(S(=O)(=O)[O-])cc5F)c5ccc2[nH]5)C=C4)C=C3)cc1)C(=O)Cc1csc(-c2ccsc2)n1
REMARK SMILES IDX 9 1 8 2 6 3 7 4 5 6 4 7 3 8 2 9 1 10 82 11 83 12 84 13 85 14
REMARK SMILES IDX 86 15 94 16 87 17 88 18 89 19 90 20 93 21 91 22 92 23 10 24
REMARK SMILES IDX 11 25 12 26 13 27 14 28 15 30 16 31 17 32 81 33 18 34 80 35
REMARK SMILES IDX 19 36 20 37 21 38 74 39 22 40 79 41 73 42 75 43 23 44 78 45
REMARK SMILES IDX 72 46 71 47 24 49 58 50 37 51 57 52 38 53 41 54 56 55 76 56
REMARK SMILES IDX 39 57 40 58 55 60 77 61 42 62 25 63 26 64 35 65 27 66 28 67
REMARK SMILES IDX 34 68 36 69 29 70 30 71 31 72 32 73 33 74 59 75 60 76 69 77
REMARK SMILES IDX 61 78 62 79 68 80 70 81 63 82 64 83 65 84 66 85 67 86 43 87
REMARK SMILES IDX 44 88 53 89 45 90 46 91 52 92 54 93 47 94 48 95 49 96 50 97
REMARK SMILES IDX 51 98
REMARK H PARENT 8 5 13 29 75 48 41 59
REMARK Flexibility Score: inf
ROOT
ATOM      1  C   UNL A   1      39.471  33.744  34.771  1.00  0.00     0.116 C 
ENDROOT
BRANCH   1   2
ATOM      2  N   UNL A   1      38.076  33.848  35.131  1.00  0.00    -0.355 N 
ATOM      3  C   UNL A   1      37.423  33.247  36.165  1.00  0.00     0.239 C 
ATOM      4  O   UNL A   1      36.241  33.541  36.355  1.00  0.00    -0.273 OA
ATOM      5  H   UNL A   1      37.526  34.426  34.555  1.00  0.00     0.163 HD
BRANCH   3   6
ATOM      6  C   UNL A   1      38.161  32.276  37.093  1.00  0.00     0.220 C 
BRANCH   6   7
ATOM      7  N   UNL A   1      37.811  32.379  38.517  1.00  0.00    -0.322 N 
BRANCH   7   8
ATOM      8  C   UNL A   1      38.442  33.447  39.298  1.00  0.00     0.209 C 
BRANCH   8   9
ATOM      9  C   UNL A   1      39.322  32.913  40.416  1.00  0.00    -0.085 C 
ATOM     10  C   UNL A   1      40.077  32.455  41.375  1.00  0.00     0.006 C 
ENDBRANCH   8   9
ENDBRANCH   7   8
BRANCH   7  11
ATOM     11  C   UNL A   1      36.885  31.555  39.158  1.00  0.00     0.229 C 
ATOM     12  O   UNL A   1      36.986  30.322  39.096  1.00  0.00    -0.274 OA
BRANCH  11  13
ATOM     13  C   UNL A   1      35.657  32.141  39.844  1.00  0.00     0.157 C 
BRANCH  13  14
ATOM     14  C   UNL A   1      35.638  32.061  41.338  1.00  0.00     0.061 A 
ATOM     15  C   UNL A   1      34.648  32.584  42.153  1.00  0.00     0.091 A 
ATOM     16  N   UNL A   1      36.693  31.498  42.036  1.00  0.00    -0.241 NA
ATOM     17  S   UNL A   1      34.984  32.240  43.797  1.00  0.00    -0.122 S 
ATOM     18  C   UNL A   1      36.486  31.552  43.334  1.00  0.00     0.124 A 
BRANCH  18  19
ATOM     19  C   UNL A   1      37.536  31.082  44.300  1.00  0.00     0.021 A 
ATOM     20  C   UNL A   1      38.014  29.737  44.362  1.00  0.00     0.023 A 
ATOM     21  C   UNL A   1      38.164  31.891  45.222  1.00  0.00     0.076 A 
ATOM     22  C   UNL A   1      39.011  29.581  45.300  1.00  0.00     0.065 A 
ATOM     23  S   UNL A   1      39.320  31.032  46.152  1.00  0.00    -0.152 S 
ENDBRANCH  18  19
ENDBRANCH  13  14
ENDBRANCH  11  13
ENDBRANCH   7  11
ENDBRANCH   6   7
ENDBRANCH   3   6
ENDBRANCH   1   2
BRANCH   1  24
ATOM     24  C   UNL A   1      39.687  33.909  33.270  1.00  0.00     0.023 C 
BRANCH  24  25
ATOM     25  C   UNL A   1      38.483  34.465  32.510  1.00  0.00     0.023 C 
BRANCH  25  26
ATOM     26  C   UNL A   1      38.153  33.746  31.210  1.00  0.00     0.116 C 
BRANCH  26  27
ATOM     27  N   UNL A   1      37.027  32.833  31.328  1.00  0.00    -0.352 N 
ATOM     28  C   UNL A   1      36.975  31.500  30.998  1.00  0.00     0.251 C 
ATOM     29  H   UNL A   1      36.196  33.218  31.690  1.00  0.00     0.163 HD
ATOM     30  O   UNL A   1      35.912  30.889  31.058  1.00  0.00    -0.269 OA
BRANCH  28  31
ATOM     31  C   UNL A   1      38.204  30.829  30.529  1.00  0.00     0.039 A 
ATOM     32  C   UNL A   1      38.412  30.688  29.156  1.00  0.00     0.014 A 
ATOM     33  C   UNL A   1      39.167  30.390  31.442  1.00  0.00     0.014 A 
ATOM     34  C   UNL A   1      39.622  30.167  28.695  1.00  0.00     0.010 A 
ATOM     35  C   UNL A   1      40.399  29.939  30.979  1.00  0.00     0.010 A 
ATOM     36  C   UNL A   1      40.639  29.824  29.602  1.00  0.00    -0.014 A 
BRANCH  36  37
ATOM     37  C   UNL A   1      41.964  29.353  29.125  1.00  0.00     0.031 A 
ATOM     38  C   UNL A   1      43.109  30.322  29.002  1.00  0.00     0.074 A 
ATOM     39  C   UNL A   1      42.113  28.070  28.736  1.00  0.00     0.049 A 
ATOM     40  N   UNL A   1      44.316  30.117  28.544  1.00  0.00    -0.248 NA
ATOM     41  C   UNL A   1      42.858  31.710  29.425  1.00  0.00     0.031 C 
ATOM     42  C   UNL A   1      41.059  27.053  28.748  1.00  0.00     0.029 A 
ATOM     43  N   UNL A   1      43.207  27.405  28.242  1.00  0.00    -0.354 N 
ATOM     44  C   UNL A   1      44.960  31.346  28.604  1.00  0.00     0.074 A 
ATOM     45  C   UNL A   1      43.997  32.304  29.102  1.00  0.00     0.031 C 
ATOM     46  C   UNL A   1      41.561  25.891  28.297  1.00  0.00     0.029 A 
ATOM     47  C   UNL A   1      42.960  26.087  27.932  1.00  0.00     0.049 A 
ATOM     48  H   UNL A   1      44.087  27.831  28.119  1.00  0.00     0.167 HD
ATOM     49  C   UNL A   1      46.243  31.644  28.295  1.00  0.00     0.037 A 
ATOM     50  C   UNL A   1      43.767  25.147  27.403  1.00  0.00     0.037 A 
ATOM     51  C   UNL A   1      47.207  30.677  27.840  1.00  0.00     0.049 A 
ATOM     52  C   UNL A   1      45.197  25.500  27.091  1.00  0.00     0.074 A 
ATOM     53  C   UNL A   1      48.554  30.864  27.579  1.00  0.00     0.029 A 
ATOM     54  N   UNL A   1      46.932  29.343  27.579  1.00  0.00    -0.354 N 
ATOM     55  N   UNL A   1      45.810  26.651  27.235  1.00  0.00    -0.248 NA
ATOM     56  C   UNL A   1      46.048  24.428  26.556  1.00  0.00     0.031 C 
ATOM     57  C   UNL A   1      49.082  29.654  27.118  1.00  0.00     0.029 A 
ATOM     58  C   UNL A   1      48.077  28.701  27.139  1.00  0.00     0.049 A 
ATOM     59  H   UNL A   1      46.052  28.916  27.690  1.00  0.00     0.167 HD
ATOM     60  C   UNL A   1      47.124  26.432  26.834  1.00  0.00     0.074 A 
ATOM     61  C   UNL A   1      47.220  25.037  26.458  1.00  0.00     0.031 C 
ATOM     62  C   UNL A   1      48.158  27.308  26.781  1.00  0.00     0.037 A 
BRANCH  49  63
ATOM     63  C   UNL A   1      46.695  33.070  28.447  1.00  0.00     0.058 A 
ATOM     64  C   UNL A   1      47.249  33.542  29.647  1.00  0.00     0.135 A 
ATOM     65  C   UNL A   1      46.644  33.953  27.356  1.00  0.00     0.135 A 
ATOM     66  F   UNL A   1      47.305  32.745  30.726  1.00  0.00    -0.206 F 
ATOM     67  C   UNL A   1      47.728  34.843  29.764  1.00  0.00     0.059 A 
ATOM     68  C   UNL A   1      47.142  35.250  27.442  1.00  0.00     0.059 A 
ATOM     69  F   UNL A   1      46.119  33.553  26.187  1.00  0.00    -0.206 F 
ATOM     70  C   UNL A   1      47.676  35.687  28.654  1.00  0.00     0.060 A 
BRANCH  70  71
ATOM     71  S   UNL A   1      48.342  37.357  28.810  1.00  0.00     0.124 S 
ATOM     72  O   UNL A   1      47.307  38.147  28.151  1.00  0.00    -0.237 OA
ATOM     73  O   UNL A   1      48.436  37.521  30.258  1.00  0.00    -0.237 OA
ATOM     74  O   UNL A   1      49.618  37.283  28.107  1.00  0.00    -0.744 OA
ENDBRANCH  70  71
ENDBRANCH  49  63
BRANCH  50  75
ATOM     75  C   UNL A   1      43.249  23.777  27.137  1.00  0.00     0.058 A 
ATOM     76  C   UNL A   1      43.086  22.850  28.176  1.00  0.00     0.135 A 
ATOM     77  C   UNL A   1      42.925  23.364  25.835  1.00  0.00     0.135 A 
ATOM     78  F   UNL A   1      43.386  23.196  29.438  1.00  0.00    -0.206 F 
ATOM     79  C   UNL A   1      42.653  21.550  27.933  1.00  0.00     0.059 A 
ATOM     80  C   UNL A   1      42.463  22.078  25.570  1.00  0.00     0.059 A 
ATOM     81  F   UNL A   1      43.043  24.218  24.808  1.00  0.00    -0.206 F 
ATOM     82  C   UNL A   1      42.348  21.172  26.623  1.00  0.00     0.060 A 
BRANCH  82  83
ATOM     83  S   UNL A   1      41.770  19.489  26.317  1.00  0.00     0.124 S 
ATOM     84  O   UNL A   1      40.330  19.690  26.206  1.00  0.00    -0.237 OA
ATOM     85  O   UNL A   1      42.464  19.146  25.079  1.00  0.00    -0.237 OA
ATOM     86  O   UNL A   1      42.219  18.762  27.501  1.00  0.00    -0.744 OA
ENDBRANCH  82  83
ENDBRANCH  50  75
BRANCH  62  87
ATOM     87  C   UNL A   1      49.492  26.778  26.336  1.00  0.00     0.058 A 
ATOM     88  C   UNL A   1      49.899  26.835  24.993  1.00  0.00     0.135 A 
ATOM     89  C   UNL A   1      50.397  26.254  27.274  1.00  0.00     0.135 A 
ATOM     90  F   UNL A   1      49.069  27.321  24.057  1.00  0.00    -0.206 F 
ATOM     91  C   UNL A   1      51.145  26.365  24.592  1.00  0.00     0.059 A 
ATOM     92  C   UNL A   1      51.659  25.805  26.900  1.00  0.00     0.059 A 
ATOM     93  F   UNL A   1      50.063  26.188  28.573  1.00  0.00    -0.206 F 
ATOM     94  C   UNL A   1      52.019  25.853  25.554  1.00  0.00     0.060 A 
BRANCH  94  95
ATOM     95  S   UNL A   1      53.646  25.276  25.025  1.00  0.00     0.124 S 
ATOM     96  O   UNL A   1      54.484  25.700  26.142  1.00  0.00    -0.237 OA
ATOM     97  O   UNL A   1      53.441  23.835  24.898  1.00  0.00    -0.237 OA
ATOM     98  O   UNL A   1      53.866  25.984  23.769  1.00  0.00    -0.744 OA
ENDBRANCH  94  95
ENDBRANCH  62  87
ENDBRANCH  36  37
ENDBRANCH  28  31
ENDBRANCH  26  27
ENDBRANCH  25  26
ENDBRANCH  24  25
ENDBRANCH   1  24
TORSDOF 21
ENDMDL
MODEL 3
REMARK VINA RESULT:      -8.8      1.972      3.245
REMARK SMILES C#CCN(CC(=O)NCCCCNC(=O)c1ccc(-c2c3nc(c(-c4c(F)cc(S(=O)(=O)[O-])cc4F)c4ccc([nH]4)c(-c4c(F)cc(S(=O)(=O)[O-])cc4F)c4nc(c(-c5c(F)cc(S(=O)(=O)[O-])cc5F)c5ccc2[nH]5)C=C4)C=C3)cc1)C(=O)Cc1csc(-c2ccsc2)n1
REMARK SMILES IDX 9 1 8 2 6 3 7 4 5 6 4 7 3 8 2 9 1 10 82 11 83 12 84 13 85 14
REMARK SMILES IDX 86 15 94 16 87 17 88 18 89 19 90 20 93 21 91 22 92 23 10 24
REMARK SMILES IDX 11 25 12 26 13 27 14 28 15 30 16 31 17 32 81 33 18 34 80 35
REMARK SMILES IDX 19 36 20 37 21 38 74 39 22 40 79 41 73 42 75 43 23 44 78 45
REMARK SMILES IDX 72 46 71 47 24 49 58 50 37 51 57 52 38 53 41 54 56 55 76 56
REMARK SMILES IDX 39 57 40 58 55 60 77 61 42 62 25 63 26 64 35 65 27 66 28 67
REMARK SMILES IDX 34 68 36 69 29 70 30 71 31 72 32 73 33 74 59 75 60 76 69 77
REMARK SMILES IDX 61 78 62 79 68 80 70 81 63 82 64 83 65 84 66 85 67 86 43 87
REMARK SMILES IDX 44 88 53 89 45 90 46 91 52 92 54 93 47 94 48 95 49 96 50 97
REMARK SMILES IDX 51 98
REMARK H PARENT 8 5 13 29 75 48 41 59
REMARK Flexibility Score: inf
ROOT
ATOM      1  C   UNL A   1      45.508  39.743  26.730  1.00  0.00     0.116 C 
ENDROOT
BRANCH   1   2
ATOM      2  N   UNL A   1      45.923  39.761  25.347  1.00  0.00    -0.355 N 
ATOM      3  C   UNL A   1      46.569  40.752  24.672  1.00  0.00     0.239 C 
ATOM      4  O   UNL A   1      46.919  40.532  23.510  1.00  0.00    -0.273 OA
ATOM      5  H   UNL A   1      45.711  38.954  24.825  1.00  0.00     0.163 HD
BRANCH   3   6
ATOM      6  C   UNL A   1      46.897  42.080  25.364  1.00  0.00     0.220 C 
BRANCH   6   7
ATOM      7  N   UNL A   1      45.856  43.113  25.265  1.00  0.00    -0.322 N 
BRANCH   7   8
ATOM      8  C   UNL A   1      45.041  43.374  26.454  1.00  0.00     0.209 C 
BRANCH   8   9
ATOM      9  C   UNL A   1      45.470  44.630  27.194  1.00  0.00    -0.085 C 
ATOM     10  C   UNL A   1      45.838  45.708  27.829  1.00  0.00     0.006 C 
ENDBRANCH   8   9
ENDBRANCH   7   8
BRANCH   7  11
ATOM     11  C   UNL A   1      45.628  43.889  24.127  1.00  0.00     0.229 C 
ATOM     12  O   UNL A   1      46.064  45.046  24.051  1.00  0.00    -0.274 OA
BRANCH  11  13
ATOM     13  C   UNL A   1      44.732  43.385  23.002  1.00  0.00     0.157 C 
BRANCH  13  14
ATOM     14  C   UNL A   1      45.132  43.782  21.616  1.00  0.00     0.061 A 
ATOM     15  C   UNL A   1      46.204  43.259  20.913  1.00  0.00     0.091 A 
ATOM     16  N   UNL A   1      44.470  44.796  20.945  1.00  0.00    -0.241 NA
ATOM     17  S   UNL A   1      46.289  43.952  19.349  1.00  0.00    -0.122 S 
ATOM     18  C   UNL A   1      44.994  45.002  19.756  1.00  0.00     0.124 A 
BRANCH  18  19
ATOM     19  C   UNL A   1      44.499  46.115  18.879  1.00  0.00     0.021 A 
ATOM     20  C   UNL A   1      43.714  45.912  17.703  1.00  0.00     0.023 A 
ATOM     21  C   UNL A   1      44.730  47.453  19.114  1.00  0.00     0.076 A 
ATOM     22  C   UNL A   1      43.348  47.099  17.107  1.00  0.00     0.065 A 
ATOM     23  S   UNL A   1      44.006  48.451  17.923  1.00  0.00    -0.152 S 
ENDBRANCH  18  19
ENDBRANCH  13  14
ENDBRANCH  11  13
ENDBRANCH   7  11
ENDBRANCH   6   7
ENDBRANCH   3   6
ENDBRANCH   1   2
BRANCH   1  24
ATOM     24  C   UNL A   1      44.316  38.817  26.957  1.00  0.00     0.023 C 
BRANCH  24  25
ATOM     25  C   UNL A   1      44.683  37.414  27.441  1.00  0.00     0.023 C 
BRANCH  25  26
ATOM     26  C   UNL A   1      45.235  37.346  28.858  1.00  0.00     0.116 C 
BRANCH  26  27
ATOM     27  N   UNL A   1      46.654  37.657  28.936  1.00  0.00    -0.352 N 
ATOM     28  C   UNL A   1      47.718  36.790  28.887  1.00  0.00     0.251 C 
ATOM     29  H   UNL A   1      46.881  38.610  29.039  1.00  0.00     0.163 HD
ATOM     30  O   UNL A   1      48.860  37.201  29.074  1.00  0.00    -0.269 OA
BRANCH  28  31
ATOM     31  C   UNL A   1      47.464  35.355  28.649  1.00  0.00     0.039 A 
ATOM     32  C   UNL A   1      47.414  34.491  29.743  1.00  0.00     0.014 A 
ATOM     33  C   UNL A   1      47.226  34.881  27.356  1.00  0.00     0.014 A 
ATOM     34  C   UNL A   1      47.055  33.156  29.548  1.00  0.00     0.010 A 
ATOM     35  C   UNL A   1      46.798  33.569  27.173  1.00  0.00     0.010 A 
ATOM     36  C   UNL A   1      46.707  32.694  28.266  1.00  0.00    -0.014 A 
BRANCH  36  37
ATOM     37  C   UNL A   1      46.236  31.302  28.055  1.00  0.00     0.031 A 
ATOM     38  C   UNL A   1      44.812  30.933  28.369  1.00  0.00     0.074 A 
ATOM     39  C   UNL A   1      47.110  30.359  27.649  1.00  0.00     0.049 A 
ATOM     40  N   UNL A   1      44.233  29.761  28.314  1.00  0.00    -0.248 NA
ATOM     41  C   UNL A   1      43.926  32.016  28.830  1.00  0.00     0.031 C 
ATOM     42  C   UNL A   1      48.533  30.583  27.376  1.00  0.00     0.029 A 
ATOM     43  N   UNL A   1      46.936  29.019  27.409  1.00  0.00    -0.354 N 
ATOM     44  C   UNL A   1      42.929  29.960  28.750  1.00  0.00     0.074 A 
ATOM     45  C   UNL A   1      42.811  31.357  29.108  1.00  0.00     0.031 C 
ATOM     46  C   UNL A   1      49.095  29.425  26.992  1.00  0.00     0.029 A 
ATOM     47  C   UNL A   1      48.087  28.371  27.025  1.00  0.00     0.049 A 
ATOM     48  H   UNL A   1      46.068  28.563  27.504  1.00  0.00     0.167 HD
ATOM     49  C   UNL A   1      41.917  29.065  28.821  1.00  0.00     0.037 A 
ATOM     50  C   UNL A   1      48.308  27.073  26.741  1.00  0.00     0.037 A 
ATOM     51  C   UNL A   1      42.031  27.686  28.424  1.00  0.00     0.049 A 
ATOM     52  C   UNL A   1      47.157  26.103  26.807  1.00  0.00     0.074 A 
ATOM     53  C   UNL A   1      41.040  26.720  28.382  1.00  0.00     0.029 A 
ATOM     54  N   UNL A   1      43.201  27.077  27.999  1.00  0.00    -0.354 N 
ATOM     55  N   UNL A   1      45.908  26.330  27.141  1.00  0.00    -0.248 NA
ATOM     56  C   UNL A   1      47.440  24.707  26.447  1.00  0.00     0.031 C 
ATOM     57  C   UNL A   1      41.622  25.516  27.974  1.00  0.00     0.029 A 
ATOM     58  C   UNL A   1      42.963  25.743  27.713  1.00  0.00     0.049 A 
ATOM     59  H   UNL A   1      44.073  27.526  27.913  1.00  0.00     0.167 HD
ATOM     60  C   UNL A   1      45.253  25.111  27.005  1.00  0.00     0.074 A 
ATOM     61  C   UNL A   1      46.239  24.155  26.544  1.00  0.00     0.031 C 
ATOM     62  C   UNL A   1      43.953  24.809  27.243  1.00  0.00     0.037 A 
BRANCH  49  63
ATOM     63  C   UNL A   1      40.587  29.541  29.337  1.00  0.00     0.058 A 
ATOM     64  C   UNL A   1      39.490  29.727  28.482  1.00  0.00     0.135 A 
ATOM     65  C   UNL A   1      40.387  29.739  30.713  1.00  0.00     0.135 A 
ATOM     66  F   UNL A   1      39.632  29.569  27.156  1.00  0.00    -0.206 F 
ATOM     67  C   UNL A   1      38.243  30.103  28.970  1.00  0.00     0.059 A 
ATOM     68  C   UNL A   1      39.141  30.089  31.227  1.00  0.00     0.059 A 
ATOM     69  F   UNL A   1      41.404  29.579  31.574  1.00  0.00    -0.206 F 
ATOM     70  C   UNL A   1      38.077  30.275  30.346  1.00  0.00     0.060 A 
BRANCH  70  71
ATOM     71  S   UNL A   1      36.441  30.718  30.966  1.00  0.00     0.124 S 
ATOM     72  O   UNL A   1      36.636  32.119  31.325  1.00  0.00    -0.237 OA
ATOM     73  O   UNL A   1      35.591  30.475  29.805  1.00  0.00    -0.237 OA
ATOM     74  O   UNL A   1      36.242  29.806  32.087  1.00  0.00    -0.744 OA
ENDBRANCH  70  71
ENDBRANCH  49  63
BRANCH  50  75
ATOM     75  C   UNL A   1      49.670  26.607  26.365  1.00  0.00     0.058 A 
ATOM     76  C   UNL A   1      50.513  25.998  27.306  1.00  0.00     0.135 A 
ATOM     77  C   UNL A   1      50.162  26.777  25.061  1.00  0.00     0.135 A 
ATOM     78  F   UNL A   1      50.091  25.815  28.567  1.00  0.00    -0.206 F 
ATOM     79  C   UNL A   1      51.808  25.605  26.979  1.00  0.00     0.059 A 
ATOM     80  C   UNL A   1      51.443  26.368  24.703  1.00  0.00     0.059 A 
ATOM     81  F   UNL A   1      49.388  27.335  24.118  1.00  0.00    -0.206 F 
ATOM     82  C   UNL A   1      52.265  25.799  25.674  1.00  0.00     0.060 A 
BRANCH  82  83
ATOM     83  S   UNL A   1      53.940  25.272  25.253  1.00  0.00     0.124 S 
ATOM     84  O   UNL A   1      54.719  25.900  26.315  1.00  0.00    -0.237 OA
ATOM     85  O   UNL A   1      53.831  23.818  25.317  1.00  0.00    -0.237 OA
ATOM     86  O   UNL A   1      54.136  25.821  23.915  1.00  0.00    -0.744 OA
ENDBRANCH  82  83
ENDBRANCH  50  75
BRANCH  62  87
ATOM     87  C   UNL A   1      43.509  23.398  26.972  1.00  0.00     0.058 A 
ATOM     88  C   UNL A   1      43.239  22.496  28.013  1.00  0.00     0.135 A 
ATOM     89  C   UNL A   1      43.302  22.960  25.653  1.00  0.00     0.135 A 
ATOM     90  F   UNL A   1      43.427  22.864  29.290  1.00  0.00    -0.206 F 
ATOM     91  C   UNL A   1      42.804  21.200  27.756  1.00  0.00     0.059 A 
ATOM     92  C   UNL A   1      42.840  21.678  25.374  1.00  0.00     0.059 A 
ATOM     93  F   UNL A   1      43.534  23.787  24.621  1.00  0.00    -0.206 F 
ATOM     94  C   UNL A   1      42.607  20.800  26.432  1.00  0.00     0.060 A 
BRANCH  94  95
ATOM     95  S   UNL A   1      42.013  19.126  26.112  1.00  0.00     0.124 S 
ATOM     96  O   UNL A   1      42.749  18.781  24.901  1.00  0.00    -0.237 OA
ATOM     97  O   UNL A   1      42.414  18.415  27.323  1.00  0.00    -0.237 OA
ATOM     98  O   UNL A   1      40.574  19.303  25.945  1.00  0.00    -0.744 OA
ENDBRANCH  94  95
ENDBRANCH  62  87
ENDBRANCH  36  37
ENDBRANCH  28  31
ENDBRANCH  26  27
ENDBRANCH  25  26
ENDBRANCH  24  25
ENDBRANCH   1  24
TORSDOF 21
ENDMDL
