MODEL 1
REMARK VINA RESULT:     -10.6      0.000      0.000
REMARK SMILES CCCN(CC(=O)OC)C(=O)N1CC[C@H](C(=O)NCCCCNC(=O)c2ccc(-c3c4nc(c(-c5c(F)cc(S(=O)(=O)[O-])cc5F)c5ccc([nH]5)c(-c5c(F)cc(S(=O)(=O)[O-])cc5F)c5nc(c(-c6c(F)cc(S(=O)(=O)[O-])cc6F)c6ccc3[nH]6)C=C5)C=C4)cc2)[C@H]1C
REMARK SMILES IDX 19 1 18 2 16 3 17 4 15 6 12 7 13 8 92 9 14 10 93 11 10 12
REMARK SMILES IDX 11 13 4 14 3 15 2 16 1 17 5 18 6 19 7 20 8 21 9 22 20 23
REMARK SMILES IDX 21 24 22 25 23 26 24 27 25 29 26 30 27 31 91 32 28 33 90 34
REMARK SMILES IDX 29 35 30 36 31 37 84 38 32 39 89 40 83 41 85 42 33 43 88 44
REMARK SMILES IDX 82 45 81 46 34 48 68 49 47 50 67 51 48 52 51 53 66 54 86 55
REMARK SMILES IDX 49 56 50 57 65 59 87 60 52 61 35 62 36 63 45 64 37 65 38 66
REMARK SMILES IDX 44 67 46 68 39 69 40 70 41 71 42 72 43 73 69 74 70 75 79 76
REMARK SMILES IDX 71 77 72 78 78 79 80 80 73 81 74 82 75 83 76 84 77 85 53 86
REMARK SMILES IDX 54 87 63 88 55 89 56 90 62 91 64 92 57 93 58 94 59 95 60 96
REMARK SMILES IDX 61 97
REMARK H PARENT 18 5 23 28 85 47 51 58
REMARK Flexibility Score: inf
ROOT
ATOM      1  C   UNL A   1      33.037  30.144  26.531  1.00  0.00     0.116 C 
ENDROOT
BRANCH   1   2
ATOM      2  N   UNL A   1      33.698  29.706  25.322  1.00  0.00    -0.356 N 
ATOM      3  C   UNL A   1      33.321  28.773  24.404  1.00  0.00     0.225 C 
ATOM      4  O   UNL A   1      34.096  28.573  23.467  1.00  0.00    -0.275 OA
ATOM      5  H   UNL A   1      34.555  30.152  25.132  1.00  0.00     0.163 HD
BRANCH   3   6
ATOM      6  C   UNL A   1      32.082  27.907  24.627  1.00  0.00     0.102 C 
ATOM      7  N   UNL A   1      32.376  25.871  23.392  1.00  0.00    -0.321 N 
ATOM      8  C   UNL A   1      31.641  26.813  22.561  1.00  0.00     0.122 C 
ATOM      9  C   UNL A   1      32.482  26.411  24.768  1.00  0.00     0.096 C 
ATOM     10  C   UNL A   1      31.048  27.831  23.504  1.00  0.00     0.037 C 
ATOM     11  C   UNL A   1      31.506  25.747  25.752  1.00  0.00     0.032 C 
BRANCH   7  12
ATOM     12  C   UNL A   1      33.441  25.265  22.729  1.00  0.00     0.320 C 
ATOM     13  O   UNL A   1      33.798  25.652  21.615  1.00  0.00    -0.248 OA
BRANCH  12  14
ATOM     14  N   UNL A   1      33.928  24.084  23.259  1.00  0.00    -0.314 N 
BRANCH  14  15
ATOM     15  C   UNL A   1      33.333  22.829  22.799  1.00  0.00     0.122 C 
BRANCH  15  16
ATOM     16  C   UNL A   1      32.312  22.268  23.804  1.00  0.00     0.018 C 
ATOM     17  C   UNL A   1      32.740  20.953  24.448  1.00  0.00     0.006 C 
ENDBRANCH  15  16
ENDBRANCH  14  15
BRANCH  14  18
ATOM     18  C   UNL A   1      35.000  23.989  24.244  1.00  0.00     0.243 C 
BRANCH  18  19
ATOM     19  C   UNL A   1      36.180  23.118  23.788  1.00  0.00     0.325 C 
ATOM     20  O   UNL A   1      36.572  23.085  22.626  1.00  0.00    -0.250 OA
BRANCH  19  21
ATOM     21  O   UNL A   1      36.708  22.390  24.807  1.00  0.00    -0.468 OA
ATOM     22  C   UNL A   1      36.429  20.988  24.850  1.00  0.00     0.282 C 
ENDBRANCH  19  21
ENDBRANCH  18  19
ENDBRANCH  14  18
ENDBRANCH  12  14
ENDBRANCH   7  12
ENDBRANCH   3   6
ENDBRANCH   1   2
BRANCH   1  23
ATOM     23  C   UNL A   1      31.665  30.765  26.293  1.00  0.00     0.023 C 
BRANCH  23  24
ATOM     24  C   UNL A   1      31.451  32.163  26.868  1.00  0.00     0.023 C 
BRANCH  24  25
ATOM     25  C   UNL A   1      32.691  32.844  27.436  1.00  0.00     0.116 C 
BRANCH  25  26
ATOM     26  N   UNL A   1      32.477  34.248  27.751  1.00  0.00    -0.352 N 
ATOM     27  C   UNL A   1      33.083  35.042  28.697  1.00  0.00     0.251 C 
ATOM     28  H   UNL A   1      31.794  34.699  27.203  1.00  0.00     0.163 HD
ATOM     29  O   UNL A   1      32.654  36.177  28.900  1.00  0.00    -0.269 OA
BRANCH  27  30
ATOM     30  C   UNL A   1      34.220  34.527  29.493  1.00  0.00     0.039 A 
ATOM     31  C   UNL A   1      33.972  33.996  30.762  1.00  0.00     0.014 A 
ATOM     32  C   UNL A   1      35.524  34.558  28.995  1.00  0.00     0.014 A 
ATOM     33  C   UNL A   1      35.018  33.419  31.490  1.00  0.00     0.010 A 
ATOM     34  C   UNL A   1      36.546  33.906  29.682  1.00  0.00     0.010 A 
ATOM     35  C   UNL A   1      36.306  33.326  30.936  1.00  0.00    -0.014 A 
BRANCH  35  36
ATOM     36  C   UNL A   1      37.406  32.619  31.646  1.00  0.00     0.031 A 
ATOM     37  C   UNL A   1      37.918  33.141  32.962  1.00  0.00     0.074 A 
ATOM     38  C   UNL A   1      37.990  31.546  31.073  1.00  0.00     0.049 A 
ATOM     39  N   UNL A   1      38.915  32.707  33.691  1.00  0.00    -0.248 NA
ATOM     40  C   UNL A   1      37.236  34.320  33.521  1.00  0.00     0.031 C 
ATOM     41  C   UNL A   1      37.617  30.969  29.779  1.00  0.00     0.029 A 
ATOM     42  N   UNL A   1      39.027  30.755  31.500  1.00  0.00    -0.354 N 
ATOM     43  C   UNL A   1      38.986  33.562  34.785  1.00  0.00     0.074 A 
ATOM     44  C   UNL A   1      37.971  34.575  34.594  1.00  0.00     0.031 C 
ATOM     45  C   UNL A   1      38.396  29.904  29.531  1.00  0.00     0.029 A 
ATOM     46  C   UNL A   1      39.351  29.745  30.622  1.00  0.00     0.049 A 
ATOM     47  H   UNL A   1      39.496  30.895  32.354  1.00  0.00     0.167 HD
ATOM     48  C   UNL A   1      39.805  33.497  35.863  1.00  0.00     0.037 A 
ATOM     49  C   UNL A   1      40.315  28.805  30.683  1.00  0.00     0.037 A 
ATOM     50  C   UNL A   1      40.803  32.476  36.056  1.00  0.00     0.049 A 
ATOM     51  C   UNL A   1      41.226  28.764  31.881  1.00  0.00     0.074 A 
ATOM     52  C   UNL A   1      41.649  32.295  37.136  1.00  0.00     0.029 A 
ATOM     53  N   UNL A   1      41.092  31.466  35.150  1.00  0.00    -0.354 N 
ATOM     54  N   UNL A   1      41.238  29.546  32.934  1.00  0.00    -0.248 NA
ATOM     55  C   UNL A   1      42.251  27.711  31.902  1.00  0.00     0.031 C 
ATOM     56  C   UNL A   1      42.482  31.206  36.862  1.00  0.00     0.029 A 
ATOM     57  C   UNL A   1      42.117  30.672  35.637  1.00  0.00     0.049 A 
ATOM     58  H   UNL A   1      40.635  31.333  34.288  1.00  0.00     0.167 HD
ATOM     59  C   UNL A   1      42.249  29.059  33.758  1.00  0.00     0.074 A 
ATOM     60  C   UNL A   1      42.816  27.909  33.085  1.00  0.00     0.031 C 
ATOM     61  C   UNL A   1      42.667  29.522  34.963  1.00  0.00     0.037 A 
BRANCH  48  62
ATOM     62  C   UNL A   1      39.650  34.555  36.922  1.00  0.00     0.058 A 
ATOM     63  C   UNL A   1      38.880  34.335  38.076  1.00  0.00     0.135 A 
ATOM     64  C   UNL A   1      40.311  35.790  36.804  1.00  0.00     0.135 A 
ATOM     65  F   UNL A   1      38.216  33.179  38.236  1.00  0.00    -0.206 F 
ATOM     66  C   UNL A   1      38.746  35.310  39.059  1.00  0.00     0.059 A 
ATOM     67  C   UNL A   1      40.215  36.768  37.790  1.00  0.00     0.059 A 
ATOM     68  F   UNL A   1      41.061  36.054  35.723  1.00  0.00    -0.206 F 
ATOM     69  C   UNL A   1      39.418  36.523  38.908  1.00  0.00     0.060 A 
BRANCH  69  70
ATOM     70  S   UNL A   1      39.238  37.773  40.198  1.00  0.00     0.124 S 
ATOM     71  O   UNL A   1      38.159  38.595  39.658  1.00  0.00    -0.237 OA
ATOM     72  O   UNL A   1      38.895  36.968  41.366  1.00  0.00    -0.237 OA
ATOM     73  O   UNL A   1      40.550  38.411  40.241  1.00  0.00    -0.744 OA
ENDBRANCH  69  70
ENDBRANCH  48  62
BRANCH  49  74
ATOM     74  C   UNL A   1      40.458  27.809  29.586  1.00  0.00     0.058 A 
ATOM     75  C   UNL A   1      39.615  26.689  29.512  1.00  0.00     0.135 A 
ATOM     76  C   UNL A   1      41.437  27.954  28.589  1.00  0.00     0.135 A 
ATOM     77  F   UNL A   1      38.669  26.502  30.444  1.00  0.00    -0.206 F 
ATOM     78  C   UNL A   1      39.749  25.738  28.506  1.00  0.00     0.059 A 
ATOM     79  C   UNL A   1      41.573  27.031  27.556  1.00  0.00     0.059 A 
ATOM     80  F   UNL A   1      42.258  29.015  28.602  1.00  0.00    -0.206 F 
ATOM     81  C   UNL A   1      40.731  25.919  27.531  1.00  0.00     0.060 A 
BRANCH  81  82
ATOM     82  S   UNL A   1      40.871  24.698  26.207  1.00  0.00     0.124 S 
ATOM     83  O   UNL A   1      39.568  24.049  26.266  1.00  0.00    -0.237 OA
ATOM     84  O   UNL A   1      41.114  25.541  25.039  1.00  0.00    -0.237 OA
ATOM     85  O   UNL A   1      42.005  23.879  26.625  1.00  0.00    -0.744 OA
ENDBRANCH  81  82
ENDBRANCH  49  74
BRANCH  61  86
ATOM     86  C   UNL A   1      43.764  28.761  35.656  1.00  0.00     0.058 A 
ATOM     87  C   UNL A   1      43.492  27.680  36.510  1.00  0.00     0.135 A 
ATOM     88  C   UNL A   1      45.109  29.087  35.421  1.00  0.00     0.135 A 
ATOM     89  F   UNL A   1      42.224  27.331  36.776  1.00  0.00    -0.206 F 
ATOM     90  C   UNL A   1      44.515  26.965  37.125  1.00  0.00     0.059 A 
ATOM     91  C   UNL A   1      46.149  28.366  36.000  1.00  0.00     0.059 A 
ATOM     92  F   UNL A   1      45.426  30.105  34.605  1.00  0.00    -0.206 F 
ATOM     93  C   UNL A   1      45.842  27.314  36.861  1.00  0.00     0.060 A 
BRANCH  93  94
ATOM     94  S   UNL A   1      47.160  26.355  37.637  1.00  0.00     0.124 S 
ATOM     95  O   UNL A   1      46.713  24.988  37.390  1.00  0.00    -0.237 OA
ATOM     96  O   UNL A   1      48.338  26.783  36.889  1.00  0.00    -0.237 OA
ATOM     97  O   UNL A   1      47.119  26.786  39.031  1.00  0.00    -0.744 OA
ENDBRANCH  93  94
ENDBRANCH  61  86
ENDBRANCH  35  36
ENDBRANCH  27  30
ENDBRANCH  25  26
ENDBRANCH  24  25
ENDBRANCH  23  24
ENDBRANCH   1  23
TORSDOF 21
ENDMDL
MODEL 2
REMARK VINA RESULT:     -10.5      2.537      8.873
REMARK SMILES CCCN(CC(=O)OC)C(=O)N1CC[C@H](C(=O)NCCCCNC(=O)c2ccc(-c3c4nc(c(-c5c(F)cc(S(=O)(=O)[O-])cc5F)c5ccc([nH]5)c(-c5c(F)cc(S(=O)(=O)[O-])cc5F)c5nc(c(-c6c(F)cc(S(=O)(=O)[O-])cc6F)c6ccc3[nH]6)C=C5)C=C4)cc2)[C@H]1C
REMARK SMILES IDX 19 1 18 2 16 3 17 4 15 6 12 7 13 8 92 9 14 10 93 11 10 12
REMARK SMILES IDX 11 13 4 14 3 15 2 16 1 17 5 18 6 19 7 20 8 21 9 22 20 23
REMARK SMILES IDX 21 24 22 25 23 26 24 27 25 29 26 30 27 31 91 32 28 33 90 34
REMARK SMILES IDX 29 35 30 36 31 37 84 38 32 39 89 40 83 41 85 42 33 43 88 44
REMARK SMILES IDX 82 45 81 46 34 48 68 49 47 50 67 51 48 52 51 53 66 54 86 55
REMARK SMILES IDX 49 56 50 57 65 59 87 60 52 61 35 62 36 63 45 64 37 65 38 66
REMARK SMILES IDX 44 67 46 68 39 69 40 70 41 71 42 72 43 73 69 74 70 75 79 76
REMARK SMILES IDX 71 77 72 78 78 79 80 80 73 81 74 82 75 83 76 84 77 85 53 86
REMARK SMILES IDX 54 87 63 88 55 89 56 90 62 91 64 92 57 93 58 94 59 95 60 96
REMARK SMILES IDX 61 97
REMARK H PARENT 18 5 23 28 85 47 51 58
REMARK Flexibility Score: inf
ROOT
ATOM      1  C   UNL A   1      36.679  21.737  25.593  1.00  0.00     0.116 C 
ENDROOT
BRANCH   1   2
ATOM      2  N   UNL A   1      35.633  21.703  26.590  1.00  0.00    -0.356 N 
ATOM      3  C   UNL A   1      34.279  21.721  26.443  1.00  0.00     0.225 C 
ATOM      4  O   UNL A   1      33.608  21.711  27.476  1.00  0.00    -0.275 OA
ATOM      5  H   UNL A   1      35.947  21.660  27.522  1.00  0.00     0.163 HD
BRANCH   3   6
ATOM      6  C   UNL A   1      33.641  21.915  25.067  1.00  0.00     0.102 C 
ATOM      7  N   UNL A   1      32.073  23.724  25.233  1.00  0.00    -0.321 N 
ATOM      8  C   UNL A   1      31.361  22.475  25.452  1.00  0.00     0.122 C 
ATOM      9  C   UNL A   1      33.449  23.429  24.766  1.00  0.00     0.096 C 
ATOM     10  C   UNL A   1      32.222  21.389  24.853  1.00  0.00     0.037 C 
ATOM     11  C   UNL A   1      33.630  23.641  23.255  1.00  0.00     0.032 C 
BRANCH   7  12
ATOM     12  C   UNL A   1      31.788  24.698  26.189  1.00  0.00     0.320 C 
ATOM     13  O   UNL A   1      31.521  24.387  27.351  1.00  0.00    -0.248 OA
BRANCH  12  14
ATOM     14  N   UNL A   1      31.594  25.990  25.739  1.00  0.00    -0.314 N 
BRANCH  14  15
ATOM     15  C   UNL A   1      30.380  26.275  24.973  1.00  0.00     0.122 C 
BRANCH  15  16
ATOM     16  C   UNL A   1      30.684  27.001  23.651  1.00  0.00     0.018 C 
ATOM     17  C   UNL A   1      29.669  28.082  23.294  1.00  0.00     0.006 C 
ENDBRANCH  15  16
ENDBRANCH  14  15
BRANCH  14  18
ATOM     18  C   UNL A   1      32.508  27.104  25.973  1.00  0.00     0.243 C 
BRANCH  18  19
ATOM     19  C   UNL A   1      32.119  27.978  27.175  1.00  0.00     0.325 C 
ATOM     20  O   UNL A   1      31.221  27.675  27.953  1.00  0.00    -0.250 OA
BRANCH  19  21
ATOM     21  O   UNL A   1      32.865  29.111  27.251  1.00  0.00    -0.468 OA
ATOM     22  C   UNL A   1      34.289  28.979  27.282  1.00  0.00     0.282 C 
ENDBRANCH  19  21
ENDBRANCH  18  19
ENDBRANCH  14  18
ENDBRANCH  12  14
ENDBRANCH   7  12
ENDBRANCH   3   6
ENDBRANCH   1   2
BRANCH   1  23
ATOM     23  C   UNL A   1      37.693  22.857  25.802  1.00  0.00     0.023 C 
BRANCH  23  24
ATOM     24  C   UNL A   1      39.083  22.428  26.267  1.00  0.00     0.023 C 
BRANCH  24  25
ATOM     25  C   UNL A   1      39.930  23.515  26.917  1.00  0.00     0.116 C 
BRANCH  25  26
ATOM     26  N   UNL A   1      40.843  24.160  25.986  1.00  0.00    -0.352 N 
ATOM     27  C   UNL A   1      41.486  25.372  26.077  1.00  0.00     0.251 C 
ATOM     28  H   UNL A   1      41.030  23.650  25.164  1.00  0.00     0.163 HD
ATOM     29  O   UNL A   1      42.111  25.801  25.109  1.00  0.00    -0.269 OA
BRANCH  27  30
ATOM     30  C   UNL A   1      41.401  26.176  27.319  1.00  0.00     0.039 A 
ATOM     31  C   UNL A   1      42.375  27.147  27.565  1.00  0.00     0.014 A 
ATOM     32  C   UNL A   1      40.365  25.982  28.235  1.00  0.00     0.014 A 
ATOM     33  C   UNL A   1      42.260  27.979  28.682  1.00  0.00     0.010 A 
ATOM     34  C   UNL A   1      40.205  26.867  29.299  1.00  0.00     0.010 A 
ATOM     35  C   UNL A   1      41.148  27.878  29.535  1.00  0.00    -0.014 A 
BRANCH  35  36
ATOM     36  C   UNL A   1      40.948  28.824  30.666  1.00  0.00     0.031 A 
ATOM     37  C   UNL A   1      41.791  28.710  31.908  1.00  0.00     0.074 A 
ATOM     38  C   UNL A   1      39.964  29.745  30.601  1.00  0.00     0.049 A 
ATOM     39  N   UNL A   1      41.716  29.392  33.023  1.00  0.00    -0.248 NA
ATOM     40  C   UNL A   1      42.840  27.677  31.908  1.00  0.00     0.031 C 
ATOM     41  C   UNL A   1      39.049  29.929  29.473  1.00  0.00     0.029 A 
ATOM     42  N   UNL A   1      39.562  30.693  31.509  1.00  0.00    -0.354 N 
ATOM     43  C   UNL A   1      42.696  28.865  33.857  1.00  0.00     0.074 A 
ATOM     44  C   UNL A   1      43.312  27.768  33.142  1.00  0.00     0.031 C 
ATOM     45  C   UNL A   1      38.211  30.942  29.745  1.00  0.00     0.029 A 
ATOM     46  C   UNL A   1      38.497  31.453  31.081  1.00  0.00     0.049 A 
ATOM     47  H   UNL A   1      39.994  30.818  32.385  1.00  0.00     0.167 HD
ATOM     48  C   UNL A   1      43.067  29.273  35.095  1.00  0.00     0.037 A 
ATOM     49  C   UNL A   1      37.819  32.441  31.699  1.00  0.00     0.037 A 
ATOM     50  C   UNL A   1      42.461  30.376  35.795  1.00  0.00     0.049 A 
ATOM     51  C   UNL A   1      38.237  32.863  33.082  1.00  0.00     0.074 A 
ATOM     52  C   UNL A   1      42.796  30.897  37.032  1.00  0.00     0.029 A 
ATOM     53  N   UNL A   1      41.393  31.126  35.324  1.00  0.00    -0.354 N 
ATOM     54  N   UNL A   1      39.206  32.393  33.830  1.00  0.00    -0.248 NA
ATOM     55  C   UNL A   1      37.472  33.954  33.704  1.00  0.00     0.031 C 
ATOM     56  C   UNL A   1      41.903  31.930  37.330  1.00  0.00     0.029 A 
ATOM     57  C   UNL A   1      41.045  32.092  36.254  1.00  0.00     0.049 A 
ATOM     58  H   UNL A   1      40.949  30.993  34.455  1.00  0.00     0.167 HD
ATOM     59  C   UNL A   1      39.188  33.152  34.997  1.00  0.00     0.074 A 
ATOM     60  C   UNL A   1      38.120  34.118  34.849  1.00  0.00     0.031 C 
ATOM     61  C   UNL A   1      39.986  33.057  36.090  1.00  0.00     0.037 A 
BRANCH  48  62
ATOM     62  C   UNL A   1      44.186  28.526  35.770  1.00  0.00     0.058 A 
ATOM     63  C   UNL A   1      43.936  27.457  36.646  1.00  0.00     0.135 A 
ATOM     64  C   UNL A   1      45.527  28.856  35.509  1.00  0.00     0.135 A 
ATOM     65  F   UNL A   1      42.675  27.107  36.942  1.00  0.00    -0.206 F 
ATOM     66  C   UNL A   1      44.972  26.762  37.261  1.00  0.00     0.059 A 
ATOM     67  C   UNL A   1      46.580  28.155  36.090  1.00  0.00     0.059 A 
ATOM     68  F   UNL A   1      45.825  29.868  34.680  1.00  0.00    -0.206 F 
ATOM     69  C   UNL A   1      46.291  27.118  36.977  1.00  0.00     0.060 A 
BRANCH  69  70
ATOM     70  S   UNL A   1      47.621  26.199  37.780  1.00  0.00     0.124 S 
ATOM     71  O   UNL A   1      48.789  26.990  37.403  1.00  0.00    -0.237 OA
ATOM     72  O   UNL A   1      47.240  26.264  39.186  1.00  0.00    -0.237 OA
ATOM     73  O   UNL A   1      47.538  24.876  37.170  1.00  0.00    -0.744 OA
ENDBRANCH  69  70
ENDBRANCH  48  62
BRANCH  49  74
ATOM     74  C   UNL A   1      36.687  33.116  31.008  1.00  0.00     0.058 A 
ATOM     75  C   UNL A   1      36.913  33.970  29.916  1.00  0.00     0.135 A 
ATOM     76  C   UNL A   1      35.359  32.925  31.420  1.00  0.00     0.135 A 
ATOM     77  F   UNL A   1      38.165  34.191  29.488  1.00  0.00    -0.206 F 
ATOM     78  C   UNL A   1      35.869  34.625  29.273  1.00  0.00     0.059 A 
ATOM     79  C   UNL A   1      34.294  33.547  30.775  1.00  0.00     0.059 A 
ATOM     80  F   UNL A   1      35.085  32.106  32.447  1.00  0.00    -0.206 F 
ATOM     81  C   UNL A   1      34.561  34.406  29.708  1.00  0.00     0.060 A 
BRANCH  81  82
ATOM     82  S   UNL A   1      33.209  35.232  28.841  1.00  0.00     0.124 S 
ATOM     83  O   UNL A   1      32.686  34.152  28.015  1.00  0.00    -0.237 OA
ATOM     84  O   UNL A   1      32.357  35.663  29.946  1.00  0.00    -0.237 OA
ATOM     85  O   UNL A   1      33.881  36.309  28.121  1.00  0.00    -0.744 OA
ENDBRANCH  81  82
ENDBRANCH  49  74
BRANCH  61  86
ATOM     86  C   UNL A   1      39.767  34.050  37.199  1.00  0.00     0.058 A 
ATOM     87  C   UNL A   1      38.922  33.774  38.286  1.00  0.00     0.135 A 
ATOM     88  C   UNL A   1      40.454  35.275  37.199  1.00  0.00     0.135 A 
ATOM     89  F   UNL A   1      38.235  32.622  38.332  1.00  0.00    -0.206 F 
ATOM     90  C   UNL A   1      38.747  34.687  39.321  1.00  0.00     0.059 A 
ATOM     91  C   UNL A   1      40.319  36.190  38.239  1.00  0.00     0.059 A 
ATOM     92  F   UNL A   1      41.282  35.586  36.189  1.00  0.00    -0.206 F 
ATOM     93  C   UNL A   1      39.453  35.892  39.290  1.00  0.00     0.060 A 
BRANCH  93  94
ATOM     94  S   UNL A   1      39.245  37.052  40.657  1.00  0.00     0.124 S 
ATOM     95  O   UNL A   1      38.639  36.201  41.676  1.00  0.00    -0.237 OA
ATOM     96  O   UNL A   1      40.617  37.476  40.917  1.00  0.00    -0.237 OA
ATOM     97  O   UNL A   1      38.372  38.082  40.101  1.00  0.00    -0.744 OA
ENDBRANCH  93  94
ENDBRANCH  61  86
ENDBRANCH  35  36
ENDBRANCH  27  30
ENDBRANCH  25  26
ENDBRANCH  24  25
ENDBRANCH  23  24
ENDBRANCH   1  23
TORSDOF 21
ENDMDL
MODEL 3
REMARK VINA RESULT:     -10.3      2.513      8.764
REMARK SMILES CCCN(CC(=O)OC)C(=O)N1CC[C@H](C(=O)NCCCCNC(=O)c2ccc(-c3c4nc(c(-c5c(F)cc(S(=O)(=O)[O-])cc5F)c5ccc([nH]5)c(-c5c(F)cc(S(=O)(=O)[O-])cc5F)c5nc(c(-c6c(F)cc(S(=O)(=O)[O-])cc6F)c6ccc3[nH]6)C=C5)C=C4)cc2)[C@H]1C
REMARK SMILES IDX 19 1 18 2 16 3 17 4 15 6 12 7 13 8 92 9 14 10 93 11 10 12
REMARK SMILES IDX 11 13 4 14 3 15 2 16 1 17 5 18 6 19 7 20 8 21 9 22 20 23
REMARK SMILES IDX 21 24 22 25 23 26 24 27 25 29 26 30 27 31 91 32 28 33 90 34
REMARK SMILES IDX 29 35 30 36 31 37 84 38 32 39 89 40 83 41 85 42 33 43 88 44
REMARK SMILES IDX 82 45 81 46 34 48 68 49 47 50 67 51 48 52 51 53 66 54 86 55
REMARK SMILES IDX 49 56 50 57 65 59 87 60 52 61 35 62 36 63 45 64 37 65 38 66
REMARK SMILES IDX 44 67 46 68 39 69 40 70 41 71 42 72 43 73 69 74 70 75 79 76
REMARK SMILES IDX 71 77 72 78 78 79 80 80 73 81 74 82 75 83 76 84 77 85 53 86
REMARK SMILES IDX 54 87 63 88 55 89 56 90 62 91 64 92 57 93 58 94 59 95 60 96
REMARK SMILES IDX 61 97
REMARK H PARENT 18 5 23 28 85 47 51 58
REMARK Flexibility Score: inf
ROOT
ATOM      1  C   UNL A   1      37.018  23.186  25.534  1.00  0.00     0.116 C 
ENDROOT
BRANCH   1   2
ATOM      2  N   UNL A   1      36.123  22.518  26.453  1.00  0.00    -0.356 N 
ATOM      3  C   UNL A   1      34.911  21.937  26.232  1.00  0.00     0.225 C 
ATOM      4  O   UNL A   1      34.339  21.456  27.212  1.00  0.00    -0.275 OA
ATOM      5  H   UNL A   1      36.439  22.474  27.384  1.00  0.00     0.163 HD
BRANCH   3   6
ATOM      6  C   UNL A   1      34.229  22.036  24.867  1.00  0.00     0.102 C 
ATOM      7  N   UNL A   1      32.284  23.418  25.115  1.00  0.00    -0.321 N 
ATOM      8  C   UNL A   1      31.886  22.028  25.279  1.00  0.00     0.122 C 
ATOM      9  C   UNL A   1      33.685  23.473  24.634  1.00  0.00     0.096 C 
ATOM     10  C   UNL A   1      32.971  21.201  24.631  1.00  0.00     0.037 C 
ATOM     11  C   UNL A   1      33.794  23.787  23.133  1.00  0.00     0.032 C 
BRANCH   7  12
ATOM     12  C   UNL A   1      31.789  24.255  26.113  1.00  0.00     0.320 C 
ATOM     13  O   UNL A   1      31.582  23.831  27.251  1.00  0.00    -0.248 OA
BRANCH  12  14
ATOM     14  N   UNL A   1      31.331  25.501  25.726  1.00  0.00    -0.314 N 
BRANCH  14  15
ATOM     15  C   UNL A   1      31.909  26.677  26.378  1.00  0.00     0.122 C 
BRANCH  15  16
ATOM     16  C   UNL A   1      33.421  26.800  26.120  1.00  0.00     0.018 C 
ATOM     17  C   UNL A   1      33.960  28.218  26.278  1.00  0.00     0.006 C 
ENDBRANCH  15  16
ENDBRANCH  14  15
BRANCH  14  18
ATOM     18  C   UNL A   1      30.312  25.739  24.710  1.00  0.00     0.243 C 
BRANCH  18  19
ATOM     19  C   UNL A   1      30.694  26.830  23.698  1.00  0.00     0.325 C 
ATOM     20  O   UNL A   1      31.577  26.679  22.860  1.00  0.00    -0.250 OA
BRANCH  19  21
ATOM     21  O   UNL A   1      29.962  27.963  23.860  1.00  0.00    -0.468 OA
ATOM     22  C   UNL A   1      29.821  28.841  22.740  1.00  0.00     0.282 C 
ENDBRANCH  19  21
ENDBRANCH  18  19
ENDBRANCH  14  18
ENDBRANCH  12  14
ENDBRANCH   7  12
ENDBRANCH   3   6
ENDBRANCH   1   2
BRANCH   1  23
ATOM     23  C   UNL A   1      38.285  23.723  26.190  1.00  0.00     0.023 C 
BRANCH  23  24
ATOM     24  C   UNL A   1      39.338  22.685  26.570  1.00  0.00     0.023 C 
BRANCH  24  25
ATOM     25  C   UNL A   1      40.711  23.235  26.936  1.00  0.00     0.116 C 
BRANCH  25  26
ATOM     26  N   UNL A   1      41.250  24.138  25.930  1.00  0.00    -0.352 N 
ATOM     27  C   UNL A   1      41.548  25.478  26.016  1.00  0.00     0.251 C 
ATOM     28  H   UNL A   1      41.429  23.726  25.053  1.00  0.00     0.163 HD
ATOM     29  O   UNL A   1      41.865  26.095  25.001  1.00  0.00    -0.269 OA
BRANCH  27  30
ATOM     30  C   UNL A   1      41.455  26.186  27.314  1.00  0.00     0.039 A 
ATOM     31  C   UNL A   1      42.412  27.155  27.627  1.00  0.00     0.014 A 
ATOM     32  C   UNL A   1      40.428  25.905  28.218  1.00  0.00     0.014 A 
ATOM     33  C   UNL A   1      42.288  27.901  28.803  1.00  0.00     0.010 A 
ATOM     34  C   UNL A   1      40.258  26.706  29.345  1.00  0.00     0.010 A 
ATOM     35  C   UNL A   1      41.183  27.715  29.651  1.00  0.00    -0.014 A 
BRANCH  35  36
ATOM     36  C   UNL A   1      40.972  28.572  30.849  1.00  0.00     0.031 A 
ATOM     37  C   UNL A   1      39.905  29.634  30.844  1.00  0.00     0.074 A 
ATOM     38  C   UNL A   1      41.785  28.438  31.917  1.00  0.00     0.049 A 
ATOM     39  N   UNL A   1      39.621  30.524  31.761  1.00  0.00    -0.248 NA
ATOM     40  C   UNL A   1      39.062  29.725  29.640  1.00  0.00     0.031 C 
ATOM     41  C   UNL A   1      42.885  27.478  32.030  1.00  0.00     0.029 A 
ATOM     42  N   UNL A   1      41.819  29.118  33.110  1.00  0.00    -0.354 N 
ATOM     43  C   UNL A   1      38.578  31.284  31.243  1.00  0.00     0.074 A 
ATOM     44  C   UNL A   1      38.320  30.789  29.908  1.00  0.00     0.031 C 
ATOM     45  C   UNL A   1      43.468  27.614  33.231  1.00  0.00     0.029 A 
ATOM     46  C   UNL A   1      42.816  28.696  33.960  1.00  0.00     0.049 A 
ATOM     47  H   UNL A   1      41.189  29.840  33.336  1.00  0.00     0.167 HD
ATOM     48  C   UNL A   1      37.882  32.286  31.833  1.00  0.00     0.037 A 
ATOM     49  C   UNL A   1      43.172  29.138  35.183  1.00  0.00     0.037 A 
ATOM     50  C   UNL A   1      38.133  32.763  33.169  1.00  0.00     0.049 A 
ATOM     51  C   UNL A   1      42.396  30.266  35.810  1.00  0.00     0.074 A 
ATOM     52  C   UNL A   1      37.452  33.740  33.874  1.00  0.00     0.029 A 
ATOM     53  N   UNL A   1      39.143  32.303  34.000  1.00  0.00    -0.354 N 
ATOM     54  N   UNL A   1      41.374  30.931  35.328  1.00  0.00    -0.248 NA
ATOM     55  C   UNL A   1      42.819  30.700  37.149  1.00  0.00     0.031 C 
ATOM     56  C   UNL A   1      38.080  33.905  35.112  1.00  0.00     0.029 A 
ATOM     57  C   UNL A   1      39.117  32.990  35.203  1.00  0.00     0.049 A 
ATOM     58  H   UNL A   1      39.784  31.591  33.770  1.00  0.00     0.167 HD
ATOM     59  C   UNL A   1      41.011  31.840  36.318  1.00  0.00     0.074 A 
ATOM     60  C   UNL A   1      41.916  31.629  37.428  1.00  0.00     0.031 C 
ATOM     61  C   UNL A   1      40.017  32.763  36.307  1.00  0.00     0.037 A 
BRANCH  48  62
ATOM     62  C   UNL A   1      36.776  32.929  31.040  1.00  0.00     0.058 A 
ATOM     63  C   UNL A   1      35.426  32.623  31.278  1.00  0.00     0.135 A 
ATOM     64  C   UNL A   1      37.063  33.891  30.058  1.00  0.00     0.135 A 
ATOM     65  F   UNL A   1      35.093  31.701  32.195  1.00  0.00    -0.206 F 
ATOM     66  C   UNL A   1      34.404  33.225  30.552  1.00  0.00     0.059 A 
ATOM     67  C   UNL A   1      36.055  34.529  29.340  1.00  0.00     0.059 A 
ATOM     68  F   UNL A   1      38.336  34.224  29.789  1.00  0.00    -0.206 F 
ATOM     69  C   UNL A   1      34.728  34.177  29.585  1.00  0.00     0.060 A 
BRANCH  69  70
ATOM     70  S   UNL A   1      33.387  34.953  28.658  1.00  0.00     0.124 S 
ATOM     71  O   UNL A   1      32.375  35.120  29.696  1.00  0.00    -0.237 OA
ATOM     72  O   UNL A   1      34.010  36.181  28.178  1.00  0.00    -0.237 OA
ATOM     73  O   UNL A   1      33.071  33.968  27.628  1.00  0.00    -0.744 OA
ENDBRANCH  69  70
ENDBRANCH  48  62
BRANCH  49  74
ATOM     74  C   UNL A   1      44.305  28.500  35.907  1.00  0.00     0.058 A 
ATOM     75  C   UNL A   1      44.088  27.433  36.792  1.00  0.00     0.135 A 
ATOM     76  C   UNL A   1      45.626  28.942  35.731  1.00  0.00     0.135 A 
ATOM     77  F   UNL A   1      42.843  26.979  36.999  1.00  0.00    -0.206 F 
ATOM     78  C   UNL A   1      45.132  26.840  37.493  1.00  0.00     0.059 A 
ATOM     79  C   UNL A   1      46.692  28.346  36.400  1.00  0.00     0.059 A 
ATOM     80  F   UNL A   1      45.893  29.948  34.885  1.00  0.00    -0.206 F 
ATOM     81  C   UNL A   1      46.433  27.303  37.288  1.00  0.00     0.060 A 
BRANCH  81  82
ATOM     82  S   UNL A   1      47.787  26.501  38.174  1.00  0.00     0.124 S 
ATOM     83  O   UNL A   1      47.376  25.103  38.136  1.00  0.00    -0.237 OA
ATOM     84  O   UNL A   1      48.941  26.851  37.350  1.00  0.00    -0.237 OA
ATOM     85  O   UNL A   1      47.750  27.134  39.489  1.00  0.00    -0.744 OA
ENDBRANCH  81  82
ENDBRANCH  49  74
BRANCH  61  86
ATOM     86  C   UNL A   1      39.823  33.590  37.549  1.00  0.00     0.058 A 
ATOM     87  C   UNL A   1      40.462  34.828  37.723  1.00  0.00     0.135 A 
ATOM     88  C   UNL A   1      38.943  33.160  38.556  1.00  0.00     0.135 A 
ATOM     89  F   UNL A   1      41.319  35.282  36.796  1.00  0.00    -0.206 F 
ATOM     90  C   UNL A   1      40.254  35.598  38.863  1.00  0.00     0.059 A 
ATOM     91  C   UNL A   1      38.696  33.929  39.689  1.00  0.00     0.059 A 
ATOM     92  F   UNL A   1      38.298  31.989  38.435  1.00  0.00    -0.206 F 
ATOM     93  C   UNL A   1      39.366  35.142  39.839  1.00  0.00     0.060 A 
BRANCH  93  94
ATOM     94  S   UNL A   1      39.079  36.169  41.296  1.00  0.00     0.124 S 
ATOM     95  O   UNL A   1      39.101  37.509  40.720  1.00  0.00    -0.237 OA
ATOM     96  O   UNL A   1      37.777  35.697  41.757  1.00  0.00    -0.237 OA
ATOM     97  O   UNL A   1      40.202  35.843  42.170  1.00  0.00    -0.744 OA
ENDBRANCH  93  94
ENDBRANCH  61  86
ENDBRANCH  35  36
ENDBRANCH  27  30
ENDBRANCH  25  26
ENDBRANCH  24  25
ENDBRANCH  23  24
ENDBRANCH   1  23
TORSDOF 21
ENDMDL
