MODEL 1
REMARK VINA RESULT:      -8.6      0.000      0.000
REMARK SMILES C=CCN(CC(=O)NCCCCNC(=O)c1ccc(-c2c3nc(c(-c4c(F)cc(S(=O)(=O)[O-])cc4F)c4ccc([nH]4)c(-c4c(F)cc(S(=O)(=O)[O-])cc4F)c4nc(c(-c5c(F)cc(S(=O)(=O)[O-])cc5F)c5ccc2[nH]5)C=C4)C=C3)cc1)C(=O)N1CCC[C@@H]1C(=O)OCC
REMARK SMILES IDX 9 1 8 2 6 3 7 4 5 6 4 7 3 8 2 9 1 10 82 11 83 12 84 13 85 14
REMARK SMILES IDX 88 15 86 16 87 17 89 18 90 19 91 20 92 21 93 22 10 23 11 24
REMARK SMILES IDX 12 25 13 26 14 27 15 29 16 30 17 31 81 32 18 33 80 34 19 35
REMARK SMILES IDX 20 36 21 37 74 38 22 39 79 40 73 41 75 42 23 43 78 44 72 45
REMARK SMILES IDX 71 46 24 48 58 49 37 50 57 51 38 52 41 53 56 54 76 55 39 56
REMARK SMILES IDX 40 57 55 59 77 60 42 61 25 62 26 63 35 64 27 65 28 66 34 67
REMARK SMILES IDX 36 68 29 69 30 70 31 71 32 72 33 73 59 74 60 75 69 76 61 77
REMARK SMILES IDX 62 78 68 79 70 80 63 81 64 82 65 83 66 84 67 85 43 86 44 87
REMARK SMILES IDX 53 88 45 89 46 90 52 91 54 92 47 93 48 94 49 95 50 96 51 97
REMARK H PARENT 8 5 13 28 75 47 41 58
REMARK Flexibility Score: inf
ROOT
ATOM      1  C   UNL A   1      33.240  35.279  30.177  1.00  0.00     0.116 C 
ENDROOT
BRANCH   1   2
ATOM      2  N   UNL A   1      33.817  35.829  31.382  1.00  0.00    -0.355 N 
ATOM      3  C   UNL A   1      34.552  35.218  32.354  1.00  0.00     0.239 C 
ATOM      4  O   UNL A   1      35.271  35.950  33.046  1.00  0.00    -0.273 OA
ATOM      5  H   UNL A   1      33.656  36.789  31.523  1.00  0.00     0.163 HD
BRANCH   3   6
ATOM      6  C   UNL A   1      34.616  33.688  32.539  1.00  0.00     0.221 C 
BRANCH   6   7
ATOM      7  N   UNL A   1      35.930  33.076  32.760  1.00  0.00    -0.312 N 
BRANCH   7   8
ATOM      8  C   UNL A   1      36.563  32.412  31.625  1.00  0.00     0.149 C 
BRANCH   8   9
ATOM      9  C   UNL A   1      37.085  33.412  30.635  1.00  0.00    -0.013 C 
ATOM     10  C   UNL A   1      37.747  33.057  29.524  1.00  0.00     0.006 C 
ENDBRANCH   8   9
ENDBRANCH   7   8
BRANCH   7  11
ATOM     11  C   UNL A   1      36.697  33.242  33.908  1.00  0.00     0.321 C 
ATOM     12  O   UNL A   1      36.207  33.188  35.035  1.00  0.00    -0.248 OA
BRANCH  11  13
ATOM     13  N   UNL A   1      38.063  33.303  33.745  1.00  0.00    -0.311 N 
ATOM     14  C   UNL A   1      38.785  34.547  33.580  1.00  0.00     0.122 C 
ATOM     15  C   UNL A   1      38.889  32.427  34.580  1.00  0.00     0.197 C 
ATOM     16  C   UNL A   1      40.201  34.070  33.342  1.00  0.00     0.024 C 
ATOM     17  C   UNL A   1      40.334  32.897  34.316  1.00  0.00     0.039 C 
BRANCH  15  18
ATOM     18  C   UNL A   1      38.760  30.930  34.303  1.00  0.00     0.328 C 
ATOM     19  O   UNL A   1      38.238  30.148  35.092  1.00  0.00    -0.250 OA
BRANCH  18  20
ATOM     20  O   UNL A   1      39.430  30.556  33.176  1.00  0.00    -0.464 OA
BRANCH  20  21
ATOM     21  C   UNL A   1      40.002  29.238  33.188  1.00  0.00     0.229 C 
ATOM     22  C   UNL A   1      41.519  29.239  33.308  1.00  0.00     0.049 C 
ENDBRANCH  20  21
ENDBRANCH  18  20
ENDBRANCH  15  18
ENDBRANCH  11  13
ENDBRANCH   7  11
ENDBRANCH   6   7
ENDBRANCH   3   6
ENDBRANCH   1   2
BRANCH   1  23
ATOM     23  C   UNL A   1      34.224  34.496  29.312  1.00  0.00     0.023 C 
BRANCH  23  24
ATOM     24  C   UNL A   1      33.624  33.363  28.480  1.00  0.00     0.023 C 
BRANCH  24  25
ATOM     25  C   UNL A   1      34.609  32.333  27.944  1.00  0.00     0.116 C 
BRANCH  25  26
ATOM     26  N   UNL A   1      34.044  31.000  27.803  1.00  0.00    -0.352 N 
ATOM     27  C   UNL A   1      34.679  29.780  27.878  1.00  0.00     0.251 C 
ATOM     28  H   UNL A   1      33.075  30.965  27.631  1.00  0.00     0.163 HD
ATOM     29  O   UNL A   1      34.053  28.752  27.657  1.00  0.00    -0.269 OA
BRANCH  27  30
ATOM     30  C   UNL A   1      36.127  29.725  28.181  1.00  0.00     0.039 A 
ATOM     31  C   UNL A   1      36.529  29.357  29.468  1.00  0.00     0.014 A 
ATOM     32  C   UNL A   1      37.083  30.003  27.200  1.00  0.00     0.014 A 
ATOM     33  C   UNL A   1      37.888  29.193  29.749  1.00  0.00     0.010 A 
ATOM     34  C   UNL A   1      38.430  29.768  27.461  1.00  0.00     0.010 A 
ATOM     35  C   UNL A   1      38.847  29.357  28.736  1.00  0.00    -0.014 A 
BRANCH  35  36
ATOM     36  C   UNL A   1      40.287  29.089  28.987  1.00  0.00     0.031 A 
ATOM     37  C   UNL A   1      40.877  27.746  28.651  1.00  0.00     0.074 A 
ATOM     38  C   UNL A   1      41.047  30.029  29.583  1.00  0.00     0.049 A 
ATOM     39  N   UNL A   1      42.086  27.298  28.866  1.00  0.00    -0.248 NA
ATOM     40  C   UNL A   1      39.980  26.767  28.015  1.00  0.00     0.031 C 
ATOM     41  C   UNL A   1      40.580  31.352  30.006  1.00  0.00     0.029 A 
ATOM     42  N   UNL A   1      42.370  30.016  29.950  1.00  0.00    -0.354 N 
ATOM     43  C   UNL A   1      42.093  25.987  28.406  1.00  0.00     0.074 A 
ATOM     44  C   UNL A   1      40.753  25.694  27.948  1.00  0.00     0.031 C 
ATOM     45  C   UNL A   1      41.602  32.027  30.555  1.00  0.00     0.029 A 
ATOM     46  C   UNL A   1      42.788  31.176  30.558  1.00  0.00     0.049 A 
ATOM     47  H   UNL A   1      42.963  29.246  29.792  1.00  0.00     0.167 HD
ATOM     48  C   UNL A   1      43.128  25.114  28.350  1.00  0.00     0.037 A 
ATOM     49  C   UNL A   1      43.988  31.514  31.068  1.00  0.00     0.037 A 
ATOM     50  C   UNL A   1      44.467  25.420  28.782  1.00  0.00     0.049 A 
ATOM     51  C   UNL A   1      45.123  30.529  30.988  1.00  0.00     0.074 A 
ATOM     52  C   UNL A   1      45.597  24.625  28.710  1.00  0.00     0.029 A 
ATOM     53  N   UNL A   1      44.858  26.616  29.367  1.00  0.00    -0.354 N 
ATOM     54  N   UNL A   1      45.127  29.316  30.491  1.00  0.00    -0.248 NA
ATOM     55  C   UNL A   1      46.419  30.962  31.530  1.00  0.00     0.031 C 
ATOM     56  C   UNL A   1      46.662  25.323  29.287  1.00  0.00     0.029 A 
ATOM     57  C   UNL A   1      46.207  26.573  29.676  1.00  0.00     0.049 A 
ATOM     58  H   UNL A   1      44.263  27.383  29.536  1.00  0.00     0.167 HD
ATOM     59  C   UNL A   1      46.430  28.849  30.637  1.00  0.00     0.074 A 
ATOM     60  C   UNL A   1      47.187  29.916  31.257  1.00  0.00     0.031 C 
ATOM     61  C   UNL A   1      46.951  27.647  30.287  1.00  0.00     0.037 A 
BRANCH  48  62
ATOM     62  C   UNL A   1      42.855  23.743  27.794  1.00  0.00     0.058 A 
ATOM     63  C   UNL A   1      42.523  22.663  28.628  1.00  0.00     0.135 A 
ATOM     64  C   UNL A   1      42.888  23.513  26.409  1.00  0.00     0.135 A 
ATOM     65  F   UNL A   1      42.492  22.822  29.960  1.00  0.00    -0.206 F 
ATOM     66  C   UNL A   1      42.262  21.398  28.111  1.00  0.00     0.059 A 
ATOM     67  C   UNL A   1      42.603  22.264  25.868  1.00  0.00     0.059 A 
ATOM     68  F   UNL A   1      43.200  24.511  25.566  1.00  0.00    -0.206 F 
ATOM     69  C   UNL A   1      42.305  21.209  26.729  1.00  0.00     0.060 A 
BRANCH  69  70
ATOM     70  S   UNL A   1      41.958  19.562  26.074  1.00  0.00     0.124 S 
ATOM     71  O   UNL A   1      42.793  19.544  24.877  1.00  0.00    -0.237 OA
ATOM     72  O   UNL A   1      42.395  18.694  27.163  1.00  0.00    -0.237 OA
ATOM     73  O   UNL A   1      40.518  19.588  25.836  1.00  0.00    -0.744 OA
ENDBRANCH  69  70
ENDBRANCH  48  62
BRANCH  49  74
ATOM     74  C   UNL A   1      44.186  32.854  31.682  1.00  0.00     0.058 A 
ATOM     75  C   UNL A   1      43.921  33.070  33.042  1.00  0.00     0.135 A 
ATOM     76  C   UNL A   1      44.651  33.941  30.925  1.00  0.00     0.135 A 
ATOM     77  F   UNL A   1      43.469  32.064  33.805  1.00  0.00    -0.206 F 
ATOM     78  C   UNL A   1      44.091  34.321  33.629  1.00  0.00     0.059 A 
ATOM     79  C   UNL A   1      44.854  35.195  31.495  1.00  0.00     0.059 A 
ATOM     80  F   UNL A   1      44.936  33.783  29.624  1.00  0.00    -0.206 F 
ATOM     81  C   UNL A   1      44.560  35.377  32.846  1.00  0.00     0.060 A 
BRANCH  81  82
ATOM     82  S   UNL A   1      44.820  36.985  33.627  1.00  0.00     0.124 S 
ATOM     83  O   UNL A   1      43.534  37.633  33.397  1.00  0.00    -0.237 OA
ATOM     84  O   UNL A   1      45.110  36.612  35.008  1.00  0.00    -0.237 OA
ATOM     85  O   UNL A   1      45.949  37.538  32.885  1.00  0.00    -0.744 OA
ENDBRANCH  81  82
ENDBRANCH  49  74
BRANCH  61  86
ATOM     86  C   UNL A   1      48.418  27.430  30.532  1.00  0.00     0.058 A 
ATOM     87  C   UNL A   1      49.384  27.753  29.567  1.00  0.00     0.135 A 
ATOM     88  C   UNL A   1      48.865  26.939  31.770  1.00  0.00     0.135 A 
ATOM     89  F   UNL A   1      49.009  28.218  28.365  1.00  0.00    -0.206 F 
ATOM     90  C   UNL A   1      50.741  27.577  29.811  1.00  0.00     0.059 A 
ATOM     91  C   UNL A   1      50.220  26.781  32.046  1.00  0.00     0.059 A 
ATOM     92  F   UNL A   1      47.983  26.625  32.731  1.00  0.00    -0.206 F 
ATOM     93  C   UNL A   1      51.150  27.091  31.056  1.00  0.00     0.060 A 
BRANCH  93  94
ATOM     94  S   UNL A   1      52.917  26.901  31.373  1.00  0.00     0.124 S 
ATOM     95  O   UNL A   1      53.496  27.510  30.180  1.00  0.00    -0.237 OA
ATOM     96  O   UNL A   1      53.095  27.646  32.615  1.00  0.00    -0.237 OA
ATOM     97  O   UNL A   1      53.088  25.456  31.485  1.00  0.00    -0.744 OA
ENDBRANCH  93  94
ENDBRANCH  61  86
ENDBRANCH  35  36
ENDBRANCH  27  30
ENDBRANCH  25  26
ENDBRANCH  24  25
ENDBRANCH  23  24
ENDBRANCH   1  23
TORSDOF 22
ENDMDL
MODEL 2
REMARK VINA RESULT:      -8.4      4.517     10.888
REMARK SMILES C=CCN(CC(=O)NCCCCNC(=O)c1ccc(-c2c3nc(c(-c4c(F)cc(S(=O)(=O)[O-])cc4F)c4ccc([nH]4)c(-c4c(F)cc(S(=O)(=O)[O-])cc4F)c4nc(c(-c5c(F)cc(S(=O)(=O)[O-])cc5F)c5ccc2[nH]5)C=C4)C=C3)cc1)C(=O)N1CCC[C@@H]1C(=O)OCC
REMARK SMILES IDX 9 1 8 2 6 3 7 4 5 6 4 7 3 8 2 9 1 10 82 11 83 12 84 13 85 14
REMARK SMILES IDX 88 15 86 16 87 17 89 18 90 19 91 20 92 21 93 22 10 23 11 24
REMARK SMILES IDX 12 25 13 26 14 27 15 29 16 30 17 31 81 32 18 33 80 34 19 35
REMARK SMILES IDX 20 36 21 37 74 38 22 39 79 40 73 41 75 42 23 43 78 44 72 45
REMARK SMILES IDX 71 46 24 48 58 49 37 50 57 51 38 52 41 53 56 54 76 55 39 56
REMARK SMILES IDX 40 57 55 59 77 60 42 61 25 62 26 63 35 64 27 65 28 66 34 67
REMARK SMILES IDX 36 68 29 69 30 70 31 71 32 72 33 73 59 74 60 75 69 76 61 77
REMARK SMILES IDX 62 78 68 79 70 80 63 81 64 82 65 83 66 84 67 85 43 86 44 87
REMARK SMILES IDX 53 88 45 89 46 90 52 91 54 92 47 93 48 94 49 95 50 96 51 97
REMARK H PARENT 8 5 13 28 75 47 41 58
REMARK Flexibility Score: inf
ROOT
ATOM      1  C   UNL A   1      31.926  28.143  22.936  1.00  0.00     0.116 C 
ENDROOT
BRANCH   1   2
ATOM      2  N   UNL A   1      32.566  27.435  21.851  1.00  0.00    -0.355 N 
ATOM      3  C   UNL A   1      33.104  26.183  21.825  1.00  0.00     0.239 C 
ATOM      4  O   UNL A   1      33.210  25.650  20.713  1.00  0.00    -0.273 OA
ATOM      5  H   UNL A   1      32.623  27.931  21.003  1.00  0.00     0.163 HD
BRANCH   3   6
ATOM      6  C   UNL A   1      33.459  25.382  23.094  1.00  0.00     0.221 C 
BRANCH   6   7
ATOM      7  N   UNL A   1      32.753  24.118  23.329  1.00  0.00    -0.312 N 
BRANCH   7   8
ATOM      8  C   UNL A   1      31.402  24.193  23.877  1.00  0.00     0.149 C 
BRANCH   8   9
ATOM      9  C   UNL A   1      31.347  25.119  25.057  1.00  0.00    -0.013 C 
ATOM     10  C   UNL A   1      30.295  25.177  25.886  1.00  0.00     0.006 C 
ENDBRANCH   8   9
ENDBRANCH   7   8
BRANCH   7  11
ATOM     11  C   UNL A   1      33.196  22.872  22.898  1.00  0.00     0.321 C 
ATOM     12  O   UNL A   1      32.803  22.367  21.847  1.00  0.00    -0.248 OA
BRANCH  11  13
ATOM     13  N   UNL A   1      34.223  22.293  23.607  1.00  0.00    -0.311 N 
ATOM     14  C   UNL A   1      35.569  22.827  23.630  1.00  0.00     0.122 C 
ATOM     15  C   UNL A   1      33.928  21.799  24.956  1.00  0.00     0.197 C 
ATOM     16  C   UNL A   1      36.314  21.794  24.445  1.00  0.00     0.024 C 
ATOM     17  C   UNL A   1      35.307  21.431  25.539  1.00  0.00     0.039 C 
BRANCH  15  18
ATOM     18  C   UNL A   1      32.984  20.601  25.032  1.00  0.00     0.328 C 
ATOM     19  O   UNL A   1      31.773  20.715  25.202  1.00  0.00    -0.250 OA
BRANCH  18  20
ATOM     20  O   UNL A   1      33.657  19.416  25.057  1.00  0.00    -0.464 OA
BRANCH  20  21
ATOM     21  C   UNL A   1      33.183  18.399  24.159  1.00  0.00     0.229 C 
ATOM     22  C   UNL A   1      34.247  17.374  23.792  1.00  0.00     0.049 C 
ENDBRANCH  20  21
ENDBRANCH  18  20
ENDBRANCH  15  18
ENDBRANCH  11  13
ENDBRANCH   7  11
ENDBRANCH   6   7
ENDBRANCH   3   6
ENDBRANCH   1   2
BRANCH   1  23
ATOM     23  C   UNL A   1      32.893  28.875  23.863  1.00  0.00     0.023 C 
BRANCH  23  24
ATOM     24  C   UNL A   1      32.950  28.364  25.302  1.00  0.00     0.023 C 
BRANCH  24  25
ATOM     25  C   UNL A   1      34.083  28.910  26.161  1.00  0.00     0.116 C 
BRANCH  25  26
ATOM     26  N   UNL A   1      33.852  30.262  26.645  1.00  0.00    -0.352 N 
ATOM     27  C   UNL A   1      34.590  30.995  27.549  1.00  0.00     0.251 C 
ATOM     28  H   UNL A   1      33.060  30.717  26.276  1.00  0.00     0.163 HD
ATOM     29  O   UNL A   1      34.202  32.101  27.900  1.00  0.00    -0.269 OA
BRANCH  27  30
ATOM     30  C   UNL A   1      35.827  30.417  28.123  1.00  0.00     0.039 A 
ATOM     31  C   UNL A   1      37.056  30.765  27.556  1.00  0.00     0.014 A 
ATOM     32  C   UNL A   1      35.781  29.564  29.229  1.00  0.00     0.014 A 
ATOM     33  C   UNL A   1      38.242  30.320  28.147  1.00  0.00     0.010 A 
ATOM     34  C   UNL A   1      36.963  29.182  29.858  1.00  0.00     0.010 A 
ATOM     35  C   UNL A   1      38.205  29.559  29.327  1.00  0.00    -0.014 A 
BRANCH  35  36
ATOM     36  C   UNL A   1      39.454  29.162  30.026  1.00  0.00     0.031 A 
ATOM     37  C   UNL A   1      39.904  29.906  31.254  1.00  0.00     0.074 A 
ATOM     38  C   UNL A   1      40.221  28.178  29.515  1.00  0.00     0.049 A 
ATOM     39  N   UNL A   1      40.998  29.759  31.955  1.00  0.00    -0.248 NA
ATOM     40  C   UNL A   1      39.019  30.977  31.743  1.00  0.00     0.031 C 
ATOM     41  C   UNL A   1      39.922  27.415  28.300  1.00  0.00     0.029 A 
ATOM     42  N   UNL A   1      41.417  27.656  29.944  1.00  0.00    -0.354 N 
ATOM     43  C   UNL A   1      40.942  30.722  32.955  1.00  0.00     0.074 A 
ATOM     44  C   UNL A   1      39.730  31.482  32.739  1.00  0.00     0.031 C 
ATOM     45  C   UNL A   1      40.895  26.514  28.094  1.00  0.00     0.029 A 
ATOM     46  C   UNL A   1      41.906  26.656  29.137  1.00  0.00     0.049 A 
ATOM     47  H   UNL A   1      41.881  27.970  30.754  1.00  0.00     0.167 HD
ATOM     48  C   UNL A   1      41.809  30.939  33.973  1.00  0.00     0.037 A 
ATOM     49  C   UNL A   1      43.043  25.940  29.222  1.00  0.00     0.037 A 
ATOM     50  C   UNL A   1      42.999  30.160  34.199  1.00  0.00     0.049 A 
ATOM     51  C   UNL A   1      43.987  26.194  30.366  1.00  0.00     0.074 A 
ATOM     52  C   UNL A   1      43.909  30.261  35.237  1.00  0.00     0.029 A 
ATOM     53  N   UNL A   1      43.446  29.137  33.376  1.00  0.00    -0.354 N 
ATOM     54  N   UNL A   1      43.885  27.067  31.339  1.00  0.00    -0.248 NA
ATOM     55  C   UNL A   1      45.197  25.362  30.429  1.00  0.00     0.031 C 
ATOM     56  C   UNL A   1      44.927  29.328  35.020  1.00  0.00     0.029 A 
ATOM     57  C   UNL A   1      44.627  28.611  33.872  1.00  0.00     0.049 A 
ATOM     58  H   UNL A   1      42.989  28.830  32.559  1.00  0.00     0.167 HD
ATOM     59  C   UNL A   1      45.003  26.871  32.144  1.00  0.00     0.074 A 
ATOM     60  C   UNL A   1      45.760  25.790  31.550  1.00  0.00     0.031 C 
ATOM     61  C   UNL A   1      45.367  27.528  33.274  1.00  0.00     0.037 A 
BRANCH  48  62
ATOM     62  C   UNL A   1      41.498  32.058  34.928  1.00  0.00     0.058 A 
ATOM     63  C   UNL A   1      42.055  33.338  34.768  1.00  0.00     0.135 A 
ATOM     64  C   UNL A   1      40.605  31.864  35.993  1.00  0.00     0.135 A 
ATOM     65  F   UNL A   1      42.928  33.576  33.776  1.00  0.00    -0.206 F 
ATOM     66  C   UNL A   1      41.760  34.375  35.646  1.00  0.00     0.059 A 
ATOM     67  C   UNL A   1      40.273  32.894  36.868  1.00  0.00     0.059 A 
ATOM     68  F   UNL A   1      40.044  30.661  36.193  1.00  0.00    -0.206 F 
ATOM     69  C   UNL A   1      40.868  34.143  36.694  1.00  0.00     0.060 A 
BRANCH  69  70
ATOM     70  S   UNL A   1      40.491  35.502  37.822  1.00  0.00     0.124 S 
ATOM     71  O   UNL A   1      40.129  36.563  36.886  1.00  0.00    -0.237 OA
ATOM     72  O   UNL A   1      39.395  34.955  38.615  1.00  0.00    -0.237 OA
ATOM     73  O   UNL A   1      41.744  35.702  38.543  1.00  0.00    -0.744 OA
ENDBRANCH  69  70
ENDBRANCH  48  62
BRANCH  49  74
ATOM     74  C   UNL A   1      43.344  24.896  28.205  1.00  0.00     0.058 A 
ATOM     75  C   UNL A   1      44.131  25.190  27.082  1.00  0.00     0.135 A 
ATOM     76  C   UNL A   1      42.860  23.586  28.340  1.00  0.00     0.135 A 
ATOM     77  F   UNL A   1      44.611  26.430  26.907  1.00  0.00    -0.206 F 
ATOM     78  C   UNL A   1      44.413  24.228  26.117  1.00  0.00     0.059 A 
ATOM     79  C   UNL A   1      43.150  22.600  27.402  1.00  0.00     0.059 A 
ATOM     80  F   UNL A   1      42.117  23.248  29.405  1.00  0.00    -0.206 F 
ATOM     81  C   UNL A   1      43.919  22.934  26.287  1.00  0.00     0.060 A 
BRANCH  81  82
ATOM     82  S   UNL A   1      44.327  21.681  25.052  1.00  0.00     0.124 S 
ATOM     83  O   UNL A   1      44.070  22.400  23.810  1.00  0.00    -0.237 OA
ATOM     84  O   UNL A   1      45.729  21.402  25.350  1.00  0.00    -0.237 OA
ATOM     85  O   UNL A   1      43.401  20.595  25.359  1.00  0.00    -0.744 OA
ENDBRANCH  81  82
ENDBRANCH  49  74
BRANCH  61  86
ATOM     86  C   UNL A   1      46.623  27.074  33.965  1.00  0.00     0.058 A 
ATOM     87  C   UNL A   1      47.870  27.649  33.681  1.00  0.00     0.135 A 
ATOM     88  C   UNL A   1      46.567  26.085  34.960  1.00  0.00     0.135 A 
ATOM     89  F   UNL A   1      47.980  28.594  32.733  1.00  0.00    -0.206 F 
ATOM     90  C   UNL A   1      49.024  27.245  34.345  1.00  0.00     0.059 A 
ATOM     91  C   UNL A   1      47.703  25.685  35.657  1.00  0.00     0.059 A 
ATOM     92  F   UNL A   1      45.396  25.510  35.277  1.00  0.00    -0.206 F 
ATOM     93  C   UNL A   1      48.930  26.262  35.334  1.00  0.00     0.060 A 
BRANCH  93  94
ATOM     94  S   UNL A   1      50.428  25.772  36.213  1.00  0.00     0.124 S 
ATOM     95  O   UNL A   1      50.652  26.926  37.077  1.00  0.00    -0.237 OA
ATOM     96  O   UNL A   1      50.011  24.547  36.886  1.00  0.00    -0.237 OA
ATOM     97  O   UNL A   1      51.405  25.591  35.143  1.00  0.00    -0.744 OA
ENDBRANCH  93  94
ENDBRANCH  61  86
ENDBRANCH  35  36
ENDBRANCH  27  30
ENDBRANCH  25  26
ENDBRANCH  24  25
ENDBRANCH  23  24
ENDBRANCH   1  23
TORSDOF 22
ENDMDL
MODEL 3
REMARK VINA RESULT:      -8.3      5.337     11.859
REMARK SMILES C=CCN(CC(=O)NCCCCNC(=O)c1ccc(-c2c3nc(c(-c4c(F)cc(S(=O)(=O)[O-])cc4F)c4ccc([nH]4)c(-c4c(F)cc(S(=O)(=O)[O-])cc4F)c4nc(c(-c5c(F)cc(S(=O)(=O)[O-])cc5F)c5ccc2[nH]5)C=C4)C=C3)cc1)C(=O)N1CCC[C@@H]1C(=O)OCC
REMARK SMILES IDX 9 1 8 2 6 3 7 4 5 6 4 7 3 8 2 9 1 10 82 11 83 12 84 13 85 14
REMARK SMILES IDX 88 15 86 16 87 17 89 18 90 19 91 20 92 21 93 22 10 23 11 24
REMARK SMILES IDX 12 25 13 26 14 27 15 29 16 30 17 31 81 32 18 33 80 34 19 35
REMARK SMILES IDX 20 36 21 37 74 38 22 39 79 40 73 41 75 42 23 43 78 44 72 45
REMARK SMILES IDX 71 46 24 48 58 49 37 50 57 51 38 52 41 53 56 54 76 55 39 56
REMARK SMILES IDX 40 57 55 59 77 60 42 61 25 62 26 63 35 64 27 65 28 66 34 67
REMARK SMILES IDX 36 68 29 69 30 70 31 71 32 72 33 73 59 74 60 75 69 76 61 77
REMARK SMILES IDX 62 78 68 79 70 80 63 81 64 82 65 83 66 84 67 85 43 86 44 87
REMARK SMILES IDX 53 88 45 89 46 90 52 91 54 92 47 93 48 94 49 95 50 96 51 97
REMARK H PARENT 8 5 13 28 75 47 41 58
REMARK Flexibility Score: inf
ROOT
ATOM      1  C   UNL A   1      38.885  22.641  26.498  1.00  0.00     0.116 C 
ENDROOT
BRANCH   1   2
ATOM      2  N   UNL A   1      38.022  22.471  25.352  1.00  0.00    -0.355 N 
ATOM      3  C   UNL A   1      36.819  23.046  25.073  1.00  0.00     0.239 C 
ATOM      4  O   UNL A   1      36.482  23.074  23.882  1.00  0.00    -0.273 OA
ATOM      5  H   UNL A   1      38.354  21.844  24.669  1.00  0.00     0.163 HD
BRANCH   3   6
ATOM      6  C   UNL A   1      35.947  23.752  26.131  1.00  0.00     0.221 C 
BRANCH   6   7
ATOM      7  N   UNL A   1      34.562  24.078  25.775  1.00  0.00    -0.312 N 
BRANCH   7   8
ATOM      8  C   UNL A   1      34.341  25.254  24.939  1.00  0.00     0.149 C 
BRANCH   8   9
ATOM      9  C   UNL A   1      33.773  26.389  25.740  1.00  0.00    -0.013 C 
ATOM     10  C   UNL A   1      33.629  27.627  25.245  1.00  0.00     0.006 C 
ENDBRANCH   8   9
ENDBRANCH   7   8
BRANCH   7  11
ATOM     11  C   UNL A   1      33.469  23.253  26.014  1.00  0.00     0.321 C 
ATOM     12  O   UNL A   1      33.071  23.008  27.152  1.00  0.00    -0.248 OA
BRANCH  11  13
ATOM     13  N   UNL A   1      32.737  22.851  24.919  1.00  0.00    -0.311 N 
ATOM     14  C   UNL A   1      31.976  23.768  24.096  1.00  0.00     0.122 C 
ATOM     15  C   UNL A   1      33.338  21.858  24.024  1.00  0.00     0.197 C 
ATOM     16  C   UNL A   1      31.293  22.836  23.120  1.00  0.00     0.024 C 
ATOM     17  C   UNL A   1      32.382  21.804  22.815  1.00  0.00     0.039 C 
BRANCH  15  18
ATOM     18  C   UNL A   1      33.528  20.462  24.613  1.00  0.00     0.328 C 
ATOM     19  O   UNL A   1      34.626  20.014  24.928  1.00  0.00    -0.250 OA
BRANCH  18  20
ATOM     20  O   UNL A   1      32.377  19.731  24.587  1.00  0.00    -0.464 OA
BRANCH  20  21
ATOM     21  C   UNL A   1      32.516  18.339  24.263  1.00  0.00     0.229 C 
ATOM     22  C   UNL A   1      32.534  18.067  22.765  1.00  0.00     0.049 C 
ENDBRANCH  20  21
ENDBRANCH  18  20
ENDBRANCH  15  18
ENDBRANCH  11  13
ENDBRANCH   7  11
ENDBRANCH   6   7
ENDBRANCH   3   6
ENDBRANCH   1   2
BRANCH   1  23
ATOM     23  C   UNL A   1      40.180  21.834  26.433  1.00  0.00     0.023 C 
BRANCH  23  24
ATOM     24  C   UNL A   1      41.164  22.063  27.579  1.00  0.00     0.023 C 
BRANCH  24  25
ATOM     25  C   UNL A   1      42.271  23.076  27.318  1.00  0.00     0.116 C 
BRANCH  25  26
ATOM     26  N   UNL A   1      42.041  23.906  26.146  1.00  0.00    -0.352 N 
ATOM     27  C   UNL A   1      41.712  25.242  26.084  1.00  0.00     0.251 C 
ATOM     28  H   UNL A   1      42.135  23.450  25.278  1.00  0.00     0.163 HD
ATOM     29  O   UNL A   1      41.480  25.763  25.001  1.00  0.00    -0.269 OA
BRANCH  27  30
ATOM     30  C   UNL A   1      41.597  26.026  27.334  1.00  0.00     0.039 A 
ATOM     31  C   UNL A   1      42.588  26.965  27.630  1.00  0.00     0.014 A 
ATOM     32  C   UNL A   1      40.506  25.863  28.193  1.00  0.00     0.014 A 
ATOM     33  C   UNL A   1      42.447  27.793  28.747  1.00  0.00     0.010 A 
ATOM     34  C   UNL A   1      40.331  26.736  29.262  1.00  0.00     0.010 A 
ATOM     35  C   UNL A   1      41.297  27.713  29.549  1.00  0.00    -0.014 A 
BRANCH  35  36
ATOM     36  C   UNL A   1      41.079  28.652  30.680  1.00  0.00     0.031 A 
ATOM     37  C   UNL A   1      41.899  28.529  31.936  1.00  0.00     0.074 A 
ATOM     38  C   UNL A   1      40.094  29.569  30.605  1.00  0.00     0.049 A 
ATOM     39  N   UNL A   1      41.804  29.201  33.053  1.00  0.00    -0.248 NA
ATOM     40  C   UNL A   1      42.945  27.493  31.946  1.00  0.00     0.031 C 
ATOM     41  C   UNL A   1      39.194  29.754  29.463  1.00  0.00     0.029 A 
ATOM     42  N   UNL A   1      39.673  30.512  31.510  1.00  0.00    -0.354 N 
ATOM     43  C   UNL A   1      42.765  28.664  33.902  1.00  0.00     0.074 A 
ATOM     44  C   UNL A   1      43.397  27.576  33.188  1.00  0.00     0.031 C 
ATOM     45  C   UNL A   1      38.344  30.758  29.729  1.00  0.00     0.029 A 
ATOM     46  C   UNL A   1      38.610  31.266  31.071  1.00  0.00     0.049 A 
ATOM     47  H   UNL A   1      40.093  30.635  32.392  1.00  0.00     0.167 HD
ATOM     48  C   UNL A   1      43.105  29.057  35.153  1.00  0.00     0.037 A 
ATOM     49  C   UNL A   1      37.923  32.249  31.683  1.00  0.00     0.037 A 
ATOM     50  C   UNL A   1      42.491  30.160  35.848  1.00  0.00     0.049 A 
ATOM     51  C   UNL A   1      38.324  32.672  33.070  1.00  0.00     0.074 A 
ATOM     52  C   UNL A   1      42.807  30.674  37.093  1.00  0.00     0.029 A 
ATOM     53  N   UNL A   1      41.437  30.917  35.359  1.00  0.00    -0.354 N 
ATOM     54  N   UNL A   1      39.278  32.195  33.833  1.00  0.00    -0.248 NA
ATOM     55  C   UNL A   1      37.560  33.772  33.678  1.00  0.00     0.031 C 
ATOM     56  C   UNL A   1      41.918  31.716  37.375  1.00  0.00     0.029 A 
ATOM     57  C   UNL A   1      41.079  31.883  36.284  1.00  0.00     0.049 A 
ATOM     58  H   UNL A   1      41.008  30.787  34.482  1.00  0.00     0.167 HD
ATOM     59  C   UNL A   1      39.247  32.954  34.999  1.00  0.00     0.074 A 
ATOM     60  C   UNL A   1      38.188  33.927  34.835  1.00  0.00     0.031 C 
ATOM     61  C   UNL A   1      40.026  32.852  36.104  1.00  0.00     0.037 A 
BRANCH  48  62
ATOM     62  C   UNL A   1      44.198  28.295  35.851  1.00  0.00     0.058 A 
ATOM     63  C   UNL A   1      45.550  28.639  35.694  1.00  0.00     0.135 A 
ATOM     64  C   UNL A   1      43.890  27.232  36.715  1.00  0.00     0.135 A 
ATOM     65  F   UNL A   1      45.903  29.637  34.868  1.00  0.00    -0.206 F 
ATOM     66  C   UNL A   1      46.559  27.940  36.347  1.00  0.00     0.059 A 
ATOM     67  C   UNL A   1      44.881  26.536  37.400  1.00  0.00     0.059 A 
ATOM     68  F   UNL A   1      42.613  26.861  36.901  1.00  0.00    -0.206 F 
ATOM     69  C   UNL A   1      46.214  26.888  37.198  1.00  0.00     0.060 A 
BRANCH  69  70
ATOM     70  S   UNL A   1      47.537  25.994  38.043  1.00  0.00     0.124 S 
ATOM     71  O   UNL A   1      48.701  26.803  37.695  1.00  0.00    -0.237 OA
ATOM     72  O   UNL A   1      47.115  26.058  39.438  1.00  0.00    -0.237 OA
ATOM     73  O   UNL A   1      47.491  24.667  37.436  1.00  0.00    -0.744 OA
ENDBRANCH  69  70
ENDBRANCH  48  62
BRANCH  49  74
ATOM     74  C   UNL A   1      36.796  32.919  30.979  1.00  0.00     0.058 A 
ATOM     75  C   UNL A   1      37.036  33.857  29.965  1.00  0.00     0.135 A 
ATOM     76  C   UNL A   1      35.461  32.628  31.298  1.00  0.00     0.135 A 
ATOM     77  F   UNL A   1      38.295  34.173  29.628  1.00  0.00    -0.206 F 
ATOM     78  C   UNL A   1      35.993  34.500  29.304  1.00  0.00     0.059 A 
ATOM     79  C   UNL A   1      34.401  33.237  30.634  1.00  0.00     0.059 A 
ATOM     80  F   UNL A   1      35.177  31.724  32.249  1.00  0.00    -0.206 F 
ATOM     81  C   UNL A   1      34.678  34.182  29.645  1.00  0.00     0.060 A 
BRANCH  81  82
ATOM     82  S   UNL A   1      33.331  34.987  28.751  1.00  0.00     0.124 S 
ATOM     83  O   UNL A   1      32.954  33.952  27.796  1.00  0.00    -0.237 OA
ATOM     84  O   UNL A   1      32.370  35.254  29.818  1.00  0.00    -0.237 OA
ATOM     85  O   UNL A   1      33.969  36.171  28.183  1.00  0.00    -0.744 OA
ENDBRANCH  81  82
ENDBRANCH  49  74
BRANCH  61  86
ATOM     86  C   UNL A   1      39.790  33.841  37.212  1.00  0.00     0.058 A 
ATOM     87  C   UNL A   1      38.995  33.527  38.325  1.00  0.00     0.135 A 
ATOM     88  C   UNL A   1      40.410  35.100  37.183  1.00  0.00     0.135 A 
ATOM     89  F   UNL A   1      38.374  32.338  38.398  1.00  0.00    -0.206 F 
ATOM     90  C   UNL A   1      38.804  34.435  39.360  1.00  0.00     0.059 A 
ATOM     91  C   UNL A   1      40.255  36.014  38.221  1.00  0.00     0.059 A 
ATOM     92  F   UNL A   1      41.189  35.447  36.147  1.00  0.00    -0.206 F 
ATOM     93  C   UNL A   1      39.440  35.677  39.300  1.00  0.00     0.060 A 
BRANCH  93  94
ATOM     94  S   UNL A   1      39.214  36.834  40.667  1.00  0.00     0.124 S 
ATOM     95  O   UNL A   1      38.390  36.049  41.582  1.00  0.00    -0.237 OA
ATOM     96  O   UNL A   1      40.585  37.080  41.102  1.00  0.00    -0.237 OA
ATOM     97  O   UNL A   1      38.546  37.971  40.042  1.00  0.00    -0.744 OA
ENDBRANCH  93  94
ENDBRANCH  61  86
ENDBRANCH  35  36
ENDBRANCH  27  30
ENDBRANCH  25  26
ENDBRANCH  24  25
ENDBRANCH  23  24
ENDBRANCH   1  23
TORSDOF 22
ENDMDL
