MODEL 1
REMARK VINA RESULT:     -11.7      0.000      0.000
REMARK SMILES COc1ccc2c(c1)[C@H]([NH2+][C@@H](C(=O)NCCCCNC(=O)c1ccc(-c3c4nc(c(-c5c(F)cc(S(=O)(=O)[O-])cc5F)c5ccc([nH]5)c(-c5c(F)cc(S(=O)(=O)[O-])cc5F)c5nc(c(-c6c(F)cc(S(=O)(=O)[O-])cc6F)c6ccc3[nH]6)C=C5)C=C4)cc1)C1CC1)CC2
REMARK SMILES IDX 16 1 15 2 14 3 12 4 13 5 11 7 10 8 9 11 3 12 4 13 8 14 5 15
REMARK SMILES IDX 7 16 6 17 92 18 91 19 2 20 1 21 88 22 89 23 90 24 17 25
REMARK SMILES IDX 18 26 19 27 20 28 21 30 22 31 23 32 87 33 24 34 86 35 25 36
REMARK SMILES IDX 26 37 27 38 80 39 28 40 85 41 79 42 81 43 29 44 84 45 78 46
REMARK SMILES IDX 77 47 30 49 64 50 43 51 63 52 44 53 47 54 62 55 82 56 45 57
REMARK SMILES IDX 46 58 61 60 83 61 48 62 31 63 32 64 41 65 33 66 34 67 40 68
REMARK SMILES IDX 42 69 35 70 36 71 37 72 38 73 39 74 65 75 66 76 75 77 67 78
REMARK SMILES IDX 68 79 74 80 76 81 69 82 70 83 71 84 72 85 73 86 49 87 50 88
REMARK SMILES IDX 59 89 51 90 52 91 58 92 60 93 53 94 54 95 55 96 56 97 57 98
REMARK H PARENT 14 6 10 9 10 10 19 29 81 48 47 59
REMARK Flexibility Score: inf
ROOT
ATOM      1  C   UNL A   1      32.161  26.237  26.100  1.00  0.00     0.023 C 
ENDROOT
BRANCH   1   2
ATOM      2  C   UNL A   1      30.794  25.781  25.595  1.00  0.00     0.116 C 
BRANCH   2   3
ATOM      3  N   UNL A   1      30.161  24.845  26.499  1.00  0.00    -0.351 N 
ATOM      4  C   UNL A   1      30.528  23.572  26.836  1.00  0.00     0.278 C 
ATOM      5  O   UNL A   1      29.806  22.988  27.648  1.00  0.00    -0.268 OA
ATOM      6  H   UNL A   1      29.344  25.174  26.939  1.00  0.00     0.163 HD
BRANCH   4   7
ATOM      7  C   UNL A   1      31.849  22.944  26.275  1.00  0.00     0.276 C 
BRANCH   7   8
ATOM      8  N   UNL A   1      31.594  21.586  25.764  1.00  0.00    -0.330 N 
ATOM      9  H   UNL A   1      31.907  20.919  26.468  1.00  0.00     0.347 HD
ATOM     10  H   UNL A   1      30.593  21.534  25.578  1.00  0.00     0.347 HD
BRANCH   8  11
ATOM     11  C   UNL A   1      32.264  21.271  24.508  1.00  0.00     0.214 C 
ATOM     12  C   UNL A   1      33.005  17.500  24.726  1.00  0.00     0.119 A 
ATOM     13  C   UNL A   1      32.888  17.205  23.358  1.00  0.00     0.047 A 
ATOM     14  C   UNL A   1      32.775  18.797  25.193  1.00  0.00     0.056 A 
ATOM     15  C   UNL A   1      32.566  18.209  22.439  1.00  0.00     0.008 A 
ATOM     16  C   UNL A   1      32.455  19.791  24.280  1.00  0.00     0.016 A 
ATOM     17  C   UNL A   1      32.352  19.491  22.914  1.00  0.00    -0.038 A 
ATOM     18  C   UNL A   1      32.030  20.720  22.123  1.00  0.00     0.042 C 
ATOM     19  C   UNL A   1      31.481  21.635  23.226  1.00  0.00     0.075 C 
BRANCH  12  20
ATOM     20  O   UNL A   1      33.298  16.573  25.690  1.00  0.00    -0.497 OA
ATOM     21  C   UNL A   1      32.403  15.466  25.743  1.00  0.00     0.278 C 
ENDBRANCH  12  20
ENDBRANCH   8  11
ENDBRANCH   7   8
BRANCH   7  22
ATOM     22  C   UNL A   1      32.986  23.013  27.286  1.00  0.00     0.057 C 
ATOM     23  C   UNL A   1      33.827  21.795  27.621  1.00  0.00     0.011 C 
ATOM     24  C   UNL A   1      34.477  22.974  26.975  1.00  0.00     0.011 C 
ENDBRANCH   7  22
ENDBRANCH   4   7
ENDBRANCH   2   3
ENDBRANCH   1   2
BRANCH   1  25
ATOM     25  C   UNL A   1      32.136  27.503  26.963  1.00  0.00     0.023 C 
BRANCH  25  26
ATOM     26  C   UNL A   1      33.453  28.269  27.048  1.00  0.00     0.116 C 
BRANCH  26  27
ATOM     27  N   UNL A   1      33.279  29.669  27.405  1.00  0.00    -0.352 N 
ATOM     28  C   UNL A   1      34.184  30.521  27.995  1.00  0.00     0.251 C 
ATOM     29  H   UNL A   1      32.399  30.057  27.198  1.00  0.00     0.163 HD
ATOM     30  O   UNL A   1      33.838  31.648  28.338  1.00  0.00    -0.269 OA
BRANCH  28  31
ATOM     31  C   UNL A   1      35.567  30.058  28.245  1.00  0.00     0.039 A 
ATOM     32  C   UNL A   1      36.495  30.095  27.201  1.00  0.00     0.014 A 
ATOM     33  C   UNL A   1      35.949  29.609  29.512  1.00  0.00     0.014 A 
ATOM     34  C   UNL A   1      37.827  29.746  27.444  1.00  0.00     0.010 A 
ATOM     35  C   UNL A   1      37.286  29.319  29.766  1.00  0.00     0.010 A 
ATOM     36  C   UNL A   1      38.239  29.386  28.736  1.00  0.00    -0.014 A 
BRANCH  36  37
ATOM     37  C   UNL A   1      39.653  29.054  29.047  1.00  0.00     0.031 A 
ATOM     38  C   UNL A   1      40.550  30.109  29.633  1.00  0.00     0.074 A 
ATOM     39  C   UNL A   1      40.153  27.846  28.721  1.00  0.00     0.049 A 
ATOM     40  N   UNL A   1      41.843  30.084  29.824  1.00  0.00    -0.248 NA
ATOM     41  C   UNL A   1      39.906  31.371  30.030  1.00  0.00     0.031 C 
ATOM     42  C   UNL A   1      39.391  26.742  28.134  1.00  0.00     0.029 A 
ATOM     43  N   UNL A   1      41.429  27.350  28.822  1.00  0.00    -0.354 N 
ATOM     44  C   UNL A   1      42.173  31.333  30.337  1.00  0.00     0.074 A 
ATOM     45  C   UNL A   1      40.949  32.105  30.386  1.00  0.00     0.031 C 
ATOM     46  C   UNL A   1      40.210  25.696  27.941  1.00  0.00     0.029 A 
ATOM     47  C   UNL A   1      41.563  26.067  28.345  1.00  0.00     0.049 A 
ATOM     48  H   UNL A   1      42.178  27.865  29.199  1.00  0.00     0.167 HD
ATOM     49  C   UNL A   1      43.381  31.792  30.743  1.00  0.00     0.037 A 
ATOM     50  C   UNL A   1      42.655  25.284  28.235  1.00  0.00     0.037 A 
ATOM     51  C   UNL A   1      44.589  31.010  30.715  1.00  0.00     0.049 A 
ATOM     52  C   UNL A   1      43.990  25.817  28.680  1.00  0.00     0.074 A 
ATOM     53  C   UNL A   1      45.859  31.372  31.128  1.00  0.00     0.029 A 
ATOM     54  N   UNL A   1      44.675  29.706  30.252  1.00  0.00    -0.354 N 
ATOM     55  N   UNL A   1      44.283  26.994  29.178  1.00  0.00    -0.248 NA
ATOM     56  C   UNL A   1      45.145  24.917  28.547  1.00  0.00     0.031 C 
ATOM     57  C   UNL A   1      46.719  30.294  30.890  1.00  0.00     0.029 A 
ATOM     58  C   UNL A   1      45.976  29.248  30.366  1.00  0.00     0.049 A 
ATOM     59  H   UNL A   1      43.922  29.182  29.894  1.00  0.00     0.167 HD
ATOM     60  C   UNL A   1      45.645  26.962  29.456  1.00  0.00     0.074 A 
ATOM     61  C   UNL A   1      46.121  25.652  29.062  1.00  0.00     0.031 C 
ATOM     62  C   UNL A   1      46.426  27.928  29.996  1.00  0.00     0.037 A 
BRANCH  49  63
ATOM     63  C   UNL A   1      43.445  33.207  31.246  1.00  0.00     0.058 A 
ATOM     64  C   UNL A   1      43.785  34.274  30.399  1.00  0.00     0.135 A 
ATOM     65  C   UNL A   1      43.176  33.499  32.593  1.00  0.00     0.135 A 
ATOM     66  F   UNL A   1      44.067  34.048  29.106  1.00  0.00    -0.206 F 
ATOM     67  C   UNL A   1      43.906  35.574  30.879  1.00  0.00     0.059 A 
ATOM     68  C   UNL A   1      43.262  34.797  33.088  1.00  0.00     0.059 A 
ATOM     69  F   UNL A   1      42.842  32.518  33.445  1.00  0.00    -0.206 F 
ATOM     70  C   UNL A   1      43.651  35.824  32.229  1.00  0.00     0.060 A 
BRANCH  70  71
ATOM     71  S   UNL A   1      43.848  37.508  32.849  1.00  0.00     0.124 S 
ATOM     72  O   UNL A   1      45.258  37.514  33.225  1.00  0.00    -0.237 OA
ATOM     73  O   UNL A   1      43.498  38.316  31.685  1.00  0.00    -0.237 OA
ATOM     74  O   UNL A   1      42.903  37.572  33.960  1.00  0.00    -0.744 OA
ENDBRANCH  70  71
ENDBRANCH  49  63
BRANCH  50  75
ATOM     75  C   UNL A   1      42.522  23.900  27.711  1.00  0.00     0.058 A 
ATOM     76  C   UNL A   1      42.511  23.660  26.329  1.00  0.00     0.135 A 
ATOM     77  C   UNL A   1      42.432  22.793  28.568  1.00  0.00     0.135 A 
ATOM     78  F   UNL A   1      42.586  24.688  25.469  1.00  0.00    -0.206 F 
ATOM     79  C   UNL A   1      42.408  22.373  25.812  1.00  0.00     0.059 A 
ATOM     80  C   UNL A   1      42.351  21.493  28.075  1.00  0.00     0.059 A 
ATOM     81  F   UNL A   1      42.454  22.968  29.897  1.00  0.00    -0.206 F 
ATOM     82  C   UNL A   1      42.333  21.295  26.695  1.00  0.00     0.060 A 
BRANCH  82  83
ATOM     83  S   UNL A   1      42.262  19.624  26.013  1.00  0.00     0.124 S 
ATOM     84  O   UNL A   1      43.213  19.714  24.912  1.00  0.00    -0.237 OA
ATOM     85  O   UNL A   1      42.678  18.809  27.151  1.00  0.00    -0.237 OA
ATOM     86  O   UNL A   1      40.861  19.478  25.628  1.00  0.00    -0.744 OA
ENDBRANCH  82  83
ENDBRANCH  50  75
BRANCH  62  87
ATOM     87  C   UNL A   1      47.868  27.597  30.259  1.00  0.00     0.058 A 
ATOM     88  C   UNL A   1      48.269  26.899  31.408  1.00  0.00     0.135 A 
ATOM     89  C   UNL A   1      48.846  27.902  29.298  1.00  0.00     0.135 A 
ATOM     90  F   UNL A   1      47.374  26.591  32.359  1.00  0.00    -0.206 F 
ATOM     91  C   UNL A   1      49.594  26.514  31.595  1.00  0.00     0.059 A 
ATOM     92  C   UNL A   1      50.171  27.510  29.456  1.00  0.00     0.059 A 
ATOM     93  F   UNL A   1      48.509  28.564  28.180  1.00  0.00    -0.206 F 
ATOM     94  C   UNL A   1      50.536  26.817  30.609  1.00  0.00     0.060 A 
BRANCH  94  95
ATOM     95  S   UNL A   1      52.235  26.245  30.827  1.00  0.00     0.124 S 
ATOM     96  O   UNL A   1      52.858  27.406  31.454  1.00  0.00    -0.237 OA
ATOM     97  O   UNL A   1      52.065  25.077  31.684  1.00  0.00    -0.237 OA
ATOM     98  O   UNL A   1      52.673  25.956  29.464  1.00  0.00    -0.744 OA
ENDBRANCH  94  95
ENDBRANCH  62  87
ENDBRANCH  36  37
ENDBRANCH  28  31
ENDBRANCH  26  27
ENDBRANCH  25  26
ENDBRANCH   1  25
TORSDOF 18
ENDMDL
MODEL 2
REMARK VINA RESULT:     -11.5      3.172      9.383
REMARK SMILES COc1ccc2c(c1)[C@H]([NH2+][C@@H](C(=O)NCCCCNC(=O)c1ccc(-c3c4nc(c(-c5c(F)cc(S(=O)(=O)[O-])cc5F)c5ccc([nH]5)c(-c5c(F)cc(S(=O)(=O)[O-])cc5F)c5nc(c(-c6c(F)cc(S(=O)(=O)[O-])cc6F)c6ccc3[nH]6)C=C5)C=C4)cc1)C1CC1)CC2
REMARK SMILES IDX 16 1 15 2 14 3 12 4 13 5 11 7 10 8 9 11 3 12 4 13 8 14 5 15
REMARK SMILES IDX 7 16 6 17 92 18 91 19 2 20 1 21 88 22 89 23 90 24 17 25
REMARK SMILES IDX 18 26 19 27 20 28 21 30 22 31 23 32 87 33 24 34 86 35 25 36
REMARK SMILES IDX 26 37 27 38 80 39 28 40 85 41 79 42 81 43 29 44 84 45 78 46
REMARK SMILES IDX 77 47 30 49 64 50 43 51 63 52 44 53 47 54 62 55 82 56 45 57
REMARK SMILES IDX 46 58 61 60 83 61 48 62 31 63 32 64 41 65 33 66 34 67 40 68
REMARK SMILES IDX 42 69 35 70 36 71 37 72 38 73 39 74 65 75 66 76 75 77 67 78
REMARK SMILES IDX 68 79 74 80 76 81 69 82 70 83 71 84 72 85 73 86 49 87 50 88
REMARK SMILES IDX 59 89 51 90 52 91 58 92 60 93 53 94 54 95 55 96 56 97 57 98
REMARK H PARENT 14 6 10 9 10 10 19 29 81 48 47 59
REMARK Flexibility Score: inf
ROOT
ATOM      1  C   UNL A   1      35.011  22.322  25.949  1.00  0.00     0.023 C 
ENDROOT
BRANCH   1   2
ATOM      2  C   UNL A   1      34.634  23.028  27.250  1.00  0.00     0.116 C 
BRANCH   2   3
ATOM      3  N   UNL A   1      33.273  22.741  27.652  1.00  0.00    -0.351 N 
ATOM      4  C   UNL A   1      32.095  23.079  27.047  1.00  0.00     0.278 C 
ATOM      5  O   UNL A   1      31.062  22.697  27.605  1.00  0.00    -0.268 OA
ATOM      6  H   UNL A   1      33.182  22.226  28.486  1.00  0.00     0.163 HD
BRANCH   4   7
ATOM      7  C   UNL A   1      32.086  23.831  25.673  1.00  0.00     0.276 C 
BRANCH   7   8
ATOM      8  N   UNL A   1      31.734  25.248  25.867  1.00  0.00    -0.330 N 
ATOM      9  H   UNL A   1      31.143  25.537  25.088  1.00  0.00     0.347 HD
ATOM     10  H   UNL A   1      31.264  25.305  26.771  1.00  0.00     0.347 HD
BRANCH   8  11
ATOM     11  C   UNL A   1      32.872  26.156  25.937  1.00  0.00     0.214 C 
ATOM     12  C   UNL A   1      33.626  27.046  22.268  1.00  0.00     0.119 A 
ATOM     13  C   UNL A   1      34.093  28.354  22.484  1.00  0.00     0.047 A 
ATOM     14  C   UNL A   1      33.168  26.273  23.339  1.00  0.00     0.056 A 
ATOM     15  C   UNL A   1      34.130  28.892  23.773  1.00  0.00     0.008 A 
ATOM     16  C   UNL A   1      33.205  26.809  24.618  1.00  0.00     0.016 A 
ATOM     17  C   UNL A   1      33.684  28.111  24.825  1.00  0.00    -0.038 A 
ATOM     18  C   UNL A   1      33.660  28.460  26.280  1.00  0.00     0.042 C 
ATOM     19  C   UNL A   1      32.667  27.416  26.809  1.00  0.00     0.075 C 
BRANCH  12  20
ATOM     20  O   UNL A   1      33.540  26.453  21.037  1.00  0.00    -0.497 OA
ATOM     21  C   UNL A   1      32.402  25.617  20.858  1.00  0.00     0.278 C 
ENDBRANCH  12  20
ENDBRANCH   8  11
ENDBRANCH   7   8
BRANCH   7  22
ATOM     22  C   UNL A   1      31.220  23.121  24.642  1.00  0.00     0.057 C 
ATOM     23  C   UNL A   1      30.637  23.859  23.450  1.00  0.00     0.011 C 
ATOM     24  C   UNL A   1      31.621  22.760  23.217  1.00  0.00     0.011 C 
ENDBRANCH   7  22
ENDBRANCH   4   7
ENDBRANCH   2   3
ENDBRANCH   1   2
BRANCH   1  25
ATOM     25  C   UNL A   1      35.578  23.243  24.862  1.00  0.00     0.023 C 
BRANCH  25  26
ATOM     26  C   UNL A   1      36.941  23.858  25.163  1.00  0.00     0.116 C 
BRANCH  26  27
ATOM     27  N   UNL A   1      37.981  22.865  25.386  1.00  0.00    -0.352 N 
ATOM     28  C   UNL A   1      39.162  23.003  26.078  1.00  0.00     0.251 C 
ATOM     29  H   UNL A   1      37.818  21.978  24.990  1.00  0.00     0.163 HD
ATOM     30  O   UNL A   1      39.990  22.095  26.073  1.00  0.00    -0.269 OA
BRANCH  28  31
ATOM     31  C   UNL A   1      39.444  24.264  26.798  1.00  0.00     0.039 A 
ATOM     32  C   UNL A   1      38.955  24.429  28.097  1.00  0.00     0.014 A 
ATOM     33  C   UNL A   1      40.206  25.270  26.199  1.00  0.00     0.014 A 
ATOM     34  C   UNL A   1      39.287  25.576  28.823  1.00  0.00     0.010 A 
ATOM     35  C   UNL A   1      40.585  26.384  26.944  1.00  0.00     0.010 A 
ATOM     36  C   UNL A   1      40.132  26.547  28.263  1.00  0.00    -0.014 A 
BRANCH  36  37
ATOM     37  C   UNL A   1      40.547  27.757  29.017  1.00  0.00     0.031 A 
ATOM     38  C   UNL A   1      41.872  27.768  29.727  1.00  0.00     0.074 A 
ATOM     39  C   UNL A   1      39.705  28.801  29.142  1.00  0.00     0.049 A 
ATOM     40  N   UNL A   1      42.354  28.645  30.570  1.00  0.00    -0.248 NA
ATOM     41  C   UNL A   1      42.762  26.623  29.475  1.00  0.00     0.031 C 
ATOM     42  C   UNL A   1      38.385  28.907  28.515  1.00  0.00     0.029 A 
ATOM     43  N   UNL A   1      39.826  29.968  29.855  1.00  0.00    -0.354 N 
ATOM     44  C   UNL A   1      43.588  28.145  30.970  1.00  0.00     0.074 A 
ATOM     45  C   UNL A   1      43.760  26.869  30.309  1.00  0.00     0.031 C 
ATOM     46  C   UNL A   1      37.828  30.079  28.859  1.00  0.00     0.029 A 
ATOM     47  C   UNL A   1      38.725  30.788  29.766  1.00  0.00     0.049 A 
ATOM     48  H   UNL A   1      40.627  30.196  30.380  1.00  0.00     0.167 HD
ATOM     49  C   UNL A   1      44.501  28.705  31.800  1.00  0.00     0.037 A 
ATOM     50  C   UNL A   1      38.465  31.970  30.359  1.00  0.00     0.037 A 
ATOM     51  C   UNL A   1      44.334  29.986  32.433  1.00  0.00     0.049 A 
ATOM     52  C   UNL A   1      39.487  32.568  31.289  1.00  0.00     0.074 A 
ATOM     53  C   UNL A   1      45.210  30.654  33.270  1.00  0.00     0.029 A 
ATOM     54  N   UNL A   1      43.217  30.797  32.294  1.00  0.00    -0.354 N 
ATOM     55  N   UNL A   1      40.656  32.092  31.644  1.00  0.00    -0.248 NA
ATOM     56  C   UNL A   1      39.155  33.863  31.899  1.00  0.00     0.031 C 
ATOM     57  C   UNL A   1      44.611  31.858  33.658  1.00  0.00     0.029 A 
ATOM     58  C   UNL A   1      43.379  31.957  33.031  1.00  0.00     0.049 A 
ATOM     59  H   UNL A   1      42.424  30.579  31.750  1.00  0.00     0.167 HD
ATOM     60  C   UNL A   1      41.216  33.046  32.485  1.00  0.00     0.074 A 
ATOM     61  C   UNL A   1      40.254  34.124  32.594  1.00  0.00     0.031 C 
ATOM     62  C   UNL A   1      42.422  33.034  33.104  1.00  0.00     0.037 A 
BRANCH  49  63
ATOM     63  C   UNL A   1      45.757  27.922  32.067  1.00  0.00     0.058 A 
ATOM     64  C   UNL A   1      46.925  28.127  31.315  1.00  0.00     0.135 A 
ATOM     65  C   UNL A   1      45.790  26.949  33.078  1.00  0.00     0.135 A 
ATOM     66  F   UNL A   1      46.942  29.035  30.326  1.00  0.00    -0.206 F 
ATOM     67  C   UNL A   1      48.066  27.360  31.522  1.00  0.00     0.059 A 
ATOM     68  C   UNL A   1      46.931  26.190  33.321  1.00  0.00     0.059 A 
ATOM     69  F   UNL A   1      44.704  26.715  33.830  1.00  0.00    -0.206 F 
ATOM     70  C   UNL A   1      48.056  26.386  32.522  1.00  0.00     0.060 A 
BRANCH  70  71
ATOM     71  S   UNL A   1      49.531  25.371  32.755  1.00  0.00     0.124 S 
ATOM     72  O   UNL A   1      49.883  25.053  31.374  1.00  0.00    -0.237 OA
ATOM     73  O   UNL A   1      50.436  26.283  33.446  1.00  0.00    -0.237 OA
ATOM     74  O   UNL A   1      49.046  24.249  33.552  1.00  0.00    -0.744 OA
ENDBRANCH  70  71
ENDBRANCH  49  63
BRANCH  50  75
ATOM     75  C   UNL A   1      37.194  32.681  30.064  1.00  0.00     0.058 A 
ATOM     76  C   UNL A   1      37.139  33.649  29.050  1.00  0.00     0.135 A 
ATOM     77  C   UNL A   1      36.010  32.393  30.759  1.00  0.00     0.135 A 
ATOM     78  F   UNL A   1      38.247  33.964  28.363  1.00  0.00    -0.206 F 
ATOM     79  C   UNL A   1      35.957  34.313  28.740  1.00  0.00     0.059 A 
ATOM     80  C   UNL A   1      34.809  33.029  30.452  1.00  0.00     0.059 A 
ATOM     81  F   UNL A   1      36.007  31.464  31.727  1.00  0.00    -0.206 F 
ATOM     82  C   UNL A   1      34.796  33.993  29.444  1.00  0.00     0.060 A 
BRANCH  82  83
ATOM     83  S   UNL A   1      33.254  34.818  28.991  1.00  0.00     0.124 S 
ATOM     84  O   UNL A   1      33.744  36.075  28.441  1.00  0.00    -0.237 OA
ATOM     85  O   UNL A   1      32.676  33.882  28.031  1.00  0.00    -0.237 OA
ATOM     86  O   UNL A   1      32.541  34.918  30.261  1.00  0.00    -0.744 OA
ENDBRANCH  82  83
ENDBRANCH  50  75
BRANCH  62  87
ATOM     87  C   UNL A   1      42.810  34.243  33.906  1.00  0.00     0.058 A 
ATOM     88  C   UNL A   1      42.523  34.345  35.275  1.00  0.00     0.135 A 
ATOM     89  C   UNL A   1      43.564  35.268  33.312  1.00  0.00     0.135 A 
ATOM     90  F   UNL A   1      41.798  33.395  35.888  1.00  0.00    -0.206 F 
ATOM     91  C   UNL A   1      42.971  35.426  36.030  1.00  0.00     0.059 A 
ATOM     92  C   UNL A   1      44.039  36.346  34.052  1.00  0.00     0.059 A 
ATOM     93  F   UNL A   1      43.869  35.211  32.007  1.00  0.00    -0.206 F 
ATOM     94  C   UNL A   1      43.735  36.417  35.411  1.00  0.00     0.060 A 
BRANCH  94  95
ATOM     95  S   UNL A   1      44.376  37.774  36.416  1.00  0.00     0.124 S 
ATOM     96  O   UNL A   1      43.598  37.626  37.641  1.00  0.00    -0.237 OA
ATOM     97  O   UNL A   1      45.794  37.444  36.521  1.00  0.00    -0.237 OA
ATOM     98  O   UNL A   1      44.073  38.959  35.618  1.00  0.00    -0.744 OA
ENDBRANCH  94  95
ENDBRANCH  62  87
ENDBRANCH  36  37
ENDBRANCH  28  31
ENDBRANCH  26  27
ENDBRANCH  25  26
ENDBRANCH   1  25
TORSDOF 18
ENDMDL
MODEL 3
REMARK VINA RESULT:     -11.3      2.514      3.772
REMARK SMILES COc1ccc2c(c1)[C@H]([NH2+][C@@H](C(=O)NCCCCNC(=O)c1ccc(-c3c4nc(c(-c5c(F)cc(S(=O)(=O)[O-])cc5F)c5ccc([nH]5)c(-c5c(F)cc(S(=O)(=O)[O-])cc5F)c5nc(c(-c6c(F)cc(S(=O)(=O)[O-])cc6F)c6ccc3[nH]6)C=C5)C=C4)cc1)C1CC1)CC2
REMARK SMILES IDX 16 1 15 2 14 3 12 4 13 5 11 7 10 8 9 11 3 12 4 13 8 14 5 15
REMARK SMILES IDX 7 16 6 17 92 18 91 19 2 20 1 21 88 22 89 23 90 24 17 25
REMARK SMILES IDX 18 26 19 27 20 28 21 30 22 31 23 32 87 33 24 34 86 35 25 36
REMARK SMILES IDX 26 37 27 38 80 39 28 40 85 41 79 42 81 43 29 44 84 45 78 46
REMARK SMILES IDX 77 47 30 49 64 50 43 51 63 52 44 53 47 54 62 55 82 56 45 57
REMARK SMILES IDX 46 58 61 60 83 61 48 62 31 63 32 64 41 65 33 66 34 67 40 68
REMARK SMILES IDX 42 69 35 70 36 71 37 72 38 73 39 74 65 75 66 76 75 77 67 78
REMARK SMILES IDX 68 79 74 80 76 81 69 82 70 83 71 84 72 85 73 86 49 87 50 88
REMARK SMILES IDX 59 89 51 90 52 91 58 92 60 93 53 94 54 95 55 96 56 97 57 98
REMARK H PARENT 14 6 10 9 10 10 19 29 81 48 47 59
REMARK Flexibility Score: inf
ROOT
ATOM      1  C   UNL A   1      31.735  28.928  26.615  1.00  0.00     0.023 C 
ENDROOT
BRANCH   1   2
ATOM      2  C   UNL A   1      31.558  29.948  25.491  1.00  0.00     0.116 C 
BRANCH   2   3
ATOM      3  N   UNL A   1      32.386  29.644  24.343  1.00  0.00    -0.351 N 
ATOM      4  C   UNL A   1      32.108  28.879  23.245  1.00  0.00     0.278 C 
ATOM      5  O   UNL A   1      33.002  28.790  22.397  1.00  0.00    -0.268 OA
ATOM      6  H   UNL A   1      33.283  30.050  24.354  1.00  0.00     0.163 HD
BRANCH   4   7
ATOM      7  C   UNL A   1      30.693  28.236  23.053  1.00  0.00     0.276 C 
BRANCH   7   8
ATOM      8  N   UNL A   1      30.823  26.842  22.594  1.00  0.00    -0.330 N 
ATOM      9  H   UNL A   1      30.235  26.725  21.768  1.00  0.00     0.347 HD
ATOM     10  H   UNL A   1      31.814  26.693  22.406  1.00  0.00     0.347 HD
BRANCH   8  11
ATOM     11  C   UNL A   1      30.433  25.838  23.576  1.00  0.00     0.214 C 
ATOM     12  C   UNL A   1      33.759  24.327  24.788  1.00  0.00     0.119 A 
ATOM     13  C   UNL A   1      33.368  24.043  26.107  1.00  0.00     0.047 A 
ATOM     14  C   UNL A   1      32.874  24.952  23.906  1.00  0.00     0.056 A 
ATOM     15  C   UNL A   1      32.080  24.357  26.550  1.00  0.00     0.008 A 
ATOM     16  C   UNL A   1      31.596  25.264  24.347  1.00  0.00     0.016 A 
ATOM     17  C   UNL A   1      31.210  24.967  25.663  1.00  0.00    -0.038 A 
ATOM     18  C   UNL A   1      29.786  25.363  25.901  1.00  0.00     0.042 C 
ATOM     19  C   UNL A   1      29.569  26.354  24.749  1.00  0.00     0.075 C 
BRANCH  12  20
ATOM     20  O   UNL A   1      35.005  24.068  24.283  1.00  0.00    -0.497 OA
ATOM     21  C   UNL A   1      36.041  24.002  25.258  1.00  0.00     0.278 C 
ENDBRANCH  12  20
ENDBRANCH   8  11
ENDBRANCH   7   8
BRANCH   7  22
ATOM     22  C   UNL A   1      29.795  29.090  22.169  1.00  0.00     0.057 C 
ATOM     23  C   UNL A   1      28.311  29.237  22.448  1.00  0.00     0.011 C 
ATOM     24  C   UNL A   1      29.190  30.441  22.530  1.00  0.00     0.011 C 
ENDBRANCH   7  22
ENDBRANCH   4   7
ENDBRANCH   2   3
ENDBRANCH   1   2
BRANCH   1  25
ATOM     25  C   UNL A   1      32.966  28.025  26.473  1.00  0.00     0.023 C 
BRANCH  25  26
ATOM     26  C   UNL A   1      34.242  28.543  27.128  1.00  0.00     0.116 C 
BRANCH  26  27
ATOM     27  N   UNL A   1      34.081  29.852  27.742  1.00  0.00    -0.352 N 
ATOM     28  C   UNL A   1      34.996  30.573  28.475  1.00  0.00     0.251 C 
ATOM     29  H   UNL A   1      33.202  30.278  27.617  1.00  0.00     0.163 HD
ATOM     30  O   UNL A   1      34.660  31.618  29.025  1.00  0.00    -0.269 OA
BRANCH  28  31
ATOM     31  C   UNL A   1      36.376  30.062  28.625  1.00  0.00     0.039 A 
ATOM     32  C   UNL A   1      37.248  30.130  27.534  1.00  0.00     0.014 A 
ATOM     33  C   UNL A   1      36.813  29.539  29.844  1.00  0.00     0.014 A 
ATOM     34  C   UNL A   1      38.580  29.734  27.685  1.00  0.00     0.010 A 
ATOM     35  C   UNL A   1      38.153  29.202  30.010  1.00  0.00     0.010 A 
ATOM     36  C   UNL A   1      39.051  29.298  28.934  1.00  0.00    -0.014 A 
BRANCH  36  37
ATOM     37  C   UNL A   1      40.469  28.914  29.148  1.00  0.00     0.031 A 
ATOM     38  C   UNL A   1      41.438  29.931  29.685  1.00  0.00     0.074 A 
ATOM     39  C   UNL A   1      40.905  27.694  28.780  1.00  0.00     0.049 A 
ATOM     40  N   UNL A   1      42.740  29.860  29.791  1.00  0.00    -0.248 NA
ATOM     41  C   UNL A   1      40.866  31.210  30.134  1.00  0.00     0.031 C 
ATOM     42  C   UNL A   1      40.068  26.623  28.234  1.00  0.00     0.029 A 
ATOM     43  N   UNL A   1      42.166  27.153  28.793  1.00  0.00    -0.354 N 
ATOM     44  C   UNL A   1      43.145  31.091  30.293  1.00  0.00     0.074 A 
ATOM     45  C   UNL A   1      41.954  31.904  30.429  1.00  0.00     0.031 C 
ATOM     46  C   UNL A   1      40.836  25.552  27.978  1.00  0.00     0.029 A 
ATOM     47  C   UNL A   1      42.224  25.871  28.298  1.00  0.00     0.049 A 
ATOM     48  H   UNL A   1      42.956  27.638  29.126  1.00  0.00     0.167 HD
ATOM     49  C   UNL A   1      44.392  31.503  30.623  1.00  0.00     0.037 A 
ATOM     50  C   UNL A   1      43.279  25.053  28.110  1.00  0.00     0.037 A 
ATOM     51  C   UNL A   1      45.568  30.682  30.510  1.00  0.00     0.049 A 
ATOM     52  C   UNL A   1      44.658  25.535  28.472  1.00  0.00     0.074 A 
ATOM     53  C   UNL A   1      46.874  30.995  30.843  1.00  0.00     0.029 A 
ATOM     54  N   UNL A   1      45.578  29.380  30.030  1.00  0.00    -0.354 N 
ATOM     55  N   UNL A   1      45.024  26.696  28.960  1.00  0.00    -0.248 NA
ATOM     56  C   UNL A   1      45.769  24.597  28.256  1.00  0.00     0.031 C 
ATOM     57  C   UNL A   1      47.678  29.891  30.540  1.00  0.00     0.029 A 
ATOM     58  C   UNL A   1      46.867  28.877  30.056  1.00  0.00     0.049 A 
ATOM     59  H   UNL A   1      44.786  28.886  29.718  1.00  0.00     0.167 HD
ATOM     60  C   UNL A   1      46.398  26.614  29.149  1.00  0.00     0.074 A 
ATOM     61  C   UNL A   1      46.802  25.293  28.713  1.00  0.00     0.031 C 
ATOM     62  C   UNL A   1      47.246  27.547  29.646  1.00  0.00     0.037 A 
BRANCH  49  63
ATOM     63  C   UNL A   1      44.538  32.910  31.134  1.00  0.00     0.058 A 
ATOM     64  C   UNL A   1      44.789  33.985  30.267  1.00  0.00     0.135 A 
ATOM     65  C   UNL A   1      44.438  33.185  32.507  1.00  0.00     0.135 A 
ATOM     66  F   UNL A   1      44.910  33.775  28.946  1.00  0.00    -0.206 F 
ATOM     67  C   UNL A   1      44.987  35.276  30.746  1.00  0.00     0.059 A 
ATOM     68  C   UNL A   1      44.603  34.475  33.006  1.00  0.00     0.059 A 
ATOM     69  F   UNL A   1      44.195  32.196  33.381  1.00  0.00    -0.206 F 
ATOM     70  C   UNL A   1      44.901  35.509  32.120  1.00  0.00     0.060 A 
BRANCH  70  71
ATOM     71  S   UNL A   1      45.196  37.180  32.734  1.00  0.00     0.124 S 
ATOM     72  O   UNL A   1      43.892  37.800  32.522  1.00  0.00    -0.237 OA
ATOM     73  O   UNL A   1      45.568  36.945  34.126  1.00  0.00    -0.237 OA
ATOM     74  O   UNL A   1      46.270  37.671  31.876  1.00  0.00    -0.744 OA
ENDBRANCH  70  71
ENDBRANCH  49  63
BRANCH  50  75
ATOM     75  C   UNL A   1      43.064  23.680  27.583  1.00  0.00     0.058 A 
ATOM     76  C   UNL A   1      42.716  22.632  28.447  1.00  0.00     0.135 A 
ATOM     77  C   UNL A   1      43.172  23.391  26.214  1.00  0.00     0.135 A 
ATOM     78  F   UNL A   1      42.608  22.858  29.766  1.00  0.00    -0.206 F 
ATOM     79  C   UNL A   1      42.489  21.343  27.977  1.00  0.00     0.059 A 
ATOM     80  C   UNL A   1      42.928  22.114  25.716  1.00  0.00     0.059 A 
ATOM     81  F   UNL A   1      43.488  24.363  25.344  1.00  0.00    -0.206 F 
ATOM     82  C   UNL A   1      42.594  21.095  26.608  1.00  0.00     0.060 A 
BRANCH  82  83
ATOM     83  S   UNL A   1      42.237  19.432  26.001  1.00  0.00     0.124 S 
ATOM     84  O   UNL A   1      40.796  19.498  25.790  1.00  0.00    -0.237 OA
ATOM     85  O   UNL A   1      43.057  19.362  24.795  1.00  0.00    -0.237 OA
ATOM     86  O   UNL A   1      42.677  18.573  27.097  1.00  0.00    -0.744 OA
ENDBRANCH  82  83
ENDBRANCH  50  75
BRANCH  62  87
ATOM     87  C   UNL A   1      48.690  27.164  29.811  1.00  0.00     0.058 A 
ATOM     88  C   UNL A   1      49.652  27.468  28.837  1.00  0.00     0.135 A 
ATOM     89  C   UNL A   1      49.126  26.568  31.007  1.00  0.00     0.135 A 
ATOM     90  F   UNL A   1      49.285  28.030  27.675  1.00  0.00    -0.206 F 
ATOM     91  C   UNL A   1      51.002  27.195  29.043  1.00  0.00     0.059 A 
ATOM     92  C   UNL A   1      50.472  26.305  31.240  1.00  0.00     0.059 A 
ATOM     93  F   UNL A   1      48.243  26.264  31.970  1.00  0.00    -0.206 F 
ATOM     94  C   UNL A   1      51.402  26.620  30.252  1.00  0.00     0.060 A 
BRANCH  94  95
ATOM     95  S   UNL A   1      53.164  26.341  30.538  1.00  0.00     0.124 S 
ATOM     96  O   UNL A   1      53.626  25.983  29.201  1.00  0.00    -0.237 OA
ATOM     97  O   UNL A   1      53.609  27.638  31.037  1.00  0.00    -0.237 OA
ATOM     98  O   UNL A   1      53.180  25.260  31.520  1.00  0.00    -0.744 OA
ENDBRANCH  94  95
ENDBRANCH  62  87
ENDBRANCH  36  37
ENDBRANCH  28  31
ENDBRANCH  26  27
ENDBRANCH  25  26
ENDBRANCH   1  25
TORSDOF 18
ENDMDL
