MODEL 1
REMARK VINA RESULT:     -11.9      0.000      0.000
REMARK SMILES CC[C@@](C)([NH2+]CC(=O)N[C@@H](C)c1ccc(F)cc1)C(=O)NCCCCNC(=O)c1ccc(-c2c3nc(c(-c4c(F)cc(S(=O)(=O)[O-])cc4F)c4ccc([nH]4)c(-c4c(F)cc(S(=O)(=O)[O-])cc4F)c4nc(c(-c5c(F)cc(S(=O)(=O)[O-])cc5F)c5ccc2[nH]5)C=C4)C=C3)cc1
REMARK SMILES IDX 22 1 21 2 19 3 20 4 3 6 4 7 2 8 1 9 5 10 6 13 7 14 8 15 9 16
REMARK SMILES IDX 10 18 11 19 12 20 13 21 18 22 14 23 17 24 15 25 16 26 23 27
REMARK SMILES IDX 24 28 25 29 26 30 27 31 28 33 29 34 30 35 94 36 31 37 93 38
REMARK SMILES IDX 32 39 33 40 34 41 87 42 35 43 92 44 86 45 88 46 36 47 91 48
REMARK SMILES IDX 85 49 84 50 37 52 71 53 50 54 70 55 51 56 54 57 69 58 89 59
REMARK SMILES IDX 52 60 53 61 68 63 90 64 55 65 38 66 39 67 48 68 40 69 41 70
REMARK SMILES IDX 47 71 49 72 42 73 43 74 44 75 45 76 46 77 72 78 73 79 82 80
REMARK SMILES IDX 74 81 75 82 81 83 83 84 76 85 77 86 78 87 79 88 80 89 56 90
REMARK SMILES IDX 57 91 66 92 58 93 59 94 65 95 67 96 60 97 61 98 62 99 63 100
REMARK SMILES IDX 64 101
REMARK H PARENT 21 5 5 11 5 12 9 17 26 32 88 51 54 62
REMARK Flexibility Score: inf
ROOT
ATOM      1  C   UNL A   1      37.874  22.425  25.576  1.00  0.00     0.116 C 
ENDROOT
BRANCH   1   2
ATOM      2  N   UNL A   1      36.573  22.235  26.228  1.00  0.00    -0.351 N 
ATOM      3  C   UNL A   1      35.432  21.938  25.497  1.00  0.00     0.281 C 
ATOM      4  O   UNL A   1      35.313  20.807  25.022  1.00  0.00    -0.268 OA
ATOM      5  H   UNL A   1      36.508  22.319  27.207  1.00  0.00     0.163 HD
BRANCH   3   6
ATOM      6  C   UNL A   1      34.239  22.990  25.462  1.00  0.00     0.172 C 
ATOM      7  C   UNL A   1      34.541  24.494  25.339  1.00  0.00     0.090 C 
BRANCH   6   8
ATOM      8  C   UNL A   1      33.477  22.633  24.135  1.00  0.00     0.075 C 
ATOM      9  C   UNL A   1      33.567  23.738  23.056  1.00  0.00     0.011 C 
ENDBRANCH   6   8
BRANCH   6  10
ATOM     10  N   UNL A   1      33.374  22.873  26.649  1.00  0.00    -0.326 N 
ATOM     11  H   UNL A   1      33.437  23.759  27.150  1.00  0.00     0.347 HD
ATOM     12  H   UNL A   1      33.733  22.043  27.123  1.00  0.00     0.347 HD
BRANCH  10  13
ATOM     13  C   UNL A   1      31.932  22.576  26.482  1.00  0.00     0.362 C 
BRANCH  13  14
ATOM     14  C   UNL A   1      30.779  23.573  26.771  1.00  0.00     0.275 C 
ATOM     15  O   UNL A   1      29.856  23.179  27.504  1.00  0.00    -0.268 OA
ATOM     16  N   UNL A   1      30.712  24.909  26.477  1.00  0.00    -0.345 N 
ATOM     17  H   UNL A   1      30.264  25.420  27.190  1.00  0.00     0.164 HD
BRANCH  16  18
ATOM     18  C   UNL A   1      31.139  25.773  25.365  1.00  0.00     0.109 C 
ATOM     19  C   UNL A   1      30.184  25.636  24.163  1.00  0.00     0.036 C 
BRANCH  18  20
ATOM     20  C   UNL A   1      31.255  27.254  25.689  1.00  0.00    -0.026 A 
ATOM     21  C   UNL A   1      31.643  27.658  26.985  1.00  0.00     0.009 A 
ATOM     22  C   UNL A   1      31.134  28.239  24.700  1.00  0.00     0.009 A 
ATOM     23  C   UNL A   1      31.872  28.999  27.292  1.00  0.00     0.039 A 
ATOM     24  C   UNL A   1      31.390  29.580  25.000  1.00  0.00     0.039 A 
ATOM     25  C   UNL A   1      31.751  29.948  26.292  1.00  0.00     0.123 A 
ATOM     26  F   UNL A   1      32.003  31.233  26.569  1.00  0.00    -0.207 F 
ENDBRANCH  18  20
ENDBRANCH  16  18
ENDBRANCH  13  14
ENDBRANCH  10  13
ENDBRANCH   6  10
ENDBRANCH   3   6
ENDBRANCH   1   2
BRANCH   1  27
ATOM     27  C   UNL A   1      38.896  21.338  25.943  1.00  0.00     0.023 C 
BRANCH  27  28
ATOM     28  C   UNL A   1      40.037  21.846  26.822  1.00  0.00     0.023 C 
BRANCH  28  29
ATOM     29  C   UNL A   1      40.041  23.348  27.084  1.00  0.00     0.116 C 
BRANCH  29  30
ATOM     30  N   UNL A   1      40.679  24.131  26.032  1.00  0.00    -0.352 N 
ATOM     31  C   UNL A   1      41.186  25.410  26.109  1.00  0.00     0.251 C 
ATOM     32  H   UNL A   1      40.757  23.689  25.156  1.00  0.00     0.163 HD
ATOM     33  O   UNL A   1      41.636  25.969  25.109  1.00  0.00    -0.269 OA
BRANCH  31  34
ATOM     34  C   UNL A   1      41.139  26.128  27.402  1.00  0.00     0.039 A 
ATOM     35  C   UNL A   1      42.209  26.949  27.764  1.00  0.00     0.014 A 
ATOM     36  C   UNL A   1      39.996  26.060  28.205  1.00  0.00     0.014 A 
ATOM     37  C   UNL A   1      42.090  27.783  28.880  1.00  0.00     0.010 A 
ATOM     38  C   UNL A   1      39.849  26.949  29.265  1.00  0.00     0.010 A 
ATOM     39  C   UNL A   1      40.888  27.831  29.607  1.00  0.00    -0.014 A 
BRANCH  39  40
ATOM     40  C   UNL A   1      40.692  28.802  30.715  1.00  0.00     0.031 A 
ATOM     41  C   UNL A   1      41.538  28.712  31.955  1.00  0.00     0.074 A 
ATOM     42  C   UNL A   1      39.709  29.723  30.637  1.00  0.00     0.049 A 
ATOM     43  N   UNL A   1      41.466  29.413  33.058  1.00  0.00    -0.248 NA
ATOM     44  C   UNL A   1      42.586  27.678  31.970  1.00  0.00     0.031 C 
ATOM     45  C   UNL A   1      38.785  29.882  29.511  1.00  0.00     0.029 A 
ATOM     46  N   UNL A   1      39.317  30.697  31.522  1.00  0.00    -0.354 N 
ATOM     47  C   UNL A   1      42.446  28.900  33.897  1.00  0.00     0.074 A 
ATOM     48  C   UNL A   1      43.060  27.789  33.203  1.00  0.00     0.031 C 
ATOM     49  C   UNL A   1      37.960  30.912  29.759  1.00  0.00     0.029 A 
ATOM     50  C   UNL A   1      38.265  31.464  31.076  1.00  0.00     0.049 A 
ATOM     51  H   UNL A   1      39.749  30.835  32.397  1.00  0.00     0.167 HD
ATOM     52  C   UNL A   1      42.824  29.332  35.123  1.00  0.00     0.037 A 
ATOM     53  C   UNL A   1      37.619  32.493  31.658  1.00  0.00     0.037 A 
ATOM     54  C   UNL A   1      42.234  30.458  35.798  1.00  0.00     0.049 A 
ATOM     55  C   UNL A   1      38.056  32.960  33.019  1.00  0.00     0.074 A 
ATOM     56  C   UNL A   1      42.578  31.003  37.022  1.00  0.00     0.029 A 
ATOM     57  N   UNL A   1      41.181  31.215  35.305  1.00  0.00    -0.354 N 
ATOM     58  N   UNL A   1      39.015  32.488  33.781  1.00  0.00    -0.248 NA
ATOM     59  C   UNL A   1      37.329  34.096  33.602  1.00  0.00     0.031 C 
ATOM     60  C   UNL A   1      41.713  32.068  37.286  1.00  0.00     0.029 A 
ATOM     61  C   UNL A   1      40.855  32.214  36.206  1.00  0.00     0.049 A 
ATOM     62  H   UNL A   1      40.731  31.063  34.443  1.00  0.00     0.167 HD
ATOM     63  C   UNL A   1      39.019  33.281  34.923  1.00  0.00     0.074 A 
ATOM     64  C   UNL A   1      37.974  34.270  34.748  1.00  0.00     0.031 C 
ATOM     65  C   UNL A   1      39.816  33.195  36.016  1.00  0.00     0.037 A 
BRANCH  52  66
ATOM     66  C   UNL A   1      43.947  28.600  35.804  1.00  0.00     0.058 A 
ATOM     67  C   UNL A   1      43.686  27.515  36.654  1.00  0.00     0.135 A 
ATOM     68  C   UNL A   1      45.284  29.000  35.642  1.00  0.00     0.135 A 
ATOM     69  F   UNL A   1      42.427  27.086  36.838  1.00  0.00    -0.206 F 
ATOM     70  C   UNL A   1      44.711  26.855  37.326  1.00  0.00     0.059 A 
ATOM     71  C   UNL A   1      46.327  28.338  36.284  1.00  0.00     0.059 A 
ATOM     72  F   UNL A   1      45.591  30.019  34.824  1.00  0.00    -0.206 F 
ATOM     73  C   UNL A   1      46.028  27.274  37.133  1.00  0.00     0.060 A 
BRANCH  73  74
ATOM     74  S   UNL A   1      47.352  26.380  37.975  1.00  0.00     0.124 S 
ATOM     75  O   UNL A   1      48.371  26.303  36.934  1.00  0.00    -0.237 OA
ATOM     76  O   UNL A   1      47.653  27.263  39.099  1.00  0.00    -0.237 OA
ATOM     77  O   UNL A   1      46.724  25.112  38.338  1.00  0.00    -0.744 OA
ENDBRANCH  73  74
ENDBRANCH  52  66
BRANCH  53  78
ATOM     78  C   UNL A   1      36.516  33.177  30.930  1.00  0.00     0.058 A 
ATOM     79  C   UNL A   1      36.775  34.054  29.866  1.00  0.00     0.135 A 
ATOM     80  C   UNL A   1      35.180  33.000  31.321  1.00  0.00     0.135 A 
ATOM     81  F   UNL A   1      38.035  34.266  29.457  1.00  0.00    -0.206 F 
ATOM     82  C   UNL A   1      35.751  34.754  29.234  1.00  0.00     0.059 A 
ATOM     83  C   UNL A   1      34.136  33.671  30.690  1.00  0.00     0.059 A 
ATOM     84  F   UNL A   1      34.883  32.160  32.324  1.00  0.00    -0.206 F 
ATOM     85  C   UNL A   1      34.436  34.561  29.660  1.00  0.00     0.060 A 
BRANCH  85  86
ATOM     86  S   UNL A   1      33.126  35.505  28.850  1.00  0.00     0.124 S 
ATOM     87  O   UNL A   1      32.442  34.462  28.092  1.00  0.00    -0.237 OA
ATOM     88  O   UNL A   1      32.391  36.048  29.987  1.00  0.00    -0.237 OA
ATOM     89  O   UNL A   1      33.856  36.484  28.052  1.00  0.00    -0.744 OA
ENDBRANCH  85  86
ENDBRANCH  53  78
BRANCH  65  90
ATOM     90  C   UNL A   1      39.610  34.202  37.113  1.00  0.00     0.058 A 
ATOM     91  C   UNL A   1      40.219  35.465  37.042  1.00  0.00     0.135 A 
ATOM     92  C   UNL A   1      38.890  33.884  38.275  1.00  0.00     0.135 A 
ATOM     93  F   UNL A   1      40.923  35.817  35.954  1.00  0.00    -0.206 F 
ATOM     94  C   UNL A   1      40.143  36.369  38.096  1.00  0.00     0.059 A 
ATOM     95  C   UNL A   1      38.780  34.782  39.332  1.00  0.00     0.059 A 
ATOM     96  F   UNL A   1      38.280  32.693  38.386  1.00  0.00    -0.206 F 
ATOM     97  C   UNL A   1      39.426  36.015  39.241  1.00  0.00     0.060 A 
BRANCH  97  98
ATOM     98  S   UNL A   1      39.340  37.199  40.600  1.00  0.00     0.124 S 
ATOM     99  O   UNL A   1      40.714  37.686  40.661  1.00  0.00    -0.237 OA
ATOM    100  O   UNL A   1      38.348  38.154  40.117  1.00  0.00    -0.237 OA
ATOM    101  O   UNL A   1      38.912  36.382  41.733  1.00  0.00    -0.744 OA
ENDBRANCH  97  98
ENDBRANCH  65  90
ENDBRANCH  39  40
ENDBRANCH  31  34
ENDBRANCH  29  30
ENDBRANCH  28  29
ENDBRANCH  27  28
ENDBRANCH   1  27
TORSDOF 20
ENDMDL
MODEL 2
REMARK VINA RESULT:     -11.4      6.794     12.292
REMARK SMILES CC[C@@](C)([NH2+]CC(=O)N[C@@H](C)c1ccc(F)cc1)C(=O)NCCCCNC(=O)c1ccc(-c2c3nc(c(-c4c(F)cc(S(=O)(=O)[O-])cc4F)c4ccc([nH]4)c(-c4c(F)cc(S(=O)(=O)[O-])cc4F)c4nc(c(-c5c(F)cc(S(=O)(=O)[O-])cc5F)c5ccc2[nH]5)C=C4)C=C3)cc1
REMARK SMILES IDX 22 1 21 2 19 3 20 4 3 6 4 7 2 8 1 9 5 10 6 13 7 14 8 15 9 16
REMARK SMILES IDX 10 18 11 19 12 20 13 21 18 22 14 23 17 24 15 25 16 26 23 27
REMARK SMILES IDX 24 28 25 29 26 30 27 31 28 33 29 34 30 35 94 36 31 37 93 38
REMARK SMILES IDX 32 39 33 40 34 41 87 42 35 43 92 44 86 45 88 46 36 47 91 48
REMARK SMILES IDX 85 49 84 50 37 52 71 53 50 54 70 55 51 56 54 57 69 58 89 59
REMARK SMILES IDX 52 60 53 61 68 63 90 64 55 65 38 66 39 67 48 68 40 69 41 70
REMARK SMILES IDX 47 71 49 72 42 73 43 74 44 75 45 76 46 77 72 78 73 79 82 80
REMARK SMILES IDX 74 81 75 82 81 83 83 84 76 85 77 86 78 87 79 88 80 89 56 90
REMARK SMILES IDX 57 91 66 92 58 93 59 94 65 95 67 96 60 97 61 98 62 99 63 100
REMARK SMILES IDX 64 101
REMARK H PARENT 21 5 5 11 5 12 9 17 26 32 88 51 54 62
REMARK Flexibility Score: inf
ROOT
ATOM      1  C   UNL A   1      33.685  28.591  24.802  1.00  0.00     0.116 C 
ENDROOT
BRANCH   1   2
ATOM      2  N   UNL A   1      32.270  28.984  24.824  1.00  0.00    -0.351 N 
ATOM      3  C   UNL A   1      31.256  28.047  24.681  1.00  0.00     0.281 C 
ATOM      4  O   UNL A   1      31.018  27.287  25.621  1.00  0.00    -0.268 OA
ATOM      5  H   UNL A   1      32.035  29.932  24.945  1.00  0.00     0.163 HD
BRANCH   3   6
ATOM      6  C   UNL A   1      30.315  28.115  23.399  1.00  0.00     0.172 C 
ATOM      7  C   UNL A   1      28.945  27.414  23.412  1.00  0.00     0.090 C 
BRANCH   6   8
ATOM      8  C   UNL A   1      29.972  29.644  23.281  1.00  0.00     0.075 C 
ATOM      9  C   UNL A   1      28.677  29.926  22.481  1.00  0.00     0.011 C 
ENDBRANCH   6   8
BRANCH   6  10
ATOM     10  N   UNL A   1      30.994  27.602  22.197  1.00  0.00    -0.326 N 
ATOM     11  H   UNL A   1      31.391  28.409  21.715  1.00  0.00     0.347 HD
ATOM     12  H   UNL A   1      30.259  27.086  21.712  1.00  0.00     0.347 HD
BRANCH  10  13
ATOM     13  C   UNL A   1      32.081  26.606  22.335  1.00  0.00     0.362 C 
BRANCH  13  14
ATOM     14  C   UNL A   1      31.937  25.220  23.015  1.00  0.00     0.275 C 
ATOM     15  O   UNL A   1      30.912  24.563  22.759  1.00  0.00    -0.268 OA
ATOM     16  N   UNL A   1      32.869  24.519  23.732  1.00  0.00    -0.345 N 
ATOM     17  H   UNL A   1      32.815  23.552  23.559  1.00  0.00     0.164 HD
BRANCH  16  18
ATOM     18  C   UNL A   1      33.930  24.848  24.697  1.00  0.00     0.109 C 
ATOM     19  C   UNL A   1      33.381  24.862  26.137  1.00  0.00     0.036 C 
BRANCH  18  20
ATOM     20  C   UNL A   1      35.143  23.930  24.681  1.00  0.00    -0.026 A 
ATOM     21  C   UNL A   1      35.658  23.429  25.897  1.00  0.00     0.009 A 
ATOM     22  C   UNL A   1      35.683  23.440  23.485  1.00  0.00     0.009 A 
ATOM     23  C   UNL A   1      36.695  22.498  25.920  1.00  0.00     0.039 A 
ATOM     24  C   UNL A   1      36.704  22.486  23.507  1.00  0.00     0.039 A 
ATOM     25  C   UNL A   1      37.203  22.027  24.722  1.00  0.00     0.123 A 
ATOM     26  F   UNL A   1      38.174  21.106  24.734  1.00  0.00    -0.207 F 
ENDBRANCH  18  20
ENDBRANCH  16  18
ENDBRANCH  13  14
ENDBRANCH  10  13
ENDBRANCH   6  10
ENDBRANCH   3   6
ENDBRANCH   1   2
BRANCH   1  27
ATOM     27  C   UNL A   1      34.275  28.389  26.206  1.00  0.00     0.023 C 
BRANCH  27  28
ATOM     28  C   UNL A   1      34.322  29.668  27.038  1.00  0.00     0.023 C 
BRANCH  28  29
ATOM     29  C   UNL A   1      35.619  29.901  27.806  1.00  0.00     0.116 C 
BRANCH  29  30
ATOM     30  N   UNL A   1      35.449  29.954  29.254  1.00  0.00    -0.352 N 
ATOM     31  C   UNL A   1      36.422  29.905  30.229  1.00  0.00     0.251 C 
ATOM     32  H   UNL A   1      34.522  30.035  29.574  1.00  0.00     0.163 HD
ATOM     33  O   UNL A   1      36.116  29.890  31.420  1.00  0.00    -0.269 OA
BRANCH  31  34
ATOM     34  C   UNL A   1      37.843  29.819  29.826  1.00  0.00     0.039 A 
ATOM     35  C   UNL A   1      38.815  29.596  30.804  1.00  0.00     0.014 A 
ATOM     36  C   UNL A   1      38.197  29.865  28.475  1.00  0.00     0.014 A 
ATOM     37  C   UNL A   1      40.128  29.314  30.418  1.00  0.00     0.010 A 
ATOM     38  C   UNL A   1      39.485  29.504  28.091  1.00  0.00     0.010 A 
ATOM     39  C   UNL A   1      40.462  29.211  29.056  1.00  0.00    -0.014 A 
BRANCH  39  40
ATOM     40  C   UNL A   1      41.819  28.785  28.622  1.00  0.00     0.031 A 
ATOM     41  C   UNL A   1      42.936  29.790  28.548  1.00  0.00     0.074 A 
ATOM     42  C   UNL A   1      42.032  27.512  28.230  1.00  0.00     0.049 A 
ATOM     43  N   UNL A   1      44.163  29.631  28.120  1.00  0.00    -0.248 NA
ATOM     44  C   UNL A   1      42.627  31.160  28.986  1.00  0.00     0.031 C 
ATOM     45  C   UNL A   1      41.019  26.453  28.204  1.00  0.00     0.029 A 
ATOM     46  N   UNL A   1      43.167  26.890  27.771  1.00  0.00    -0.354 N 
ATOM     47  C   UNL A   1      44.764  30.878  28.226  1.00  0.00     0.074 A 
ATOM     48  C   UNL A   1      43.754  31.797  28.701  1.00  0.00     0.031 C 
ATOM     49  C   UNL A   1      41.586  25.310  27.789  1.00  0.00     0.029 A 
ATOM     50  C   UNL A   1      42.991  25.557  27.478  1.00  0.00     0.049 A 
ATOM     51  H   UNL A   1      44.028  27.355  27.661  1.00  0.00     0.167 HD
ATOM     52  C   UNL A   1      46.051  31.222  27.981  1.00  0.00     0.037 A 
ATOM     53  C   UNL A   1      43.860  24.638  27.013  1.00  0.00     0.037 A 
ATOM     54  C   UNL A   1      47.062  30.299  27.540  1.00  0.00     0.049 A 
ATOM     55  C   UNL A   1      45.285  25.040  26.749  1.00  0.00     0.074 A 
ATOM     56  C   UNL A   1      48.404  30.542  27.308  1.00  0.00     0.029 A 
ATOM     57  N   UNL A   1      46.846  28.956  27.268  1.00  0.00    -0.354 N 
ATOM     58  N   UNL A   1      45.847  26.217  26.896  1.00  0.00    -0.248 NA
ATOM     59  C   UNL A   1      46.195  23.996  26.258  1.00  0.00     0.031 C 
ATOM     60  C   UNL A   1      48.993  29.354  26.864  1.00  0.00     0.029 A 
ATOM     61  C   UNL A   1      48.026  28.360  26.859  1.00  0.00     0.049 A 
ATOM     62  H   UNL A   1      45.980  28.495  27.352  1.00  0.00     0.167 HD
ATOM     63  C   UNL A   1      47.179  26.050  26.535  1.00  0.00     0.074 A 
ATOM     64  C   UNL A   1      47.342  24.657  26.172  1.00  0.00     0.031 C 
ATOM     65  C   UNL A   1      48.175  26.970  26.506  1.00  0.00     0.037 A 
BRANCH  52  66
ATOM     66  C   UNL A   1      46.443  32.656  28.209  1.00  0.00     0.058 A 
ATOM     67  C   UNL A   1      46.348  33.600  27.176  1.00  0.00     0.135 A 
ATOM     68  C   UNL A   1      46.950  33.086  29.447  1.00  0.00     0.135 A 
ATOM     69  F   UNL A   1      45.864  33.245  25.976  1.00  0.00    -0.206 F 
ATOM     70  C   UNL A   1      46.750  34.920  27.360  1.00  0.00     0.059 A 
ATOM     71  C   UNL A   1      47.332  34.407  29.661  1.00  0.00     0.059 A 
ATOM     72  F   UNL A   1      47.041  32.227  30.476  1.00  0.00    -0.206 F 
ATOM     73  C   UNL A   1      47.239  35.314  28.606  1.00  0.00     0.060 A 
BRANCH  73  74
ATOM     74  S   UNL A   1      47.712  37.040  28.844  1.00  0.00     0.124 S 
ATOM     75  O   UNL A   1      48.770  37.200  27.853  1.00  0.00    -0.237 OA
ATOM     76  O   UNL A   1      46.463  37.742  28.563  1.00  0.00    -0.237 OA
ATOM     77  O   UNL A   1      48.143  37.082  30.239  1.00  0.00    -0.744 OA
ENDBRANCH  73  74
ENDBRANCH  52  66
BRANCH  53  78
ATOM     78  C   UNL A   1      43.409  23.235  26.808  1.00  0.00     0.058 A 
ATOM     79  C   UNL A   1      43.219  22.362  27.890  1.00  0.00     0.135 A 
ATOM     80  C   UNL A   1      43.205  22.727  25.516  1.00  0.00     0.135 A 
ATOM     81  F   UNL A   1      43.409  22.795  29.147  1.00  0.00    -0.206 F 
ATOM     82  C   UNL A   1      42.873  21.028  27.698  1.00  0.00     0.059 A 
ATOM     83  C   UNL A   1      42.836  21.403  25.298  1.00  0.00     0.059 A 
ATOM     84  F   UNL A   1      43.360  23.528  24.451  1.00  0.00    -0.206 F 
ATOM     85  C   UNL A   1      42.691  20.556  26.397  1.00  0.00     0.060 A 
BRANCH  85  86
ATOM     86  S   UNL A   1      42.275  18.814  26.167  1.00  0.00     0.124 S 
ATOM     87  O   UNL A   1      43.262  18.408  25.172  1.00  0.00    -0.237 OA
ATOM     88  O   UNL A   1      42.467  18.273  27.508  1.00  0.00    -0.237 OA
ATOM     89  O   UNL A   1      40.893  18.854  25.700  1.00  0.00    -0.744 OA
ENDBRANCH  85  86
ENDBRANCH  53  78
BRANCH  65  90
ATOM     90  C   UNL A   1      49.541  26.509  26.083  1.00  0.00     0.058 A 
ATOM     91  C   UNL A   1      50.408  25.910  27.011  1.00  0.00     0.135 A 
ATOM     92  C   UNL A   1      50.026  26.746  24.787  1.00  0.00     0.135 A 
ATOM     93  F   UNL A   1      49.994  25.666  28.264  1.00  0.00    -0.206 F 
ATOM     94  C   UNL A   1      51.717  25.583  26.676  1.00  0.00     0.059 A 
ATOM     95  C   UNL A   1      51.325  26.405  24.423  1.00  0.00     0.059 A 
ATOM     96  F   UNL A   1      49.232  27.306  23.861  1.00  0.00    -0.206 F 
ATOM     97  C   UNL A   1      52.170  25.841  25.380  1.00  0.00     0.060 A 
BRANCH  97  98
ATOM     98  S   UNL A   1      53.873  25.414  24.963  1.00  0.00     0.124 S 
ATOM     99  O   UNL A   1      54.063  26.133  23.708  1.00  0.00    -0.237 OA
ATOM    100  O   UNL A   1      54.612  25.933  26.110  1.00  0.00    -0.237 OA
ATOM    101  O   UNL A   1      53.840  23.958  24.855  1.00  0.00    -0.744 OA
ENDBRANCH  97  98
ENDBRANCH  65  90
ENDBRANCH  39  40
ENDBRANCH  31  34
ENDBRANCH  29  30
ENDBRANCH  28  29
ENDBRANCH  27  28
ENDBRANCH   1  27
TORSDOF 20
ENDMDL
MODEL 3
REMARK VINA RESULT:     -11.3      5.995      8.222
REMARK SMILES CC[C@@](C)([NH2+]CC(=O)N[C@@H](C)c1ccc(F)cc1)C(=O)NCCCCNC(=O)c1ccc(-c2c3nc(c(-c4c(F)cc(S(=O)(=O)[O-])cc4F)c4ccc([nH]4)c(-c4c(F)cc(S(=O)(=O)[O-])cc4F)c4nc(c(-c5c(F)cc(S(=O)(=O)[O-])cc5F)c5ccc2[nH]5)C=C4)C=C3)cc1
REMARK SMILES IDX 22 1 21 2 19 3 20 4 3 6 4 7 2 8 1 9 5 10 6 13 7 14 8 15 9 16
REMARK SMILES IDX 10 18 11 19 12 20 13 21 18 22 14 23 17 24 15 25 16 26 23 27
REMARK SMILES IDX 24 28 25 29 26 30 27 31 28 33 29 34 30 35 94 36 31 37 93 38
REMARK SMILES IDX 32 39 33 40 34 41 87 42 35 43 92 44 86 45 88 46 36 47 91 48
REMARK SMILES IDX 85 49 84 50 37 52 71 53 50 54 70 55 51 56 54 57 69 58 89 59
REMARK SMILES IDX 52 60 53 61 68 63 90 64 55 65 38 66 39 67 48 68 40 69 41 70
REMARK SMILES IDX 47 71 49 72 42 73 43 74 44 75 45 76 46 77 72 78 73 79 82 80
REMARK SMILES IDX 74 81 75 82 81 83 83 84 76 85 77 86 78 87 79 88 80 89 56 90
REMARK SMILES IDX 57 91 66 92 58 93 59 94 65 95 67 96 60 97 61 98 62 99 63 100
REMARK SMILES IDX 64 101
REMARK H PARENT 21 5 5 11 5 12 9 17 26 32 88 51 54 62
REMARK Flexibility Score: inf
ROOT
ATOM      1  C   UNL A   1      37.586  21.369  25.024  1.00  0.00     0.116 C 
ENDROOT
BRANCH   1   2
ATOM      2  N   UNL A   1      36.451  22.173  24.554  1.00  0.00    -0.351 N 
ATOM      3  C   UNL A   1      35.475  22.630  25.428  1.00  0.00     0.281 C 
ATOM      4  O   UNL A   1      35.756  23.551  26.198  1.00  0.00    -0.268 OA
ATOM      5  H   UNL A   1      36.381  22.394  23.597  1.00  0.00     0.163 HD
BRANCH   3   6
ATOM      6  C   UNL A   1      33.985  22.092  25.276  1.00  0.00     0.172 C 
ATOM      7  C   UNL A   1      33.266  22.190  23.918  1.00  0.00     0.090 C 
BRANCH   6   8
ATOM      8  C   UNL A   1      34.128  20.548  25.534  1.00  0.00     0.075 C 
ATOM      9  C   UNL A   1      33.368  19.678  24.504  1.00  0.00     0.011 C 
ENDBRANCH   6   8
BRANCH   6  10
ATOM     10  N   UNL A   1      33.073  22.735  26.237  1.00  0.00    -0.326 N 
ATOM     11  H   UNL A   1      33.292  23.731  26.231  1.00  0.00     0.347 HD
ATOM     12  H   UNL A   1      33.244  22.226  27.105  1.00  0.00     0.347 HD
BRANCH  10  13
ATOM     13  C   UNL A   1      31.608  22.616  26.052  1.00  0.00     0.362 C 
BRANCH  13  14
ATOM     14  C   UNL A   1      30.557  23.613  26.609  1.00  0.00     0.275 C 
ATOM     15  O   UNL A   1      29.764  23.184  27.466  1.00  0.00    -0.268 OA
ATOM     16  N   UNL A   1      30.483  24.967  26.426  1.00  0.00    -0.345 N 
ATOM     17  H   UNL A   1      30.185  25.433  27.239  1.00  0.00     0.164 HD
BRANCH  16  18
ATOM     18  C   UNL A   1      30.736  25.902  25.317  1.00  0.00     0.109 C 
ATOM     19  C   UNL A   1      29.466  26.109  24.470  1.00  0.00     0.036 C 
BRANCH  18  20
ATOM     20  C   UNL A   1      31.247  27.277  25.718  1.00  0.00    -0.026 A 
ATOM     21  C   UNL A   1      31.146  28.353  24.809  1.00  0.00     0.009 A 
ATOM     22  C   UNL A   1      31.683  27.552  27.021  1.00  0.00     0.009 A 
ATOM     23  C   UNL A   1      31.497  29.652  25.176  1.00  0.00     0.039 A 
ATOM     24  C   UNL A   1      32.009  28.858  27.397  1.00  0.00     0.039 A 
ATOM     25  C   UNL A   1      31.918  29.894  26.472  1.00  0.00     0.123 A 
ATOM     26  F   UNL A   1      32.223  31.143  26.845  1.00  0.00    -0.207 F 
ENDBRANCH  18  20
ENDBRANCH  16  18
ENDBRANCH  13  14
ENDBRANCH  10  13
ENDBRANCH   6  10
ENDBRANCH   3   6
ENDBRANCH   1   2
BRANCH   1  27
ATOM     27  C   UNL A   1      37.451  19.878  24.680  1.00  0.00     0.023 C 
BRANCH  27  28
ATOM     28  C   UNL A   1      38.535  19.006  25.309  1.00  0.00     0.023 C 
BRANCH  28  29
ATOM     29  C   UNL A   1      39.661  19.764  26.005  1.00  0.00     0.116 C 
BRANCH  29  30
ATOM     30  N   UNL A   1      40.926  19.041  26.044  1.00  0.00    -0.352 N 
ATOM     31  C   UNL A   1      42.189  19.542  26.276  1.00  0.00     0.251 C 
ATOM     32  H   UNL A   1      40.871  18.071  25.885  1.00  0.00     0.163 HD
ATOM     33  O   UNL A   1      43.177  18.812  26.208  1.00  0.00    -0.269 OA
BRANCH  31  34
ATOM     34  C   UNL A   1      42.350  20.985  26.560  1.00  0.00     0.039 A 
ATOM     35  C   UNL A   1      42.597  21.397  27.872  1.00  0.00     0.014 A 
ATOM     36  C   UNL A   1      42.351  21.914  25.515  1.00  0.00     0.014 A 
ATOM     37  C   UNL A   1      42.949  22.727  28.121  1.00  0.00     0.010 A 
ATOM     38  C   UNL A   1      42.781  23.216  25.755  1.00  0.00     0.010 A 
ATOM     39  C   UNL A   1      43.098  23.634  27.058  1.00  0.00    -0.014 A 
BRANCH  39  40
ATOM     40  C   UNL A   1      43.596  25.017  27.283  1.00  0.00     0.031 A 
ATOM     41  C   UNL A   1      45.049  25.339  27.064  1.00  0.00     0.074 A 
ATOM     42  C   UNL A   1      42.759  25.967  27.748  1.00  0.00     0.049 A 
ATOM     43  N   UNL A   1      45.689  26.460  27.281  1.00  0.00    -0.248 NA
ATOM     44  C   UNL A   1      45.902  24.250  26.562  1.00  0.00     0.031 C 
ATOM     45  C   UNL A   1      41.339  25.770  28.051  1.00  0.00     0.029 A 
ATOM     46  N   UNL A   1      42.979  27.288  28.055  1.00  0.00    -0.354 N 
ATOM     47  C   UNL A   1      47.015  26.207  26.955  1.00  0.00     0.074 A 
ATOM     48  C   UNL A   1      47.102  24.813  26.583  1.00  0.00     0.031 C 
ATOM     49  C   UNL A   1      40.810  26.933  28.464  1.00  0.00     0.029 A 
ATOM     50  C   UNL A   1      41.857  27.950  28.497  1.00  0.00     0.049 A 
ATOM     51  H   UNL A   1      43.860  27.721  27.967  1.00  0.00     0.167 HD
ATOM     52  C   UNL A   1      48.061  27.067  26.936  1.00  0.00     0.037 A 
ATOM     53  C   UNL A   1      41.688  29.230  28.885  1.00  0.00     0.037 A 
ATOM     54  C   UNL A   1      47.965  28.461  27.275  1.00  0.00     0.049 A 
ATOM     55  C   UNL A   1      42.863  30.169  28.854  1.00  0.00     0.074 A 
ATOM     56  C   UNL A   1      48.959  29.424  27.242  1.00  0.00     0.029 A 
ATOM     57  N   UNL A   1      46.808  29.095  27.705  1.00  0.00    -0.354 N 
ATOM     58  N   UNL A   1      44.102  29.922  28.501  1.00  0.00    -0.248 NA
ATOM     59  C   UNL A   1      42.622  31.557  29.271  1.00  0.00     0.031 C 
ATOM     60  C   UNL A   1      48.412  30.633  27.684  1.00  0.00     0.029 A 
ATOM     61  C   UNL A   1      47.066  30.433  27.952  1.00  0.00     0.049 A 
ATOM     62  H   UNL A   1      45.934  28.658  27.818  1.00  0.00     0.167 HD
ATOM     63  C   UNL A   1      44.783  31.127  28.634  1.00  0.00     0.074 A 
ATOM     64  C   UNL A   1      43.817  32.104  29.091  1.00  0.00     0.031 C 
ATOM     65  C   UNL A   1      46.091  31.396  28.401  1.00  0.00     0.037 A 
BRANCH  52  66
ATOM     66  C   UNL A   1      49.398  26.526  26.509  1.00  0.00     0.058 A 
ATOM     67  C   UNL A   1      50.241  25.885  27.429  1.00  0.00     0.135 A 
ATOM     68  C   UNL A   1      49.860  26.677  25.190  1.00  0.00     0.135 A 
ATOM     69  F   UNL A   1      49.847  25.708  28.700  1.00  0.00    -0.206 F 
ATOM     70  C   UNL A   1      51.499  25.419  27.060  1.00  0.00     0.059 A 
ATOM     71  C   UNL A   1      51.103  26.196  24.793  1.00  0.00     0.059 A 
ATOM     72  F   UNL A   1      49.083  27.264  24.265  1.00  0.00    -0.206 F 
ATOM     73  C   UNL A   1      51.921  25.578  25.738  1.00  0.00     0.060 A 
BRANCH  73  74
ATOM     74  S   UNL A   1      53.536  24.927  25.261  1.00  0.00     0.124 S 
ATOM     75  O   UNL A   1      53.268  23.497  25.172  1.00  0.00    -0.237 OA
ATOM     76  O   UNL A   1      53.780  25.611  23.994  1.00  0.00    -0.237 OA
ATOM     77  O   UNL A   1      54.404  25.340  26.361  1.00  0.00    -0.744 OA
ENDBRANCH  73  74
ENDBRANCH  52  66
BRANCH  53  78
ATOM     78  C   UNL A   1      40.339  29.703  29.295  1.00  0.00     0.058 A 
ATOM     79  C   UNL A   1      39.325  29.930  28.353  1.00  0.00     0.135 A 
ATOM     80  C   UNL A   1      40.055  29.985  30.641  1.00  0.00     0.135 A 
ATOM     81  F   UNL A   1      39.546  29.684  27.052  1.00  0.00    -0.206 F 
ATOM     82  C   UNL A   1      38.087  30.446  28.725  1.00  0.00     0.059 A 
ATOM     83  C   UNL A   1      38.818  30.480  31.041  1.00  0.00     0.059 A 
ATOM     84  F   UNL A   1      40.989  29.770  31.580  1.00  0.00    -0.206 F 
ATOM     85  C   UNL A   1      37.846  30.726  30.071  1.00  0.00     0.060 A 
BRANCH  85  86
ATOM     86  S   UNL A   1      36.246  31.427  30.528  1.00  0.00     0.124 S 
ATOM     87  O   UNL A   1      36.556  32.852  30.578  1.00  0.00    -0.237 OA
ATOM     88  O   UNL A   1      35.397  31.000  29.422  1.00  0.00    -0.237 OA
ATOM     89  O   UNL A   1      35.958  30.802  31.815  1.00  0.00    -0.744 OA
ENDBRANCH  85  86
ENDBRANCH  53  78
BRANCH  65  90
ATOM     90  C   UNL A   1      46.565  32.806  28.617  1.00  0.00     0.058 A 
ATOM     91  C   UNL A   1      46.967  33.233  29.893  1.00  0.00     0.135 A 
ATOM     92  C   UNL A   1      46.532  33.757  27.585  1.00  0.00     0.135 A 
ATOM     93  F   UNL A   1      47.011  32.365  30.915  1.00  0.00    -0.206 F 
ATOM     94  C   UNL A   1      47.295  34.561  30.144  1.00  0.00     0.059 A 
ATOM     95  C   UNL A   1      46.880  35.085  27.808  1.00  0.00     0.059 A 
ATOM     96  F   UNL A   1      46.167  33.394  26.345  1.00  0.00    -0.206 F 
ATOM     97  C   UNL A   1      47.243  35.482  29.096  1.00  0.00     0.060 A 
BRANCH  97  98
ATOM     98  S   UNL A   1      47.669  37.201  29.441  1.00  0.00     0.124 S 
ATOM     99  O   UNL A   1      46.358  37.790  29.692  1.00  0.00    -0.237 OA
ATOM    100  O   UNL A   1      48.543  37.077  30.603  1.00  0.00    -0.237 OA
ATOM    101  O   UNL A   1      48.329  37.639  28.213  1.00  0.00    -0.744 OA
ENDBRANCH  97  98
ENDBRANCH  65  90
ENDBRANCH  39  40
ENDBRANCH  31  34
ENDBRANCH  29  30
ENDBRANCH  28  29
ENDBRANCH  27  28
ENDBRANCH   1  27
TORSDOF 20
ENDMDL
