MODEL 1
REMARK VINA RESULT:     -12.4      0.000      0.000
REMARK SMILES Nc1nccc(N2CCC[C@@](Cc3ccc(F)cc3F)(C(=O)NCCCCNC(=O)c3ccc(-c4c5nc(c(-c6c(F)cc(S(=O)(=O)[O-])cc6F)c6ccc([nH]6)c(-c6c(F)cc(S(=O)(=O)[O-])cc6F)c6nc(c(-c7c(F)cc(S(=O)(=O)[O-])cc7F)c7ccc4[nH]7)C=C6)C=C5)cc3)C2)n1
REMARK SMILES IDX 26 1 25 2 24 3 23 4 21 5 22 6 11 8 7 9 8 10 97 11 9 12 10 13
REMARK SMILES IDX 6 14 2 15 3 16 98 17 4 18 5 19 1 20 12 23 13 24 14 25 19 26
REMARK SMILES IDX 15 27 18 28 20 29 16 30 17 31 27 32 28 33 29 34 30 36 31 37
REMARK SMILES IDX 32 38 96 39 33 40 95 41 34 42 35 43 36 44 89 45 37 46 94 47
REMARK SMILES IDX 88 48 90 49 38 50 93 51 87 52 86 53 39 55 73 56 52 57 72 58
REMARK SMILES IDX 53 59 56 60 71 61 91 62 54 63 55 64 70 66 92 67 57 68 40 69
REMARK SMILES IDX 41 70 50 71 42 72 43 73 49 74 51 75 44 76 45 77 46 78 47 79
REMARK SMILES IDX 48 80 74 81 75 82 84 83 76 84 77 85 83 86 85 87 78 88 79 89
REMARK SMILES IDX 80 90 81 91 82 92 58 93 59 94 68 95 60 96 61 97 67 98 69 99
REMARK SMILES IDX 62 100 63 101 64 102 65 103 66 104
REMARK H PARENT 23 7 1 21 1 22 28 35 90 54 56 65
REMARK Flexibility Score: inf
ROOT
ATOM      1  C   UNL A   1      32.920  28.696  25.882  1.00  0.00     0.023 C 
ENDROOT
BRANCH   1   2
ATOM      2  C   UNL A   1      33.603  27.766  24.880  1.00  0.00     0.023 C 
BRANCH   2   3
ATOM      3  C   UNL A   1      34.026  26.416  25.444  1.00  0.00     0.116 C 
BRANCH   3   4
ATOM      4  N   UNL A   1      34.621  25.530  24.464  1.00  0.00    -0.356 N 
ATOM      5  C   UNL A   1      34.375  24.230  24.137  1.00  0.00     0.228 C 
ATOM      6  O   UNL A   1      34.897  23.846  23.084  1.00  0.00    -0.274 OA
ATOM      7  H   UNL A   1      35.338  25.945  23.934  1.00  0.00     0.163 HD
BRANCH   5   8
ATOM      8  C   UNL A   1      33.502  23.272  24.982  1.00  0.00     0.071 C 
ATOM      9  N   UNL A   1      33.348  20.873  25.539  1.00  0.00    -0.355 N 
ATOM     10  C   UNL A   1      33.656  20.983  26.953  1.00  0.00     0.118 C 
ATOM     11  C   UNL A   1      34.034  21.821  24.658  1.00  0.00     0.135 C 
ATOM     12  C   UNL A   1      33.211  22.362  27.413  1.00  0.00     0.023 C 
ATOM     13  C   UNL A   1      33.730  23.486  26.507  1.00  0.00     0.021 C 
BRANCH   9  14
ATOM     14  C   UNL A   1      32.981  19.633  25.053  1.00  0.00     0.134 A 
ATOM     15  C   UNL A   1      32.280  18.266  23.359  1.00  0.00     0.221 A 
ATOM     16  N   UNL A   1      32.217  17.182  24.138  1.00  0.00    -0.222 NA
ATOM     17  N   UNL A   1      32.628  19.491  23.767  1.00  0.00    -0.196 NA
ATOM     18  C   UNL A   1      32.552  17.361  25.424  1.00  0.00     0.119 A 
ATOM     19  C   UNL A   1      32.960  18.566  25.931  1.00  0.00     0.067 A 
BRANCH  15  20
ATOM     20  N   UNL A   1      31.969  18.101  22.041  1.00  0.00    -0.368 N 
ATOM     21  H   UNL A   1      31.078  18.356  21.710  1.00  0.00     0.159 HD
ATOM     22  H   UNL A   1      32.636  17.727  21.421  1.00  0.00     0.159 HD
ENDBRANCH  15  20
ENDBRANCH   9  14
BRANCH   8  23
ATOM     23  C   UNL A   1      32.013  23.269  24.506  1.00  0.00     0.057 C 
BRANCH  23  24
ATOM     24  C   UNL A   1      31.266  24.558  24.277  1.00  0.00    -0.011 A 
ATOM     25  C   UNL A   1      31.261  25.161  23.008  1.00  0.00     0.010 A 
ATOM     26  C   UNL A   1      30.535  25.163  25.307  1.00  0.00     0.129 A 
ATOM     27  C   UNL A   1      30.575  26.360  22.801  1.00  0.00     0.040 A 
ATOM     28  C   UNL A   1      29.854  26.359  25.109  1.00  0.00     0.078 A 
ATOM     29  F   UNL A   1      30.498  24.600  26.522  1.00  0.00    -0.207 F 
ATOM     30  C   UNL A   1      29.886  26.950  23.855  1.00  0.00     0.126 A 
ATOM     31  F   UNL A   1      29.243  28.106  23.658  1.00  0.00    -0.207 F 
ENDBRANCH  23  24
ENDBRANCH   8  23
ENDBRANCH   5   8
ENDBRANCH   3   4
ENDBRANCH   2   3
ENDBRANCH   1   2
BRANCH   1  32
ATOM     32  C   UNL A   1      33.590  28.820  27.250  1.00  0.00     0.116 C 
BRANCH  32  33
ATOM     33  N   UNL A   1      33.618  30.178  27.783  1.00  0.00    -0.352 N 
ATOM     34  C   UNL A   1      34.675  30.823  28.385  1.00  0.00     0.251 C 
ATOM     35  H   UNL A   1      32.782  30.692  27.703  1.00  0.00     0.163 HD
ATOM     36  O   UNL A   1      34.546  31.952  28.847  1.00  0.00    -0.269 OA
BRANCH  34  37
ATOM     37  C   UNL A   1      35.955  30.102  28.506  1.00  0.00     0.039 A 
ATOM     38  C   UNL A   1      36.837  30.105  27.423  1.00  0.00     0.014 A 
ATOM     39  C   UNL A   1      36.325  29.540  29.731  1.00  0.00     0.014 A 
ATOM     40  C   UNL A   1      38.138  29.631  27.598  1.00  0.00     0.010 A 
ATOM     41  C   UNL A   1      37.637  29.115  29.915  1.00  0.00     0.010 A 
ATOM     42  C   UNL A   1      38.562  29.184  28.860  1.00  0.00    -0.014 A 
BRANCH  42  43
ATOM     43  C   UNL A   1      39.976  28.827  29.129  1.00  0.00     0.031 A 
ATOM     44  C   UNL A   1      40.934  29.885  29.596  1.00  0.00     0.074 A 
ATOM     45  C   UNL A   1      40.419  27.588  28.833  1.00  0.00     0.049 A 
ATOM     46  N   UNL A   1      42.236  29.833  29.687  1.00  0.00    -0.248 NA
ATOM     47  C   UNL A   1      40.352  31.180  29.984  1.00  0.00     0.031 C 
ATOM     48  C   UNL A   1      39.591  26.487  28.334  1.00  0.00     0.029 A 
ATOM     49  N   UNL A   1      41.685  27.054  28.877  1.00  0.00    -0.354 N 
ATOM     50  C   UNL A   1      42.634  31.097  30.104  1.00  0.00     0.074 A 
ATOM     51  C   UNL A   1      41.438  31.899  30.237  1.00  0.00     0.031 C 
ATOM     52  C   UNL A   1      40.370  25.414  28.111  1.00  0.00     0.029 A 
ATOM     53  C   UNL A   1      41.756  25.761  28.411  1.00  0.00     0.049 A 
ATOM     54  H   UNL A   1      42.467  27.550  29.210  1.00  0.00     0.167 HD
ATOM     55  C   UNL A   1      43.887  31.541  30.359  1.00  0.00     0.037 A 
ATOM     56  C   UNL A   1      42.819  24.955  28.221  1.00  0.00     0.037 A 
ATOM     57  C   UNL A   1      45.066  30.724  30.277  1.00  0.00     0.049 A 
ATOM     58  C   UNL A   1      44.197  25.465  28.550  1.00  0.00     0.074 A 
ATOM     59  C   UNL A   1      46.371  31.070  30.582  1.00  0.00     0.029 A 
ATOM     60  N   UNL A   1      45.085  29.399  29.872  1.00  0.00    -0.354 N 
ATOM     61  N   UNL A   1      44.550  26.651  28.984  1.00  0.00    -0.248 NA
ATOM     62  C   UNL A   1      45.320  24.533  28.364  1.00  0.00     0.031 C 
ATOM     63  C   UNL A   1      47.184  29.958  30.341  1.00  0.00     0.029 A 
ATOM     64  C   UNL A   1      46.380  28.913  29.915  1.00  0.00     0.049 A 
ATOM     65  H   UNL A   1      44.295  28.880  29.596  1.00  0.00     0.167 HD
ATOM     66  C   UNL A   1      45.930  26.600  29.144  1.00  0.00     0.074 A 
ATOM     67  C   UNL A   1      46.349  25.268  28.766  1.00  0.00     0.031 C 
ATOM     68  C   UNL A   1      46.773  27.573  29.565  1.00  0.00     0.037 A 
BRANCH  55  69
ATOM     69  C   UNL A   1      44.057  32.975  30.765  1.00  0.00     0.058 A 
ATOM     70  C   UNL A   1      44.005  33.342  32.119  1.00  0.00     0.135 A 
ATOM     71  C   UNL A   1      44.181  33.995  29.810  1.00  0.00     0.135 A 
ATOM     72  F   UNL A   1      43.892  32.400  33.069  1.00  0.00    -0.206 F 
ATOM     73  C   UNL A   1      44.054  34.674  32.515  1.00  0.00     0.059 A 
ATOM     74  C   UNL A   1      44.250  35.332  30.184  1.00  0.00     0.059 A 
ATOM     75  F   UNL A   1      44.253  33.692  28.504  1.00  0.00    -0.206 F 
ATOM     76  C   UNL A   1      44.178  35.662  31.540  1.00  0.00     0.060 A 
BRANCH  76  77
ATOM     77  S   UNL A   1      44.223  37.406  32.003  1.00  0.00     0.124 S 
ATOM     78  O   UNL A   1      43.286  37.434  33.123  1.00  0.00    -0.237 OA
ATOM     79  O   UNL A   1      45.628  37.601  32.347  1.00  0.00    -0.237 OA
ATOM     80  O   UNL A   1      43.775  38.091  30.794  1.00  0.00    -0.744 OA
ENDBRANCH  76  77
ENDBRANCH  55  69
BRANCH  56  81
ATOM     81  C   UNL A   1      42.631  23.583  27.682  1.00  0.00     0.058 A 
ATOM     82  C   UNL A   1      42.612  23.339  26.300  1.00  0.00     0.135 A 
ATOM     83  C   UNL A   1      42.472  22.487  28.542  1.00  0.00     0.135 A 
ATOM     84  F   UNL A   1      42.742  24.358  25.435  1.00  0.00    -0.206 F 
ATOM     85  C   UNL A   1      42.443  22.058  25.786  1.00  0.00     0.059 A 
ATOM     86  C   UNL A   1      42.322  21.193  28.054  1.00  0.00     0.059 A 
ATOM     87  F   UNL A   1      42.491  22.670  29.871  1.00  0.00    -0.206 F 
ATOM     88  C   UNL A   1      42.311  20.989  26.672  1.00  0.00     0.060 A 
BRANCH  88  89
ATOM     89  S   UNL A   1      42.085  19.310  26.045  1.00  0.00     0.124 S 
ATOM     90  O   UNL A   1      42.574  18.511  27.163  1.00  0.00    -0.237 OA
ATOM     91  O   UNL A   1      40.646  19.262  25.806  1.00  0.00    -0.237 OA
ATOM     92  O   UNL A   1      42.912  19.289  24.842  1.00  0.00    -0.744 OA
ENDBRANCH  88  89
ENDBRANCH  56  81
BRANCH  68  93
ATOM     93  C   UNL A   1      48.230  27.238  29.687  1.00  0.00     0.058 A 
ATOM     94  C   UNL A   1      48.757  26.816  30.918  1.00  0.00     0.135 A 
ATOM     95  C   UNL A   1      49.119  27.456  28.626  1.00  0.00     0.135 A 
ATOM     96  F   UNL A   1      47.942  26.601  31.964  1.00  0.00    -0.206 F 
ATOM     97  C   UNL A   1      50.124  26.646  31.103  1.00  0.00     0.059 A 
ATOM     98  C   UNL A   1      50.489  27.277  28.784  1.00  0.00     0.059 A 
ATOM     99  F   UNL A   1      48.659  27.853  27.429  1.00  0.00    -0.206 F 
ATOM    100  C   UNL A   1      50.983  26.884  30.030  1.00  0.00     0.060 A 
BRANCH 100 101
ATOM    101  S   UNL A   1      52.771  26.747  30.246  1.00  0.00     0.124 S 
ATOM    102  O   UNL A   1      52.867  25.679  31.236  1.00  0.00    -0.237 OA
ATOM    103  O   UNL A   1      53.222  26.407  28.901  1.00  0.00    -0.237 OA
ATOM    104  O   UNL A   1      53.160  28.074  30.715  1.00  0.00    -0.744 OA
ENDBRANCH 100 101
ENDBRANCH  68  93
ENDBRANCH  42  43
ENDBRANCH  34  37
ENDBRANCH  32  33
ENDBRANCH   1  32
TORSDOF 18
ENDMDL
MODEL 2
REMARK VINA RESULT:     -12.1      3.708      9.772
REMARK SMILES Nc1nccc(N2CCC[C@@](Cc3ccc(F)cc3F)(C(=O)NCCCCNC(=O)c3ccc(-c4c5nc(c(-c6c(F)cc(S(=O)(=O)[O-])cc6F)c6ccc([nH]6)c(-c6c(F)cc(S(=O)(=O)[O-])cc6F)c6nc(c(-c7c(F)cc(S(=O)(=O)[O-])cc7F)c7ccc4[nH]7)C=C6)C=C5)cc3)C2)n1
REMARK SMILES IDX 26 1 25 2 24 3 23 4 21 5 22 6 11 8 7 9 8 10 97 11 9 12 10 13
REMARK SMILES IDX 6 14 2 15 3 16 98 17 4 18 5 19 1 20 12 23 13 24 14 25 19 26
REMARK SMILES IDX 15 27 18 28 20 29 16 30 17 31 27 32 28 33 29 34 30 36 31 37
REMARK SMILES IDX 32 38 96 39 33 40 95 41 34 42 35 43 36 44 89 45 37 46 94 47
REMARK SMILES IDX 88 48 90 49 38 50 93 51 87 52 86 53 39 55 73 56 52 57 72 58
REMARK SMILES IDX 53 59 56 60 71 61 91 62 54 63 55 64 70 66 92 67 57 68 40 69
REMARK SMILES IDX 41 70 50 71 42 72 43 73 49 74 51 75 44 76 45 77 46 78 47 79
REMARK SMILES IDX 48 80 74 81 75 82 84 83 76 84 77 85 83 86 85 87 78 88 79 89
REMARK SMILES IDX 80 90 81 91 82 92 58 93 59 94 68 95 60 96 61 97 67 98 69 99
REMARK SMILES IDX 62 100 63 101 64 102 65 103 66 104
REMARK H PARENT 23 7 1 21 1 22 28 35 90 54 56 65
REMARK Flexibility Score: inf
ROOT
ATOM      1  C   UNL A   1      36.147  23.093  26.129  1.00  0.00     0.023 C 
ENDROOT
BRANCH   1   2
ATOM      2  C   UNL A   1      34.769  23.366  25.526  1.00  0.00     0.023 C 
BRANCH   2   3
ATOM      3  C   UNL A   1      34.188  24.735  25.851  1.00  0.00     0.116 C 
BRANCH   3   4
ATOM      4  N   UNL A   1      34.349  25.710  24.791  1.00  0.00    -0.356 N 
ATOM      5  C   UNL A   1      33.494  26.623  24.251  1.00  0.00     0.228 C 
ATOM      6  O   UNL A   1      34.024  27.472  23.523  1.00  0.00    -0.274 OA
ATOM      7  H   UNL A   1      35.245  25.714  24.385  1.00  0.00     0.163 HD
BRANCH   5   8
ATOM      8  C   UNL A   1      31.969  26.647  24.510  1.00  0.00     0.071 C 
ATOM      9  N   UNL A   1      29.893  27.425  23.428  1.00  0.00    -0.355 N 
ATOM     10  C   UNL A   1      29.296  26.123  23.195  1.00  0.00     0.118 C 
ATOM     11  C   UNL A   1      31.352  27.488  23.325  1.00  0.00     0.135 C 
ATOM     12  C   UNL A   1      29.821  25.179  24.267  1.00  0.00     0.023 C 
ATOM     13  C   UNL A   1      31.349  25.223  24.397  1.00  0.00     0.021 C 
BRANCH   9  14
ATOM     14  C   UNL A   1      29.139  28.543  23.128  1.00  0.00     0.134 A 
ATOM     15  C   UNL A   1      28.954  30.721  22.454  1.00  0.00     0.221 A 
ATOM     16  N   UNL A   1      27.625  30.745  22.591  1.00  0.00    -0.222 NA
ATOM     17  N   UNL A   1      29.739  29.672  22.726  1.00  0.00    -0.196 NA
ATOM     18  C   UNL A   1      27.056  29.609  23.019  1.00  0.00     0.119 A 
ATOM     19  C   UNL A   1      27.768  28.469  23.286  1.00  0.00     0.067 A 
BRANCH  15  20
ATOM     20  N   UNL A   1      29.551  31.858  21.995  1.00  0.00    -0.368 N 
ATOM     21  H   UNL A   1      29.160  32.346  21.236  1.00  0.00     0.159 HD
ATOM     22  H   UNL A   1      30.373  32.189  22.423  1.00  0.00     0.159 HD
ENDBRANCH  15  20
ENDBRANCH   9  14
BRANCH   8  23
ATOM     23  C   UNL A   1      31.610  27.449  25.802  1.00  0.00     0.057 C 
BRANCH  23  24
ATOM     24  C   UNL A   1      32.520  28.531  26.325  1.00  0.00    -0.011 A 
ATOM     25  C   UNL A   1      33.677  28.199  27.049  1.00  0.00     0.010 A 
ATOM     26  C   UNL A   1      32.254  29.883  26.074  1.00  0.00     0.129 A 
ATOM     27  C   UNL A   1      34.514  29.205  27.540  1.00  0.00     0.040 A 
ATOM     28  C   UNL A   1      33.080  30.889  26.563  1.00  0.00     0.078 A 
ATOM     29  F   UNL A   1      31.174  30.233  25.364  1.00  0.00    -0.207 F 
ATOM     30  C   UNL A   1      34.203  30.538  27.297  1.00  0.00     0.126 A 
ATOM     31  F   UNL A   1      34.998  31.499  27.781  1.00  0.00    -0.207 F 
ENDBRANCH  23  24
ENDBRANCH   8  23
ENDBRANCH   5   8
ENDBRANCH   3   4
ENDBRANCH   2   3
ENDBRANCH   1   2
BRANCH   1  32
ATOM     32  C   UNL A   1      37.348  23.535  25.293  1.00  0.00     0.116 C 
BRANCH  32  33
ATOM     33  N   UNL A   1      38.550  22.736  25.502  1.00  0.00    -0.352 N 
ATOM     34  C   UNL A   1      39.688  23.094  26.191  1.00  0.00     0.251 C 
ATOM     35  H   UNL A   1      38.547  21.836  25.103  1.00  0.00     0.163 HD
ATOM     36  O   UNL A   1      40.659  22.346  26.241  1.00  0.00    -0.269 OA
BRANCH  34  37
ATOM     37  C   UNL A   1      39.729  24.424  26.827  1.00  0.00     0.039 A 
ATOM     38  C   UNL A   1      39.153  24.586  28.090  1.00  0.00     0.014 A 
ATOM     39  C   UNL A   1      40.447  25.462  26.227  1.00  0.00     0.014 A 
ATOM     40  C   UNL A   1      39.384  25.765  28.801  1.00  0.00     0.010 A 
ATOM     41  C   UNL A   1      40.716  26.614  26.959  1.00  0.00     0.010 A 
ATOM     42  C   UNL A   1      40.212  26.763  28.262  1.00  0.00    -0.014 A 
BRANCH  42  43
ATOM     43  C   UNL A   1      40.615  27.954  29.049  1.00  0.00     0.031 A 
ATOM     44  C   UNL A   1      41.882  27.919  29.854  1.00  0.00     0.074 A 
ATOM     45  C   UNL A   1      39.780  29.010  29.135  1.00  0.00     0.049 A 
ATOM     46  N   UNL A   1      42.303  28.760  30.761  1.00  0.00    -0.248 NA
ATOM     47  C   UNL A   1      42.778  26.773  29.629  1.00  0.00     0.031 C 
ATOM     48  C   UNL A   1      38.501  29.141  28.431  1.00  0.00     0.029 A 
ATOM     49  N   UNL A   1      39.865  30.162  29.880  1.00  0.00    -0.354 N 
ATOM     50  C   UNL A   1      43.492  28.228  31.244  1.00  0.00     0.074 A 
ATOM     51  C   UNL A   1      43.720  26.985  30.539  1.00  0.00     0.031 C 
ATOM     52  C   UNL A   1      37.921  30.301  28.784  1.00  0.00     0.029 A 
ATOM     53  C   UNL A   1      38.762  30.976  29.767  1.00  0.00     0.049 A 
ATOM     54  H   UNL A   1      40.643  30.383  30.442  1.00  0.00     0.167 HD
ATOM     55  C   UNL A   1      44.320  28.737  32.185  1.00  0.00     0.037 A 
ATOM     56  C   UNL A   1      38.450  32.123  30.403  1.00  0.00     0.037 A 
ATOM     57  C   UNL A   1      44.115  29.999  32.843  1.00  0.00     0.049 A 
ATOM     58  C   UNL A   1      39.409  32.686  31.417  1.00  0.00     0.074 A 
ATOM     59  C   UNL A   1      44.936  30.629  33.762  1.00  0.00     0.029 A 
ATOM     60  N   UNL A   1      43.022  30.828  32.644  1.00  0.00    -0.354 N 
ATOM     61  N   UNL A   1      40.550  32.189  31.831  1.00  0.00    -0.248 NA
ATOM     62  C   UNL A   1      39.042  33.960  32.054  1.00  0.00     0.031 C 
ATOM     63  C   UNL A   1      44.328  31.831  34.136  1.00  0.00     0.029 A 
ATOM     64  C   UNL A   1      43.144  31.962  33.427  1.00  0.00     0.049 A 
ATOM     65  H   UNL A   1      42.272  30.638  32.036  1.00  0.00     0.167 HD
ATOM     66  C   UNL A   1      41.046  33.099  32.756  1.00  0.00     0.074 A 
ATOM     67  C   UNL A   1      40.087  34.179  32.841  1.00  0.00     0.031 C 
ATOM     68  C   UNL A   1      42.194  33.042  33.473  1.00  0.00     0.037 A 
BRANCH  55  69
ATOM     69  C   UNL A   1      45.535  27.942  32.560  1.00  0.00     0.058 A 
ATOM     70  C   UNL A   1      46.746  28.129  31.875  1.00  0.00     0.135 A 
ATOM     71  C   UNL A   1      45.477  26.936  33.535  1.00  0.00     0.135 A 
ATOM     72  F   UNL A   1      46.850  29.084  30.937  1.00  0.00    -0.206 F 
ATOM     73  C   UNL A   1      47.857  27.332  32.131  1.00  0.00     0.059 A 
ATOM     74  C   UNL A   1      46.580  26.140  33.820  1.00  0.00     0.059 A 
ATOM     75  F   UNL A   1      44.346  26.733  34.230  1.00  0.00    -0.206 F 
ATOM     76  C   UNL A   1      47.765  26.342  33.108  1.00  0.00     0.060 A 
BRANCH  76  77
ATOM     77  S   UNL A   1      49.173  25.268  33.459  1.00  0.00     0.124 S 
ATOM     78  O   UNL A   1      48.516  24.122  34.082  1.00  0.00    -0.237 OA
ATOM     79  O   UNL A   1      49.727  25.036  32.130  1.00  0.00    -0.237 OA
ATOM     80  O   UNL A   1      50.002  26.075  34.350  1.00  0.00    -0.744 OA
ENDBRANCH  76  77
ENDBRANCH  55  69
BRANCH  56  81
ATOM     81  C   UNL A   1      37.169  32.815  30.110  1.00  0.00     0.058 A 
ATOM     82  C   UNL A   1      36.004  32.532  30.841  1.00  0.00     0.135 A 
ATOM     83  C   UNL A   1      37.086  33.780  29.096  1.00  0.00     0.135 A 
ATOM     84  F   UNL A   1      36.027  31.604  31.810  1.00  0.00    -0.206 F 
ATOM     85  C   UNL A   1      34.801  33.179  30.579  1.00  0.00     0.059 A 
ATOM     86  C   UNL A   1      35.900  34.456  28.828  1.00  0.00     0.059 A 
ATOM     87  F   UNL A   1      38.174  34.089  28.375  1.00  0.00    -0.206 F 
ATOM     88  C   UNL A   1      34.762  34.150  29.578  1.00  0.00     0.060 A 
BRANCH  88  89
ATOM     89  S   UNL A   1      33.219  35.011  29.204  1.00  0.00     0.124 S 
ATOM     90  O   UNL A   1      33.709  36.301  28.734  1.00  0.00    -0.237 OA
ATOM     91  O   UNL A   1      32.622  34.146  28.190  1.00  0.00    -0.237 OA
ATOM     92  O   UNL A   1      32.525  35.025  30.488  1.00  0.00    -0.744 OA
ENDBRANCH  88  89
ENDBRANCH  56  81
BRANCH  68  93
ATOM     93  C   UNL A   1      42.513  34.191  34.383  1.00  0.00     0.058 A 
ATOM     94  C   UNL A   1      43.363  35.220  33.949  1.00  0.00     0.135 A 
ATOM     95  C   UNL A   1      42.083  34.205  35.717  1.00  0.00     0.135 A 
ATOM     96  F   UNL A   1      43.805  35.243  32.681  1.00  0.00    -0.206 F 
ATOM     97  C   UNL A   1      43.801  36.215  34.816  1.00  0.00     0.059 A 
ATOM     98  C   UNL A   1      42.496  35.199  36.598  1.00  0.00     0.059 A 
ATOM     99  F   UNL A   1      41.264  33.245  36.174  1.00  0.00    -0.206 F 
ATOM    100  C   UNL A   1      43.365  36.193  36.141  1.00  0.00     0.060 A 
BRANCH 100 101
ATOM    101  S   UNL A   1      43.966  37.424  37.319  1.00  0.00     0.124 S 
ATOM    102  O   UNL A   1      44.037  38.619  36.485  1.00  0.00    -0.237 OA
ATOM    103  O   UNL A   1      42.918  37.420  38.334  1.00  0.00    -0.237 OA
ATOM    104  O   UNL A   1      45.251  36.882  37.750  1.00  0.00    -0.744 OA
ENDBRANCH 100 101
ENDBRANCH  68  93
ENDBRANCH  42  43
ENDBRANCH  34  37
ENDBRANCH  32  33
ENDBRANCH   1  32
TORSDOF 18
ENDMDL
MODEL 3
REMARK VINA RESULT:     -12.0      4.945     10.473
REMARK SMILES Nc1nccc(N2CCC[C@@](Cc3ccc(F)cc3F)(C(=O)NCCCCNC(=O)c3ccc(-c4c5nc(c(-c6c(F)cc(S(=O)(=O)[O-])cc6F)c6ccc([nH]6)c(-c6c(F)cc(S(=O)(=O)[O-])cc6F)c6nc(c(-c7c(F)cc(S(=O)(=O)[O-])cc7F)c7ccc4[nH]7)C=C6)C=C5)cc3)C2)n1
REMARK SMILES IDX 26 1 25 2 24 3 23 4 21 5 22 6 11 8 7 9 8 10 97 11 9 12 10 13
REMARK SMILES IDX 6 14 2 15 3 16 98 17 4 18 5 19 1 20 12 23 13 24 14 25 19 26
REMARK SMILES IDX 15 27 18 28 20 29 16 30 17 31 27 32 28 33 29 34 30 36 31 37
REMARK SMILES IDX 32 38 96 39 33 40 95 41 34 42 35 43 36 44 89 45 37 46 94 47
REMARK SMILES IDX 88 48 90 49 38 50 93 51 87 52 86 53 39 55 73 56 52 57 72 58
REMARK SMILES IDX 53 59 56 60 71 61 91 62 54 63 55 64 70 66 92 67 57 68 40 69
REMARK SMILES IDX 41 70 50 71 42 72 43 73 49 74 51 75 44 76 45 77 46 78 47 79
REMARK SMILES IDX 48 80 74 81 75 82 84 83 76 84 77 85 83 86 85 87 78 88 79 89
REMARK SMILES IDX 80 90 81 91 82 92 58 93 59 94 68 95 60 96 61 97 67 98 69 99
REMARK SMILES IDX 62 100 63 101 64 102 65 103 66 104
REMARK H PARENT 23 7 1 21 1 22 28 35 90 54 56 65
REMARK Flexibility Score: inf
ROOT
ATOM      1  C   UNL A   1      37.392  23.546  25.239  1.00  0.00     0.023 C 
ENDROOT
BRANCH   1   2
ATOM      2  C   UNL A   1      35.912  23.370  25.577  1.00  0.00     0.023 C 
BRANCH   2   3
ATOM      3  C   UNL A   1      35.049  24.601  25.333  1.00  0.00     0.116 C 
BRANCH   3   4
ATOM      4  N   UNL A   1      34.605  24.745  23.962  1.00  0.00    -0.356 N 
ATOM      5  C   UNL A   1      33.758  25.628  23.362  1.00  0.00     0.228 C 
ATOM      6  O   UNL A   1      33.787  25.627  22.125  1.00  0.00    -0.274 OA
ATOM      7  H   UNL A   1      34.991  24.082  23.345  1.00  0.00     0.163 HD
BRANCH   5   8
ATOM      8  C   UNL A   1      32.819  26.589  24.129  1.00  0.00     0.071 C 
ATOM      9  N   UNL A   1      30.478  27.365  24.077  1.00  0.00    -0.355 N 
ATOM     10  C   UNL A   1      30.058  26.797  25.345  1.00  0.00     0.118 C 
ATOM     11  C   UNL A   1      31.463  26.589  23.322  1.00  0.00     0.135 C 
ATOM     12  C   UNL A   1      31.285  26.714  26.240  1.00  0.00     0.023 C 
ATOM     13  C   UNL A   1      32.479  26.044  25.547  1.00  0.00     0.021 C 
BRANCH   9  14
ATOM     14  C   UNL A   1      29.581  28.171  23.402  1.00  0.00     0.134 A 
ATOM     15  C   UNL A   1      29.102  29.958  22.057  1.00  0.00     0.221 A 
ATOM     16  N   UNL A   1      27.781  29.768  22.121  1.00  0.00    -0.222 NA
ATOM     17  N   UNL A   1      30.021  29.215  22.685  1.00  0.00    -0.196 NA
ATOM     18  C   UNL A   1      27.371  28.732  22.867  1.00  0.00     0.119 A 
ATOM     19  C   UNL A   1      28.233  27.888  23.516  1.00  0.00     0.067 A 
BRANCH  15  20
ATOM     20  N   UNL A   1      29.544  30.991  21.284  1.00  0.00    -0.368 N 
ATOM     21  H   UNL A   1      29.119  31.171  20.415  1.00  0.00     0.159 HD
ATOM     22  H   UNL A   1      30.288  31.556  21.595  1.00  0.00     0.159 HD
ENDBRANCH  15  20
ENDBRANCH   9  14
BRANCH   8  23
ATOM     23  C   UNL A   1      33.323  28.068  24.067  1.00  0.00     0.057 C 
BRANCH  23  24
ATOM     24  C   UNL A   1      33.629  28.840  25.324  1.00  0.00    -0.011 A 
ATOM     25  C   UNL A   1      34.796  28.569  26.059  1.00  0.00     0.010 A 
ATOM     26  C   UNL A   1      32.782  29.863  25.770  1.00  0.00     0.129 A 
ATOM     27  C   UNL A   1      35.071  29.281  27.229  1.00  0.00     0.040 A 
ATOM     28  C   UNL A   1      33.048  30.571  26.936  1.00  0.00     0.078 A 
ATOM     29  F   UNL A   1      31.675  30.163  25.078  1.00  0.00    -0.207 F 
ATOM     30  C   UNL A   1      34.192  30.268  27.658  1.00  0.00     0.126 A 
ATOM     31  F   UNL A   1      34.451  30.937  28.787  1.00  0.00    -0.207 F 
ENDBRANCH  23  24
ENDBRANCH   8  23
ENDBRANCH   5   8
ENDBRANCH   3   4
ENDBRANCH   2   3
ENDBRANCH   1   2
BRANCH   1  32
ATOM     32  C   UNL A   1      38.337  23.733  26.425  1.00  0.00     0.116 C 
BRANCH  32  33
ATOM     33  N   UNL A   1      39.743  23.501  26.115  1.00  0.00    -0.352 N 
ATOM     34  C   UNL A   1      40.822  24.278  26.474  1.00  0.00     0.251 C 
ATOM     35  H   UNL A   1      39.943  22.696  25.585  1.00  0.00     0.163 HD
ATOM     36  O   UNL A   1      41.955  24.001  26.093  1.00  0.00    -0.269 OA
BRANCH  34  37
ATOM     37  C   UNL A   1      40.575  25.482  27.288  1.00  0.00     0.039 A 
ATOM     38  C   UNL A   1      39.708  25.392  28.380  1.00  0.00     0.014 A 
ATOM     39  C   UNL A   1      41.299  26.651  27.041  1.00  0.00     0.014 A 
ATOM     40  C   UNL A   1      39.643  26.448  29.291  1.00  0.00     0.010 A 
ATOM     41  C   UNL A   1      41.269  27.680  27.976  1.00  0.00     0.010 A 
ATOM     42  C   UNL A   1      40.464  27.575  29.123  1.00  0.00    -0.014 A 
BRANCH  42  43
ATOM     43  C   UNL A   1      40.546  28.643  30.150  1.00  0.00     0.031 A 
ATOM     44  C   UNL A   1      41.532  28.517  31.276  1.00  0.00     0.074 A 
ATOM     45  C   UNL A   1      39.652  29.652  30.136  1.00  0.00     0.049 A 
ATOM     46  N   UNL A   1      41.621  29.220  32.373  1.00  0.00    -0.248 NA
ATOM     47  C   UNL A   1      42.530  27.440  31.164  1.00  0.00     0.031 C 
ATOM     48  C   UNL A   1      38.620  29.858  29.116  1.00  0.00     0.029 A 
ATOM     49  N   UNL A   1      39.445  30.679  31.025  1.00  0.00    -0.354 N 
ATOM     50  C   UNL A   1      42.657  28.649  33.102  1.00  0.00     0.074 A 
ATOM     51  C   UNL A   1      43.159  27.534  32.329  1.00  0.00     0.031 C 
ATOM     52  C   UNL A   1      37.886  30.936  29.442  1.00  0.00     0.029 A 
ATOM     53  C   UNL A   1      38.367  31.475  30.711  1.00  0.00     0.049 A 
ATOM     54  H   UNL A   1      40.014  30.832  31.814  1.00  0.00     0.167 HD
ATOM     55  C   UNL A   1      43.147  29.030  34.305  1.00  0.00     0.037 A 
ATOM     56  C   UNL A   1      37.811  32.503  31.380  1.00  0.00     0.037 A 
ATOM     57  C   UNL A   1      42.680  30.172  35.043  1.00  0.00     0.049 A 
ATOM     58  C   UNL A   1      38.403  32.928  32.698  1.00  0.00     0.074 A 
ATOM     59  C   UNL A   1      43.162  30.674  36.239  1.00  0.00     0.029 A 
ATOM     60  N   UNL A   1      41.635  30.994  34.652  1.00  0.00    -0.354 N 
ATOM     61  N   UNL A   1      39.410  32.402  33.352  1.00  0.00    -0.248 NA
ATOM     62  C   UNL A   1      37.785  34.082  33.370  1.00  0.00     0.031 C 
ATOM     63  C   UNL A   1      42.393  31.790  36.583  1.00  0.00     0.029 A 
ATOM     64  C   UNL A   1      41.454  31.998  35.586  1.00  0.00     0.049 A 
ATOM     65  H   UNL A   1      41.103  30.881  33.832  1.00  0.00     0.167 HD
ATOM     66  C   UNL A   1      39.561  33.173  34.499  1.00  0.00     0.074 A 
ATOM     67  C   UNL A   1      38.547  34.204  34.450  1.00  0.00     0.031 C 
ATOM     68  C   UNL A   1      40.459  33.036  35.503  1.00  0.00     0.037 A 
BRANCH  55  69
ATOM     69  C   UNL A   1      44.257  28.217  34.903  1.00  0.00     0.058 A 
ATOM     70  C   UNL A   1      43.969  27.129  35.742  1.00  0.00     0.135 A 
ATOM     71  C   UNL A   1      45.602  28.569  34.717  1.00  0.00     0.135 A 
ATOM     72  F   UNL A   1      42.697  26.752  35.944  1.00  0.00    -0.206 F 
ATOM     73  C   UNL A   1      44.977  26.425  36.392  1.00  0.00     0.059 A 
ATOM     74  C   UNL A   1      46.626  27.869  35.343  1.00  0.00     0.059 A 
ATOM     75  F   UNL A   1      45.927  29.591  33.910  1.00  0.00    -0.206 F 
ATOM     76  C   UNL A   1      46.303  26.801  36.185  1.00  0.00     0.060 A 
BRANCH  76  77
ATOM     77  S   UNL A   1      47.644  25.933  37.024  1.00  0.00     0.124 S 
ATOM     78  O   UNL A   1      47.983  24.904  36.044  1.00  0.00    -0.237 OA
ATOM     79  O   UNL A   1      48.636  26.988  37.203  1.00  0.00    -0.237 OA
ATOM     80  O   UNL A   1      47.020  25.447  38.251  1.00  0.00    -0.744 OA
ENDBRANCH  76  77
ENDBRANCH  55  69
BRANCH  56  81
ATOM     81  C   UNL A   1      36.622  33.201  30.827  1.00  0.00     0.058 A 
ATOM     82  C   UNL A   1      35.345  33.016  31.381  1.00  0.00     0.135 A 
ATOM     83  C   UNL A   1      36.740  34.072  29.735  1.00  0.00     0.135 A 
ATOM     84  F   UNL A   1      35.176  32.178  32.416  1.00  0.00    -0.206 F 
ATOM     85  C   UNL A   1      34.227  33.669  30.874  1.00  0.00     0.059 A 
ATOM     86  C   UNL A   1      35.641  34.753  29.223  1.00  0.00     0.059 A 
ATOM     87  F   UNL A   1      37.941  34.285  29.176  1.00  0.00    -0.206 F 
ATOM     88  C   UNL A   1      34.387  34.546  29.802  1.00  0.00     0.060 A 
BRANCH  88  89
ATOM     89  S   UNL A   1      32.959  35.410  29.111  1.00  0.00     0.124 S 
ATOM     90  O   UNL A   1      32.438  34.418  28.179  1.00  0.00    -0.237 OA
ATOM     91  O   UNL A   1      32.147  35.662  30.299  1.00  0.00    -0.237 OA
ATOM     92  O   UNL A   1      33.550  36.600  28.505  1.00  0.00    -0.744 OA
ENDBRANCH  88  89
ENDBRANCH  56  81
BRANCH  68  93
ATOM     93  C   UNL A   1      40.429  34.040  36.617  1.00  0.00     0.058 A 
ATOM     94  C   UNL A   1      39.516  33.896  37.673  1.00  0.00     0.135 A 
ATOM     95  C   UNL A   1      41.211  35.202  36.571  1.00  0.00     0.135 A 
ATOM     96  F   UNL A   1      38.742  32.801  37.752  1.00  0.00    -0.206 F 
ATOM     97  C   UNL A   1      39.357  34.885  38.636  1.00  0.00     0.059 A 
ATOM     98  C   UNL A   1      41.080  36.198  37.534  1.00  0.00     0.059 A 
ATOM     99  F   UNL A   1      42.102  35.379  35.584  1.00  0.00    -0.206 F 
ATOM    100  C   UNL A   1      40.142  36.035  38.555  1.00  0.00     0.060 A 
BRANCH 100 101
ATOM    101  S   UNL A   1      39.917  37.377  39.743  1.00  0.00     0.124 S 
ATOM    102  O   UNL A   1      38.684  37.993  39.262  1.00  0.00    -0.237 OA
ATOM    103  O   UNL A   1      39.816  36.659  41.009  1.00  0.00    -0.237 OA
ATOM    104  O   UNL A   1      41.125  38.181  39.580  1.00  0.00    -0.744 OA
ENDBRANCH 100 101
ENDBRANCH  68  93
ENDBRANCH  42  43
ENDBRANCH  34  37
ENDBRANCH  32  33
ENDBRANCH   1  32
TORSDOF 18
ENDMDL
