MODEL 1
REMARK VINA RESULT:     -11.9      0.000      0.000
REMARK SMILES CC[C@@H](Oc1ccc(-c2ccccc2)cc1)C(=O)N1CCC[C@H](C(=O)NCCCCNC(=O)c2ccc(-c3c4nc(c(-c5c(F)cc(S(=O)(=O)[O-])cc5F)c5ccc([nH]5)c(-c5c(F)cc(S(=O)(=O)[O-])cc5F)c5nc(c(-c6c(F)cc(S(=O)(=O)[O-])cc6F)c6ccc3[nH]6)C=C5)C=C4)cc2)C1
REMARK SMILES IDX 27 1 26 2 24 3 25 4 23 6 19 7 20 8 100 9 21 10 22 11 17 12
REMARK SMILES IDX 18 13 3 14 2 15 1 16 4 17 5 18 6 19 16 20 7 21 15 22 8 23
REMARK SMILES IDX 9 24 10 25 14 26 11 27 13 28 12 29 28 30 29 31 30 32 31 33
REMARK SMILES IDX 32 34 33 36 34 37 35 38 99 39 36 40 98 41 37 42 38 43 39 44
REMARK SMILES IDX 92 45 40 46 97 47 91 48 93 49 41 50 96 51 90 52 89 53 42 55
REMARK SMILES IDX 76 56 55 57 75 58 56 59 59 60 74 61 94 62 57 63 58 64 73 66
REMARK SMILES IDX 95 67 60 68 43 69 44 70 53 71 45 72 46 73 52 74 54 75 47 76
REMARK SMILES IDX 48 77 49 78 50 79 51 80 77 81 78 82 87 83 79 84 80 85 86 86
REMARK SMILES IDX 88 87 81 88 82 89 83 90 84 91 85 92 61 93 62 94 71 95 63 96
REMARK SMILES IDX 64 97 70 98 72 99 65 100 66 101 67 102 68 103 69 104
REMARK H PARENT 26 5 31 35 93 54 59 65
REMARK Flexibility Score: inf
ROOT
ATOM      1  C   UNL A   1      33.949  26.147  25.067  1.00  0.00     0.116 C 
ENDROOT
BRANCH   1   2
ATOM      2  N   UNL A   1      34.088  25.368  23.857  1.00  0.00    -0.356 N 
ATOM      3  C   UNL A   1      34.752  24.216  23.591  1.00  0.00     0.224 C 
ATOM      4  O   UNL A   1      34.518  23.694  22.494  1.00  0.00    -0.275 OA
ATOM      5  H   UNL A   1      33.611  25.743  23.081  1.00  0.00     0.163 HD
BRANCH   3   6
ATOM      6  C   UNL A   1      35.752  23.532  24.535  1.00  0.00     0.098 C 
ATOM      7  N   UNL A   1      35.062  21.211  25.125  1.00  0.00    -0.339 N 
ATOM      8  C   UNL A   1      35.092  21.496  26.558  1.00  0.00     0.119 C 
ATOM      9  C   UNL A   1      35.939  22.032  24.304  1.00  0.00     0.133 C 
ATOM     10  C   UNL A   1      34.887  22.969  26.900  1.00  0.00     0.022 C 
ATOM     11  C   UNL A   1      35.657  23.933  26.006  1.00  0.00     0.017 C 
BRANCH   7  12
ATOM     12  C   UNL A   1      34.267  20.160  24.668  1.00  0.00     0.263 C 
ATOM     13  O   UNL A   1      34.712  19.005  24.656  1.00  0.00    -0.271 OA
BRANCH  12  14
ATOM     14  C   UNL A   1      32.878  20.440  24.051  1.00  0.00     0.261 C 
BRANCH  14  15
ATOM     15  C   UNL A   1      32.123  19.227  23.490  1.00  0.00     0.052 C 
ATOM     16  C   UNL A   1      32.209  19.099  21.972  1.00  0.00     0.008 C 
ENDBRANCH  14  15
BRANCH  14  17
ATOM     17  O   UNL A   1      32.166  21.043  25.153  1.00  0.00    -0.481 OA
BRANCH  17  18
ATOM     18  C   UNL A   1      31.687  22.285  24.865  1.00  0.00     0.120 A 
ATOM     19  C   UNL A   1      31.331  23.194  25.855  1.00  0.00     0.047 A 
ATOM     20  C   UNL A   1      31.487  22.583  23.525  1.00  0.00     0.047 A 
ATOM     21  C   UNL A   1      30.795  24.437  25.488  1.00  0.00     0.012 A 
ATOM     22  C   UNL A   1      30.980  23.828  23.166  1.00  0.00     0.012 A 
ATOM     23  C   UNL A   1      30.610  24.780  24.135  1.00  0.00    -0.018 A 
BRANCH  23  24
ATOM     24  C   UNL A   1      30.041  26.078  23.715  1.00  0.00    -0.018 A 
ATOM     25  C   UNL A   1      30.781  27.005  22.963  1.00  0.00     0.009 A 
ATOM     26  C   UNL A   1      28.710  26.412  24.029  1.00  0.00     0.009 A 
ATOM     27  C   UNL A   1      30.206  28.204  22.526  1.00  0.00     0.001 A 
ATOM     28  C   UNL A   1      28.129  27.602  23.585  1.00  0.00     0.001 A 
ATOM     29  C   UNL A   1      28.878  28.498  22.830  1.00  0.00     0.000 A 
ENDBRANCH  23  24
ENDBRANCH  17  18
ENDBRANCH  14  17
ENDBRANCH  12  14
ENDBRANCH   7  12
ENDBRANCH   3   6
ENDBRANCH   1   2
BRANCH   1  30
ATOM     30  C   UNL A   1      33.632  27.618  24.815  1.00  0.00     0.023 C 
BRANCH  30  31
ATOM     31  C   UNL A   1      32.771  28.277  25.886  1.00  0.00     0.023 C 
BRANCH  31  32
ATOM     32  C   UNL A   1      33.463  28.537  27.222  1.00  0.00     0.116 C 
BRANCH  32  33
ATOM     33  N   UNL A   1      33.430  29.925  27.666  1.00  0.00    -0.352 N 
ATOM     34  C   UNL A   1      34.455  30.658  28.224  1.00  0.00     0.251 C 
ATOM     35  H   UNL A   1      32.572  30.394  27.555  1.00  0.00     0.163 HD
ATOM     36  O   UNL A   1      34.266  31.799  28.633  1.00  0.00    -0.269 OA
BRANCH  34  37
ATOM     37  C   UNL A   1      35.784  30.025  28.366  1.00  0.00     0.039 A 
ATOM     38  C   UNL A   1      36.676  30.068  27.293  1.00  0.00     0.014 A 
ATOM     39  C   UNL A   1      36.175  29.481  29.592  1.00  0.00     0.014 A 
ATOM     40  C   UNL A   1      37.995  29.652  27.482  1.00  0.00     0.010 A 
ATOM     41  C   UNL A   1      37.508  29.147  29.802  1.00  0.00     0.010 A 
ATOM     42  C   UNL A   1      38.435  29.239  28.752  1.00  0.00    -0.014 A 
BRANCH  42  43
ATOM     43  C   UNL A   1      39.866  28.927  29.007  1.00  0.00     0.031 A 
ATOM     44  C   UNL A   1      40.777  29.971  29.594  1.00  0.00     0.074 A 
ATOM     45  C   UNL A   1      40.361  27.728  28.640  1.00  0.00     0.049 A 
ATOM     46  N   UNL A   1      42.059  29.902  29.840  1.00  0.00    -0.248 NA
ATOM     47  C   UNL A   1      40.174  31.275  29.915  1.00  0.00     0.031 C 
ATOM     48  C   UNL A   1      39.599  26.658  27.990  1.00  0.00     0.029 A 
ATOM     49  N   UNL A   1      41.627  27.207  28.754  1.00  0.00    -0.354 N 
ATOM     50  C   UNL A   1      42.419  31.154  30.327  1.00  0.00     0.074 A 
ATOM     51  C   UNL A   1      41.232  31.980  30.286  1.00  0.00     0.031 C 
ATOM     52  C   UNL A   1      40.403  25.600  27.792  1.00  0.00     0.029 A 
ATOM     53  C   UNL A   1      41.742  25.924  28.273  1.00  0.00     0.049 A 
ATOM     54  H   UNL A   1      42.380  27.706  29.144  1.00  0.00     0.167 HD
ATOM     55  C   UNL A   1      43.621  31.569  30.792  1.00  0.00     0.037 A 
ATOM     56  C   UNL A   1      42.807  25.098  28.229  1.00  0.00     0.037 A 
ATOM     57  C   UNL A   1      44.789  30.733  30.867  1.00  0.00     0.049 A 
ATOM     58  C   UNL A   1      44.120  25.568  28.791  1.00  0.00     0.074 A 
ATOM     59  C   UNL A   1      46.035  31.036  31.388  1.00  0.00     0.029 A 
ATOM     60  N   UNL A   1      44.855  29.425  30.410  1.00  0.00    -0.354 N 
ATOM     61  N   UNL A   1      44.423  26.731  29.317  1.00  0.00    -0.248 NA
ATOM     62  C   UNL A   1      45.235  24.611  28.763  1.00  0.00     0.031 C 
ATOM     63  C   UNL A   1      46.863  29.922  31.219  1.00  0.00     0.029 A 
ATOM     64  C   UNL A   1      46.124  28.911  30.626  1.00  0.00     0.049 A 
ATOM     65  H   UNL A   1      44.112  28.933  29.993  1.00  0.00     0.167 HD
ATOM     66  C   UNL A   1      45.755  26.638  29.703  1.00  0.00     0.074 A 
ATOM     67  C   UNL A   1      46.196  25.300  29.364  1.00  0.00     0.031 C 
ATOM     68  C   UNL A   1      46.543  27.575  30.286  1.00  0.00     0.037 A 
BRANCH  55  69
ATOM     69  C   UNL A   1      43.723  32.989  31.277  1.00  0.00     0.058 A 
ATOM     70  C   UNL A   1      44.073  34.037  30.411  1.00  0.00     0.135 A 
ATOM     71  C   UNL A   1      43.448  33.311  32.616  1.00  0.00     0.135 A 
ATOM     72  F   UNL A   1      44.363  33.783  29.124  1.00  0.00    -0.206 F 
ATOM     73  C   UNL A   1      44.180  35.349  30.860  1.00  0.00     0.059 A 
ATOM     74  C   UNL A   1      43.522  34.621  33.081  1.00  0.00     0.059 A 
ATOM     75  F   UNL A   1      43.109  32.348  33.487  1.00  0.00    -0.206 F 
ATOM     76  C   UNL A   1      43.905  35.630  32.199  1.00  0.00     0.060 A 
BRANCH  76  77
ATOM     77  S   UNL A   1      44.047  37.337  32.768  1.00  0.00     0.124 S 
ATOM     78  O   UNL A   1      42.949  37.415  33.728  1.00  0.00    -0.237 OA
ATOM     79  O   UNL A   1      45.389  37.368  33.338  1.00  0.00    -0.237 OA
ATOM     80  O   UNL A   1      43.870  38.118  31.547  1.00  0.00    -0.744 OA
ENDBRANCH  76  77
ENDBRANCH  55  69
BRANCH  56  81
ATOM     81  C   UNL A   1      42.663  23.728  27.670  1.00  0.00     0.058 A 
ATOM     82  C   UNL A   1      42.419  22.631  28.509  1.00  0.00     0.135 A 
ATOM     83  C   UNL A   1      42.756  23.488  26.290  1.00  0.00     0.135 A 
ATOM     84  F   UNL A   1      42.329  22.809  29.835  1.00  0.00    -0.206 F 
ATOM     85  C   UNL A   1      42.290  21.341  28.005  1.00  0.00     0.059 A 
ATOM     86  C   UNL A   1      42.606  22.210  25.760  1.00  0.00     0.059 A 
ATOM     87  F   UNL A   1      42.970  24.506  25.443  1.00  0.00    -0.206 F 
ATOM     88  C   UNL A   1      42.384  21.141  26.627  1.00  0.00     0.060 A 
BRANCH  88  89
ATOM     89  S   UNL A   1      42.164  19.470  25.975  1.00  0.00     0.124 S 
ATOM     90  O   UNL A   1      40.721  19.424  25.770  1.00  0.00    -0.237 OA
ATOM     91  O   UNL A   1      42.981  19.501  24.766  1.00  0.00    -0.237 OA
ATOM     92  O   UNL A   1      42.679  18.623  27.046  1.00  0.00    -0.744 OA
ENDBRANCH  88  89
ENDBRANCH  56  81
BRANCH  68  93
ATOM     93  C   UNL A   1      47.954  27.178  30.616  1.00  0.00     0.058 A 
ATOM     94  C   UNL A   1      48.261  26.454  31.778  1.00  0.00     0.135 A 
ATOM     95  C   UNL A   1      49.005  27.492  29.740  1.00  0.00     0.135 A 
ATOM     96  F   UNL A   1      47.292  26.133  32.651  1.00  0.00    -0.206 F 
ATOM     97  C   UNL A   1      49.566  26.077  32.075  1.00  0.00     0.059 A 
ATOM     98  C   UNL A   1      50.315  27.104  30.004  1.00  0.00     0.059 A 
ATOM     99  F   UNL A   1      48.762  28.173  28.609  1.00  0.00    -0.206 F 
ATOM    100  C   UNL A   1      50.587  26.409  31.183  1.00  0.00     0.060 A 
BRANCH 100 101
ATOM    101  S   UNL A   1      52.276  25.896  31.565  1.00  0.00     0.124 S 
ATOM    102  O   UNL A   1      52.666  26.892  32.558  1.00  0.00    -0.237 OA
ATOM    103  O   UNL A   1      52.086  24.539  32.069  1.00  0.00    -0.237 OA
ATOM    104  O   UNL A   1      52.958  25.991  30.279  1.00  0.00    -0.744 OA
ENDBRANCH 100 101
ENDBRANCH  68  93
ENDBRANCH  42  43
ENDBRANCH  34  37
ENDBRANCH  32  33
ENDBRANCH  31  32
ENDBRANCH  30  31
ENDBRANCH   1  30
TORSDOF 20
ENDMDL
MODEL 2
REMARK VINA RESULT:     -11.5      2.809      9.267
REMARK SMILES CC[C@@H](Oc1ccc(-c2ccccc2)cc1)C(=O)N1CCC[C@H](C(=O)NCCCCNC(=O)c2ccc(-c3c4nc(c(-c5c(F)cc(S(=O)(=O)[O-])cc5F)c5ccc([nH]5)c(-c5c(F)cc(S(=O)(=O)[O-])cc5F)c5nc(c(-c6c(F)cc(S(=O)(=O)[O-])cc6F)c6ccc3[nH]6)C=C5)C=C4)cc2)C1
REMARK SMILES IDX 27 1 26 2 24 3 25 4 23 6 19 7 20 8 100 9 21 10 22 11 17 12
REMARK SMILES IDX 18 13 3 14 2 15 1 16 4 17 5 18 6 19 16 20 7 21 15 22 8 23
REMARK SMILES IDX 9 24 10 25 14 26 11 27 13 28 12 29 28 30 29 31 30 32 31 33
REMARK SMILES IDX 32 34 33 36 34 37 35 38 99 39 36 40 98 41 37 42 38 43 39 44
REMARK SMILES IDX 92 45 40 46 97 47 91 48 93 49 41 50 96 51 90 52 89 53 42 55
REMARK SMILES IDX 76 56 55 57 75 58 56 59 59 60 74 61 94 62 57 63 58 64 73 66
REMARK SMILES IDX 95 67 60 68 43 69 44 70 53 71 45 72 46 73 52 74 54 75 47 76
REMARK SMILES IDX 48 77 49 78 50 79 51 80 77 81 78 82 87 83 79 84 80 85 86 86
REMARK SMILES IDX 88 87 81 88 82 89 83 90 84 91 85 92 61 93 62 94 71 95 63 96
REMARK SMILES IDX 64 97 70 98 72 99 65 100 66 101 67 102 68 103 69 104
REMARK H PARENT 26 5 31 35 93 54 59 65
REMARK Flexibility Score: inf
ROOT
ATOM      1  C   UNL A   1      33.982  24.619  25.746  1.00  0.00     0.116 C 
ENDROOT
BRANCH   1   2
ATOM      2  N   UNL A   1      32.647  24.912  26.218  1.00  0.00    -0.356 N 
ATOM      3  C   UNL A   1      32.019  26.081  26.494  1.00  0.00     0.224 C 
ATOM      4  O   UNL A   1      30.801  26.010  26.700  1.00  0.00    -0.275 OA
ATOM      5  H   UNL A   1      32.090  24.113  26.367  1.00  0.00     0.163 HD
BRANCH   3   6
ATOM      6  C   UNL A   1      32.700  27.456  26.569  1.00  0.00     0.098 C 
ATOM      7  N   UNL A   1      31.735  29.080  24.943  1.00  0.00    -0.339 N 
ATOM      8  C   UNL A   1      33.034  29.334  24.324  1.00  0.00     0.119 C 
ATOM      9  C   UNL A   1      31.774  28.651  26.332  1.00  0.00     0.133 C 
ATOM     10  C   UNL A   1      34.028  28.186  24.480  1.00  0.00     0.022 C 
ATOM     11  C   UNL A   1      34.054  27.565  25.872  1.00  0.00     0.017 C 
BRANCH   7  12
ATOM     12  C   UNL A   1      30.581  29.323  24.197  1.00  0.00     0.263 C 
ATOM     13  O   UNL A   1      30.082  30.455  24.177  1.00  0.00    -0.271 OA
BRANCH  12  14
ATOM     14  C   UNL A   1      29.840  28.159  23.501  1.00  0.00     0.261 C 
BRANCH  14  15
ATOM     15  C   UNL A   1      28.577  28.529  22.710  1.00  0.00     0.052 C 
ATOM     16  C   UNL A   1      27.281  28.312  23.485  1.00  0.00     0.008 C 
ENDBRANCH  14  15
BRANCH  14  17
ATOM     17  O   UNL A   1      30.861  27.612  22.641  1.00  0.00    -0.481 OA
BRANCH  17  18
ATOM     18  C   UNL A   1      31.023  26.268  22.790  1.00  0.00     0.120 A 
ATOM     19  C   UNL A   1      30.072  25.468  23.414  1.00  0.00     0.047 A 
ATOM     20  C   UNL A   1      32.229  25.731  22.363  1.00  0.00     0.047 A 
ATOM     21  C   UNL A   1      30.327  24.099  23.582  1.00  0.00     0.012 A 
ATOM     22  C   UNL A   1      32.465  24.368  22.508  1.00  0.00     0.012 A 
ATOM     23  C   UNL A   1      31.528  23.521  23.129  1.00  0.00    -0.018 A 
BRANCH  23  24
ATOM     24  C   UNL A   1      31.830  22.083  23.297  1.00  0.00    -0.018 A 
ATOM     25  C   UNL A   1      31.810  21.189  22.215  1.00  0.00     0.009 A 
ATOM     26  C   UNL A   1      32.189  21.568  24.558  1.00  0.00     0.009 A 
ATOM     27  C   UNL A   1      32.154  19.842  22.384  1.00  0.00     0.001 A 
ATOM     28  C   UNL A   1      32.545  20.229  24.727  1.00  0.00     0.001 A 
ATOM     29  C   UNL A   1      32.530  19.366  23.638  1.00  0.00     0.000 A 
ENDBRANCH  23  24
ENDBRANCH  17  18
ENDBRANCH  14  17
ENDBRANCH  12  14
ENDBRANCH   7  12
ENDBRANCH   3   6
ENDBRANCH   1   2
BRANCH   1  30
ATOM     30  C   UNL A   1      34.586  23.360  26.361  1.00  0.00     0.023 C 
BRANCH  30  31
ATOM     31  C   UNL A   1      35.631  22.666  25.494  1.00  0.00     0.023 C 
BRANCH  31  32
ATOM     32  C   UNL A   1      36.952  23.413  25.328  1.00  0.00     0.116 C 
BRANCH  32  33
ATOM     33  N   UNL A   1      38.143  22.582  25.454  1.00  0.00    -0.352 N 
ATOM     34  C   UNL A   1      39.333  22.900  26.073  1.00  0.00     0.251 C 
ATOM     35  H   UNL A   1      38.091  21.687  25.047  1.00  0.00     0.163 HD
ATOM     36  O   UNL A   1      40.290  22.133  26.032  1.00  0.00    -0.269 OA
BRANCH  34  37
ATOM     37  C   UNL A   1      39.453  24.208  26.750  1.00  0.00     0.039 A 
ATOM     38  C   UNL A   1      38.908  24.366  28.026  1.00  0.00     0.014 A 
ATOM     39  C   UNL A   1      40.190  25.239  26.161  1.00  0.00     0.014 A 
ATOM     40  C   UNL A   1      39.187  25.526  28.751  1.00  0.00     0.010 A 
ATOM     41  C   UNL A   1      40.536  26.354  26.916  1.00  0.00     0.010 A 
ATOM     42  C   UNL A   1      40.047  26.505  28.223  1.00  0.00    -0.014 A 
BRANCH  42  43
ATOM     43  C   UNL A   1      40.468  27.678  29.033  1.00  0.00     0.031 A 
ATOM     44  C   UNL A   1      41.795  27.673  29.743  1.00  0.00     0.074 A 
ATOM     45  C   UNL A   1      39.622  28.716  29.190  1.00  0.00     0.049 A 
ATOM     46  N   UNL A   1      42.310  28.578  30.533  1.00  0.00    -0.248 NA
ATOM     47  C   UNL A   1      42.637  26.479  29.569  1.00  0.00     0.031 C 
ATOM     48  C   UNL A   1      38.276  28.808  28.618  1.00  0.00     0.029 A 
ATOM     49  N   UNL A   1      39.764  29.892  29.884  1.00  0.00    -0.354 N 
ATOM     50  C   UNL A   1      43.526  28.057  30.962  1.00  0.00     0.074 A 
ATOM     51  C   UNL A   1      43.643  26.733  30.392  1.00  0.00     0.031 C 
ATOM     52  C   UNL A   1      37.730  29.988  28.958  1.00  0.00     0.029 A 
ATOM     53  C   UNL A   1      38.673  30.724  29.794  1.00  0.00     0.049 A 
ATOM     54  H   UNL A   1      40.573  30.119  30.398  1.00  0.00     0.167 HD
ATOM     55  C   UNL A   1      44.471  28.640  31.737  1.00  0.00     0.037 A 
ATOM     56  C   UNL A   1      38.456  31.945  30.322  1.00  0.00     0.037 A 
ATOM     57  C   UNL A   1      44.368  29.972  32.271  1.00  0.00     0.049 A 
ATOM     58  C   UNL A   1      39.539  32.588  31.144  1.00  0.00     0.074 A 
ATOM     59  C   UNL A   1      45.301  30.680  33.007  1.00  0.00     0.029 A 
ATOM     60  N   UNL A   1      43.265  30.800  32.121  1.00  0.00    -0.354 N 
ATOM     61  N   UNL A   1      40.714  32.111  31.478  1.00  0.00    -0.248 NA
ATOM     62  C   UNL A   1      39.271  33.940  31.654  1.00  0.00     0.031 C 
ATOM     63  C   UNL A   1      44.751  31.925  33.330  1.00  0.00     0.029 A 
ATOM     64  C   UNL A   1      43.489  32.007  32.762  1.00  0.00     0.049 A 
ATOM     65  H   UNL A   1      42.444  30.565  31.633  1.00  0.00     0.167 HD
ATOM     66  C   UNL A   1      41.335  33.111  32.217  1.00  0.00     0.074 A 
ATOM     67  C   UNL A   1      40.411  34.226  32.269  1.00  0.00     0.031 C 
ATOM     68  C   UNL A   1      42.559  33.108  32.800  1.00  0.00     0.037 A 
BRANCH  55  69
ATOM     69  C   UNL A   1      45.711  27.841  32.035  1.00  0.00     0.058 A 
ATOM     70  C   UNL A   1      45.776  26.970  33.133  1.00  0.00     0.135 A 
ATOM     71  C   UNL A   1      46.839  27.933  31.203  1.00  0.00     0.135 A 
ATOM     72  F   UNL A   1      44.731  26.857  33.970  1.00  0.00    -0.206 F 
ATOM     73  C   UNL A   1      46.925  26.240  33.416  1.00  0.00     0.059 A 
ATOM     74  C   UNL A   1      47.991  27.192  31.452  1.00  0.00     0.059 A 
ATOM     75  F   UNL A   1      46.831  28.752  30.140  1.00  0.00    -0.206 F 
ATOM     76  C   UNL A   1      48.029  26.360  32.571  1.00  0.00     0.060 A 
BRANCH  76  77
ATOM     77  S   UNL A   1      49.514  25.407  32.951  1.00  0.00     0.124 S 
ATOM     78  O   UNL A   1      49.836  24.840  31.646  1.00  0.00    -0.237 OA
ATOM     79  O   UNL A   1      50.430  26.433  33.438  1.00  0.00    -0.237 OA
ATOM     80  O   UNL A   1      49.057  24.452  33.956  1.00  0.00    -0.744 OA
ENDBRANCH  76  77
ENDBRANCH  55  69
BRANCH  56  81
ATOM     81  C   UNL A   1      37.179  32.657  30.053  1.00  0.00     0.058 A 
ATOM     82  C   UNL A   1      37.092  33.617  29.035  1.00  0.00     0.135 A 
ATOM     83  C   UNL A   1      36.021  32.386  30.798  1.00  0.00     0.135 A 
ATOM     84  F   UNL A   1      38.174  33.915  28.300  1.00  0.00    -0.206 F 
ATOM     85  C   UNL A   1      35.907  34.298  28.773  1.00  0.00     0.059 A 
ATOM     86  C   UNL A   1      34.818  33.038  30.540  1.00  0.00     0.059 A 
ATOM     87  F   UNL A   1      36.047  31.463  31.771  1.00  0.00    -0.206 F 
ATOM     88  C   UNL A   1      34.774  34.000  29.531  1.00  0.00     0.060 A 
BRANCH  88  89
ATOM     89  S   UNL A   1      33.227  34.853  29.153  1.00  0.00     0.124 S 
ATOM     90  O   UNL A   1      32.603  33.925  28.217  1.00  0.00    -0.237 OA
ATOM     91  O   UNL A   1      32.600  34.952  30.468  1.00  0.00    -0.237 OA
ATOM     92  O   UNL A   1      33.674  36.121  28.586  1.00  0.00    -0.744 OA
ENDBRANCH  88  89
ENDBRANCH  56  81
BRANCH  68  93
ATOM     93  C   UNL A   1      42.980  34.356  33.522  1.00  0.00     0.058 A 
ATOM     94  C   UNL A   1      42.676  34.560  34.877  1.00  0.00     0.135 A 
ATOM     95  C   UNL A   1      43.728  35.343  32.861  1.00  0.00     0.135 A 
ATOM     96  F   UNL A   1      41.958  33.648  35.553  1.00  0.00    -0.206 F 
ATOM     97  C   UNL A   1      43.077  35.711  35.547  1.00  0.00     0.059 A 
ATOM     98  C   UNL A   1      44.161  36.491  33.517  1.00  0.00     0.059 A 
ATOM     99  F   UNL A   1      44.054  35.191  31.568  1.00  0.00    -0.206 F 
ATOM    100  C   UNL A   1      43.818  36.672  34.856  1.00  0.00     0.060 A 
BRANCH 100 101
ATOM    101  S   UNL A   1      44.353  38.154  35.739  1.00  0.00     0.124 S 
ATOM    102  O   UNL A   1      45.805  38.030  35.664  1.00  0.00    -0.237 OA
ATOM    103  O   UNL A   1      43.767  39.225  34.940  1.00  0.00    -0.237 OA
ATOM    104  O   UNL A   1      43.775  37.983  37.068  1.00  0.00    -0.744 OA
ENDBRANCH 100 101
ENDBRANCH  68  93
ENDBRANCH  42  43
ENDBRANCH  34  37
ENDBRANCH  32  33
ENDBRANCH  31  32
ENDBRANCH  30  31
ENDBRANCH   1  30
TORSDOF 20
ENDMDL
MODEL 3
REMARK VINA RESULT:     -11.4      2.959      5.278
REMARK SMILES CC[C@@H](Oc1ccc(-c2ccccc2)cc1)C(=O)N1CCC[C@H](C(=O)NCCCCNC(=O)c2ccc(-c3c4nc(c(-c5c(F)cc(S(=O)(=O)[O-])cc5F)c5ccc([nH]5)c(-c5c(F)cc(S(=O)(=O)[O-])cc5F)c5nc(c(-c6c(F)cc(S(=O)(=O)[O-])cc6F)c6ccc3[nH]6)C=C5)C=C4)cc2)C1
REMARK SMILES IDX 27 1 26 2 24 3 25 4 23 6 19 7 20 8 100 9 21 10 22 11 17 12
REMARK SMILES IDX 18 13 3 14 2 15 1 16 4 17 5 18 6 19 16 20 7 21 15 22 8 23
REMARK SMILES IDX 9 24 10 25 14 26 11 27 13 28 12 29 28 30 29 31 30 32 31 33
REMARK SMILES IDX 32 34 33 36 34 37 35 38 99 39 36 40 98 41 37 42 38 43 39 44
REMARK SMILES IDX 92 45 40 46 97 47 91 48 93 49 41 50 96 51 90 52 89 53 42 55
REMARK SMILES IDX 76 56 55 57 75 58 56 59 59 60 74 61 94 62 57 63 58 64 73 66
REMARK SMILES IDX 95 67 60 68 43 69 44 70 53 71 45 72 46 73 52 74 54 75 47 76
REMARK SMILES IDX 48 77 49 78 50 79 51 80 77 81 78 82 87 83 79 84 80 85 86 86
REMARK SMILES IDX 88 87 81 88 82 89 83 90 84 91 85 92 61 93 62 94 71 95 63 96
REMARK SMILES IDX 64 97 70 98 72 99 65 100 66 101 67 102 68 103 69 104
REMARK H PARENT 26 5 31 35 93 54 59 65
REMARK Flexibility Score: inf
ROOT
ATOM      1  C   UNL A   1      34.787  31.909  27.948  1.00  0.00     0.116 C 
ENDROOT
BRANCH   1   2
ATOM      2  N   UNL A   1      33.532  31.817  27.236  1.00  0.00    -0.356 N 
ATOM      3  C   UNL A   1      32.811  30.754  26.802  1.00  0.00     0.224 C 
ATOM      4  O   UNL A   1      31.671  31.001  26.388  1.00  0.00    -0.275 OA
ATOM      5  H   UNL A   1      33.125  32.689  27.027  1.00  0.00     0.163 HD
BRANCH   3   6
ATOM      6  C   UNL A   1      33.301  29.298  26.788  1.00  0.00     0.098 C 
ATOM      7  N   UNL A   1      32.613  28.087  24.721  1.00  0.00    -0.339 N 
ATOM      8  C   UNL A   1      31.938  27.037  25.481  1.00  0.00     0.119 C 
ATOM      9  C   UNL A   1      33.701  28.762  25.412  1.00  0.00     0.133 C 
ATOM     10  C   UNL A   1      31.472  27.478  26.865  1.00  0.00     0.022 C 
ATOM     11  C   UNL A   1      32.489  28.317  27.631  1.00  0.00     0.017 C 
BRANCH   7  12
ATOM     12  C   UNL A   1      32.220  28.316  23.402  1.00  0.00     0.263 C 
ATOM     13  O   UNL A   1      32.952  28.955  22.637  1.00  0.00    -0.271 OA
BRANCH  12  14
ATOM     14  C   UNL A   1      30.814  27.892  22.921  1.00  0.00     0.261 C 
BRANCH  14  15
ATOM     15  C   UNL A   1      29.872  29.023  22.484  1.00  0.00     0.052 C 
ATOM     16  C   UNL A   1      28.455  28.889  23.036  1.00  0.00     0.008 C 
ENDBRANCH  14  15
BRANCH  14  17
ATOM     17  O   UNL A   1      31.116  27.004  21.824  1.00  0.00    -0.481 OA
BRANCH  17  18
ATOM     18  C   UNL A   1      31.581  25.790  22.231  1.00  0.00     0.120 A 
ATOM     19  C   UNL A   1      32.834  25.311  21.864  1.00  0.00     0.047 A 
ATOM     20  C   UNL A   1      30.711  25.002  22.968  1.00  0.00     0.047 A 
ATOM     21  C   UNL A   1      33.229  24.030  22.275  1.00  0.00     0.012 A 
ATOM     22  C   UNL A   1      31.117  23.742  23.396  1.00  0.00     0.012 A 
ATOM     23  C   UNL A   1      32.378  23.220  23.052  1.00  0.00    -0.018 A 
BRANCH  23  24
ATOM     24  C   UNL A   1      32.761  21.862  23.495  1.00  0.00    -0.018 A 
ATOM     25  C   UNL A   1      33.726  21.650  24.493  1.00  0.00     0.009 A 
ATOM     26  C   UNL A   1      32.133  20.726  22.948  1.00  0.00     0.009 A 
ATOM     27  C   UNL A   1      34.033  20.360  24.939  1.00  0.00     0.001 A 
ATOM     28  C   UNL A   1      32.429  19.438  23.399  1.00  0.00     0.001 A 
ATOM     29  C   UNL A   1      33.378  19.256  24.398  1.00  0.00     0.000 A 
ENDBRANCH  23  24
ENDBRANCH  17  18
ENDBRANCH  14  17
ENDBRANCH  12  14
ENDBRANCH   7  12
ENDBRANCH   3   6
ENDBRANCH   1   2
BRANCH   1  30
ATOM     30  C   UNL A   1      34.816  33.017  28.997  1.00  0.00     0.023 C 
BRANCH  30  31
ATOM     31  C   UNL A   1      36.212  33.466  29.411  1.00  0.00     0.023 C 
BRANCH  31  32
ATOM     32  C   UNL A   1      36.686  32.973  30.776  1.00  0.00     0.116 C 
BRANCH  32  33
ATOM     33  N   UNL A   1      36.120  31.695  31.193  1.00  0.00    -0.352 N 
ATOM     34  C   UNL A   1      36.700  30.448  31.109  1.00  0.00     0.251 C 
ATOM     35  H   UNL A   1      35.215  31.729  31.579  1.00  0.00     0.163 HD
ATOM     36  O   UNL A   1      36.075  29.439  31.422  1.00  0.00    -0.269 OA
BRANCH  34  37
ATOM     37  C   UNL A   1      38.079  30.340  30.589  1.00  0.00     0.039 A 
ATOM     38  C   UNL A   1      39.139  30.227  31.490  1.00  0.00     0.014 A 
ATOM     39  C   UNL A   1      38.306  30.252  29.213  1.00  0.00     0.014 A 
ATOM     40  C   UNL A   1      40.416  29.926  31.011  1.00  0.00     0.010 A 
ATOM     41  C   UNL A   1      39.558  29.869  28.746  1.00  0.00     0.010 A 
ATOM     42  C   UNL A   1      40.625  29.692  29.641  1.00  0.00    -0.014 A 
BRANCH  42  43
ATOM     43  C   UNL A   1      41.943  29.234  29.130  1.00  0.00     0.031 A 
ATOM     44  C   UNL A   1      43.091  30.202  29.020  1.00  0.00     0.074 A 
ATOM     45  C   UNL A   1      42.085  27.965  28.697  1.00  0.00     0.049 A 
ATOM     46  N   UNL A   1      44.296  30.001  28.553  1.00  0.00    -0.248 NA
ATOM     47  C   UNL A   1      42.840  31.583  29.460  1.00  0.00     0.031 C 
ATOM     48  C   UNL A   1      41.027  26.952  28.677  1.00  0.00     0.029 A 
ATOM     49  N   UNL A   1      43.176  27.311  28.179  1.00  0.00    -0.354 N 
ATOM     50  C   UNL A   1      44.939  31.232  28.628  1.00  0.00     0.074 A 
ATOM     51  C   UNL A   1      43.973  32.184  29.129  1.00  0.00     0.031 C 
ATOM     52  C   UNL A   1      41.529  25.798  28.206  1.00  0.00     0.029 A 
ATOM     53  C   UNL A   1      42.933  25.995  27.861  1.00  0.00     0.049 A 
ATOM     54  H   UNL A   1      44.051  27.743  28.049  1.00  0.00     0.167 HD
ATOM     55  C   UNL A   1      46.226  31.534  28.332  1.00  0.00     0.037 A 
ATOM     56  C   UNL A   1      43.750  25.052  27.353  1.00  0.00     0.037 A 
ATOM     57  C   UNL A   1      47.194  30.576  27.870  1.00  0.00     0.049 A 
ATOM     58  C   UNL A   1      45.186  25.402  27.073  1.00  0.00     0.074 A 
ATOM     59  C   UNL A   1      48.541  30.766  27.611  1.00  0.00     0.029 A 
ATOM     60  N   UNL A   1      46.921  29.243  27.601  1.00  0.00    -0.354 N 
ATOM     61  N   UNL A   1      45.798  26.553  27.221  1.00  0.00    -0.248 NA
ATOM     62  C   UNL A   1      46.046  24.323  26.567  1.00  0.00     0.031 C 
ATOM     63  C   UNL A   1      49.074  29.556  27.156  1.00  0.00     0.029 A 
ATOM     64  C   UNL A   1      48.069  28.601  27.167  1.00  0.00     0.049 A 
ATOM     65  H   UNL A   1      46.040  28.815  27.702  1.00  0.00     0.167 HD
ATOM     66  C   UNL A   1      47.118  26.332  26.848  1.00  0.00     0.074 A 
ATOM     67  C   UNL A   1      47.221  24.934  26.483  1.00  0.00     0.031 C 
ATOM     68  C   UNL A   1      48.153  27.207  26.812  1.00  0.00     0.037 A 
BRANCH  55  69
ATOM     69  C   UNL A   1      46.663  32.961  28.523  1.00  0.00     0.058 A 
ATOM     70  C   UNL A   1      47.178  33.414  29.747  1.00  0.00     0.135 A 
ATOM     71  C   UNL A   1      46.584  33.881  27.465  1.00  0.00     0.135 A 
ATOM     72  F   UNL A   1      47.260  32.579  30.797  1.00  0.00    -0.206 F 
ATOM     73  C   UNL A   1      47.570  34.735  29.928  1.00  0.00     0.059 A 
ATOM     74  C   UNL A   1      46.996  35.202  27.615  1.00  0.00     0.059 A 
ATOM     75  F   UNL A   1      46.097  33.502  26.273  1.00  0.00    -0.206 F 
ATOM     76  C   UNL A   1      47.473  35.623  28.856  1.00  0.00     0.060 A 
BRANCH  76  77
ATOM     77  S   UNL A   1      47.986  37.336  29.106  1.00  0.00     0.124 S 
ATOM     78  O   UNL A   1      49.400  37.171  29.427  1.00  0.00    -0.237 OA
ATOM     79  O   UNL A   1      47.698  37.942  27.810  1.00  0.00    -0.237 OA
ATOM     80  O   UNL A   1      47.140  37.787  30.206  1.00  0.00    -0.744 OA
ENDBRANCH  76  77
ENDBRANCH  55  69
BRANCH  56  81
ATOM     81  C   UNL A   1      43.241  23.675  27.117  1.00  0.00     0.058 A 
ATOM     82  C   UNL A   1      42.767  23.290  25.854  1.00  0.00     0.135 A 
ATOM     83  C   UNL A   1      43.228  22.715  28.141  1.00  0.00     0.135 A 
ATOM     84  F   UNL A   1      42.754  24.175  24.846  1.00  0.00    -0.206 F 
ATOM     85  C   UNL A   1      42.281  22.009  25.617  1.00  0.00     0.059 A 
ATOM     86  C   UNL A   1      42.767  21.420  27.922  1.00  0.00     0.059 A 
ATOM     87  F   UNL A   1      43.688  23.028  29.362  1.00  0.00    -0.206 F 
ATOM     88  C   UNL A   1      42.285  21.080  26.658  1.00  0.00     0.060 A 
BRANCH  88  89
ATOM     89  S   UNL A   1      41.698  19.403  26.328  1.00  0.00     0.124 S 
ATOM     90  O   UNL A   1      40.402  19.663  25.714  1.00  0.00    -0.237 OA
ATOM     91  O   UNL A   1      42.734  18.883  25.440  1.00  0.00    -0.237 OA
ATOM     92  O   UNL A   1      41.661  18.796  27.655  1.00  0.00    -0.744 OA
ENDBRANCH  88  89
ENDBRANCH  56  81
BRANCH  68  93
ATOM     93  C   UNL A   1      49.491  26.672  26.385  1.00  0.00     0.058 A 
ATOM     94  C   UNL A   1      49.912  26.727  25.048  1.00  0.00     0.135 A 
ATOM     95  C   UNL A   1      50.376  26.133  27.332  1.00  0.00     0.135 A 
ATOM     96  F   UNL A   1      49.101  27.229  24.103  1.00  0.00    -0.206 F 
ATOM     97  C   UNL A   1      51.156  26.242  24.658  1.00  0.00     0.059 A 
ATOM     98  C   UNL A   1      51.634  25.664  26.969  1.00  0.00     0.059 A 
ATOM     99  F   UNL A   1      50.024  26.067  28.626  1.00  0.00    -0.206 F 
ATOM    100  C   UNL A   1      52.010  25.710  25.626  1.00  0.00     0.060 A 
BRANCH 100 101
ATOM    101  S   UNL A   1      53.631  25.103  25.115  1.00  0.00     0.124 S 
ATOM    102  O   UNL A   1      54.476  25.564  26.212  1.00  0.00    -0.237 OA
ATOM    103  O   UNL A   1      53.418  23.661  25.042  1.00  0.00    -0.237 OA
ATOM    104  O   UNL A   1      53.851  25.763  23.832  1.00  0.00    -0.744 OA
ENDBRANCH 100 101
ENDBRANCH  68  93
ENDBRANCH  42  43
ENDBRANCH  34  37
ENDBRANCH  32  33
ENDBRANCH  31  32
ENDBRANCH  30  31
ENDBRANCH   1  30
TORSDOF 20
ENDMDL
