MODEL 1
REMARK VINA RESULT:     -12.3      0.000      0.000
REMARK SMILES CC(=O)Oc1cc(CCC(=O)NCCCCNC(=O)c2ccc(-c3c4nc(c(-c5c(F)cc(S(=O)(=O)[O-])cc5F)c5ccc([nH]5)c(-c5c(F)cc(S(=O)(=O)[O-])cc5F)c5nc(c(-c6c(F)cc(S(=O)(=O)[O-])cc6F)c6ccc3[nH]6)C=C5)C=C4)cc2)c(OC(C)=O)c2c1C(=O)c1ccccc1C2=O
REMARK SMILES IDX 14 1 13 2 12 3 10 4 11 5 9 7 8 8 7 9 5 10 6 11 92 12 91 13
REMARK SMILES IDX 93 14 86 15 101 16 94 17 95 18 100 19 102 20 96 21 99 22
REMARK SMILES IDX 97 23 98 24 4 25 2 26 1 27 3 28 87 29 88 30 89 31 90 32
REMARK SMILES IDX 15 33 16 34 17 35 18 36 19 38 20 39 21 40 85 41 22 42 84 43
REMARK SMILES IDX 23 44 24 45 25 46 78 47 26 48 83 49 77 50 79 51 27 52 82 53
REMARK SMILES IDX 76 54 75 55 28 57 62 58 41 59 61 60 42 61 45 62 60 63 80 64
REMARK SMILES IDX 43 65 44 66 59 68 81 69 46 70 29 71 30 72 39 73 31 74 32 75
REMARK SMILES IDX 38 76 40 77 33 78 34 79 35 80 36 81 37 82 63 83 64 84 73 85
REMARK SMILES IDX 65 86 66 87 72 88 74 89 67 90 68 91 69 92 70 93 71 94 47 95
REMARK SMILES IDX 48 96 57 97 49 98 50 99 56 100 58 101 51 102 52 103 53 104
REMARK SMILES IDX 54 105 55 106
REMARK H PARENT 12 6 17 37 79 56 45 67
REMARK Flexibility Score: inf
ROOT
ATOM      1  C   UNL A   1      33.360  30.194  26.134  1.00  0.00     0.023 C 
ENDROOT
BRANCH   1   2
ATOM      2  C   UNL A   1      32.825  29.208  25.114  1.00  0.00     0.116 C 
BRANCH   2   3
ATOM      3  N   UNL A   1      31.888  28.307  25.767  1.00  0.00    -0.356 N 
ATOM      4  C   UNL A   1      32.083  27.018  26.171  1.00  0.00     0.220 C 
ATOM      5  O   UNL A   1      31.101  26.354  26.510  1.00  0.00    -0.275 OA
ATOM      6  H   UNL A   1      30.992  28.677  25.941  1.00  0.00     0.163 HD
BRANCH   4   7
ATOM      7  C   UNL A   1      33.482  26.429  26.259  1.00  0.00     0.105 C 
BRANCH   7   8
ATOM      8  C   UNL A   1      33.995  25.734  24.984  1.00  0.00     0.049 C 
BRANCH   8   9
ATOM      9  C   UNL A   1      34.405  24.291  25.167  1.00  0.00    -0.000 A 
ATOM     10  C   UNL A   1      36.204  22.655  25.050  1.00  0.00     0.143 A 
ATOM     11  C   UNL A   1      35.770  23.986  25.089  1.00  0.00     0.055 A 
ATOM     12  C   UNL A   1      35.302  21.583  25.128  1.00  0.00     0.080 A 
ATOM     13  C   UNL A   1      33.934  21.852  25.224  1.00  0.00     0.081 A 
ATOM     14  C   UNL A   1      35.783  20.186  25.027  1.00  0.00     0.198 C 
ATOM     15  C   UNL A   1      33.516  23.206  25.288  1.00  0.00     0.146 A 
ATOM     16  C   UNL A   1      32.981  20.721  25.103  1.00  0.00     0.198 C 
ATOM     17  O   UNL A   1      36.948  19.897  25.274  1.00  0.00    -0.288 OA
ATOM     18  C   UNL A   1      34.835  19.144  24.602  1.00  0.00     0.034 A 
ATOM     19  C   UNL A   1      33.471  19.418  24.598  1.00  0.00     0.034 A 
ATOM     20  O   UNL A   1      31.804  20.844  25.406  1.00  0.00    -0.288 OA
ATOM     21  C   UNL A   1      35.308  17.889  24.199  1.00  0.00     0.013 A 
ATOM     22  C   UNL A   1      32.571  18.447  24.142  1.00  0.00     0.013 A 
ATOM     23  C   UNL A   1      34.407  16.915  23.770  1.00  0.00     0.001 A 
ATOM     24  C   UNL A   1      33.042  17.199  23.724  1.00  0.00     0.001 A 
BRANCH  10  25
ATOM     25  O   UNL A   1      37.574  22.452  24.859  1.00  0.00    -0.426 OA
BRANCH  25  26
ATOM     26  C   UNL A   1      38.322  22.986  25.906  1.00  0.00     0.308 C 
ATOM     27  C   UNL A   1      39.315  21.962  26.371  1.00  0.00     0.139 C 
ATOM     28  O   UNL A   1      38.152  24.083  26.427  1.00  0.00    -0.252 OA
ENDBRANCH  25  26
ENDBRANCH  10  25
BRANCH  15  29
ATOM     29  O   UNL A   1      32.039  23.493  25.215  1.00  0.00    -0.426 OA
BRANCH  29  30
ATOM     30  C   UNL A   1      30.627  23.712  25.035  1.00  0.00     0.308 C 
ATOM     31  C   UNL A   1      30.326  24.285  23.687  1.00  0.00     0.139 C 
ATOM     32  O   UNL A   1      29.787  23.429  25.876  1.00  0.00    -0.252 OA
ENDBRANCH  29  30
ENDBRANCH  15  29
ENDBRANCH   8   9
ENDBRANCH   7   8
ENDBRANCH   4   7
ENDBRANCH   2   3
ENDBRANCH   1   2
BRANCH   1  33
ATOM     33  C   UNL A   1      34.165  29.632  27.286  1.00  0.00     0.023 C 
BRANCH  33  34
ATOM     34  C   UNL A   1      35.303  30.507  27.766  1.00  0.00     0.116 C 
BRANCH  34  35
ATOM     35  N   UNL A   1      35.307  30.816  29.192  1.00  0.00    -0.352 N 
ATOM     36  C   UNL A   1      36.308  30.653  30.126  1.00  0.00     0.251 C 
ATOM     37  H   UNL A   1      34.469  31.198  29.539  1.00  0.00     0.163 HD
ATOM     38  O   UNL A   1      36.106  30.993  31.290  1.00  0.00    -0.269 OA
BRANCH  36  39
ATOM     39  C   UNL A   1      37.595  30.013  29.757  1.00  0.00     0.039 A 
ATOM     40  C   UNL A   1      38.023  30.074  28.426  1.00  0.00     0.014 A 
ATOM     41  C   UNL A   1      38.409  29.398  30.707  1.00  0.00     0.014 A 
ATOM     42  C   UNL A   1      39.310  29.651  28.081  1.00  0.00     0.010 A 
ATOM     43  C   UNL A   1      39.722  29.085  30.395  1.00  0.00     0.010 A 
ATOM     44  C   UNL A   1      40.185  29.202  29.078  1.00  0.00    -0.014 A 
BRANCH  44  45
ATOM     45  C   UNL A   1      41.563  28.748  28.786  1.00  0.00     0.031 A 
ATOM     46  C   UNL A   1      42.660  29.778  28.757  1.00  0.00     0.074 A 
ATOM     47  C   UNL A   1      41.802  27.471  28.432  1.00  0.00     0.049 A 
ATOM     48  N   UNL A   1      43.890  29.665  28.337  1.00  0.00    -0.248 NA
ATOM     49  C   UNL A   1      42.303  31.135  29.213  1.00  0.00     0.031 C 
ATOM     50  C   UNL A   1      40.800  26.404  28.370  1.00  0.00     0.029 A 
ATOM     51  N   UNL A   1      42.960  26.858  28.026  1.00  0.00    -0.354 N 
ATOM     52  C   UNL A   1      44.439  30.937  28.443  1.00  0.00     0.074 A 
ATOM     53  C   UNL A   1      43.396  31.818  28.914  1.00  0.00     0.031 C 
ATOM     54  C   UNL A   1      41.390  25.268  27.957  1.00  0.00     0.029 A 
ATOM     55  C   UNL A   1      42.799  25.533  27.689  1.00  0.00     0.049 A 
ATOM     56  H   UNL A   1      43.827  27.322  27.980  1.00  0.00     0.167 HD
ATOM     57  C   UNL A   1      45.709  31.327  28.193  1.00  0.00     0.037 A 
ATOM     58  C   UNL A   1      43.691  24.648  27.202  1.00  0.00     0.037 A 
ATOM     59  C   UNL A   1      46.750  30.428  27.781  1.00  0.00     0.049 A 
ATOM     60  C   UNL A   1      45.110  25.104  26.968  1.00  0.00     0.074 A 
ATOM     61  C   UNL A   1      48.090  30.699  27.579  1.00  0.00     0.029 A 
ATOM     62  N   UNL A   1      46.567  29.078  27.523  1.00  0.00    -0.354 N 
ATOM     63  N   UNL A   1      45.632  26.295  27.141  1.00  0.00    -0.248 NA
ATOM     64  C   UNL A   1      46.061  24.098  26.477  1.00  0.00     0.031 C 
ATOM     65  C   UNL A   1      48.714  29.518  27.165  1.00  0.00     0.029 A 
ATOM     66  C   UNL A   1      47.768  28.503  27.152  1.00  0.00     0.049 A 
ATOM     67  H   UNL A   1      45.709  28.601  27.593  1.00  0.00     0.167 HD
ATOM     68  C   UNL A   1      46.979  26.171  26.816  1.00  0.00     0.074 A 
ATOM     69  C   UNL A   1      47.192  24.788  26.445  1.00  0.00     0.031 C 
ATOM     70  C   UNL A   1      47.954  27.113  26.821  1.00  0.00     0.037 A 
BRANCH  57  71
ATOM     71  C   UNL A   1      46.045  32.780  28.381  1.00  0.00     0.058 A 
ATOM     72  C   UNL A   1      45.928  33.702  27.330  1.00  0.00     0.135 A 
ATOM     73  C   UNL A   1      46.447  33.262  29.636  1.00  0.00     0.135 A 
ATOM     74  F   UNL A   1      45.573  33.288  26.103  1.00  0.00    -0.206 F 
ATOM     75  C   UNL A   1      46.213  35.051  27.511  1.00  0.00     0.059 A 
ATOM     76  C   UNL A   1      46.711  34.612  29.847  1.00  0.00     0.059 A 
ATOM     77  F   UNL A   1      46.585  32.420  30.672  1.00  0.00    -0.206 F 
ATOM     78  C   UNL A   1      46.599  35.497  28.776  1.00  0.00     0.060 A 
BRANCH  78  79
ATOM     79  S   UNL A   1      46.926  37.257  29.002  1.00  0.00     0.124 S 
ATOM     80  O   UNL A   1      48.383  37.272  29.100  1.00  0.00    -0.237 OA
ATOM     81  O   UNL A   1      46.367  37.837  27.785  1.00  0.00    -0.237 OA
ATOM     82  O   UNL A   1      46.211  37.580  30.233  1.00  0.00    -0.744 OA
ENDBRANCH  78  79
ENDBRANCH  57  71
BRANCH  58  83
ATOM     83  C   UNL A   1      43.293  23.242  26.916  1.00  0.00     0.058 A 
ATOM     84  C   UNL A   1      43.025  22.345  27.964  1.00  0.00     0.135 A 
ATOM     85  C   UNL A   1      43.211  22.751  25.604  1.00  0.00     0.135 A 
ATOM     86  F   UNL A   1      43.092  22.763  29.237  1.00  0.00    -0.206 F 
ATOM     87  C   UNL A   1      42.733  21.006  27.724  1.00  0.00     0.059 A 
ATOM     88  C   UNL A   1      42.895  21.421  25.337  1.00  0.00     0.059 A 
ATOM     89  F   UNL A   1      43.437  23.570  24.566  1.00  0.00    -0.206 F 
ATOM     90  C   UNL A   1      42.678  20.551  26.406  1.00  0.00     0.060 A 
BRANCH  90  91
ATOM     91  S   UNL A   1      42.303  18.810  26.106  1.00  0.00     0.124 S 
ATOM     92  O   UNL A   1      42.608  18.217  27.403  1.00  0.00    -0.237 OA
ATOM     93  O   UNL A   1      40.890  18.858  25.743  1.00  0.00    -0.237 OA
ATOM     94  O   UNL A   1      43.210  18.454  25.019  1.00  0.00    -0.744 OA
ENDBRANCH  90  91
ENDBRANCH  58  83
BRANCH  70  95
ATOM     95  C   UNL A   1      49.347  26.672  26.473  1.00  0.00     0.058 A 
ATOM     96  C   UNL A   1      50.192  26.079  27.422  1.00  0.00     0.135 A 
ATOM     97  C   UNL A   1      49.809  26.780  25.152  1.00  0.00     0.135 A 
ATOM     98  F   UNL A   1      49.795  25.958  28.699  1.00  0.00    -0.206 F 
ATOM     99  C   UNL A   1      51.459  25.623  27.076  1.00  0.00     0.059 A 
ATOM    100  C   UNL A   1      51.061  26.306  24.778  1.00  0.00     0.059 A 
ATOM    101  F   UNL A   1      49.031  27.328  24.204  1.00  0.00    -0.206 F 
ATOM    102  C   UNL A   1      51.883  25.738  25.751  1.00  0.00     0.060 A 
BRANCH 102 103
ATOM    103  S   UNL A   1      53.511  25.100  25.305  1.00  0.00     0.124 S 
ATOM    104  O   UNL A   1      53.744  25.759  24.024  1.00  0.00    -0.237 OA
ATOM    105  O   UNL A   1      54.342  25.557  26.413  1.00  0.00    -0.237 OA
ATOM    106  O   UNL A   1      53.303  23.656  25.240  1.00  0.00    -0.744 OA
ENDBRANCH 102 103
ENDBRANCH  70  95
ENDBRANCH  44  45
ENDBRANCH  36  39
ENDBRANCH  34  35
ENDBRANCH  33  34
ENDBRANCH   1  33
TORSDOF 20
ENDMDL
MODEL 2
REMARK VINA RESULT:     -11.5      0.879      7.912
REMARK SMILES CC(=O)Oc1cc(CCC(=O)NCCCCNC(=O)c2ccc(-c3c4nc(c(-c5c(F)cc(S(=O)(=O)[O-])cc5F)c5ccc([nH]5)c(-c5c(F)cc(S(=O)(=O)[O-])cc5F)c5nc(c(-c6c(F)cc(S(=O)(=O)[O-])cc6F)c6ccc3[nH]6)C=C5)C=C4)cc2)c(OC(C)=O)c2c1C(=O)c1ccccc1C2=O
REMARK SMILES IDX 14 1 13 2 12 3 10 4 11 5 9 7 8 8 7 9 5 10 6 11 92 12 91 13
REMARK SMILES IDX 93 14 86 15 101 16 94 17 95 18 100 19 102 20 96 21 99 22
REMARK SMILES IDX 97 23 98 24 4 25 2 26 1 27 3 28 87 29 88 30 89 31 90 32
REMARK SMILES IDX 15 33 16 34 17 35 18 36 19 38 20 39 21 40 85 41 22 42 84 43
REMARK SMILES IDX 23 44 24 45 25 46 78 47 26 48 83 49 77 50 79 51 27 52 82 53
REMARK SMILES IDX 76 54 75 55 28 57 62 58 41 59 61 60 42 61 45 62 60 63 80 64
REMARK SMILES IDX 43 65 44 66 59 68 81 69 46 70 29 71 30 72 39 73 31 74 32 75
REMARK SMILES IDX 38 76 40 77 33 78 34 79 35 80 36 81 37 82 63 83 64 84 73 85
REMARK SMILES IDX 65 86 66 87 72 88 74 89 67 90 68 91 69 92 70 93 71 94 47 95
REMARK SMILES IDX 48 96 57 97 49 98 50 99 56 100 58 101 51 102 52 103 53 104
REMARK SMILES IDX 54 105 55 106
REMARK H PARENT 12 6 17 37 79 56 45 67
REMARK Flexibility Score: inf
ROOT
ATOM      1  C   UNL A   1      33.250  30.790  27.415  1.00  0.00     0.023 C 
ENDROOT
BRANCH   1   2
ATOM      2  C   UNL A   1      33.392  29.291  27.237  1.00  0.00     0.116 C 
BRANCH   2   3
ATOM      3  N   UNL A   1      32.601  28.870  26.091  1.00  0.00    -0.356 N 
ATOM      4  C   UNL A   1      32.789  27.795  25.271  1.00  0.00     0.220 C 
ATOM      5  O   UNL A   1      32.138  27.731  24.227  1.00  0.00    -0.275 OA
ATOM      6  H   UNL A   1      31.825  29.438  25.877  1.00  0.00     0.163 HD
BRANCH   4   7
ATOM      7  C   UNL A   1      33.738  26.672  25.660  1.00  0.00     0.105 C 
BRANCH   7   8
ATOM      8  C   UNL A   1      34.359  25.887  24.490  1.00  0.00     0.049 C 
BRANCH   8   9
ATOM      9  C   UNL A   1      34.648  24.433  24.780  1.00  0.00    -0.000 A 
ATOM     10  C   UNL A   1      36.319  22.665  24.857  1.00  0.00     0.143 A 
ATOM     11  C   UNL A   1      35.988  24.023  24.793  1.00  0.00     0.055 A 
ATOM     12  C   UNL A   1      35.334  21.669  24.952  1.00  0.00     0.080 A 
ATOM     13  C   UNL A   1      33.988  22.044  24.959  1.00  0.00     0.081 A 
ATOM     14  C   UNL A   1      35.710  20.237  24.960  1.00  0.00     0.198 C 
ATOM     15  C   UNL A   1      33.673  23.427  24.919  1.00  0.00     0.146 A 
ATOM     16  C   UNL A   1      32.958  20.982  24.856  1.00  0.00     0.198 C 
ATOM     17  O   UNL A   1      36.836  19.879  25.286  1.00  0.00    -0.288 OA
ATOM     18  C   UNL A   1      34.706  19.243  24.549  1.00  0.00     0.034 A 
ATOM     19  C   UNL A   1      33.369  19.616  24.457  1.00  0.00     0.034 A 
ATOM     20  O   UNL A   1      31.780  21.210  25.089  1.00  0.00    -0.288 OA
ATOM     21  C   UNL A   1      35.100  17.933  24.248  1.00  0.00     0.013 A 
ATOM     22  C   UNL A   1      32.420  18.688  24.013  1.00  0.00     0.013 A 
ATOM     23  C   UNL A   1      34.148  17.003  23.831  1.00  0.00     0.001 A 
ATOM     24  C   UNL A   1      32.813  17.384  23.697  1.00  0.00     0.001 A 
BRANCH  10  25
ATOM     25  O   UNL A   1      37.677  22.348  24.751  1.00  0.00    -0.426 OA
BRANCH  25  26
ATOM     26  C   UNL A   1      38.354  22.590  25.945  1.00  0.00     0.308 C 
ATOM     27  C   UNL A   1      38.529  24.069  26.117  1.00  0.00     0.139 C 
ATOM     28  O   UNL A   1      38.810  21.738  26.700  1.00  0.00    -0.252 OA
ENDBRANCH  25  26
ENDBRANCH  10  25
BRANCH  15  29
ATOM     29  O   UNL A   1      32.228  23.817  24.751  1.00  0.00    -0.426 OA
BRANCH  29  30
ATOM     30  C   UNL A   1      30.850  24.233  24.705  1.00  0.00     0.308 C 
ATOM     31  C   UNL A   1      30.388  24.753  26.029  1.00  0.00     0.139 C 
ATOM     32  O   UNL A   1      30.164  24.190  23.695  1.00  0.00    -0.252 OA
ENDBRANCH  29  30
ENDBRANCH  15  29
ENDBRANCH   8   9
ENDBRANCH   7   8
ENDBRANCH   4   7
ENDBRANCH   2   3
ENDBRANCH   1   2
BRANCH   1  33
ATOM     33  C   UNL A   1      34.493  31.564  27.796  1.00  0.00     0.023 C 
BRANCH  33  34
ATOM     34  C   UNL A   1      35.646  30.724  28.306  1.00  0.00     0.116 C 
BRANCH  34  35
ATOM     35  N   UNL A   1      35.614  30.406  29.730  1.00  0.00    -0.352 N 
ATOM     36  C   UNL A   1      36.651  30.113  30.591  1.00  0.00     0.251 C 
ATOM     37  H   UNL A   1      34.718  30.401  30.138  1.00  0.00     0.163 HD
ATOM     38  O   UNL A   1      36.405  29.883  31.773  1.00  0.00    -0.269 OA
BRANCH  36  39
ATOM     39  C   UNL A   1      38.045  30.006  30.092  1.00  0.00     0.039 A 
ATOM     40  C   UNL A   1      39.041  29.551  30.963  1.00  0.00     0.014 A 
ATOM     41  C   UNL A   1      38.376  30.300  28.771  1.00  0.00     0.014 A 
ATOM     42  C   UNL A   1      40.320  29.260  30.478  1.00  0.00     0.010 A 
ATOM     43  C   UNL A   1      39.603  29.905  28.261  1.00  0.00     0.010 A 
ATOM     44  C   UNL A   1      40.590  29.387  29.110  1.00  0.00    -0.014 A 
BRANCH  44  45
ATOM     45  C   UNL A   1      41.917  29.087  28.527  1.00  0.00     0.031 A 
ATOM     46  C   UNL A   1      42.206  27.672  28.108  1.00  0.00     0.074 A 
ATOM     47  C   UNL A   1      42.877  30.031  28.492  1.00  0.00     0.049 A 
ATOM     48  N   UNL A   1      43.341  27.126  27.763  1.00  0.00    -0.248 NA
ATOM     49  C   UNL A   1      41.071  26.731  28.135  1.00  0.00     0.031 C 
ATOM     50  C   UNL A   1      42.721  31.421  28.929  1.00  0.00     0.029 A 
ATOM     51  N   UNL A   1      44.190  29.956  28.099  1.00  0.00    -0.354 N 
ATOM     52  C   UNL A   1      43.063  25.778  27.570  1.00  0.00     0.074 A 
ATOM     53  C   UNL A   1      41.668  25.577  27.887  1.00  0.00     0.031 C 
ATOM     54  C   UNL A   1      43.890  32.067  28.772  1.00  0.00     0.029 A 
ATOM     55  C   UNL A   1      44.887  31.131  28.262  1.00  0.00     0.049 A 
ATOM     56  H   UNL A   1      44.595  29.137  27.733  1.00  0.00     0.167 HD
ATOM     57  C   UNL A   1      43.894  24.803  27.140  1.00  0.00     0.037 A 
ATOM     58  C   UNL A   1      46.187  31.406  28.039  1.00  0.00     0.037 A 
ATOM     59  C   UNL A   1      45.263  25.031  26.772  1.00  0.00     0.049 A 
ATOM     60  C   UNL A   1      47.082  30.306  27.525  1.00  0.00     0.074 A 
ATOM     61  C   UNL A   1      46.173  24.133  26.246  1.00  0.00     0.029 A 
ATOM     62  N   UNL A   1      45.914  26.251  26.878  1.00  0.00    -0.354 N 
ATOM     63  N   UNL A   1      46.788  29.051  27.279  1.00  0.00    -0.248 NA
ATOM     64  C   UNL A   1      48.482  30.657  27.255  1.00  0.00     0.031 C 
ATOM     65  C   UNL A   1      47.387  24.802  26.065  1.00  0.00     0.029 A 
ATOM     66  C   UNL A   1      47.218  26.128  26.438  1.00  0.00     0.049 A 
ATOM     67  H   UNL A   1      45.507  27.081  27.218  1.00  0.00     0.167 HD
ATOM     68  C   UNL A   1      47.956  28.474  26.791  1.00  0.00     0.074 A 
ATOM     69  C   UNL A   1      48.957  29.519  26.768  1.00  0.00     0.031 C 
ATOM     70  C   UNL A   1      48.183  27.198  26.397  1.00  0.00     0.037 A 
BRANCH  57  71
ATOM     71  C   UNL A   1      43.339  23.411  27.023  1.00  0.00     0.058 A 
ATOM     72  C   UNL A   1      43.185  22.586  28.148  1.00  0.00     0.135 A 
ATOM     73  C   UNL A   1      42.917  22.914  25.781  1.00  0.00     0.135 A 
ATOM     74  F   UNL A   1      43.597  23.004  29.355  1.00  0.00    -0.206 F 
ATOM     75  C   UNL A   1      42.647  21.308  28.044  1.00  0.00     0.059 A 
ATOM     76  C   UNL A   1      42.350  21.649  25.657  1.00  0.00     0.059 A 
ATOM     77  F   UNL A   1      43.053  23.658  24.672  1.00  0.00    -0.206 F 
ATOM     78  C   UNL A   1      42.228  20.851  26.794  1.00  0.00     0.060 A 
BRANCH  78  79
ATOM     79  S   UNL A   1      41.494  19.206  26.684  1.00  0.00     0.124 S 
ATOM     80  O   UNL A   1      42.671  18.378  26.436  1.00  0.00    -0.237 OA
ATOM     81  O   UNL A   1      40.877  19.051  27.998  1.00  0.00    -0.237 OA
ATOM     82  O   UNL A   1      40.563  19.322  25.567  1.00  0.00    -0.744 OA
ENDBRANCH  78  79
ENDBRANCH  57  71
BRANCH  58  83
ATOM     83  C   UNL A   1      46.730  32.772  28.278  1.00  0.00     0.058 A 
ATOM     84  C   UNL A   1      47.308  33.108  29.513  1.00  0.00     0.135 A 
ATOM     85  C   UNL A   1      46.649  33.778  27.303  1.00  0.00     0.135 A 
ATOM     86  F   UNL A   1      47.407  32.183  30.480  1.00  0.00    -0.206 F 
ATOM     87  C   UNL A   1      47.746  34.400  29.789  1.00  0.00     0.059 A 
ATOM     88  C   UNL A   1      47.104  35.072  27.545  1.00  0.00     0.059 A 
ATOM     89  F   UNL A   1      46.125  33.505  26.099  1.00  0.00    -0.206 F 
ATOM     90  C   UNL A   1      47.632  35.378  28.800  1.00  0.00     0.060 A 
BRANCH  90  91
ATOM     91  S   UNL A   1      48.199  37.053  29.170  1.00  0.00     0.124 S 
ATOM     92  O   UNL A   1      49.591  36.992  28.741  1.00  0.00    -0.237 OA
ATOM     93  O   UNL A   1      47.312  37.867  28.345  1.00  0.00    -0.237 OA
ATOM     94  O   UNL A   1      47.985  37.168  30.610  1.00  0.00    -0.744 OA
ENDBRANCH  90  91
ENDBRANCH  58  83
BRANCH  70  95
ATOM     95  C   UNL A   1      49.545  26.871  25.854  1.00  0.00     0.058 A 
ATOM     96  C   UNL A   1      49.873  27.086  24.507  1.00  0.00     0.135 A 
ATOM     97  C   UNL A   1      50.552  26.407  26.714  1.00  0.00     0.135 A 
ATOM     98  F   UNL A   1      48.942  27.526  23.646  1.00  0.00    -0.206 F 
ATOM     99  C   UNL A   1      51.153  26.834  24.027  1.00  0.00     0.059 A 
ATOM    100  C   UNL A   1      51.846  26.173  26.261  1.00  0.00     0.059 A 
ATOM    101  F   UNL A   1      50.290  26.199  28.014  1.00  0.00    -0.206 F 
ATOM    102  C   UNL A   1      52.133  26.381  24.912  1.00  0.00     0.060 A 
BRANCH 102 103
ATOM    103  S   UNL A   1      53.803  26.102  24.286  1.00  0.00     0.124 S 
ATOM    104  O   UNL A   1      53.571  26.051  22.846  1.00  0.00    -0.237 OA
ATOM    105  O   UNL A   1      54.521  27.276  24.772  1.00  0.00    -0.237 OA
ATOM    106  O   UNL A   1      54.190  24.838  24.905  1.00  0.00    -0.744 OA
ENDBRANCH 102 103
ENDBRANCH  70  95
ENDBRANCH  44  45
ENDBRANCH  36  39
ENDBRANCH  34  35
ENDBRANCH  33  34
ENDBRANCH   1  33
TORSDOF 20
ENDMDL
MODEL 3
REMARK VINA RESULT:     -11.5      1.257      7.961
REMARK SMILES CC(=O)Oc1cc(CCC(=O)NCCCCNC(=O)c2ccc(-c3c4nc(c(-c5c(F)cc(S(=O)(=O)[O-])cc5F)c5ccc([nH]5)c(-c5c(F)cc(S(=O)(=O)[O-])cc5F)c5nc(c(-c6c(F)cc(S(=O)(=O)[O-])cc6F)c6ccc3[nH]6)C=C5)C=C4)cc2)c(OC(C)=O)c2c1C(=O)c1ccccc1C2=O
REMARK SMILES IDX 14 1 13 2 12 3 10 4 11 5 9 7 8 8 7 9 5 10 6 11 92 12 91 13
REMARK SMILES IDX 93 14 86 15 101 16 94 17 95 18 100 19 102 20 96 21 99 22
REMARK SMILES IDX 97 23 98 24 4 25 2 26 1 27 3 28 87 29 88 30 89 31 90 32
REMARK SMILES IDX 15 33 16 34 17 35 18 36 19 38 20 39 21 40 85 41 22 42 84 43
REMARK SMILES IDX 23 44 24 45 25 46 78 47 26 48 83 49 77 50 79 51 27 52 82 53
REMARK SMILES IDX 76 54 75 55 28 57 62 58 41 59 61 60 42 61 45 62 60 63 80 64
REMARK SMILES IDX 43 65 44 66 59 68 81 69 46 70 29 71 30 72 39 73 31 74 32 75
REMARK SMILES IDX 38 76 40 77 33 78 34 79 35 80 36 81 37 82 63 83 64 84 73 85
REMARK SMILES IDX 65 86 66 87 72 88 74 89 67 90 68 91 69 92 70 93 71 94 47 95
REMARK SMILES IDX 48 96 57 97 49 98 50 99 56 100 58 101 51 102 52 103 53 104
REMARK SMILES IDX 54 105 55 106
REMARK H PARENT 12 6 17 37 79 56 45 67
REMARK Flexibility Score: inf
ROOT
ATOM      1  C   UNL A   1      33.571  31.618  27.560  1.00  0.00     0.023 C 
ENDROOT
BRANCH   1   2
ATOM      2  C   UNL A   1      32.752  30.379  27.255  1.00  0.00     0.116 C 
BRANCH   2   3
ATOM      3  N   UNL A   1      32.652  30.218  25.812  1.00  0.00    -0.356 N 
ATOM      4  C   UNL A   1      33.084  29.181  25.036  1.00  0.00     0.220 C 
ATOM      5  O   UNL A   1      33.099  29.329  23.813  1.00  0.00    -0.275 OA
ATOM      6  H   UNL A   1      32.214  30.957  25.331  1.00  0.00     0.163 HD
BRANCH   4   7
ATOM      7  C   UNL A   1      33.482  27.852  25.659  1.00  0.00     0.105 C 
BRANCH   7   8
ATOM      8  C   UNL A   1      34.329  26.925  24.768  1.00  0.00     0.049 C 
BRANCH   8   9
ATOM      9  C   UNL A   1      34.123  25.447  25.009  1.00  0.00    -0.000 A 
ATOM     10  C   UNL A   1      35.060  23.376  25.878  1.00  0.00     0.143 A 
ATOM     11  C   UNL A   1      35.079  24.772  25.780  1.00  0.00     0.055 A 
ATOM     12  C   UNL A   1      34.071  22.605  25.249  1.00  0.00     0.080 A 
ATOM     13  C   UNL A   1      33.093  23.248  24.486  1.00  0.00     0.081 A 
ATOM     14  C   UNL A   1      34.109  21.126  25.322  1.00  0.00     0.198 C 
ATOM     15  C   UNL A   1      33.112  24.665  24.419  1.00  0.00     0.146 A 
ATOM     16  C   UNL A   1      32.178  22.417  23.665  1.00  0.00     0.198 C 
ATOM     17  O   UNL A   1      34.717  20.551  26.217  1.00  0.00    -0.288 OA
ATOM     18  C   UNL A   1      33.415  20.353  24.281  1.00  0.00     0.034 A 
ATOM     19  C   UNL A   1      32.504  20.990  23.444  1.00  0.00     0.034 A 
ATOM     20  O   UNL A   1      31.166  22.886  23.165  1.00  0.00    -0.288 OA
ATOM     21  C   UNL A   1      33.677  18.984  24.133  1.00  0.00     0.013 A 
ATOM     22  C   UNL A   1      31.883  20.268  22.418  1.00  0.00     0.013 A 
ATOM     23  C   UNL A   1      33.037  18.262  23.126  1.00  0.00     0.001 A 
ATOM     24  C   UNL A   1      32.155  18.906  22.259  1.00  0.00     0.001 A 
BRANCH  10  25
ATOM     25  O   UNL A   1      36.118  22.787  26.577  1.00  0.00    -0.426 OA
BRANCH  25  26
ATOM     26  C   UNL A   1      37.343  23.042  25.963  1.00  0.00     0.308 C 
ATOM     27  C   UNL A   1      37.699  21.883  25.080  1.00  0.00     0.139 C 
ATOM     28  O   UNL A   1      38.062  24.014  26.166  1.00  0.00    -0.252 OA
ENDBRANCH  25  26
ENDBRANCH  10  25
BRANCH  15  29
ATOM     29  O   UNL A   1      32.168  25.340  23.459  1.00  0.00    -0.426 OA
BRANCH  29  30
ATOM     30  C   UNL A   1      31.362  26.007  22.469  1.00  0.00     0.308 C 
ATOM     31  C   UNL A   1      31.950  25.875  21.101  1.00  0.00     0.139 C 
ATOM     32  O   UNL A   1      30.313  26.579  22.726  1.00  0.00    -0.252 OA
ENDBRANCH  29  30
ENDBRANCH  15  29
ENDBRANCH   8   9
ENDBRANCH   7   8
ENDBRANCH   4   7
ENDBRANCH   2   3
ENDBRANCH   1   2
BRANCH   1  33
ATOM     33  C   UNL A   1      35.073  31.455  27.636  1.00  0.00     0.023 C 
BRANCH  33  34
ATOM     34  C   UNL A   1      35.552  30.109  28.137  1.00  0.00     0.116 C 
BRANCH  34  35
ATOM     35  N   UNL A   1      35.519  29.924  29.584  1.00  0.00    -0.352 N 
ATOM     36  C   UNL A   1      36.559  29.789  30.480  1.00  0.00     0.251 C 
ATOM     37  H   UNL A   1      34.618  29.891  29.981  1.00  0.00     0.163 HD
ATOM     38  O   UNL A   1      36.309  29.653  31.676  1.00  0.00    -0.269 OA
BRANCH  36  39
ATOM     39  C   UNL A   1      37.965  29.739  30.009  1.00  0.00     0.039 A 
ATOM     40  C   UNL A   1      38.971  29.388  30.917  1.00  0.00     0.014 A 
ATOM     41  C   UNL A   1      38.303  29.984  28.679  1.00  0.00     0.014 A 
ATOM     42  C   UNL A   1      40.272  29.148  30.467  1.00  0.00     0.010 A 
ATOM     43  C   UNL A   1      39.560  29.636  28.209  1.00  0.00     0.010 A 
ATOM     44  C   UNL A   1      40.560  29.221  29.098  1.00  0.00    -0.014 A 
BRANCH  44  45
ATOM     45  C   UNL A   1      41.912  28.970  28.552  1.00  0.00     0.031 A 
ATOM     46  C   UNL A   1      42.246  27.577  28.093  1.00  0.00     0.074 A 
ATOM     47  C   UNL A   1      42.852  29.934  28.584  1.00  0.00     0.049 A 
ATOM     48  N   UNL A   1      43.403  27.068  27.768  1.00  0.00    -0.248 NA
ATOM     49  C   UNL A   1      41.131  26.612  28.046  1.00  0.00     0.031 C 
ATOM     50  C   UNL A   1      42.651  31.304  29.064  1.00  0.00     0.029 A 
ATOM     51  N   UNL A   1      44.178  29.900  28.234  1.00  0.00    -0.354 N 
ATOM     52  C   UNL A   1      43.162  25.722  27.517  1.00  0.00     0.074 A 
ATOM     53  C   UNL A   1      41.762  25.481  27.779  1.00  0.00     0.031 C 
ATOM     54  C   UNL A   1      43.810  31.979  28.971  1.00  0.00     0.029 A 
ATOM     55  C   UNL A   1      44.844  31.083  28.464  1.00  0.00     0.049 A 
ATOM     56  H   UNL A   1      44.614  29.103  27.854  1.00  0.00     0.167 HD
ATOM     57  C   UNL A   1      44.028  24.780  27.082  1.00  0.00     0.037 A 
ATOM     58  C   UNL A   1      46.145  31.392  28.296  1.00  0.00     0.037 A 
ATOM     59  C   UNL A   1      45.404  25.050  26.771  1.00  0.00     0.049 A 
ATOM     60  C   UNL A   1      47.080  30.330  27.775  1.00  0.00     0.074 A 
ATOM     61  C   UNL A   1      46.351  24.191  26.246  1.00  0.00     0.029 A 
ATOM     62  N   UNL A   1      46.024  26.278  26.943  1.00  0.00    -0.354 N 
ATOM     63  N   UNL A   1      46.822  29.079  27.474  1.00  0.00    -0.248 NA
ATOM     64  C   UNL A   1      48.481  30.720  27.566  1.00  0.00     0.031 C 
ATOM     65  C   UNL A   1      47.555  24.891  26.131  1.00  0.00     0.029 A 
ATOM     66  C   UNL A   1      47.345  26.198  26.545  1.00  0.00     0.049 A 
ATOM     67  H   UNL A   1      45.587  27.087  27.298  1.00  0.00     0.167 HD
ATOM     68  C   UNL A   1      48.018  28.545  27.006  1.00  0.00     0.074 A 
ATOM     69  C   UNL A   1      48.997  29.611  27.056  1.00  0.00     0.031 C 
ATOM     70  C   UNL A   1      48.286  27.289  26.575  1.00  0.00     0.037 A 
BRANCH  57  71
ATOM     71  C   UNL A   1      43.508  23.383  26.897  1.00  0.00     0.058 A 
ATOM     72  C   UNL A   1      43.119  22.906  25.636  1.00  0.00     0.135 A 
ATOM     73  C   UNL A   1      43.437  22.499  27.984  1.00  0.00     0.135 A 
ATOM     74  F   UNL A   1      43.142  23.719  24.568  1.00  0.00    -0.206 F 
ATOM     75  C   UNL A   1      42.663  21.604  25.460  1.00  0.00     0.059 A 
ATOM     76  C   UNL A   1      43.010  21.184  27.827  1.00  0.00     0.059 A 
ATOM     77  F   UNL A   1      43.787  22.909  29.214  1.00  0.00    -0.206 F 
ATOM     78  C   UNL A   1      42.617  20.749  26.562  1.00  0.00     0.060 A 
BRANCH  78  79
ATOM     79  S   UNL A   1      42.061  19.052  26.308  1.00  0.00     0.124 S 
ATOM     80  O   UNL A   1      42.110  18.523  27.668  1.00  0.00    -0.237 OA
ATOM     81  O   UNL A   1      40.725  19.241  25.750  1.00  0.00    -0.237 OA
ATOM     82  O   UNL A   1      43.050  18.503  25.386  1.00  0.00    -0.744 OA
ENDBRANCH  78  79
ENDBRANCH  57  71
BRANCH  58  83
ATOM     83  C   UNL A   1      46.649  32.760  28.602  1.00  0.00     0.058 A 
ATOM     84  C   UNL A   1      46.782  33.719  27.585  1.00  0.00     0.135 A 
ATOM     85  C   UNL A   1      47.048  33.125  29.897  1.00  0.00     0.135 A 
ATOM     86  F   UNL A   1      46.419  33.419  26.329  1.00  0.00    -0.206 F 
ATOM     87  C   UNL A   1      47.330  34.974  27.830  1.00  0.00     0.059 A 
ATOM     88  C   UNL A   1      47.574  34.385  30.173  1.00  0.00     0.059 A 
ATOM     89  F   UNL A   1      46.923  32.254  30.909  1.00  0.00    -0.206 F 
ATOM     90  C   UNL A   1      47.731  35.296  29.128  1.00  0.00     0.060 A 
BRANCH  90  91
ATOM     91  S   UNL A   1      48.445  36.926  29.435  1.00  0.00     0.124 S 
ATOM     92  O   UNL A   1      47.291  37.661  29.939  1.00  0.00    -0.237 OA
ATOM     93  O   UNL A   1      49.487  36.627  30.412  1.00  0.00    -0.237 OA
ATOM     94  O   UNL A   1      48.928  37.333  28.119  1.00  0.00    -0.744 OA
ENDBRANCH  90  91
ENDBRANCH  58  83
BRANCH  70  95
ATOM     95  C   UNL A   1      49.673  27.010  26.069  1.00  0.00     0.058 A 
ATOM     96  C   UNL A   1      50.686  26.535  26.915  1.00  0.00     0.135 A 
ATOM     97  C   UNL A   1      49.965  27.151  24.703  1.00  0.00     0.135 A 
ATOM     98  F   UNL A   1      50.454  26.387  28.229  1.00  0.00    -0.206 F 
ATOM     99  C   UNL A   1      51.950  26.227  26.427  1.00  0.00     0.059 A 
ATOM    100  C   UNL A   1      51.214  26.824  24.189  1.00  0.00     0.059 A 
ATOM    101  F   UNL A   1      49.025  27.590  23.851  1.00  0.00    -0.206 F 
ATOM    102  C   UNL A   1      52.203  26.371  25.061  1.00  0.00     0.060 A 
BRANCH 102 103
ATOM    103  S   UNL A   1      53.834  25.922  24.431  1.00  0.00     0.124 S 
ATOM    104  O   UNL A   1      54.705  26.762  25.248  1.00  0.00    -0.237 OA
ATOM    105  O   UNL A   1      53.894  24.491  24.706  1.00  0.00    -0.237 OA
ATOM    106  O   UNL A   1      53.762  26.280  23.018  1.00  0.00    -0.744 OA
ENDBRANCH 102 103
ENDBRANCH  70  95
ENDBRANCH  44  45
ENDBRANCH  36  39
ENDBRANCH  34  35
ENDBRANCH  33  34
ENDBRANCH   1  33
TORSDOF 20
ENDMDL
