MODEL 1
REMARK VINA RESULT:     -10.6      0.000      0.000
REMARK SMILES O=C(NCCCCNC(=O)c1cc(Cl)ccc1NC(=O)c1ccc2c(c1)C(=O)N(Cc1ccco1)C2=O)c1ccc(-c2c3nc(c(-c4c(F)cc(S(=O)(=O)[O-])cc4F)c4ccc([nH]4)c(-c4c(F)cc(S(=O)(=O)[O-])cc4F)c4nc(c(-c5c(F)cc(S(=O)(=O)[O-])cc5F)c5ccc2[nH]5)C=C4)C=C3)cc1
REMARK SMILES IDX 6 1 5 2 4 3 3 4 1 5 2 6 38 8 39 9 103 10 40 11 102 12 41 13
REMARK SMILES IDX 42 14 43 15 96 16 44 17 101 18 95 19 97 20 45 21 100 22
REMARK SMILES IDX 94 23 93 24 46 26 80 27 59 28 79 29 60 30 63 31 78 32 98 33
REMARK SMILES IDX 61 34 62 35 77 37 99 38 64 39 47 40 48 41 57 42 49 43 50 44
REMARK SMILES IDX 56 45 58 46 51 47 52 48 53 49 54 50 55 51 81 52 82 53 91 54
REMARK SMILES IDX 83 55 84 56 90 57 92 58 85 59 86 60 87 61 88 62 89 63 65 64
REMARK SMILES IDX 66 65 75 66 67 67 68 68 74 69 76 70 69 71 70 72 71 73 72 74
REMARK SMILES IDX 73 75 7 76 8 77 9 78 10 80 11 81 12 82 17 83 13 84 16 85
REMARK SMILES IDX 14 86 15 87 18 88 19 89 20 91 21 92 22 93 26 94 23 95 25 96
REMARK SMILES IDX 24 97 27 98 36 99 28 100 29 101 37 102 30 103 31 104 32 105
REMARK SMILES IDX 35 106 33 107 34 108
REMARK H PARENT 3 7 97 25 63 36 8 79 18 90
REMARK Flexibility Score: inf
ROOT
ATOM      1  C   UNL A   1      35.903  33.421  29.881  1.00  0.00     0.023 C 
ENDROOT
BRANCH   1   2
ATOM      2  C   UNL A   1      34.637  32.606  29.646  1.00  0.00     0.023 C 
BRANCH   2   3
ATOM      3  C   UNL A   1      34.294  32.360  28.183  1.00  0.00     0.116 C 
BRANCH   3   4
ATOM      4  N   UNL A   1      33.766  31.027  27.926  1.00  0.00    -0.352 N 
ATOM      5  O   UNL A   1      33.833  28.800  27.553  1.00  0.00    -0.269 OA
ATOM      6  C   UNL A   1      34.424  29.816  27.905  1.00  0.00     0.251 C 
ATOM      7  H   UNL A   1      32.800  30.984  27.743  1.00  0.00     0.163 HD
BRANCH   6   8
ATOM      8  C   UNL A   1      35.859  29.761  28.266  1.00  0.00     0.039 A 
ATOM      9  C   UNL A   1      36.834  30.071  27.319  1.00  0.00     0.014 A 
ATOM     10  C   UNL A   1      36.232  29.334  29.543  1.00  0.00     0.014 A 
ATOM     11  C   UNL A   1      38.159  29.743  27.569  1.00  0.00     0.010 A 
ATOM     12  C   UNL A   1      37.585  29.126  29.833  1.00  0.00     0.010 A 
ATOM     13  C   UNL A   1      38.556  29.272  28.831  1.00  0.00    -0.014 A 
BRANCH  13  14
ATOM     14  C   UNL A   1      39.995  28.976  29.070  1.00  0.00     0.031 A 
ATOM     15  C   UNL A   1      40.607  27.661  28.656  1.00  0.00     0.074 A 
ATOM     16  C   UNL A   1      40.768  29.932  29.622  1.00  0.00     0.049 A 
ATOM     17  N   UNL A   1      41.852  27.267  28.747  1.00  0.00    -0.248 NA
ATOM     18  C   UNL A   1      39.707  26.652  28.074  1.00  0.00     0.031 C 
ATOM     19  C   UNL A   1      40.291  31.244  30.072  1.00  0.00     0.029 A 
ATOM     20  N   UNL A   1      42.115  29.970  29.876  1.00  0.00    -0.354 N 
ATOM     21  C   UNL A   1      41.883  25.964  28.262  1.00  0.00     0.074 A 
ATOM     22  C   UNL A   1      40.524  25.622  27.902  1.00  0.00     0.031 C 
ATOM     23  C   UNL A   1      41.333  31.977  30.484  1.00  0.00     0.029 A 
ATOM     24  C   UNL A   1      42.541  31.166  30.405  1.00  0.00     0.049 A 
ATOM     25  H   UNL A   1      42.719  29.214  29.696  1.00  0.00     0.167 HD
ATOM     26  C   UNL A   1      42.947  25.134  28.124  1.00  0.00     0.037 A 
ATOM     27  C   UNL A   1      43.764  31.566  30.799  1.00  0.00     0.037 A 
ATOM     28  C   UNL A   1      44.301  25.493  28.471  1.00  0.00     0.049 A 
ATOM     29  C   UNL A   1      44.919  30.617  30.658  1.00  0.00     0.074 A 
ATOM     30  C   UNL A   1      45.453  24.740  28.328  1.00  0.00     0.029 A 
ATOM     31  N   UNL A   1      44.685  26.700  29.039  1.00  0.00    -0.354 N 
ATOM     32  N   UNL A   1      44.933  29.403  30.160  1.00  0.00    -0.248 NA
ATOM     33  C   UNL A   1      46.226  31.092  31.129  1.00  0.00     0.031 C 
ATOM     34  C   UNL A   1      46.521  25.463  28.868  1.00  0.00     0.029 A 
ATOM     35  C   UNL A   1      46.050  26.699  29.279  1.00  0.00     0.049 A 
ATOM     36  H   UNL A   1      44.077  27.448  29.241  1.00  0.00     0.167 HD
ATOM     37  C   UNL A   1      46.256  28.982  30.229  1.00  0.00     0.074 A 
ATOM     38  C   UNL A   1      47.012  30.077  30.803  1.00  0.00     0.031 C 
ATOM     39  C   UNL A   1      46.795  27.797  29.847  1.00  0.00     0.037 A 
BRANCH  26  40
ATOM     40  C   UNL A   1      42.695  23.742  27.601  1.00  0.00     0.058 A 
ATOM     41  C   UNL A   1      42.612  23.461  26.228  1.00  0.00     0.135 A 
ATOM     42  C   UNL A   1      42.582  22.662  28.493  1.00  0.00     0.135 A 
ATOM     43  F   UNL A   1      42.701  24.452  25.327  1.00  0.00    -0.206 F 
ATOM     44  C   UNL A   1      42.395  22.167  25.761  1.00  0.00     0.059 A 
ATOM     45  C   UNL A   1      42.397  21.356  28.047  1.00  0.00     0.059 A 
ATOM     46  F   UNL A   1      42.658  22.868  29.818  1.00  0.00    -0.206 F 
ATOM     47  C   UNL A   1      42.289  21.121  26.679  1.00  0.00     0.060 A 
BRANCH  47  48
ATOM     48  S   UNL A   1      42.005  19.450  26.056  1.00  0.00     0.124 S 
ATOM     49  O   UNL A   1      40.589  19.507  25.705  1.00  0.00    -0.237 OA
ATOM     50  O   UNL A   1      42.933  19.375  24.931  1.00  0.00    -0.237 OA
ATOM     51  O   UNL A   1      42.334  18.598  27.194  1.00  0.00    -0.744 OA
ENDBRANCH  47  48
ENDBRANCH  26  40
BRANCH  27  52
ATOM     52  C   UNL A   1      43.952  32.929  31.363  1.00  0.00     0.058 A 
ATOM     53  C   UNL A   1      44.205  34.029  30.530  1.00  0.00     0.135 A 
ATOM     54  C   UNL A   1      43.865  33.163  32.745  1.00  0.00     0.135 A 
ATOM     55  F   UNL A   1      44.301  33.857  29.203  1.00  0.00    -0.206 F 
ATOM     56  C   UNL A   1      44.386  35.306  31.047  1.00  0.00     0.059 A 
ATOM     57  C   UNL A   1      44.007  34.437  33.283  1.00  0.00     0.059 A 
ATOM     58  F   UNL A   1      43.603  32.148  33.585  1.00  0.00    -0.206 F 
ATOM     59  C   UNL A   1      44.281  35.501  32.426  1.00  0.00     0.060 A 
BRANCH  59  60
ATOM     60  S   UNL A   1      44.477  37.171  33.081  1.00  0.00     0.124 S 
ATOM     61  O   UNL A   1      45.774  37.078  33.740  1.00  0.00    -0.237 OA
ATOM     62  O   UNL A   1      44.432  37.982  31.867  1.00  0.00    -0.237 OA
ATOM     63  O   UNL A   1      43.327  37.321  33.968  1.00  0.00    -0.744 OA
ENDBRANCH  59  60
ENDBRANCH  27  52
BRANCH  39  64
ATOM     64  C   UNL A   1      48.287  27.643  29.987  1.00  0.00     0.058 A 
ATOM     65  C   UNL A   1      49.177  28.027  28.972  1.00  0.00     0.135 A 
ATOM     66  C   UNL A   1      48.832  27.117  31.171  1.00  0.00     0.135 A 
ATOM     67  F   UNL A   1      48.711  28.529  27.818  1.00  0.00    -0.206 F 
ATOM     68  C   UNL A   1      50.551  27.860  29.109  1.00  0.00     0.059 A 
ATOM     69  C   UNL A   1      50.204  26.975  31.343  1.00  0.00     0.059 A 
ATOM     70  F   UNL A   1      48.029  26.743  32.179  1.00  0.00    -0.206 F 
ATOM     71  C   UNL A   1      51.056  27.332  30.299  1.00  0.00     0.060 A 
BRANCH  71  72
ATOM     72  S   UNL A   1      52.841  27.131  30.469  1.00  0.00     0.124 S 
ATOM     73  O   UNL A   1      53.228  26.772  29.108  1.00  0.00    -0.237 OA
ATOM     74  O   UNL A   1      53.263  28.454  30.921  1.00  0.00    -0.237 OA
ATOM     75  O   UNL A   1      52.971  26.066  31.459  1.00  0.00    -0.744 OA
ENDBRANCH  71  72
ENDBRANCH  39  64
ENDBRANCH  13  14
ENDBRANCH   6   8
ENDBRANCH   3   4
ENDBRANCH   2   3
ENDBRANCH   1   2
BRANCH   1  76
ATOM     76  C   UNL A   1      36.847  32.854  30.937  1.00  0.00     0.116 C 
BRANCH  76  77
ATOM     77  N   UNL A   1      36.361  33.038  32.300  1.00  0.00    -0.352 N 
ATOM     78  C   UNL A   1      36.905  32.582  33.477  1.00  0.00     0.253 C 
ATOM     79  H   UNL A   1      35.531  33.559  32.389  1.00  0.00     0.163 HD
ATOM     80  O   UNL A   1      36.299  32.673  34.538  1.00  0.00    -0.269 OA
BRANCH  78  81
ATOM     81  C   UNL A   1      38.212  31.899  33.435  1.00  0.00     0.064 A 
ATOM     82  C   UNL A   1      38.255  30.574  32.968  1.00  0.00     0.036 A 
ATOM     83  C   UNL A   1      39.362  32.536  33.932  1.00  0.00     0.054 A 
ATOM     84  C   UNL A   1      39.406  29.823  33.149  1.00  0.00     0.041 A 
ATOM     85  C   UNL A   1      40.454  31.713  34.225  1.00  0.00     0.028 A 
ATOM     86  Cl  UNL A   1      39.456  28.186  32.631  1.00  0.00    -0.084 Cl
ATOM     87  C   UNL A   1      40.490  30.373  33.819  1.00  0.00     0.023 A 
BRANCH  83  88
ATOM     88  N   UNL A   1      39.368  33.947  34.103  1.00  0.00    -0.321 N 
ATOM     89  C   UNL A   1      39.275  34.749  35.225  1.00  0.00     0.255 C 
ATOM     90  H   UNL A   1      39.454  34.449  33.261  1.00  0.00     0.170 HD
ATOM     91  O   UNL A   1      39.192  35.970  35.142  1.00  0.00    -0.269 OA
BRANCH  89  92
ATOM     92  C   UNL A   1      39.293  34.152  36.573  1.00  0.00     0.041 A 
ATOM     93  C   UNL A   1      40.324  34.564  37.450  1.00  0.00     0.015 A 
ATOM     94  C   UNL A   1      38.214  33.369  37.013  1.00  0.00     0.028 A 
ATOM     95  C   UNL A   1      40.210  34.332  38.821  1.00  0.00     0.015 A 
ATOM     96  C   UNL A   1      38.117  33.184  38.376  1.00  0.00     0.054 A 
ATOM     97  C   UNL A   1      39.067  33.683  39.251  1.00  0.00     0.053 A 
ATOM     98  C   UNL A   1      36.991  32.697  39.176  1.00  0.00     0.261 C 
ATOM     99  C   UNL A   1      38.531  33.552  40.601  1.00  0.00     0.261 C 
ATOM    100  O   UNL A   1      35.958  32.272  38.703  1.00  0.00    -0.269 OA
ATOM    101  N   UNL A   1      37.325  32.922  40.482  1.00  0.00    -0.267 N 
ATOM    102  O   UNL A   1      39.071  34.018  41.589  1.00  0.00    -0.269 OA
BRANCH 101 103
ATOM    103  C   UNL A   1      36.450  32.646  41.601  1.00  0.00     0.204 C 
BRANCH 103 104
ATOM    104  C   UNL A   1      37.035  31.538  42.399  1.00  0.00     0.123 A 
ATOM    105  C   UNL A   1      37.088  31.280  43.754  1.00  0.00     0.047 A 
ATOM    106  O   UNL A   1      37.698  30.563  41.714  1.00  0.00    -0.467 OA
ATOM    107  C   UNL A   1      37.849  30.100  43.908  1.00  0.00     0.042 A 
ATOM    108  C   UNL A   1      38.189  29.697  42.638  1.00  0.00     0.195 A 
ENDBRANCH 103 104
ENDBRANCH 101 103
ENDBRANCH  89  92
ENDBRANCH  83  88
ENDBRANCH  78  81
ENDBRANCH  76  77
ENDBRANCH   1  76
TORSDOF 18
ENDMDL
MODEL 2
REMARK VINA RESULT:     -10.2      0.744      7.861
REMARK SMILES O=C(NCCCCNC(=O)c1cc(Cl)ccc1NC(=O)c1ccc2c(c1)C(=O)N(Cc1ccco1)C2=O)c1ccc(-c2c3nc(c(-c4c(F)cc(S(=O)(=O)[O-])cc4F)c4ccc([nH]4)c(-c4c(F)cc(S(=O)(=O)[O-])cc4F)c4nc(c(-c5c(F)cc(S(=O)(=O)[O-])cc5F)c5ccc2[nH]5)C=C4)C=C3)cc1
REMARK SMILES IDX 6 1 5 2 4 3 3 4 1 5 2 6 38 8 39 9 103 10 40 11 102 12 41 13
REMARK SMILES IDX 42 14 43 15 96 16 44 17 101 18 95 19 97 20 45 21 100 22
REMARK SMILES IDX 94 23 93 24 46 26 80 27 59 28 79 29 60 30 63 31 78 32 98 33
REMARK SMILES IDX 61 34 62 35 77 37 99 38 64 39 47 40 48 41 57 42 49 43 50 44
REMARK SMILES IDX 56 45 58 46 51 47 52 48 53 49 54 50 55 51 81 52 82 53 91 54
REMARK SMILES IDX 83 55 84 56 90 57 92 58 85 59 86 60 87 61 88 62 89 63 65 64
REMARK SMILES IDX 66 65 75 66 67 67 68 68 74 69 76 70 69 71 70 72 71 73 72 74
REMARK SMILES IDX 73 75 7 76 8 77 9 78 10 80 11 81 12 82 17 83 13 84 16 85
REMARK SMILES IDX 14 86 15 87 18 88 19 89 20 91 21 92 22 93 26 94 23 95 25 96
REMARK SMILES IDX 24 97 27 98 36 99 28 100 29 101 37 102 30 103 31 104 32 105
REMARK SMILES IDX 35 106 33 107 34 108
REMARK H PARENT 3 7 97 25 63 36 8 79 18 90
REMARK Flexibility Score: inf
ROOT
ATOM      1  C   UNL A   1      35.359  33.688  30.159  1.00  0.00     0.023 C 
ENDROOT
BRANCH   1   2
ATOM      2  C   UNL A   1      34.537  32.457  29.796  1.00  0.00     0.023 C 
BRANCH   2   3
ATOM      3  C   UNL A   1      34.307  32.256  28.305  1.00  0.00     0.116 C 
BRANCH   3   4
ATOM      4  N   UNL A   1      33.826  30.923  27.966  1.00  0.00    -0.352 N 
ATOM      5  O   UNL A   1      33.969  28.725  27.466  1.00  0.00    -0.269 OA
ATOM      6  C   UNL A   1      34.523  29.738  27.882  1.00  0.00     0.251 C 
ATOM      7  H   UNL A   1      32.863  30.860  27.770  1.00  0.00     0.163 HD
BRANCH   6   8
ATOM      8  C   UNL A   1      35.956  29.709  28.254  1.00  0.00     0.039 A 
ATOM      9  C   UNL A   1      36.934  30.011  27.307  1.00  0.00     0.014 A 
ATOM     10  C   UNL A   1      36.325  29.314  29.542  1.00  0.00     0.014 A 
ATOM     11  C   UNL A   1      38.261  29.705  27.574  1.00  0.00     0.010 A 
ATOM     12  C   UNL A   1      37.678  29.129  29.847  1.00  0.00     0.010 A 
ATOM     13  C   UNL A   1      38.655  29.266  28.849  1.00  0.00    -0.014 A 
BRANCH  13  14
ATOM     14  C   UNL A   1      40.096  28.993  29.105  1.00  0.00     0.031 A 
ATOM     15  C   UNL A   1      40.969  29.988  29.827  1.00  0.00     0.074 A 
ATOM     16  C   UNL A   1      40.604  27.804  28.723  1.00  0.00     0.049 A 
ATOM     17  N   UNL A   1      42.227  29.880  30.172  1.00  0.00    -0.248 NA
ATOM     18  C   UNL A   1      40.359  31.273  30.203  1.00  0.00     0.031 C 
ATOM     19  C   UNL A   1      39.860  26.762  28.009  1.00  0.00     0.029 A 
ATOM     20  N   UNL A   1      41.849  27.255  28.900  1.00  0.00    -0.354 N 
ATOM     21  C   UNL A   1      42.567  31.084  30.779  1.00  0.00     0.074 A 
ATOM     22  C   UNL A   1      41.388  31.922  30.731  1.00  0.00     0.031 C 
ATOM     23  C   UNL A   1      40.639  25.681  27.867  1.00  0.00     0.029 A 
ATOM     24  C   UNL A   1      41.960  25.977  28.406  1.00  0.00     0.049 A 
ATOM     25  H   UNL A   1      42.590  27.731  29.339  1.00  0.00     0.167 HD
ATOM     26  C   UNL A   1      43.750  31.454  31.331  1.00  0.00     0.037 A 
ATOM     27  C   UNL A   1      43.011  25.137  28.373  1.00  0.00     0.037 A 
ATOM     28  C   UNL A   1      44.914  30.603  31.388  1.00  0.00     0.049 A 
ATOM     29  C   UNL A   1      44.315  25.582  28.970  1.00  0.00     0.074 A 
ATOM     30  C   UNL A   1      46.145  30.868  31.964  1.00  0.00     0.029 A 
ATOM     31  N   UNL A   1      44.998  29.329  30.843  1.00  0.00    -0.354 N 
ATOM     32  N   UNL A   1      44.604  26.710  29.573  1.00  0.00    -0.248 NA
ATOM     33  C   UNL A   1      45.437  24.639  28.883  1.00  0.00     0.031 C 
ATOM     34  C   UNL A   1      46.991  29.784  31.710  1.00  0.00     0.029 A 
ATOM     35  C   UNL A   1      46.268  28.809  31.043  1.00  0.00     0.049 A 
ATOM     36  H   UNL A   1      44.264  28.862  30.382  1.00  0.00     0.167 HD
ATOM     37  C   UNL A   1      45.932  26.599  29.967  1.00  0.00     0.074 A 
ATOM     38  C   UNL A   1      46.384  25.289  29.545  1.00  0.00     0.031 C 
ATOM     39  C   UNL A   1      46.706  27.500  30.623  1.00  0.00     0.037 A 
BRANCH  26  40
ATOM     40  C   UNL A   1      43.863  32.848  31.894  1.00  0.00     0.058 A 
ATOM     41  C   UNL A   1      43.642  33.128  33.252  1.00  0.00     0.135 A 
ATOM     42  C   UNL A   1      44.248  33.916  31.066  1.00  0.00     0.135 A 
ATOM     43  F   UNL A   1      43.261  32.152  34.091  1.00  0.00    -0.206 F 
ATOM     44  C   UNL A   1      43.766  34.419  33.760  1.00  0.00     0.059 A 
ATOM     45  C   UNL A   1      44.410  35.208  31.559  1.00  0.00     0.059 A 
ATOM     46  F   UNL A   1      44.478  33.710  29.759  1.00  0.00    -0.206 F 
ATOM     47  C   UNL A   1      44.151  35.452  32.905  1.00  0.00     0.060 A 
BRANCH  47  48
ATOM     48  S   UNL A   1      44.304  37.120  33.580  1.00  0.00     0.124 S 
ATOM     49  O   UNL A   1      43.751  36.944  34.920  1.00  0.00    -0.237 OA
ATOM     50  O   UNL A   1      45.745  37.351  33.516  1.00  0.00    -0.237 OA
ATOM     51  O   UNL A   1      43.501  37.933  32.673  1.00  0.00    -0.744 OA
ENDBRANCH  47  48
ENDBRANCH  26  40
BRANCH  27  52
ATOM     52  C   UNL A   1      42.866  23.793  27.755  1.00  0.00     0.058 A 
ATOM     53  C   UNL A   1      42.557  22.667  28.532  1.00  0.00     0.135 A 
ATOM     54  C   UNL A   1      43.017  23.609  26.370  1.00  0.00     0.135 A 
ATOM     55  F   UNL A   1      42.406  22.789  29.859  1.00  0.00    -0.206 F 
ATOM     56  C   UNL A   1      42.423  21.405  27.964  1.00  0.00     0.059 A 
ATOM     57  C   UNL A   1      42.853  22.364  25.775  1.00  0.00     0.059 A 
ATOM     58  F   UNL A   1      43.292  24.658  25.578  1.00  0.00    -0.206 F 
ATOM     59  C   UNL A   1      42.569  21.265  26.582  1.00  0.00     0.060 A 
BRANCH  59  60
ATOM     60  S   UNL A   1      42.352  19.629  25.851  1.00  0.00     0.124 S 
ATOM     61  O   UNL A   1      43.295  19.676  24.740  1.00  0.00    -0.237 OA
ATOM     62  O   UNL A   1      42.712  18.750  26.960  1.00  0.00    -0.237 OA
ATOM     63  O   UNL A   1      40.940  19.611  25.481  1.00  0.00    -0.744 OA
ENDBRANCH  59  60
ENDBRANCH  27  52
BRANCH  39  64
ATOM     64  C   UNL A   1      48.109  27.077  30.973  1.00  0.00     0.058 A 
ATOM     65  C   UNL A   1      49.209  27.394  30.162  1.00  0.00     0.135 A 
ATOM     66  C   UNL A   1      48.353  26.358  32.155  1.00  0.00     0.135 A 
ATOM     67  F   UNL A   1      49.034  28.073  29.018  1.00  0.00    -0.206 F 
ATOM     68  C   UNL A   1      50.497  26.979  30.490  1.00  0.00     0.059 A 
ATOM     69  C   UNL A   1      49.635  25.965  32.521  1.00  0.00     0.059 A 
ATOM     70  F   UNL A   1      47.338  26.036  32.974  1.00  0.00    -0.206 F 
ATOM     71  C   UNL A   1      50.699  26.264  31.672  1.00  0.00     0.060 A 
BRANCH  71  72
ATOM     72  S   UNL A   1      52.375  25.742  32.092  1.00  0.00     0.124 S 
ATOM     73  O   UNL A   1      52.768  26.762  33.059  1.00  0.00    -0.237 OA
ATOM     74  O   UNL A   1      52.159  24.404  32.632  1.00  0.00    -0.237 OA
ATOM     75  O   UNL A   1      53.076  25.789  30.811  1.00  0.00    -0.744 OA
ENDBRANCH  71  72
ENDBRANCH  39  64
ENDBRANCH  13  14
ENDBRANCH   6   8
ENDBRANCH   3   4
ENDBRANCH   2   3
ENDBRANCH   1   2
BRANCH   1  76
ATOM     76  C   UNL A   1      36.473  33.442  31.172  1.00  0.00     0.116 C 
BRANCH  76  77
ATOM     77  N   UNL A   1      36.045  33.631  32.553  1.00  0.00    -0.352 N 
ATOM     78  C   UNL A   1      36.565  33.077  33.699  1.00  0.00     0.253 C 
ATOM     79  H   UNL A   1      35.281  34.237  32.683  1.00  0.00     0.163 HD
ATOM     80  O   UNL A   1      36.000  33.199  34.780  1.00  0.00    -0.269 OA
BRANCH  78  81
ATOM     81  C   UNL A   1      37.787  32.257  33.598  1.00  0.00     0.064 A 
ATOM     82  C   UNL A   1      37.665  30.940  33.124  1.00  0.00     0.036 A 
ATOM     83  C   UNL A   1      39.019  32.760  34.049  1.00  0.00     0.054 A 
ATOM     84  C   UNL A   1      38.733  30.065  33.252  1.00  0.00     0.041 A 
ATOM     85  C   UNL A   1      40.026  31.820  34.291  1.00  0.00     0.028 A 
ATOM     86  Cl  UNL A   1      38.583  28.438  32.724  1.00  0.00    -0.084 Cl
ATOM     87  C   UNL A   1      39.898  30.488  33.878  1.00  0.00     0.023 A 
BRANCH  83  88
ATOM     88  N   UNL A   1      39.187  34.160  34.226  1.00  0.00    -0.321 N 
ATOM     89  C   UNL A   1      39.271  34.951  35.357  1.00  0.00     0.255 C 
ATOM     90  H   UNL A   1      39.254  34.662  33.383  1.00  0.00     0.170 HD
ATOM     91  O   UNL A   1      39.309  36.176  35.287  1.00  0.00    -0.269 OA
BRANCH  89  92
ATOM     92  C   UNL A   1      39.338  34.337  36.696  1.00  0.00     0.041 A 
ATOM     93  C   UNL A   1      40.374  34.771  37.556  1.00  0.00     0.015 A 
ATOM     94  C   UNL A   1      38.295  33.513  37.147  1.00  0.00     0.028 A 
ATOM     95  C   UNL A   1      40.298  34.517  38.925  1.00  0.00     0.015 A 
ATOM     96  C   UNL A   1      38.234  33.306  38.509  1.00  0.00     0.054 A 
ATOM     97  C   UNL A   1      39.186  33.824  39.371  1.00  0.00     0.053 A 
ATOM     98  C   UNL A   1      37.142  32.771  39.326  1.00  0.00     0.261 C 
ATOM     99  C   UNL A   1      38.685  33.657  40.730  1.00  0.00     0.261 C 
ATOM    100  O   UNL A   1      36.114  32.319  38.869  1.00  0.00    -0.269 OA
ATOM    101  N   UNL A   1      37.498  32.989  40.628  1.00  0.00    -0.267 N 
ATOM    102  O   UNL A   1      39.230  34.127  41.712  1.00  0.00    -0.269 OA
BRANCH 101 103
ATOM    103  C   UNL A   1      36.657  32.669  41.761  1.00  0.00     0.204 C 
BRANCH 103 104
ATOM    104  C   UNL A   1      37.317  31.602  42.556  1.00  0.00     0.123 A 
ATOM    105  C   UNL A   1      37.767  30.335  42.241  1.00  0.00     0.047 A 
ATOM    106  O   UNL A   1      37.516  31.849  43.881  1.00  0.00    -0.467 OA
ATOM    107  C   UNL A   1      38.240  29.768  43.445  1.00  0.00     0.042 A 
ATOM    108  C   UNL A   1      38.074  30.731  44.412  1.00  0.00     0.195 A 
ENDBRANCH 103 104
ENDBRANCH 101 103
ENDBRANCH  89  92
ENDBRANCH  83  88
ENDBRANCH  78  81
ENDBRANCH  76  77
ENDBRANCH   1  76
TORSDOF 18
ENDMDL
MODEL 3
REMARK VINA RESULT:      -9.8      1.981      3.660
REMARK SMILES O=C(NCCCCNC(=O)c1cc(Cl)ccc1NC(=O)c1ccc2c(c1)C(=O)N(Cc1ccco1)C2=O)c1ccc(-c2c3nc(c(-c4c(F)cc(S(=O)(=O)[O-])cc4F)c4ccc([nH]4)c(-c4c(F)cc(S(=O)(=O)[O-])cc4F)c4nc(c(-c5c(F)cc(S(=O)(=O)[O-])cc5F)c5ccc2[nH]5)C=C4)C=C3)cc1
REMARK SMILES IDX 6 1 5 2 4 3 3 4 1 5 2 6 38 8 39 9 103 10 40 11 102 12 41 13
REMARK SMILES IDX 42 14 43 15 96 16 44 17 101 18 95 19 97 20 45 21 100 22
REMARK SMILES IDX 94 23 93 24 46 26 80 27 59 28 79 29 60 30 63 31 78 32 98 33
REMARK SMILES IDX 61 34 62 35 77 37 99 38 64 39 47 40 48 41 57 42 49 43 50 44
REMARK SMILES IDX 56 45 58 46 51 47 52 48 53 49 54 50 55 51 81 52 82 53 91 54
REMARK SMILES IDX 83 55 84 56 90 57 92 58 85 59 86 60 87 61 88 62 89 63 65 64
REMARK SMILES IDX 66 65 75 66 67 67 68 68 74 69 76 70 69 71 70 72 71 73 72 74
REMARK SMILES IDX 73 75 7 76 8 77 9 78 10 80 11 81 12 82 17 83 13 84 16 85
REMARK SMILES IDX 14 86 15 87 18 88 19 89 20 91 21 92 22 93 26 94 23 95 25 96
REMARK SMILES IDX 24 97 27 98 36 99 28 100 29 101 37 102 30 103 31 104 32 105
REMARK SMILES IDX 35 106 33 107 34 108
REMARK H PARENT 3 7 97 25 63 36 8 79 18 90
REMARK Flexibility Score: inf
ROOT
ATOM      1  C   UNL A   1      34.750  32.711  31.792  1.00  0.00     0.023 C 
ENDROOT
BRANCH   1   2
ATOM      2  C   UNL A   1      34.504  33.402  30.457  1.00  0.00     0.023 C 
BRANCH   2   3
ATOM      3  C   UNL A   1      35.121  32.708  29.251  1.00  0.00     0.116 C 
BRANCH   3   4
ATOM      4  N   UNL A   1      34.247  31.715  28.640  1.00  0.00    -0.352 N 
ATOM      5  O   UNL A   1      33.701  29.805  27.566  1.00  0.00    -0.269 OA
ATOM      6  C   UNL A   1      34.553  30.462  28.155  1.00  0.00     0.251 C 
ATOM      7  H   UNL A   1      33.301  31.977  28.564  1.00  0.00     0.163 HD
BRANCH   6   8
ATOM      8  C   UNL A   1      35.928  29.936  28.313  1.00  0.00     0.039 A 
ATOM      9  C   UNL A   1      36.346  29.419  29.539  1.00  0.00     0.014 A 
ATOM     10  C   UNL A   1      36.825  30.020  27.245  1.00  0.00     0.014 A 
ATOM     11  C   UNL A   1      37.697  29.200  29.763  1.00  0.00     0.010 A 
ATOM     12  C   UNL A   1      38.166  29.675  27.441  1.00  0.00     0.010 A 
ATOM     13  C   UNL A   1      38.627  29.317  28.717  1.00  0.00    -0.014 A 
BRANCH  13  14
ATOM     14  C   UNL A   1      40.062  29.029  28.991  1.00  0.00     0.031 A 
ATOM     15  C   UNL A   1      40.684  27.707  28.617  1.00  0.00     0.074 A 
ATOM     16  C   UNL A   1      40.822  29.999  29.537  1.00  0.00     0.049 A 
ATOM     17  N   UNL A   1      41.928  27.318  28.741  1.00  0.00    -0.248 NA
ATOM     18  C   UNL A   1      39.798  26.684  28.039  1.00  0.00     0.031 C 
ATOM     19  C   UNL A   1      40.333  31.318  29.949  1.00  0.00     0.029 A 
ATOM     20  N   UNL A   1      42.164  30.045  29.817  1.00  0.00    -0.354 N 
ATOM     21  C   UNL A   1      41.971  26.005  28.284  1.00  0.00     0.074 A 
ATOM     22  C   UNL A   1      40.620  25.652  27.905  1.00  0.00     0.031 C 
ATOM     23  C   UNL A   1      41.367  32.063  30.366  1.00  0.00     0.029 A 
ATOM     24  C   UNL A   1      42.577  31.253  30.328  1.00  0.00     0.049 A 
ATOM     25  H   UNL A   1      42.773  29.286  29.665  1.00  0.00     0.167 HD
ATOM     26  C   UNL A   1      43.038  25.175  28.185  1.00  0.00     0.037 A 
ATOM     27  C   UNL A   1      43.791  31.663  30.738  1.00  0.00     0.037 A 
ATOM     28  C   UNL A   1      44.385  25.544  28.551  1.00  0.00     0.049 A 
ATOM     29  C   UNL A   1      44.951  30.715  30.640  1.00  0.00     0.074 A 
ATOM     30  C   UNL A   1      45.541  24.791  28.447  1.00  0.00     0.029 A 
ATOM     31  N   UNL A   1      44.755  26.763  29.101  1.00  0.00    -0.354 N 
ATOM     32  N   UNL A   1      44.976  29.491  30.169  1.00  0.00    -0.248 NA
ATOM     33  C   UNL A   1      46.246  31.203  31.126  1.00  0.00     0.031 C 
ATOM     34  C   UNL A   1      46.597  25.527  28.993  1.00  0.00     0.029 A 
ATOM     35  C   UNL A   1      46.116  26.771  29.368  1.00  0.00     0.049 A 
ATOM     36  H   UNL A   1      44.142  27.514  29.275  1.00  0.00     0.167 HD
ATOM     37  C   UNL A   1      46.299  29.074  30.272  1.00  0.00     0.074 A 
ATOM     38  C   UNL A   1      47.041  30.182  30.838  1.00  0.00     0.031 C 
ATOM     39  C   UNL A   1      46.847  27.882  29.927  1.00  0.00     0.037 A 
BRANCH  26  40
ATOM     40  C   UNL A   1      42.800  23.771  27.688  1.00  0.00     0.058 A 
ATOM     41  C   UNL A   1      42.562  22.697  28.560  1.00  0.00     0.135 A 
ATOM     42  C   UNL A   1      42.762  23.507  26.307  1.00  0.00     0.135 A 
ATOM     43  F   UNL A   1      42.597  22.884  29.889  1.00  0.00    -0.206 F 
ATOM     44  C   UNL A   1      42.328  21.409  28.085  1.00  0.00     0.059 A 
ATOM     45  C   UNL A   1      42.497  22.233  25.809  1.00  0.00     0.059 A 
ATOM     46  F   UNL A   1      42.977  24.494  25.423  1.00  0.00    -0.206 F 
ATOM     47  C   UNL A   1      42.297  21.188  26.707  1.00  0.00     0.060 A 
BRANCH  47  48
ATOM     48  S   UNL A   1      41.995  19.511  26.108  1.00  0.00     0.124 S 
ATOM     49  O   UNL A   1      40.554  19.542  25.874  1.00  0.00    -0.237 OA
ATOM     50  O   UNL A   1      42.829  19.453  24.911  1.00  0.00    -0.237 OA
ATOM     51  O   UNL A   1      42.431  18.667  27.215  1.00  0.00    -0.744 OA
ENDBRANCH  47  48
ENDBRANCH  26  40
BRANCH  27  52
ATOM     52  C   UNL A   1      43.965  33.039  31.276  1.00  0.00     0.058 A 
ATOM     53  C   UNL A   1      44.049  33.271  32.657  1.00  0.00     0.135 A 
ATOM     54  C   UNL A   1      44.068  34.147  30.420  1.00  0.00     0.135 A 
ATOM     55  F   UNL A   1      43.953  32.247  33.517  1.00  0.00    -0.206 F 
ATOM     56  C   UNL A   1      44.208  34.554  33.170  1.00  0.00     0.059 A 
ATOM     57  C   UNL A   1      44.263  35.434  30.907  1.00  0.00     0.059 A 
ATOM     58  F   UNL A   1      44.015  33.977  29.089  1.00  0.00    -0.206 F 
ATOM     59  C   UNL A   1      44.318  35.629  32.286  1.00  0.00     0.060 A 
BRANCH  59  60
ATOM     60  S   UNL A   1      44.566  37.284  32.963  1.00  0.00     0.124 S 
ATOM     61  O   UNL A   1      43.985  38.119  31.919  1.00  0.00    -0.237 OA
ATOM     62  O   UNL A   1      43.820  37.214  34.217  1.00  0.00    -0.237 OA
ATOM     63  O   UNL A   1      46.016  37.373  33.110  1.00  0.00    -0.744 OA
ENDBRANCH  59  60
ENDBRANCH  27  52
BRANCH  39  64
ATOM     64  C   UNL A   1      48.336  27.734  30.099  1.00  0.00     0.058 A 
ATOM     65  C   UNL A   1      48.908  27.280  31.298  1.00  0.00     0.135 A 
ATOM     66  C   UNL A   1      49.202  28.035  29.034  1.00  0.00     0.135 A 
ATOM     67  F   UNL A   1      48.129  26.985  32.350  1.00  0.00    -0.206 F 
ATOM     68  C   UNL A   1      50.286  27.167  31.449  1.00  0.00     0.059 A 
ATOM     69  C   UNL A   1      50.581  27.894  29.150  1.00  0.00     0.059 A 
ATOM     70  F   UNL A   1      48.710  28.463  27.861  1.00  0.00    -0.206 F 
ATOM     71  C   UNL A   1      51.115  27.477  30.368  1.00  0.00     0.060 A 
BRANCH  71  72
ATOM     72  S   UNL A   1      52.901  27.314  30.573  1.00  0.00     0.124 S 
ATOM     73  O   UNL A   1      53.329  28.709  30.539  1.00  0.00    -0.237 OA
ATOM     74  O   UNL A   1      53.008  26.648  31.867  1.00  0.00    -0.237 OA
ATOM     75  O   UNL A   1      53.303  26.507  29.424  1.00  0.00    -0.744 OA
ENDBRANCH  71  72
ENDBRANCH  39  64
ENDBRANCH  13  14
ENDBRANCH   6   8
ENDBRANCH   3   4
ENDBRANCH   2   3
ENDBRANCH   1   2
BRANCH   1  76
ATOM     76  C   UNL A   1      36.144  32.919  32.377  1.00  0.00     0.116 C 
BRANCH  76  77
ATOM     77  N   UNL A   1      36.149  33.001  33.833  1.00  0.00    -0.352 N 
ATOM     78  C   UNL A   1      37.130  32.613  34.714  1.00  0.00     0.253 C 
ATOM     79  H   UNL A   1      35.340  33.387  34.240  1.00  0.00     0.163 HD
ATOM     80  O   UNL A   1      36.931  32.592  35.923  1.00  0.00    -0.269 OA
BRANCH  78  81
ATOM     81  C   UNL A   1      38.419  32.140  34.175  1.00  0.00     0.064 A 
ATOM     82  C   UNL A   1      38.477  30.845  33.633  1.00  0.00     0.036 A 
ATOM     83  C   UNL A   1      39.571  32.939  34.284  1.00  0.00     0.054 A 
ATOM     84  C   UNL A   1      39.710  30.276  33.352  1.00  0.00     0.041 A 
ATOM     85  C   UNL A   1      40.798  32.289  34.123  1.00  0.00     0.028 A 
ATOM     86  Cl  UNL A   1      39.801  28.675  32.738  1.00  0.00    -0.084 Cl
ATOM     87  C   UNL A   1      40.874  30.977  33.640  1.00  0.00     0.023 A 
BRANCH  83  88
ATOM     88  N   UNL A   1      39.441  34.331  34.538  1.00  0.00    -0.321 N 
ATOM     89  C   UNL A   1      39.925  35.142  35.548  1.00  0.00     0.255 C 
ATOM     90  H   UNL A   1      38.903  34.809  33.867  1.00  0.00     0.170 HD
ATOM     91  O   UNL A   1      39.602  36.322  35.640  1.00  0.00    -0.269 OA
BRANCH  89  92
ATOM     92  C   UNL A   1      40.871  34.608  36.546  1.00  0.00     0.041 A 
ATOM     93  C   UNL A   1      40.350  33.735  37.529  1.00  0.00     0.015 A 
ATOM     94  C   UNL A   1      42.252  34.810  36.388  1.00  0.00     0.028 A 
ATOM     95  C   UNL A   1      41.210  32.923  38.269  1.00  0.00     0.015 A 
ATOM     96  C   UNL A   1      43.071  33.972  37.114  1.00  0.00     0.054 A 
ATOM     97  C   UNL A   1      42.561  33.034  37.997  1.00  0.00     0.053 A 
ATOM     98  C   UNL A   1      44.504  33.707  36.967  1.00  0.00     0.261 C 
ATOM     99  C   UNL A   1      43.657  32.152  38.381  1.00  0.00     0.261 C 
ATOM    100  O   UNL A   1      45.227  34.304  36.199  1.00  0.00    -0.269 OA
ATOM    101  N   UNL A   1      44.779  32.636  37.771  1.00  0.00    -0.267 N 
ATOM    102  O   UNL A   1      43.509  31.143  39.047  1.00  0.00    -0.269 OA
BRANCH 101 103
ATOM    103  C   UNL A   1      46.079  32.007  37.864  1.00  0.00     0.204 C 
BRANCH 103 104
ATOM    104  C   UNL A   1      46.202  31.007  36.773  1.00  0.00     0.123 A 
ATOM    105  C   UNL A   1      46.504  31.112  35.430  1.00  0.00     0.047 A 
ATOM    106  O   UNL A   1      45.943  29.707  37.090  1.00  0.00    -0.467 OA
ATOM    107  C   UNL A   1      46.395  29.811  34.892  1.00  0.00     0.042 A 
ATOM    108  C   UNL A   1      46.061  28.990  35.943  1.00  0.00     0.195 A 
ENDBRANCH 103 104
ENDBRANCH 101 103
ENDBRANCH  89  92
ENDBRANCH  83  88
ENDBRANCH  78  81
ENDBRANCH  76  77
ENDBRANCH   1  76
TORSDOF 18
ENDMDL
