MODEL 1
REMARK VINA RESULT:     -11.7      0.000      0.000
REMARK SMILES CCc1nn(-c2ccc(Cl)nn2)c(CC)c1CC(=O)NCCCCNC(=O)c1ccc(-c2c3nc(c(-c4c(F)cc(S(=O)(=O)[O-])cc4F)c4ccc([nH]4)c(-c4c(F)cc(S(=O)(=O)[O-])cc4F)c4nc(c(-c5c(F)cc(S(=O)(=O)[O-])cc5F)c5ccc2[nH]5)C=C4)C=C3)cc1
REMARK SMILES IDX 23 1 22 2 21 3 20 4 18 5 19 6 17 8 16 9 3 10 4 11 5 12 13 13
REMARK SMILES IDX 2 14 1 15 6 16 7 17 12 18 8 19 11 20 9 21 10 22 14 23 15 24
REMARK SMILES IDX 24 25 25 26 26 27 27 29 28 30 29 31 93 32 30 33 92 34 31 35
REMARK SMILES IDX 32 36 33 37 86 38 34 39 91 40 85 41 87 42 35 43 90 44 84 45
REMARK SMILES IDX 83 46 36 48 70 49 49 50 69 51 50 52 53 53 68 54 88 55 51 56
REMARK SMILES IDX 52 57 67 59 89 60 54 61 37 62 38 63 47 64 39 65 40 66 46 67
REMARK SMILES IDX 48 68 41 69 42 70 43 71 44 72 45 73 71 74 72 75 81 76 73 77
REMARK SMILES IDX 74 78 80 79 82 80 75 81 76 82 77 83 78 84 79 85 55 86 56 87
REMARK SMILES IDX 65 88 57 89 58 90 64 91 66 92 59 93 60 94 61 95 62 96 63 97
REMARK H PARENT 20 7 25 28 87 47 53 58
REMARK Flexibility Score: inf
ROOT
ATOM      1  C   UNL A   1      39.855  20.642  26.097  1.00  0.00     0.023 C 
ENDROOT
BRANCH   1   2
ATOM      2  C   UNL A   1      39.244  22.023  26.364  1.00  0.00     0.023 C 
BRANCH   2   3
ATOM      3  C   UNL A   1      37.794  22.194  25.904  1.00  0.00     0.116 C 
BRANCH   3   4
ATOM      4  N   UNL A   1      37.692  22.738  24.567  1.00  0.00    -0.356 N 
ATOM      5  C   UNL A   1      36.606  22.754  23.738  1.00  0.00     0.224 C 
ATOM      6  O   UNL A   1      36.728  23.238  22.612  1.00  0.00    -0.275 OA
ATOM      7  H   UNL A   1      38.512  23.148  24.207  1.00  0.00     0.163 HD
BRANCH   5   8
ATOM      8  C   UNL A   1      35.283  22.178  24.217  1.00  0.00     0.139 C 
BRANCH   8   9
ATOM      9  C   UNL A   1      34.362  23.227  24.761  1.00  0.00     0.006 A 
ATOM     10  C   UNL A   1      34.040  23.525  26.120  1.00  0.00     0.067 A 
ATOM     11  N   UNL A   1      33.188  24.556  26.203  1.00  0.00    -0.171 NA
ATOM     12  N   UNL A   1      32.879  24.870  24.924  1.00  0.00    -0.217 N 
ATOM     13  C   UNL A   1      33.652  24.163  24.019  1.00  0.00     0.050 A 
BRANCH  10  14
ATOM     14  C   UNL A   1      34.449  22.829  27.388  1.00  0.00     0.055 C 
ATOM     15  C   UNL A   1      33.898  21.426  27.580  1.00  0.00     0.011 C 
ENDBRANCH  10  14
BRANCH  12  16
ATOM     16  C   UNL A   1      31.834  25.784  24.630  1.00  0.00     0.176 A 
ATOM     17  C   UNL A   1      30.546  25.296  24.437  1.00  0.00     0.054 A 
ATOM     18  N   UNL A   1      32.134  27.091  24.452  1.00  0.00    -0.129 NA
ATOM     19  C   UNL A   1      29.570  26.159  23.949  1.00  0.00     0.047 A 
ATOM     20  N   UNL A   1      31.171  27.940  23.963  1.00  0.00    -0.136 NA
ATOM     21  C   UNL A   1      29.936  27.465  23.702  1.00  0.00     0.151 A 
ATOM     22  Cl  UNL A   1      28.840  28.581  23.007  1.00  0.00    -0.060 Cl
ENDBRANCH  12  16
BRANCH  13  23
ATOM     23  C   UNL A   1      33.761  24.495  22.555  1.00  0.00     0.053 C 
ATOM     24  C   UNL A   1      32.962  23.585  21.634  1.00  0.00     0.011 C 
ENDBRANCH  13  23
ENDBRANCH   8   9
ENDBRANCH   5   8
ENDBRANCH   3   4
ENDBRANCH   2   3
ENDBRANCH   1   2
BRANCH   1  25
ATOM     25  C   UNL A   1      40.962  20.235  27.063  1.00  0.00     0.116 C 
BRANCH  25  26
ATOM     26  N   UNL A   1      42.160  19.756  26.381  1.00  0.00    -0.352 N 
ATOM     27  C   UNL A   1      43.107  20.516  25.717  1.00  0.00     0.251 C 
ATOM     28  H   UNL A   1      42.311  18.783  26.395  1.00  0.00     0.163 HD
ATOM     29  O   UNL A   1      43.788  20.024  24.831  1.00  0.00    -0.269 OA
BRANCH  27  30
ATOM     30  C   UNL A   1      43.284  21.928  26.107  1.00  0.00     0.039 A 
ATOM     31  C   UNL A   1      42.680  22.954  25.379  1.00  0.00     0.014 A 
ATOM     32  C   UNL A   1      44.056  22.213  27.233  1.00  0.00     0.014 A 
ATOM     33  C   UNL A   1      42.783  24.262  25.849  1.00  0.00     0.010 A 
ATOM     34  C   UNL A   1      44.065  23.485  27.759  1.00  0.00     0.010 A 
ATOM     35  C   UNL A   1      43.450  24.520  27.061  1.00  0.00    -0.014 A 
BRANCH  35  36
ATOM     36  C   UNL A   1      43.287  25.822  27.721  1.00  0.00     0.031 A 
ATOM     37  C   UNL A   1      44.377  26.771  27.352  1.00  0.00     0.074 A 
ATOM     38  C   UNL A   1      42.164  26.209  28.373  1.00  0.00     0.049 A 
ATOM     39  N   UNL A   1      45.341  27.194  28.102  1.00  0.00    -0.248 NA
ATOM     40  C   UNL A   1      44.553  27.123  25.928  1.00  0.00     0.031 C 
ATOM     41  C   UNL A   1      40.920  25.437  28.490  1.00  0.00     0.029 A 
ATOM     42  N   UNL A   1      41.824  27.400  28.959  1.00  0.00    -0.354 N 
ATOM     43  C   UNL A   1      46.010  28.141  27.327  1.00  0.00     0.074 A 
ATOM     44  C   UNL A   1      45.681  27.839  25.963  1.00  0.00     0.031 C 
ATOM     45  C   UNL A   1      39.908  26.251  28.859  1.00  0.00     0.029 A 
ATOM     46  C   UNL A   1      40.449  27.562  29.169  1.00  0.00     0.049 A 
ATOM     47  H   UNL A   1      42.486  28.082  29.210  1.00  0.00     0.167 HD
ATOM     48  C   UNL A   1      46.398  29.316  27.897  1.00  0.00     0.037 A 
ATOM     49  C   UNL A   1      39.789  28.686  29.560  1.00  0.00     0.037 A 
ATOM     50  C   UNL A   1      46.363  29.199  29.334  1.00  0.00     0.049 A 
ATOM     51  C   UNL A   1      40.775  29.559  30.236  1.00  0.00     0.074 A 
ATOM     52  C   UNL A   1      47.085  28.569  30.324  1.00  0.00     0.029 A 
ATOM     53  N   UNL A   1      45.139  29.509  29.859  1.00  0.00    -0.354 N 
ATOM     54  N   UNL A   1      41.347  29.245  31.367  1.00  0.00    -0.248 NA
ATOM     55  C   UNL A   1      41.417  30.631  29.485  1.00  0.00     0.031 C 
ATOM     56  C   UNL A   1      46.207  28.440  31.442  1.00  0.00     0.029 A 
ATOM     57  C   UNL A   1      44.993  29.047  31.134  1.00  0.00     0.049 A 
ATOM     58  H   UNL A   1      44.444  30.009  29.372  1.00  0.00     0.167 HD
ATOM     59  C   UNL A   1      42.627  29.745  31.244  1.00  0.00     0.074 A 
ATOM     60  C   UNL A   1      42.560  30.726  30.168  1.00  0.00     0.031 C 
ATOM     61  C   UNL A   1      43.689  29.061  31.759  1.00  0.00     0.037 A 
BRANCH  48  62
ATOM     62  C   UNL A   1      46.235  30.692  27.252  1.00  0.00     0.058 A 
ATOM     63  C   UNL A   1      47.325  31.595  27.302  1.00  0.00     0.135 A 
ATOM     64  C   UNL A   1      45.001  31.273  26.885  1.00  0.00     0.135 A 
ATOM     65  F   UNL A   1      48.551  31.165  27.643  1.00  0.00    -0.206 F 
ATOM     66  C   UNL A   1      47.181  32.967  27.079  1.00  0.00     0.059 A 
ATOM     67  C   UNL A   1      44.845  32.630  26.617  1.00  0.00     0.059 A 
ATOM     68  F   UNL A   1      43.856  30.586  26.848  1.00  0.00    -0.206 F 
ATOM     69  C   UNL A   1      45.931  33.476  26.746  1.00  0.00     0.060 A 
BRANCH  69  70
ATOM     70  S   UNL A   1      45.723  35.247  26.499  1.00  0.00     0.124 S 
ATOM     71  O   UNL A   1      44.274  35.356  26.373  1.00  0.00    -0.237 OA
ATOM     72  O   UNL A   1      46.305  35.790  27.722  1.00  0.00    -0.237 OA
ATOM     73  O   UNL A   1      46.485  35.505  25.281  1.00  0.00    -0.744 OA
ENDBRANCH  69  70
ENDBRANCH  48  62
BRANCH  49  74
ATOM     74  C   UNL A   1      38.426  29.172  29.195  1.00  0.00     0.058 A 
ATOM     75  C   UNL A   1      37.456  29.447  30.181  1.00  0.00     0.135 A 
ATOM     76  C   UNL A   1      38.146  29.667  27.906  1.00  0.00     0.135 A 
ATOM     77  F   UNL A   1      37.631  29.016  31.439  1.00  0.00    -0.206 F 
ATOM     78  C   UNL A   1      36.322  30.230  29.924  1.00  0.00     0.059 A 
ATOM     79  C   UNL A   1      37.020  30.441  27.624  1.00  0.00     0.059 A 
ATOM     80  F   UNL A   1      39.012  29.492  26.897  1.00  0.00    -0.206 F 
ATOM     81  C   UNL A   1      36.128  30.748  28.645  1.00  0.00     0.060 A 
BRANCH  81  82
ATOM     82  S   UNL A   1      34.785  31.927  28.351  1.00  0.00     0.124 S 
ATOM     83  O   UNL A   1      34.392  32.286  29.709  1.00  0.00    -0.237 OA
ATOM     84  O   UNL A   1      35.452  32.973  27.582  1.00  0.00    -0.237 OA
ATOM     85  O   UNL A   1      33.805  31.140  27.606  1.00  0.00    -0.744 OA
ENDBRANCH  81  82
ENDBRANCH  49  74
BRANCH  61  86
ATOM     86  C   UNL A   1      43.461  28.213  32.969  1.00  0.00     0.058 A 
ATOM     87  C   UNL A   1      43.201  28.682  34.267  1.00  0.00     0.135 A 
ATOM     88  C   UNL A   1      43.462  26.822  32.772  1.00  0.00     0.135 A 
ATOM     89  F   UNL A   1      43.099  29.996  34.519  1.00  0.00    -0.206 F 
ATOM     90  C   UNL A   1      43.001  27.800  35.331  1.00  0.00     0.059 A 
ATOM     91  C   UNL A   1      43.231  25.929  33.807  1.00  0.00     0.059 A 
ATOM     92  F   UNL A   1      43.663  26.316  31.544  1.00  0.00    -0.206 F 
ATOM     93  C   UNL A   1      43.023  26.424  35.091  1.00  0.00     0.060 A 
BRANCH  93  94
ATOM     94  S   UNL A   1      42.746  25.278  36.457  1.00  0.00     0.124 S 
ATOM     95  O   UNL A   1      42.615  26.182  37.593  1.00  0.00    -0.237 OA
ATOM     96  O   UNL A   1      41.525  24.590  36.046  1.00  0.00    -0.237 OA
ATOM     97  O   UNL A   1      43.949  24.449  36.455  1.00  0.00    -0.744 OA
ENDBRANCH  93  94
ENDBRANCH  61  86
ENDBRANCH  35  36
ENDBRANCH  27  30
ENDBRANCH  25  26
ENDBRANCH   1  25
TORSDOF 18
ENDMDL
MODEL 2
REMARK VINA RESULT:     -11.6      1.077      1.686
REMARK SMILES CCc1nn(-c2ccc(Cl)nn2)c(CC)c1CC(=O)NCCCCNC(=O)c1ccc(-c2c3nc(c(-c4c(F)cc(S(=O)(=O)[O-])cc4F)c4ccc([nH]4)c(-c4c(F)cc(S(=O)(=O)[O-])cc4F)c4nc(c(-c5c(F)cc(S(=O)(=O)[O-])cc5F)c5ccc2[nH]5)C=C4)C=C3)cc1
REMARK SMILES IDX 23 1 22 2 21 3 20 4 18 5 19 6 17 8 16 9 3 10 4 11 5 12 13 13
REMARK SMILES IDX 2 14 1 15 6 16 7 17 12 18 8 19 11 20 9 21 10 22 14 23 15 24
REMARK SMILES IDX 24 25 25 26 26 27 27 29 28 30 29 31 93 32 30 33 92 34 31 35
REMARK SMILES IDX 32 36 33 37 86 38 34 39 91 40 85 41 87 42 35 43 90 44 84 45
REMARK SMILES IDX 83 46 36 48 70 49 49 50 69 51 50 52 53 53 68 54 88 55 51 56
REMARK SMILES IDX 52 57 67 59 89 60 54 61 37 62 38 63 47 64 39 65 40 66 46 67
REMARK SMILES IDX 48 68 41 69 42 70 43 71 44 72 45 73 71 74 72 75 81 76 73 77
REMARK SMILES IDX 74 78 80 79 82 80 75 81 76 82 77 83 78 84 79 85 55 86 56 87
REMARK SMILES IDX 65 88 57 89 58 90 64 91 66 92 59 93 60 94 61 95 62 96 63 97
REMARK H PARENT 20 7 25 28 87 47 53 58
REMARK Flexibility Score: inf
ROOT
ATOM      1  C   UNL A   1      39.794  20.626  25.880  1.00  0.00     0.023 C 
ENDROOT
BRANCH   1   2
ATOM      2  C   UNL A   1      38.911  21.860  26.105  1.00  0.00     0.023 C 
BRANCH   2   3
ATOM      3  C   UNL A   1      37.586  21.862  25.337  1.00  0.00     0.116 C 
BRANCH   3   4
ATOM      4  N   UNL A   1      36.458  22.216  26.171  1.00  0.00    -0.356 N 
ATOM      5  C   UNL A   1      35.316  22.879  25.817  1.00  0.00     0.224 C 
ATOM      6  O   UNL A   1      34.477  23.117  26.686  1.00  0.00    -0.275 OA
ATOM      7  H   UNL A   1      36.520  21.946  27.116  1.00  0.00     0.163 HD
BRANCH   5   8
ATOM      8  C   UNL A   1      35.108  23.305  24.372  1.00  0.00     0.139 C 
BRANCH   8   9
ATOM      9  C   UNL A   1      33.681  23.649  24.073  1.00  0.00     0.006 A 
ATOM     10  C   UNL A   1      32.596  22.780  23.746  1.00  0.00     0.067 A 
ATOM     11  N   UNL A   1      31.459  23.467  23.568  1.00  0.00    -0.171 NA
ATOM     12  N   UNL A   1      31.806  24.770  23.681  1.00  0.00    -0.217 N 
ATOM     13  C   UNL A   1      33.119  24.919  24.096  1.00  0.00     0.050 A 
BRANCH  10  14
ATOM     14  C   UNL A   1      32.578  21.295  23.516  1.00  0.00     0.055 C 
ATOM     15  C   UNL A   1      32.619  20.431  24.766  1.00  0.00     0.011 C 
ENDBRANCH  10  14
BRANCH  12  16
ATOM     16  C   UNL A   1      30.892  25.800  23.341  1.00  0.00     0.176 A 
ATOM     17  C   UNL A   1      31.304  26.811  22.479  1.00  0.00     0.054 A 
ATOM     18  N   UNL A   1      29.677  25.825  23.935  1.00  0.00    -0.129 NA
ATOM     19  C   UNL A   1      30.485  27.922  22.310  1.00  0.00     0.047 A 
ATOM     20  N   UNL A   1      28.872  26.926  23.774  1.00  0.00    -0.136 NA
ATOM     21  C   UNL A   1      29.290  27.947  22.998  1.00  0.00     0.151 A 
ATOM     22  Cl  UNL A   1      28.257  29.310  22.939  1.00  0.00    -0.060 Cl
ENDBRANCH  12  16
BRANCH  13  23
ATOM     23  C   UNL A   1      33.709  26.210  24.596  1.00  0.00     0.053 C 
ATOM     24  C   UNL A   1      33.435  26.510  26.062  1.00  0.00     0.011 C 
ENDBRANCH  13  23
ENDBRANCH   8   9
ENDBRANCH   5   8
ENDBRANCH   3   4
ENDBRANCH   2   3
ENDBRANCH   1   2
BRANCH   1  25
ATOM     25  C   UNL A   1      40.881  20.420  26.929  1.00  0.00     0.116 C 
BRANCH  25  26
ATOM     26  N   UNL A   1      42.139  19.957  26.354  1.00  0.00    -0.352 N 
ATOM     27  C   UNL A   1      43.123  20.727  25.759  1.00  0.00     0.251 C 
ATOM     28  H   UNL A   1      42.307  18.988  26.394  1.00  0.00     0.163 HD
ATOM     29  O   UNL A   1      43.885  20.238  24.940  1.00  0.00    -0.269 OA
BRANCH  27  30
ATOM     30  C   UNL A   1      43.240  22.148  26.143  1.00  0.00     0.039 A 
ATOM     31  C   UNL A   1      42.514  23.133  25.473  1.00  0.00     0.014 A 
ATOM     32  C   UNL A   1      44.082  22.481  27.204  1.00  0.00     0.014 A 
ATOM     33  C   UNL A   1      42.570  24.444  25.941  1.00  0.00     0.010 A 
ATOM     34  C   UNL A   1      44.051  23.751  27.735  1.00  0.00     0.010 A 
ATOM     35  C   UNL A   1      43.316  24.744  27.096  1.00  0.00    -0.014 A 
BRANCH  35  36
ATOM     36  C   UNL A   1      43.124  26.032  27.776  1.00  0.00     0.031 A 
ATOM     37  C   UNL A   1      44.205  27.003  27.439  1.00  0.00     0.074 A 
ATOM     38  C   UNL A   1      41.986  26.391  28.417  1.00  0.00     0.049 A 
ATOM     39  N   UNL A   1      45.151  27.428  28.209  1.00  0.00    -0.248 NA
ATOM     40  C   UNL A   1      44.396  27.382  26.023  1.00  0.00     0.031 C 
ATOM     41  C   UNL A   1      40.752  25.599  28.504  1.00  0.00     0.029 A 
ATOM     42  N   UNL A   1      41.619  27.567  29.018  1.00  0.00    -0.354 N 
ATOM     43  C   UNL A   1      45.817  28.397  27.460  1.00  0.00     0.074 A 
ATOM     44  C   UNL A   1      45.512  28.114  26.087  1.00  0.00     0.031 C 
ATOM     45  C   UNL A   1      39.723  26.391  28.871  1.00  0.00     0.029 A 
ATOM     46  C   UNL A   1      40.240  27.705  29.211  1.00  0.00     0.049 A 
ATOM     47  H   UNL A   1      42.268  28.254  29.290  1.00  0.00     0.167 HD
ATOM     48  C   UNL A   1      46.180  29.568  28.056  1.00  0.00     0.037 A 
ATOM     49  C   UNL A   1      39.558  28.812  29.612  1.00  0.00     0.037 A 
ATOM     50  C   UNL A   1      46.126  29.427  29.490  1.00  0.00     0.049 A 
ATOM     51  C   UNL A   1      40.520  29.688  30.317  1.00  0.00     0.074 A 
ATOM     52  C   UNL A   1      46.843  28.791  30.479  1.00  0.00     0.029 A 
ATOM     53  N   UNL A   1      44.889  29.710  30.002  1.00  0.00    -0.354 N 
ATOM     54  N   UNL A   1      41.081  29.364  31.450  1.00  0.00    -0.248 NA
ATOM     55  C   UNL A   1      41.157  30.782  29.593  1.00  0.00     0.031 C 
ATOM     56  C   UNL A   1      45.951  28.629  31.582  1.00  0.00     0.029 A 
ATOM     57  C   UNL A   1      44.732  29.224  31.267  1.00  0.00     0.049 A 
ATOM     58  H   UNL A   1      44.194  30.207  29.514  1.00  0.00     0.167 HD
ATOM     59  C   UNL A   1      42.355  29.885  31.355  1.00  0.00     0.074 A 
ATOM     60  C   UNL A   1      42.288  30.883  30.294  1.00  0.00     0.031 C 
ATOM     61  C   UNL A   1      43.420  29.207  31.873  1.00  0.00     0.037 A 
BRANCH  48  62
ATOM     62  C   UNL A   1      46.005  30.953  27.432  1.00  0.00     0.058 A 
ATOM     63  C   UNL A   1      47.090  31.860  27.487  1.00  0.00     0.135 A 
ATOM     64  C   UNL A   1      44.765  31.533  27.081  1.00  0.00     0.135 A 
ATOM     65  F   UNL A   1      48.321  31.432  27.814  1.00  0.00    -0.206 F 
ATOM     66  C   UNL A   1      46.938  33.235  27.284  1.00  0.00     0.059 A 
ATOM     67  C   UNL A   1      44.601  32.892  26.833  1.00  0.00     0.059 A 
ATOM     68  F   UNL A   1      43.624  30.840  27.042  1.00  0.00    -0.206 F 
ATOM     69  C   UNL A   1      45.683  33.742  26.967  1.00  0.00     0.060 A 
BRANCH  69  70
ATOM     70  S   UNL A   1      45.464  35.516  26.748  1.00  0.00     0.124 S 
ATOM     71  O   UNL A   1      44.148  35.572  26.121  1.00  0.00    -0.237 OA
ATOM     72  O   UNL A   1      45.544  35.999  28.122  1.00  0.00    -0.237 OA
ATOM     73  O   UNL A   1      46.589  35.885  25.893  1.00  0.00    -0.744 OA
ENDBRANCH  69  70
ENDBRANCH  48  62
BRANCH  49  74
ATOM     74  C   UNL A   1      38.193  29.284  29.235  1.00  0.00     0.058 A 
ATOM     75  C   UNL A   1      37.206  29.535  30.212  1.00  0.00     0.135 A 
ATOM     76  C   UNL A   1      37.922  29.790  27.948  1.00  0.00     0.135 A 
ATOM     77  F   UNL A   1      37.372  29.092  31.467  1.00  0.00    -0.206 F 
ATOM     78  C   UNL A   1      36.066  30.305  29.949  1.00  0.00     0.059 A 
ATOM     79  C   UNL A   1      36.790  30.552  27.661  1.00  0.00     0.059 A 
ATOM     80  F   UNL A   1      38.803  29.638  26.948  1.00  0.00    -0.206 F 
ATOM     81  C   UNL A   1      35.881  30.836  28.674  1.00  0.00     0.060 A 
BRANCH  81  82
ATOM     82  S   UNL A   1      34.525  31.999  28.376  1.00  0.00     0.124 S 
ATOM     83  O   UNL A   1      35.188  33.048  27.609  1.00  0.00    -0.237 OA
ATOM     84  O   UNL A   1      33.568  31.180  27.641  1.00  0.00    -0.237 OA
ATOM     85  O   UNL A   1      34.108  32.382  29.723  1.00  0.00    -0.744 OA
ENDBRANCH  81  82
ENDBRANCH  49  74
BRANCH  61  86
ATOM     86  C   UNL A   1      43.186  28.336  33.065  1.00  0.00     0.058 A 
ATOM     87  C   UNL A   1      43.326  26.939  33.104  1.00  0.00     0.135 A 
ATOM     88  C   UNL A   1      42.842  28.985  34.262  1.00  0.00     0.135 A 
ATOM     89  F   UNL A   1      43.734  26.255  32.025  1.00  0.00    -0.206 F 
ATOM     90  C   UNL A   1      43.082  26.218  34.275  1.00  0.00     0.059 A 
ATOM     91  C   UNL A   1      42.630  28.293  35.444  1.00  0.00     0.059 A 
ATOM     92  F   UNL A   1      42.736  30.324  34.295  1.00  0.00    -0.206 F 
ATOM     93  C   UNL A   1      42.731  26.905  35.440  1.00  0.00     0.060 A 
BRANCH  93  94
ATOM     94  S   UNL A   1      42.434  25.983  36.962  1.00  0.00     0.124 S 
ATOM     95  O   UNL A   1      41.018  26.233  37.201  1.00  0.00    -0.237 OA
ATOM     96  O   UNL A   1      42.784  24.619  36.576  1.00  0.00    -0.237 OA
ATOM     97  O   UNL A   1      43.346  26.603  37.920  1.00  0.00    -0.744 OA
ENDBRANCH  93  94
ENDBRANCH  61  86
ENDBRANCH  35  36
ENDBRANCH  27  30
ENDBRANCH  25  26
ENDBRANCH   1  25
TORSDOF 18
ENDMDL
MODEL 3
REMARK VINA RESULT:     -11.6      3.099      9.349
REMARK SMILES CCc1nn(-c2ccc(Cl)nn2)c(CC)c1CC(=O)NCCCCNC(=O)c1ccc(-c2c3nc(c(-c4c(F)cc(S(=O)(=O)[O-])cc4F)c4ccc([nH]4)c(-c4c(F)cc(S(=O)(=O)[O-])cc4F)c4nc(c(-c5c(F)cc(S(=O)(=O)[O-])cc5F)c5ccc2[nH]5)C=C4)C=C3)cc1
REMARK SMILES IDX 23 1 22 2 21 3 20 4 18 5 19 6 17 8 16 9 3 10 4 11 5 12 13 13
REMARK SMILES IDX 2 14 1 15 6 16 7 17 12 18 8 19 11 20 9 21 10 22 14 23 15 24
REMARK SMILES IDX 24 25 25 26 26 27 27 29 28 30 29 31 93 32 30 33 92 34 31 35
REMARK SMILES IDX 32 36 33 37 86 38 34 39 91 40 85 41 87 42 35 43 90 44 84 45
REMARK SMILES IDX 83 46 36 48 70 49 49 50 69 51 50 52 53 53 68 54 88 55 51 56
REMARK SMILES IDX 52 57 67 59 89 60 54 61 37 62 38 63 47 64 39 65 40 66 46 67
REMARK SMILES IDX 48 68 41 69 42 70 43 71 44 72 45 73 71 74 72 75 81 76 73 77
REMARK SMILES IDX 74 78 80 79 82 80 75 81 76 82 77 83 78 84 79 85 55 86 56 87
REMARK SMILES IDX 65 88 57 89 58 90 64 91 66 92 59 93 60 94 61 95 62 96 63 97
REMARK H PARENT 20 7 25 28 87 47 53 58
REMARK Flexibility Score: inf
ROOT
ATOM      1  C   UNL A   1      32.382  30.288  26.996  1.00  0.00     0.023 C 
ENDROOT
BRANCH   1   2
ATOM      2  C   UNL A   1      32.125  28.822  27.367  1.00  0.00     0.023 C 
BRANCH   2   3
ATOM      3  C   UNL A   1      31.582  27.948  26.232  1.00  0.00     0.116 C 
BRANCH   3   4
ATOM      4  N   UNL A   1      30.993  26.715  26.709  1.00  0.00    -0.356 N 
ATOM      5  C   UNL A   1      31.466  25.440  26.571  1.00  0.00     0.224 C 
ATOM      6  O   UNL A   1      30.798  24.510  27.022  1.00  0.00    -0.275 OA
ATOM      7  H   UNL A   1      30.142  26.806  27.195  1.00  0.00     0.163 HD
BRANCH   5   8
ATOM      8  C   UNL A   1      32.793  25.200  25.869  1.00  0.00     0.139 C 
BRANCH   8   9
ATOM      9  C   UNL A   1      32.839  23.880  25.160  1.00  0.00     0.006 A 
ATOM     10  C   UNL A   1      32.446  23.562  23.825  1.00  0.00     0.067 A 
ATOM     11  N   UNL A   1      32.661  22.269  23.549  1.00  0.00    -0.171 NA
ATOM     12  N   UNL A   1      33.097  21.723  24.708  1.00  0.00    -0.217 N 
ATOM     13  C   UNL A   1      33.324  22.685  25.677  1.00  0.00     0.050 A 
BRANCH  10  14
ATOM     14  C   UNL A   1      31.793  24.419  22.776  1.00  0.00     0.055 C 
ATOM     15  C   UNL A   1      32.736  25.093  21.792  1.00  0.00     0.011 C 
ENDBRANCH  10  14
BRANCH  12  16
ATOM     16  C   UNL A   1      33.225  20.317  24.849  1.00  0.00     0.176 A 
ATOM     17  C   UNL A   1      34.446  19.718  24.560  1.00  0.00     0.054 A 
ATOM     18  N   UNL A   1      32.133  19.585  25.169  1.00  0.00    -0.129 NA
ATOM     19  C   UNL A   1      34.514  18.331  24.499  1.00  0.00     0.047 A 
ATOM     20  N   UNL A   1      32.198  18.215  25.100  1.00  0.00    -0.136 NA
ATOM     21  C   UNL A   1      33.358  17.622  24.751  1.00  0.00     0.151 A 
ATOM     22  Cl  UNL A   1      33.308  15.917  24.603  1.00  0.00    -0.060 Cl
ENDBRANCH  12  16
BRANCH  13  23
ATOM     23  C   UNL A   1      34.082  22.441  26.953  1.00  0.00     0.053 C 
ATOM     24  C   UNL A   1      33.212  22.160  28.169  1.00  0.00     0.011 C 
ENDBRANCH  13  23
ENDBRANCH   8   9
ENDBRANCH   5   8
ENDBRANCH   3   4
ENDBRANCH   2   3
ENDBRANCH   1   2
BRANCH   1  25
ATOM     25  C   UNL A   1      33.772  30.802  27.353  1.00  0.00     0.116 C 
BRANCH  25  26
ATOM     26  N   UNL A   1      33.750  31.786  28.430  1.00  0.00    -0.352 N 
ATOM     27  C   UNL A   1      34.661  31.918  29.464  1.00  0.00     0.251 C 
ATOM     28  H   UNL A   1      33.005  32.429  28.420  1.00  0.00     0.163 HD
ATOM     29  O   UNL A   1      34.334  32.440  30.517  1.00  0.00    -0.269 OA
BRANCH  27  30
ATOM     30  C   UNL A   1      36.038  31.424  29.263  1.00  0.00     0.039 A 
ATOM     31  C   UNL A   1      37.111  32.311  29.171  1.00  0.00     0.014 A 
ATOM     32  C   UNL A   1      36.243  30.047  29.185  1.00  0.00     0.014 A 
ATOM     33  C   UNL A   1      38.404  31.796  29.094  1.00  0.00     0.010 A 
ATOM     34  C   UNL A   1      37.522  29.538  29.223  1.00  0.00     0.010 A 
ATOM     35  C   UNL A   1      38.608  30.404  29.154  1.00  0.00    -0.014 A 
BRANCH  35  36
ATOM     36  C   UNL A   1      39.955  29.874  29.399  1.00  0.00     0.031 A 
ATOM     37  C   UNL A   1      40.240  29.737  30.857  1.00  0.00     0.074 A 
ATOM     38  C   UNL A   1      40.745  29.331  28.441  1.00  0.00     0.049 A 
ATOM     39  N   UNL A   1      41.049  30.447  31.572  1.00  0.00    -0.248 NA
ATOM     40  C   UNL A   1      39.368  28.861  31.667  1.00  0.00     0.031 C 
ATOM     41  C   UNL A   1      40.388  29.135  27.030  1.00  0.00     0.029 A 
ATOM     42  N   UNL A   1      41.971  28.724  28.517  1.00  0.00    -0.354 N 
ATOM     43  C   UNL A   1      41.037  29.847  32.830  1.00  0.00     0.074 A 
ATOM     44  C   UNL A   1      39.812  29.106  32.903  1.00  0.00     0.031 C 
ATOM     45  C   UNL A   1      41.230  28.247  26.463  1.00  0.00     0.029 A 
ATOM     46  C   UNL A   1      42.289  27.935  27.406  1.00  0.00     0.049 A 
ATOM     47  H   UNL A   1      42.576  28.834  29.285  1.00  0.00     0.167 HD
ATOM     48  C   UNL A   1      42.214  29.668  33.495  1.00  0.00     0.037 A 
ATOM     49  C   UNL A   1      43.335  27.077  27.260  1.00  0.00     0.037 A 
ATOM     50  C   UNL A   1      43.240  30.491  32.905  1.00  0.00     0.049 A 
ATOM     51  C   UNL A   1      44.376  27.487  28.230  1.00  0.00     0.074 A 
ATOM     52  C   UNL A   1      43.567  31.828  32.846  1.00  0.00     0.029 A 
ATOM     53  N   UNL A   1      43.888  29.868  31.874  1.00  0.00    -0.354 N 
ATOM     54  N   UNL A   1      45.018  28.620  28.148  1.00  0.00    -0.248 NA
ATOM     55  C   UNL A   1      44.463  26.808  29.518  1.00  0.00     0.031 C 
ATOM     56  C   UNL A   1      44.374  31.994  31.680  1.00  0.00     0.029 A 
ATOM     57  C   UNL A   1      44.574  30.749  31.089  1.00  0.00     0.049 A 
ATOM     58  H   UNL A   1      43.862  28.897  31.717  1.00  0.00     0.167 HD
ATOM     59  C   UNL A   1      45.197  29.000  29.462  1.00  0.00     0.074 A 
ATOM     60  C   UNL A   1      45.005  27.786  30.247  1.00  0.00     0.031 C 
ATOM     61  C   UNL A   1      45.111  30.313  29.820  1.00  0.00     0.037 A 
BRANCH  48  62
ATOM     62  C   UNL A   1      42.609  28.391  34.236  1.00  0.00     0.058 A 
ATOM     63  C   UNL A   1      42.990  28.489  35.595  1.00  0.00     0.135 A 
ATOM     64  C   UNL A   1      42.935  27.163  33.616  1.00  0.00     0.135 A 
ATOM     65  F   UNL A   1      42.740  29.608  36.295  1.00  0.00    -0.206 F 
ATOM     66  C   UNL A   1      43.699  27.482  36.257  1.00  0.00     0.059 A 
ATOM     67  C   UNL A   1      43.602  26.132  34.269  1.00  0.00     0.059 A 
ATOM     68  F   UNL A   1      42.707  26.920  32.322  1.00  0.00    -0.206 F 
ATOM     69  C   UNL A   1      44.009  26.309  35.578  1.00  0.00     0.060 A 
BRANCH  69  70
ATOM     70  S   UNL A   1      44.961  25.023  36.404  1.00  0.00     0.124 S 
ATOM     71  O   UNL A   1      46.276  25.199  35.799  1.00  0.00    -0.237 OA
ATOM     72  O   UNL A   1      44.838  25.413  37.804  1.00  0.00    -0.237 OA
ATOM     73  O   UNL A   1      44.254  23.799  36.037  1.00  0.00    -0.744 OA
ENDBRANCH  69  70
ENDBRANCH  48  62
BRANCH  49  74
ATOM     74  C   UNL A   1      43.419  25.787  26.513  1.00  0.00     0.058 A 
ATOM     75  C   UNL A   1      44.306  25.623  25.428  1.00  0.00     0.135 A 
ATOM     76  C   UNL A   1      42.862  24.602  27.033  1.00  0.00     0.135 A 
ATOM     77  F   UNL A   1      44.886  26.693  24.864  1.00  0.00    -0.206 F 
ATOM     78  C   UNL A   1      44.677  24.362  24.944  1.00  0.00     0.059 A 
ATOM     79  C   UNL A   1      43.210  23.336  26.561  1.00  0.00     0.059 A 
ATOM     80  F   UNL A   1      42.029  24.634  28.084  1.00  0.00    -0.206 F 
ATOM     81  C   UNL A   1      44.144  23.220  25.538  1.00  0.00     0.060 A 
BRANCH  81  82
ATOM     82  S   UNL A   1      44.770  21.588  25.063  1.00  0.00     0.124 S 
ATOM     83  O   UNL A   1      46.104  21.591  25.653  1.00  0.00    -0.237 OA
ATOM     84  O   UNL A   1      43.801  20.691  25.683  1.00  0.00    -0.237 OA
ATOM     85  O   UNL A   1      44.734  21.626  23.603  1.00  0.00    -0.744 OA
ENDBRANCH  81  82
ENDBRANCH  49  74
BRANCH  61  86
ATOM     86  C   UNL A   1      45.503  31.345  28.811  1.00  0.00     0.058 A 
ATOM     87  C   UNL A   1      46.813  31.647  28.408  1.00  0.00     0.135 A 
ATOM     88  C   UNL A   1      44.456  32.038  28.180  1.00  0.00     0.135 A 
ATOM     89  F   UNL A   1      47.861  30.970  28.901  1.00  0.00    -0.206 F 
ATOM     90  C   UNL A   1      47.070  32.634  27.453  1.00  0.00     0.059 A 
ATOM     91  C   UNL A   1      44.686  32.995  27.205  1.00  0.00     0.059 A 
ATOM     92  F   UNL A   1      43.180  31.761  28.494  1.00  0.00    -0.206 F 
ATOM     93  C   UNL A   1      45.998  33.305  26.860  1.00  0.00     0.060 A 
BRANCH  93  94
ATOM     94  S   UNL A   1      46.320  34.567  25.612  1.00  0.00     0.124 S 
ATOM     95  O   UNL A   1      45.470  34.133  24.510  1.00  0.00    -0.237 OA
ATOM     96  O   UNL A   1      45.907  35.793  26.290  1.00  0.00    -0.237 OA
ATOM     97  O   UNL A   1      47.757  34.452  25.373  1.00  0.00    -0.744 OA
ENDBRANCH  93  94
ENDBRANCH  61  86
ENDBRANCH  35  36
ENDBRANCH  27  30
ENDBRANCH  25  26
ENDBRANCH   1  25
TORSDOF 18
ENDMDL
