MODEL 1
REMARK VINA RESULT:     -14.3      0.000      0.000
REMARK SMILES Cc1ccc(S(=O)(=O)n2cc(C(=O)C(=O)N[C@@H](Cc3c[nH]c4ccccc34)C(=O)NCCCCNC(=O)c3ccc(-c4c5nc(c(-c6c(F)cc(S(=O)(=O)[O-])cc6F)c6ccc([nH]6)c(-c6c(F)cc(S(=O)(=O)[O-])cc6F)c6nc(c(-c7c(F)cc(S(=O)(=O)[O-])cc7F)c7ccc4[nH]7)C=C6)C=C5)cc3)c3ccccc32)cc1
REMARK SMILES IDX 31 1 30 2 28 3 29 4 17 6 16 7 14 8 15 9 12 11 13 12 11 13
REMARK SMILES IDX 9 14 10 15 109 16 104 17 108 18 105 19 107 20 106 21 6 22
REMARK SMILES IDX 7 23 8 24 5 25 1 26 2 27 3 28 111 29 4 30 110 31 18 32 19 33
REMARK SMILES IDX 20 34 27 35 21 36 22 37 26 38 23 40 25 41 24 42 32 43 33 44
REMARK SMILES IDX 34 45 35 46 36 47 37 49 38 50 39 51 103 52 40 53 102 54
REMARK SMILES IDX 41 55 42 56 43 57 96 58 44 59 101 60 95 61 97 62 45 63
REMARK SMILES IDX 100 64 94 65 93 66 46 68 80 69 59 70 79 71 60 72 63 73 78 74
REMARK SMILES IDX 98 75 61 76 62 77 77 79 99 80 64 81 47 82 48 83 57 84 49 85
REMARK SMILES IDX 50 86 56 87 58 88 51 89 52 90 53 91 54 92 55 93 81 94 82 95
REMARK SMILES IDX 91 96 83 97 84 98 90 99 92 100 85 101 86 102 87 103 88 104
REMARK SMILES IDX 89 105 65 106 66 107 75 108 67 109 68 110 74 111 76 112
REMARK SMILES IDX 69 113 70 114 71 115 72 116 73 117
REMARK H PARENT 30 5 16 10 21 39 35 48 97 67 63 78
REMARK Flexibility Score: inf
ROOT
ATOM      1  C   UNL A   1      35.035  24.008  25.582  1.00  0.00     0.116 C 
ENDROOT
BRANCH   1   2
ATOM      2  N   UNL A   1      33.587  24.012  25.653  1.00  0.00    -0.354 N 
ATOM      3  C   UNL A   1      32.702  23.168  25.033  1.00  0.00     0.242 C 
ATOM      4  O   UNL A   1      31.629  22.967  25.615  1.00  0.00    -0.273 OA
ATOM      5  H   UNL A   1      33.187  24.712  26.218  1.00  0.00     0.163 HD
BRANCH   3   6
ATOM      6  C   UNL A   1      33.024  22.385  23.723  1.00  0.00     0.176 C 
BRANCH   6   7
ATOM      7  N   UNL A   1      33.399  23.228  22.565  1.00  0.00    -0.337 N 
ATOM      8  C   UNL A   1      32.841  24.397  22.068  1.00  0.00     0.293 C 
ATOM      9  O   UNL A   1      33.235  24.882  21.011  1.00  0.00    -0.265 OA
ATOM     10  H   UNL A   1      34.179  22.903  22.059  1.00  0.00     0.164 HD
BRANCH   8  11
ATOM     11  C   UNL A   1      31.737  25.125  22.840  1.00  0.00     0.252 C 
ATOM     12  O   UNL A   1      30.621  24.605  22.804  1.00  0.00    -0.283 OA
BRANCH  11  13
ATOM     13  C   UNL A   1      31.950  26.427  23.510  1.00  0.00     0.054 A 
ATOM     14  N   UNL A   1      32.710  28.224  24.671  1.00  0.00    -0.240 N 
ATOM     15  C   UNL A   1      32.999  26.905  24.312  1.00  0.00     0.117 A 
ATOM     16  C   UNL A   1      31.587  28.626  23.927  1.00  0.00     0.065 A 
ATOM     17  C   UNL A   1      30.954  27.452  23.530  1.00  0.00     0.012 A 
ATOM     18  C   UNL A   1      30.945  29.877  23.829  1.00  0.00     0.028 A 
ATOM     19  C   UNL A   1      29.579  27.504  23.216  1.00  0.00     0.011 A 
ATOM     20  C   UNL A   1      29.574  29.893  23.583  1.00  0.00     0.002 A 
ATOM     21  C   UNL A   1      28.889  28.715  23.322  1.00  0.00     0.001 A 
BRANCH  14  22
ATOM     22  S   UNL A   1      32.662  28.888  26.288  1.00  0.00     0.268 S 
ATOM     23  O   UNL A   1      33.818  28.280  26.928  1.00  0.00    -0.201 OA
ATOM     24  O   UNL A   1      31.309  28.556  26.717  1.00  0.00    -0.201 OA
BRANCH  22  25
ATOM     25  C   UNL A   1      32.737  30.581  26.747  1.00  0.00     0.088 A 
ATOM     26  C   UNL A   1      33.651  34.371  28.622  1.00  0.00     0.044 C 
ATOM     27  C   UNL A   1      33.324  33.087  27.914  1.00  0.00    -0.051 A 
ATOM     28  C   UNL A   1      34.261  32.066  27.983  1.00  0.00     0.005 A 
ATOM     29  C   UNL A   1      32.104  32.849  27.241  1.00  0.00     0.005 A 
ATOM     30  C   UNL A   1      33.971  30.846  27.398  1.00  0.00     0.022 A 
ATOM     31  C   UNL A   1      31.796  31.591  26.654  1.00  0.00     0.022 A 
ENDBRANCH  22  25
ENDBRANCH  14  22
ENDBRANCH  11  13
ENDBRANCH   8  11
ENDBRANCH   6   7
BRANCH   6  32
ATOM     32  C   UNL A   1      33.956  21.147  23.956  1.00  0.00     0.072 C 
BRANCH  32  33
ATOM     33  C   UNL A   1      33.439  20.029  24.825  1.00  0.00    -0.020 A 
ATOM     34  C   UNL A   1      33.126  20.113  26.173  1.00  0.00     0.087 A 
ATOM     35  C   UNL A   1      33.249  18.651  24.456  1.00  0.00     0.003 A 
ATOM     36  N   UNL A   1      32.895  18.845  26.643  1.00  0.00    -0.361 N 
ATOM     37  C   UNL A   1      33.133  17.931  25.645  1.00  0.00     0.046 A 
ATOM     38  C   UNL A   1      33.349  17.930  23.249  1.00  0.00     0.010 A 
ATOM     39  H   UNL A   1      32.603  18.623  27.557  1.00  0.00     0.166 HD
ATOM     40  C   UNL A   1      33.293  16.544  25.705  1.00  0.00     0.026 A 
ATOM     41  C   UNL A   1      33.511  16.541  23.290  1.00  0.00     0.001 A 
ATOM     42  C   UNL A   1      33.519  15.865  24.507  1.00  0.00     0.002 A 
ENDBRANCH  32  33
ENDBRANCH   6  32
ENDBRANCH   3   6
ENDBRANCH   1   2
BRANCH   1  43
ATOM     43  C   UNL A   1      35.767  23.051  26.517  1.00  0.00     0.023 C 
BRANCH  43  44
ATOM     44  C   UNL A   1      36.642  21.998  25.852  1.00  0.00     0.023 C 
BRANCH  44  45
ATOM     45  C   UNL A   1      38.029  22.473  25.433  1.00  0.00     0.116 C 
BRANCH  45  46
ATOM     46  N   UNL A   1      39.124  22.015  26.268  1.00  0.00    -0.352 N 
ATOM     47  C   UNL A   1      40.229  22.754  26.680  1.00  0.00     0.251 C 
ATOM     48  H   UNL A   1      39.080  21.082  26.577  1.00  0.00     0.163 HD
ATOM     49  O   UNL A   1      41.298  22.232  26.927  1.00  0.00    -0.269 OA
BRANCH  47  50
ATOM     50  C   UNL A   1      40.005  24.191  26.983  1.00  0.00     0.039 A 
ATOM     51  C   UNL A   1      40.655  25.131  26.171  1.00  0.00     0.014 A 
ATOM     52  C   UNL A   1      39.380  24.588  28.159  1.00  0.00     0.014 A 
ATOM     53  C   UNL A   1      40.839  26.432  26.635  1.00  0.00     0.010 A 
ATOM     54  C   UNL A   1      39.655  25.837  28.666  1.00  0.00     0.010 A 
ATOM     55  C   UNL A   1      40.418  26.744  27.922  1.00  0.00    -0.014 A 
BRANCH  55  56
ATOM     56  C   UNL A   1      40.744  27.969  28.633  1.00  0.00     0.031 A 
ATOM     57  C   UNL A   1      39.764  29.072  28.660  1.00  0.00     0.074 A 
ATOM     58  C   UNL A   1      41.823  27.964  29.445  1.00  0.00     0.049 A 
ATOM     59  N   UNL A   1      39.988  30.229  29.178  1.00  0.00    -0.248 NA
ATOM     60  C   UNL A   1      38.447  28.972  28.034  1.00  0.00     0.031 C 
ATOM     61  C   UNL A   1      42.091  28.826  30.592  1.00  0.00     0.029 A 
ATOM     62  N   UNL A   1      43.006  27.240  29.273  1.00  0.00    -0.354 N 
ATOM     63  C   UNL A   1      38.789  30.902  29.227  1.00  0.00     0.074 A 
ATOM     64  C   UNL A   1      37.904  30.143  28.382  1.00  0.00     0.031 C 
ATOM     65  C   UNL A   1      43.402  28.771  30.881  1.00  0.00     0.029 A 
ATOM     66  C   UNL A   1      44.043  28.032  29.804  1.00  0.00     0.049 A 
ATOM     67  H   UNL A   1      43.097  26.350  28.861  1.00  0.00     0.167 HD
ATOM     68  C   UNL A   1      38.663  31.941  30.099  1.00  0.00     0.037 A 
ATOM     69  C   UNL A   1      44.983  28.581  28.972  1.00  0.00     0.037 A 
ATOM     70  C   UNL A   1      39.984  32.357  30.578  1.00  0.00     0.049 A 
ATOM     71  C   UNL A   1      44.965  30.094  28.925  1.00  0.00     0.074 A 
ATOM     72  C   UNL A   1      40.666  32.174  31.767  1.00  0.00     0.029 A 
ATOM     73  N   UNL A   1      40.918  32.820  29.654  1.00  0.00    -0.354 N 
ATOM     74  N   UNL A   1      43.963  30.829  29.325  1.00  0.00    -0.248 NA
ATOM     75  C   UNL A   1      46.077  30.897  28.423  1.00  0.00     0.031 C 
ATOM     76  C   UNL A   1      42.049  32.393  31.507  1.00  0.00     0.029 A 
ATOM     77  C   UNL A   1      42.194  32.767  30.181  1.00  0.00     0.049 A 
ATOM     78  H   UNL A   1      40.698  33.143  28.749  1.00  0.00     0.167 HD
ATOM     79  C   UNL A   1      44.245  32.151  29.107  1.00  0.00     0.074 A 
ATOM     80  C   UNL A   1      45.595  32.143  28.570  1.00  0.00     0.031 C 
ATOM     81  C   UNL A   1      43.344  33.145  29.368  1.00  0.00     0.037 A 
BRANCH  68  82
ATOM     82  C   UNL A   1      37.357  32.456  30.683  1.00  0.00     0.058 A 
ATOM     83  C   UNL A   1      37.137  33.848  30.808  1.00  0.00     0.135 A 
ATOM     84  C   UNL A   1      36.345  31.658  31.266  1.00  0.00     0.135 A 
ATOM     85  F   UNL A   1      38.016  34.734  30.317  1.00  0.00    -0.206 F 
ATOM     86  C   UNL A   1      36.030  34.394  31.473  1.00  0.00     0.059 A 
ATOM     87  C   UNL A   1      35.210  32.180  31.892  1.00  0.00     0.059 A 
ATOM     88  F   UNL A   1      36.423  30.326  31.325  1.00  0.00    -0.206 F 
ATOM     89  C   UNL A   1      35.072  33.550  32.017  1.00  0.00     0.060 A 
BRANCH  89  90
ATOM     90  S   UNL A   1      33.668  34.243  32.910  1.00  0.00     0.124 S 
ATOM     91  O   UNL A   1      34.329  35.021  33.952  1.00  0.00    -0.237 OA
ATOM     92  O   UNL A   1      32.986  35.011  31.875  1.00  0.00    -0.237 OA
ATOM     93  O   UNL A   1      32.947  33.062  33.379  1.00  0.00    -0.744 OA
ENDBRANCH  89  90
ENDBRANCH  68  82
BRANCH  69  94
ATOM     94  C   UNL A   1      45.343  27.691  27.831  1.00  0.00     0.058 A 
ATOM     95  C   UNL A   1      44.787  27.991  26.574  1.00  0.00     0.135 A 
ATOM     96  C   UNL A   1      46.514  26.919  27.855  1.00  0.00     0.135 A 
ATOM     97  F   UNL A   1      43.663  28.721  26.496  1.00  0.00    -0.206 F 
ATOM     98  C   UNL A   1      45.458  27.701  25.392  1.00  0.00     0.059 A 
ATOM     99  C   UNL A   1      47.209  26.626  26.678  1.00  0.00     0.059 A 
ATOM    100  F   UNL A   1      47.084  26.590  29.023  1.00  0.00    -0.206 F 
ATOM    101  C   UNL A   1      46.715  27.106  25.466  1.00  0.00     0.060 A 
BRANCH 101 102
ATOM    102  S   UNL A   1      47.776  27.185  24.001  1.00  0.00     0.124 S 
ATOM    103  O   UNL A   1      47.824  25.789  23.579  1.00  0.00    -0.237 OA
ATOM    104  O   UNL A   1      47.000  28.073  23.138  1.00  0.00    -0.237 OA
ATOM    105  O   UNL A   1      49.022  27.734  24.521  1.00  0.00    -0.744 OA
ENDBRANCH 101 102
ENDBRANCH  69  94
BRANCH  81 106
ATOM    106  C   UNL A   1      43.490  34.585  28.932  1.00  0.00     0.058 A 
ATOM    107  C   UNL A   1      43.648  35.662  29.820  1.00  0.00     0.135 A 
ATOM    108  C   UNL A   1      43.625  34.901  27.559  1.00  0.00     0.135 A 
ATOM    109  F   UNL A   1      43.657  35.476  31.149  1.00  0.00    -0.206 F 
ATOM    110  C   UNL A   1      43.853  36.971  29.381  1.00  0.00     0.059 A 
ATOM    111  C   UNL A   1      43.888  36.189  27.101  1.00  0.00     0.059 A 
ATOM    112  F   UNL A   1      43.519  33.957  26.612  1.00  0.00    -0.206 F 
ATOM    113  C   UNL A   1      43.970  37.226  28.018  1.00  0.00     0.060 A 
BRANCH 113 114
ATOM    114  S   UNL A   1      44.289  38.904  27.446  1.00  0.00     0.124 S 
ATOM    115  O   UNL A   1      42.991  39.271  26.887  1.00  0.00    -0.237 OA
ATOM    116  O   UNL A   1      44.667  39.601  28.671  1.00  0.00    -0.237 OA
ATOM    117  O   UNL A   1      45.367  38.726  26.479  1.00  0.00    -0.744 OA
ENDBRANCH 113 114
ENDBRANCH  81 106
ENDBRANCH  55  56
ENDBRANCH  47  50
ENDBRANCH  45  46
ENDBRANCH  44  45
ENDBRANCH  43  44
ENDBRANCH   1  43
TORSDOF 21
ENDMDL
MODEL 2
REMARK VINA RESULT:     -13.8      1.592      2.066
REMARK SMILES Cc1ccc(S(=O)(=O)n2cc(C(=O)C(=O)N[C@@H](Cc3c[nH]c4ccccc34)C(=O)NCCCCNC(=O)c3ccc(-c4c5nc(c(-c6c(F)cc(S(=O)(=O)[O-])cc6F)c6ccc([nH]6)c(-c6c(F)cc(S(=O)(=O)[O-])cc6F)c6nc(c(-c7c(F)cc(S(=O)(=O)[O-])cc7F)c7ccc4[nH]7)C=C6)C=C5)cc3)c3ccccc32)cc1
REMARK SMILES IDX 31 1 30 2 28 3 29 4 17 6 16 7 14 8 15 9 12 11 13 12 11 13
REMARK SMILES IDX 9 14 10 15 109 16 104 17 108 18 105 19 107 20 106 21 6 22
REMARK SMILES IDX 7 23 8 24 5 25 1 26 2 27 3 28 111 29 4 30 110 31 18 32 19 33
REMARK SMILES IDX 20 34 27 35 21 36 22 37 26 38 23 40 25 41 24 42 32 43 33 44
REMARK SMILES IDX 34 45 35 46 36 47 37 49 38 50 39 51 103 52 40 53 102 54
REMARK SMILES IDX 41 55 42 56 43 57 96 58 44 59 101 60 95 61 97 62 45 63
REMARK SMILES IDX 100 64 94 65 93 66 46 68 80 69 59 70 79 71 60 72 63 73 78 74
REMARK SMILES IDX 98 75 61 76 62 77 77 79 99 80 64 81 47 82 48 83 57 84 49 85
REMARK SMILES IDX 50 86 56 87 58 88 51 89 52 90 53 91 54 92 55 93 81 94 82 95
REMARK SMILES IDX 91 96 83 97 84 98 90 99 92 100 85 101 86 102 87 103 88 104
REMARK SMILES IDX 89 105 65 106 66 107 75 108 67 109 68 110 74 111 76 112
REMARK SMILES IDX 69 113 70 114 71 115 72 116 73 117
REMARK H PARENT 30 5 16 10 21 39 35 48 97 67 63 78
REMARK Flexibility Score: inf
ROOT
ATOM      1  C   UNL A   1      35.077  23.589  24.631  1.00  0.00     0.116 C 
ENDROOT
BRANCH   1   2
ATOM      2  N   UNL A   1      34.443  23.131  25.852  1.00  0.00    -0.354 N 
ATOM      3  C   UNL A   1      33.513  22.137  26.006  1.00  0.00     0.242 C 
ATOM      4  O   UNL A   1      33.516  21.539  27.090  1.00  0.00    -0.273 OA
ATOM      5  H   UNL A   1      34.716  23.595  26.677  1.00  0.00     0.163 HD
BRANCH   3   6
ATOM      6  C   UNL A   1      32.553  21.663  24.872  1.00  0.00     0.176 C 
BRANCH   6   7
ATOM      7  N   UNL A   1      32.903  22.143  23.514  1.00  0.00    -0.337 N 
ATOM      8  C   UNL A   1      32.440  23.228  22.784  1.00  0.00     0.293 C 
ATOM      9  O   UNL A   1      32.775  23.385  21.613  1.00  0.00    -0.265 OA
ATOM     10  H   UNL A   1      33.578  21.598  23.050  1.00  0.00     0.164 HD
BRANCH   8  11
ATOM     11  C   UNL A   1      31.521  24.270  23.427  1.00  0.00     0.252 C 
ATOM     12  O   UNL A   1      30.321  24.156  23.180  1.00  0.00    -0.283 OA
BRANCH  11  13
ATOM     13  C   UNL A   1      32.032  25.411  24.219  1.00  0.00     0.054 A 
ATOM     14  N   UNL A   1      32.608  26.923  25.812  1.00  0.00    -0.240 N 
ATOM     15  C   UNL A   1      31.904  25.739  25.578  1.00  0.00     0.117 A 
ATOM     16  C   UNL A   1      33.335  27.216  24.646  1.00  0.00     0.065 A 
ATOM     17  C   UNL A   1      32.706  26.520  23.619  1.00  0.00     0.012 A 
ATOM     18  C   UNL A   1      34.277  28.231  24.377  1.00  0.00     0.028 A 
ATOM     19  C   UNL A   1      32.870  26.981  22.295  1.00  0.00     0.011 A 
ATOM     20  C   UNL A   1      34.369  28.712  23.072  1.00  0.00     0.002 A 
ATOM     21  C   UNL A   1      33.640  28.122  22.049  1.00  0.00     0.001 A 
BRANCH  14  22
ATOM     22  S   UNL A   1      31.993  28.383  26.553  1.00  0.00     0.268 S 
ATOM     23  O   UNL A   1      31.239  27.882  27.691  1.00  0.00    -0.201 OA
ATOM     24  O   UNL A   1      31.319  29.034  25.436  1.00  0.00    -0.201 OA
BRANCH  22  25
ATOM     25  C   UNL A   1      32.924  29.727  27.191  1.00  0.00     0.088 A 
ATOM     26  C   UNL A   1      34.582  33.625  28.068  1.00  0.00     0.044 C 
ATOM     27  C   UNL A   1      34.018  32.254  27.826  1.00  0.00    -0.051 A 
ATOM     28  C   UNL A   1      32.727  32.177  27.325  1.00  0.00     0.005 A 
ATOM     29  C   UNL A   1      34.746  31.058  28.025  1.00  0.00     0.005 A 
ATOM     30  C   UNL A   1      32.194  30.935  27.028  1.00  0.00     0.022 A 
ATOM     31  C   UNL A   1      34.207  29.783  27.705  1.00  0.00     0.022 A 
ENDBRANCH  22  25
ENDBRANCH  14  22
ENDBRANCH  11  13
ENDBRANCH   8  11
ENDBRANCH   6   7
BRANCH   6  32
ATOM     32  C   UNL A   1      32.207  20.137  24.953  1.00  0.00     0.072 C 
BRANCH  32  33
ATOM     33  C   UNL A   1      33.351  19.157  25.013  1.00  0.00    -0.020 A 
ATOM     34  C   UNL A   1      34.665  19.404  24.644  1.00  0.00     0.087 A 
ATOM     35  C   UNL A   1      33.293  17.767  25.379  1.00  0.00     0.003 A 
ATOM     36  N   UNL A   1      35.345  18.212  24.645  1.00  0.00    -0.361 N 
ATOM     37  C   UNL A   1      34.478  17.185  24.926  1.00  0.00     0.046 A 
ATOM     38  C   UNL A   1      32.284  16.919  25.877  1.00  0.00     0.010 A 
ATOM     39  H   UNL A   1      36.308  18.109  24.470  1.00  0.00     0.166 HD
ATOM     40  C   UNL A   1      34.631  15.804  24.780  1.00  0.00     0.026 A 
ATOM     41  C   UNL A   1      32.421  15.533  25.738  1.00  0.00     0.001 A 
ATOM     42  C   UNL A   1      33.565  14.989  25.163  1.00  0.00     0.002 A 
ENDBRANCH  32  33
ENDBRANCH   6  32
ENDBRANCH   3   6
ENDBRANCH   1   2
BRANCH   1  43
ATOM     43  C   UNL A   1      36.086  22.647  23.985  1.00  0.00     0.023 C 
BRANCH  43  44
ATOM     44  C   UNL A   1      37.498  22.678  24.553  1.00  0.00     0.023 C 
BRANCH  44  45
ATOM     45  C   UNL A   1      37.627  22.221  26.002  1.00  0.00     0.116 C 
BRANCH  45  46
ATOM     46  N   UNL A   1      38.965  21.846  26.422  1.00  0.00    -0.352 N 
ATOM     47  C   UNL A   1      40.096  22.656  26.438  1.00  0.00     0.251 C 
ATOM     48  H   UNL A   1      39.084  20.919  26.729  1.00  0.00     0.163 HD
ATOM     49  O   UNL A   1      41.216  22.204  26.312  1.00  0.00    -0.269 OA
BRANCH  47  50
ATOM     50  C   UNL A   1      39.897  24.084  26.796  1.00  0.00     0.039 A 
ATOM     51  C   UNL A   1      40.551  25.045  26.010  1.00  0.00     0.014 A 
ATOM     52  C   UNL A   1      39.294  24.447  27.995  1.00  0.00     0.014 A 
ATOM     53  C   UNL A   1      40.760  26.325  26.519  1.00  0.00     0.010 A 
ATOM     54  C   UNL A   1      39.594  25.672  28.544  1.00  0.00     0.010 A 
ATOM     55  C   UNL A   1      40.361  26.595  27.822  1.00  0.00    -0.014 A 
BRANCH  55  56
ATOM     56  C   UNL A   1      40.715  27.788  28.574  1.00  0.00     0.031 A 
ATOM     57  C   UNL A   1      39.780  28.930  28.598  1.00  0.00     0.074 A 
ATOM     58  C   UNL A   1      41.766  27.719  29.418  1.00  0.00     0.049 A 
ATOM     59  N   UNL A   1      40.036  30.065  29.151  1.00  0.00    -0.248 NA
ATOM     60  C   UNL A   1      38.481  28.901  27.929  1.00  0.00     0.031 C 
ATOM     61  C   UNL A   1      42.033  28.541  30.594  1.00  0.00     0.029 A 
ATOM     62  N   UNL A   1      42.923  26.950  29.264  1.00  0.00    -0.354 N 
ATOM     63  C   UNL A   1      38.864  30.786  29.181  1.00  0.00     0.074 A 
ATOM     64  C   UNL A   1      37.976  30.085  28.290  1.00  0.00     0.031 C 
ATOM     65  C   UNL A   1      43.331  28.425  30.921  1.00  0.00     0.029 A 
ATOM     66  C   UNL A   1      43.975  27.685  29.846  1.00  0.00     0.049 A 
ATOM     67  H   UNL A   1      42.990  26.067  28.833  1.00  0.00     0.167 HD
ATOM     68  C   UNL A   1      38.754  31.809  30.073  1.00  0.00     0.037 A 
ATOM     69  C   UNL A   1      44.963  28.213  29.058  1.00  0.00     0.037 A 
ATOM     70  C   UNL A   1      40.075  32.157  30.603  1.00  0.00     0.049 A 
ATOM     71  C   UNL A   1      45.009  29.726  29.048  1.00  0.00     0.074 A 
ATOM     72  C   UNL A   1      40.712  31.917  31.807  1.00  0.00     0.029 A 
ATOM     73  N   UNL A   1      41.057  32.603  29.719  1.00  0.00    -0.354 N 
ATOM     74  N   UNL A   1      44.026  30.493  29.435  1.00  0.00    -0.248 NA
ATOM     75  C   UNL A   1      46.168  30.493  28.600  1.00  0.00     0.031 C 
ATOM     76  C   UNL A   1      42.109  32.084  31.596  1.00  0.00     0.029 A 
ATOM     77  C   UNL A   1      42.312  32.483  30.284  1.00  0.00     0.049 A 
ATOM     78  H   UNL A   1      40.879  32.955  28.817  1.00  0.00     0.167 HD
ATOM     79  C   UNL A   1      44.369  31.807  29.258  1.00  0.00     0.074 A 
ATOM     80  C   UNL A   1      45.733  31.755  28.763  1.00  0.00     0.031 C 
ATOM     81  C   UNL A   1      43.502  32.831  29.516  1.00  0.00     0.037 A 
BRANCH  68  82
ATOM     82  C   UNL A   1      37.452  32.364  30.630  1.00  0.00     0.058 A 
ATOM     83  C   UNL A   1      37.281  33.762  30.768  1.00  0.00     0.135 A 
ATOM     84  C   UNL A   1      36.397  31.597  31.175  1.00  0.00     0.135 A 
ATOM     85  F   UNL A   1      38.203  34.621  30.311  1.00  0.00    -0.206 F 
ATOM     86  C   UNL A   1      36.177  34.340  31.411  1.00  0.00     0.059 A 
ATOM     87  C   UNL A   1      35.266  32.153  31.778  1.00  0.00     0.059 A 
ATOM     88  F   UNL A   1      36.425  30.262  31.220  1.00  0.00    -0.206 F 
ATOM     89  C   UNL A   1      35.174  33.525  31.918  1.00  0.00     0.060 A 
BRANCH  89  90
ATOM     90  S   UNL A   1      33.773  34.258  32.783  1.00  0.00     0.124 S 
ATOM     91  O   UNL A   1      33.079  33.078  33.286  1.00  0.00    -0.237 OA
ATOM     92  O   UNL A   1      34.425  35.092  33.786  1.00  0.00    -0.237 OA
ATOM     93  O   UNL A   1      33.070  34.991  31.731  1.00  0.00    -0.744 OA
ENDBRANCH  89  90
ENDBRANCH  68  82
BRANCH  69  94
ATOM     94  C   UNL A   1      45.321  27.336  27.906  1.00  0.00     0.058 A 
ATOM     95  C   UNL A   1      46.176  26.248  28.161  1.00  0.00     0.135 A 
ATOM     96  C   UNL A   1      44.508  27.268  26.765  1.00  0.00     0.135 A 
ATOM     97  F   UNL A   1      46.980  26.265  29.236  1.00  0.00    -0.206 F 
ATOM     98  C   UNL A   1      46.095  25.070  27.427  1.00  0.00     0.059 A 
ATOM     99  C   UNL A   1      44.405  26.090  26.021  1.00  0.00     0.059 A 
ATOM    100  F   UNL A   1      43.682  28.280  26.463  1.00  0.00    -0.206 F 
ATOM    101  C   UNL A   1      45.135  24.973  26.423  1.00  0.00     0.060 A 
BRANCH 101 102
ATOM    102  S   UNL A   1      44.702  23.320  25.825  1.00  0.00     0.124 S 
ATOM    103  O   UNL A   1      44.255  22.656  27.045  1.00  0.00    -0.237 OA
ATOM    104  O   UNL A   1      43.649  23.635  24.862  1.00  0.00    -0.237 OA
ATOM    105  O   UNL A   1      45.954  22.832  25.259  1.00  0.00    -0.744 OA
ENDBRANCH 101 102
ENDBRANCH  69  94
BRANCH  81 106
ATOM    106  C   UNL A   1      43.720  34.273  29.121  1.00  0.00     0.058 A 
ATOM    107  C   UNL A   1      43.958  35.312  30.038  1.00  0.00     0.135 A 
ATOM    108  C   UNL A   1      43.846  34.624  27.755  1.00  0.00     0.135 A 
ATOM    109  F   UNL A   1      43.983  35.084  31.359  1.00  0.00    -0.206 F 
ATOM    110  C   UNL A   1      44.228  36.620  29.634  1.00  0.00     0.059 A 
ATOM    111  C   UNL A   1      44.173  35.910  27.331  1.00  0.00     0.059 A 
ATOM    112  F   UNL A   1      43.667  33.718  26.783  1.00  0.00    -0.206 F 
ATOM    113  C   UNL A   1      44.332  36.911  28.277  1.00  0.00     0.060 A 
BRANCH 113 114
ATOM    114  S   UNL A   1      44.735  38.585  27.749  1.00  0.00     0.124 S 
ATOM    115  O   UNL A   1      45.655  38.327  26.645  1.00  0.00    -0.237 OA
ATOM    116  O   UNL A   1      43.435  39.129  27.369  1.00  0.00    -0.237 OA
ATOM    117  O   UNL A   1      45.328  39.177  28.943  1.00  0.00    -0.744 OA
ENDBRANCH 113 114
ENDBRANCH  81 106
ENDBRANCH  55  56
ENDBRANCH  47  50
ENDBRANCH  45  46
ENDBRANCH  44  45
ENDBRANCH  43  44
ENDBRANCH   1  43
TORSDOF 21
ENDMDL
MODEL 3
REMARK VINA RESULT:     -12.5      1.902      2.824
REMARK SMILES Cc1ccc(S(=O)(=O)n2cc(C(=O)C(=O)N[C@@H](Cc3c[nH]c4ccccc34)C(=O)NCCCCNC(=O)c3ccc(-c4c5nc(c(-c6c(F)cc(S(=O)(=O)[O-])cc6F)c6ccc([nH]6)c(-c6c(F)cc(S(=O)(=O)[O-])cc6F)c6nc(c(-c7c(F)cc(S(=O)(=O)[O-])cc7F)c7ccc4[nH]7)C=C6)C=C5)cc3)c3ccccc32)cc1
REMARK SMILES IDX 31 1 30 2 28 3 29 4 17 6 16 7 14 8 15 9 12 11 13 12 11 13
REMARK SMILES IDX 9 14 10 15 109 16 104 17 108 18 105 19 107 20 106 21 6 22
REMARK SMILES IDX 7 23 8 24 5 25 1 26 2 27 3 28 111 29 4 30 110 31 18 32 19 33
REMARK SMILES IDX 20 34 27 35 21 36 22 37 26 38 23 40 25 41 24 42 32 43 33 44
REMARK SMILES IDX 34 45 35 46 36 47 37 49 38 50 39 51 103 52 40 53 102 54
REMARK SMILES IDX 41 55 42 56 43 57 96 58 44 59 101 60 95 61 97 62 45 63
REMARK SMILES IDX 100 64 94 65 93 66 46 68 80 69 59 70 79 71 60 72 63 73 78 74
REMARK SMILES IDX 98 75 61 76 62 77 77 79 99 80 64 81 47 82 48 83 57 84 49 85
REMARK SMILES IDX 50 86 56 87 58 88 51 89 52 90 53 91 54 92 55 93 81 94 82 95
REMARK SMILES IDX 91 96 83 97 84 98 90 99 92 100 85 101 86 102 87 103 88 104
REMARK SMILES IDX 89 105 65 106 66 107 75 108 67 109 68 110 74 111 76 112
REMARK SMILES IDX 69 113 70 114 71 115 72 116 73 117
REMARK H PARENT 30 5 16 10 21 39 35 48 97 67 63 78
REMARK Flexibility Score: inf
ROOT
ATOM      1  C   UNL A   1      38.194  21.563  25.307  1.00  0.00     0.116 C 
ENDROOT
BRANCH   1   2
ATOM      2  N   UNL A   1      37.629  22.897  25.257  1.00  0.00    -0.354 N 
ATOM      3  C   UNL A   1      36.313  23.260  25.139  1.00  0.00     0.242 C 
ATOM      4  O   UNL A   1      35.987  24.336  25.655  1.00  0.00    -0.273 OA
ATOM      5  H   UNL A   1      38.275  23.638  25.314  1.00  0.00     0.163 HD
BRANCH   3   6
ATOM      6  C   UNL A   1      35.217  22.352  24.502  1.00  0.00     0.176 C 
BRANCH   6   7
ATOM      7  N   UNL A   1      34.895  22.655  23.088  1.00  0.00    -0.337 N 
ATOM      8  C   UNL A   1      33.780  23.249  22.514  1.00  0.00     0.293 C 
ATOM      9  O   UNL A   1      33.654  23.302  21.294  1.00  0.00    -0.265 OA
ATOM     10  H   UNL A   1      35.591  22.389  22.445  1.00  0.00     0.164 HD
BRANCH   8  11
ATOM     11  C   UNL A   1      32.690  23.875  23.389  1.00  0.00     0.252 C 
ATOM     12  O   UNL A   1      31.586  23.332  23.345  1.00  0.00    -0.283 OA
BRANCH  11  13
ATOM     13  C   UNL A   1      32.900  25.115  24.167  1.00  0.00     0.054 A 
ATOM     14  N   UNL A   1      33.088  26.736  25.746  1.00  0.00    -0.240 N 
ATOM     15  C   UNL A   1      32.712  25.409  25.528  1.00  0.00     0.117 A 
ATOM     16  C   UNL A   1      33.697  27.200  24.566  1.00  0.00     0.065 A 
ATOM     17  C   UNL A   1      33.253  26.357  23.553  1.00  0.00     0.012 A 
ATOM     18  C   UNL A   1      34.339  28.422  24.278  1.00  0.00     0.028 A 
ATOM     19  C   UNL A   1      33.272  26.835  22.225  1.00  0.00     0.011 A 
ATOM     20  C   UNL A   1      34.282  28.900  22.970  1.00  0.00     0.002 A 
ATOM     21  C   UNL A   1      33.716  28.134  21.962  1.00  0.00     0.001 A 
BRANCH  14  22
ATOM     22  S   UNL A   1      32.127  27.993  26.492  1.00  0.00     0.268 S 
ATOM     23  O   UNL A   1      33.088  28.684  27.337  1.00  0.00    -0.201 OA
ATOM     24  O   UNL A   1      31.027  27.234  27.075  1.00  0.00    -0.201 OA
BRANCH  22  25
ATOM     25  C   UNL A   1      31.239  29.275  25.686  1.00  0.00     0.088 A 
ATOM     26  C   UNL A   1      29.041  31.705  22.862  1.00  0.00     0.044 C 
ATOM     27  C   UNL A   1      29.770  30.889  23.892  1.00  0.00    -0.051 A 
ATOM     28  C   UNL A   1      29.743  29.510  23.746  1.00  0.00     0.005 A 
ATOM     29  C   UNL A   1      30.520  31.450  24.952  1.00  0.00     0.005 A 
ATOM     30  C   UNL A   1      30.454  28.726  24.637  1.00  0.00     0.022 A 
ATOM     31  C   UNL A   1      31.265  30.647  25.857  1.00  0.00     0.022 A 
ENDBRANCH  22  25
ENDBRANCH  14  22
ENDBRANCH  11  13
ENDBRANCH   8  11
ENDBRANCH   6   7
BRANCH   6  32
ATOM     32  C   UNL A   1      35.421  20.829  24.809  1.00  0.00     0.072 C 
BRANCH  32  33
ATOM     33  C   UNL A   1      34.192  19.968  24.952  1.00  0.00    -0.020 A 
ATOM     34  C   UNL A   1      32.937  20.389  25.362  1.00  0.00     0.087 A 
ATOM     35  C   UNL A   1      34.097  18.542  24.775  1.00  0.00     0.003 A 
ATOM     36  N   UNL A   1      32.154  19.280  25.565  1.00  0.00    -0.361 N 
ATOM     37  C   UNL A   1      32.901  18.144  25.373  1.00  0.00     0.046 A 
ATOM     38  C   UNL A   1      34.987  17.541  24.337  1.00  0.00     0.010 A 
ATOM     39  H   UNL A   1      31.200  19.296  25.810  1.00  0.00     0.166 HD
ATOM     40  C   UNL A   1      32.636  16.815  25.715  1.00  0.00     0.026 A 
ATOM     41  C   UNL A   1      34.737  16.206  24.670  1.00  0.00     0.001 A 
ATOM     42  C   UNL A   1      33.593  15.856  25.382  1.00  0.00     0.002 A 
ENDBRANCH  32  33
ENDBRANCH   6  32
ENDBRANCH   3   6
ENDBRANCH   1   2
BRANCH   1  43
ATOM     43  C   UNL A   1      39.414  21.365  26.199  1.00  0.00     0.023 C 
BRANCH  43  44
ATOM     44  C   UNL A   1      40.330  22.570  26.366  1.00  0.00     0.023 C 
BRANCH  44  45
ATOM     45  C   UNL A   1      41.038  22.667  27.713  1.00  0.00     0.116 C 
BRANCH  45  46
ATOM     46  N   UNL A   1      42.485  22.755  27.652  1.00  0.00    -0.352 N 
ATOM     47  C   UNL A   1      43.242  23.848  27.240  1.00  0.00     0.251 C 
ATOM     48  H   UNL A   1      42.985  21.955  27.932  1.00  0.00     0.163 HD
ATOM     49  O   UNL A   1      44.345  23.720  26.748  1.00  0.00    -0.269 OA
BRANCH  47  50
ATOM     50  C   UNL A   1      42.726  25.195  27.591  1.00  0.00     0.039 A 
ATOM     51  C   UNL A   1      42.892  26.218  26.645  1.00  0.00     0.014 A 
ATOM     52  C   UNL A   1      42.317  25.494  28.886  1.00  0.00     0.014 A 
ATOM     53  C   UNL A   1      42.831  27.549  27.051  1.00  0.00     0.010 A 
ATOM     54  C   UNL A   1      42.366  26.801  29.312  1.00  0.00     0.010 A 
ATOM     55  C   UNL A   1      42.663  27.824  28.403  1.00  0.00    -0.014 A 
BRANCH  55  56
ATOM     56  C   UNL A   1      42.814  29.135  29.014  1.00  0.00     0.031 A 
ATOM     57  C   UNL A   1      41.620  29.975  29.226  1.00  0.00     0.074 A 
ATOM     58  C   UNL A   1      43.999  29.435  29.587  1.00  0.00     0.049 A 
ATOM     59  N   UNL A   1      41.653  31.184  29.669  1.00  0.00    -0.248 NA
ATOM     60  C   UNL A   1      40.270  29.529  28.885  1.00  0.00     0.031 C 
ATOM     61  C   UNL A   1      44.270  30.408  30.640  1.00  0.00     0.029 A 
ATOM     62  N   UNL A   1      45.265  29.000  29.185  1.00  0.00    -0.354 N 
ATOM     63  C   UNL A   1      40.360  31.557  29.954  1.00  0.00     0.074 A 
ATOM     64  C   UNL A   1      39.538  30.560  29.320  1.00  0.00     0.031 C 
ATOM     65  C   UNL A   1      45.585  30.681  30.654  1.00  0.00     0.029 A 
ATOM     66  C   UNL A   1      46.162  30.046  29.479  1.00  0.00     0.049 A 
ATOM     67  H   UNL A   1      45.488  28.132  28.776  1.00  0.00     0.167 HD
ATOM     68  C   UNL A   1      40.159  32.592  30.817  1.00  0.00     0.037 A 
ATOM     69  C   UNL A   1      46.759  30.745  28.464  1.00  0.00     0.037 A 
ATOM     70  C   UNL A   1      41.407  33.336  31.008  1.00  0.00     0.049 A 
ATOM     71  C   UNL A   1      46.364  32.206  28.399  1.00  0.00     0.074 A 
ATOM     72  C   UNL A   1      42.332  33.395  32.034  1.00  0.00     0.029 A 
ATOM     73  N   UNL A   1      42.000  33.946  29.905  1.00  0.00    -0.354 N 
ATOM     74  N   UNL A   1      45.312  32.708  28.986  1.00  0.00    -0.248 NA
ATOM     75  C   UNL A   1      47.127  33.214  27.667  1.00  0.00     0.031 C 
ATOM     76  C   UNL A   1      43.541  33.916  31.492  1.00  0.00     0.029 A 
ATOM     77  C   UNL A   1      43.328  34.228  30.159  1.00  0.00     0.049 A 
ATOM     78  H   UNL A   1      41.535  34.149  29.060  1.00  0.00     0.167 HD
ATOM     79  C   UNL A   1      45.216  34.044  28.695  1.00  0.00     0.074 A 
ATOM     80  C   UNL A   1      46.394  34.319  27.892  1.00  0.00     0.031 C 
ATOM     81  C   UNL A   1      44.170  34.812  29.121  1.00  0.00     0.037 A 
BRANCH  68  82
ATOM     82  C   UNL A   1      38.907  32.822  31.650  1.00  0.00     0.058 A 
ATOM     83  C   UNL A   1      38.177  34.026  31.514  1.00  0.00     0.135 A 
ATOM     84  C   UNL A   1      38.447  31.983  32.692  1.00  0.00     0.135 A 
ATOM     85  F   UNL A   1      38.502  34.930  30.578  1.00  0.00    -0.206 F 
ATOM     86  C   UNL A   1      37.107  34.374  32.351  1.00  0.00     0.059 A 
ATOM     87  C   UNL A   1      37.354  32.289  33.507  1.00  0.00     0.059 A 
ATOM     88  F   UNL A   1      39.065  30.848  33.030  1.00  0.00    -0.206 F 
ATOM     89  C   UNL A   1      36.705  33.499  33.350  1.00  0.00     0.060 A 
BRANCH  89  90
ATOM     90  S   UNL A   1      35.358  33.958  34.456  1.00  0.00     0.124 S 
ATOM     91  O   UNL A   1      35.915  33.621  35.762  1.00  0.00    -0.237 OA
ATOM     92  O   UNL A   1      35.196  35.381  34.180  1.00  0.00    -0.237 OA
ATOM     93  O   UNL A   1      34.252  33.112  34.015  1.00  0.00    -0.744 OA
ENDBRANCH  89  90
ENDBRANCH  68  82
BRANCH  69  94
ATOM     94  C   UNL A   1      47.093  29.894  27.286  1.00  0.00     0.058 A 
ATOM     95  C   UNL A   1      48.260  29.112  27.362  1.00  0.00     0.135 A 
ATOM     96  C   UNL A   1      46.104  29.496  26.374  1.00  0.00     0.135 A 
ATOM     97  F   UNL A   1      49.241  29.452  28.213  1.00  0.00    -0.206 F 
ATOM     98  C   UNL A   1      48.364  27.892  26.704  1.00  0.00     0.059 A 
ATOM     99  C   UNL A   1      46.185  28.269  25.712  1.00  0.00     0.059 A 
ATOM    100  F   UNL A   1      44.975  30.208  26.249  1.00  0.00    -0.206 F 
ATOM    101  C   UNL A   1      47.277  27.439  25.961  1.00  0.00     0.060 A 
BRANCH 101 102
ATOM    102  S   UNL A   1      47.220  25.681  25.532  1.00  0.00     0.124 S 
ATOM    103  O   UNL A   1      47.236  25.042  26.843  1.00  0.00    -0.237 OA
ATOM    104  O   UNL A   1      45.949  25.606  24.814  1.00  0.00    -0.237 OA
ATOM    105  O   UNL A   1      48.417  25.497  24.721  1.00  0.00    -0.744 OA
ENDBRANCH 101 102
ENDBRANCH  69  94
BRANCH  81 106
ATOM    106  C   UNL A   1      43.872  36.215  28.643  1.00  0.00     0.058 A 
ATOM    107  C   UNL A   1      44.092  37.370  29.413  1.00  0.00     0.135 A 
ATOM    108  C   UNL A   1      43.486  36.441  27.300  1.00  0.00     0.135 A 
ATOM    109  F   UNL A   1      44.570  37.295  30.664  1.00  0.00    -0.206 F 
ATOM    110  C   UNL A   1      43.874  38.655  28.914  1.00  0.00     0.059 A 
ATOM    111  C   UNL A   1      43.321  37.716  26.764  1.00  0.00     0.059 A 
ATOM    112  F   UNL A   1      43.269  35.422  26.455  1.00  0.00    -0.206 F 
ATOM    113  C   UNL A   1      43.487  38.819  27.587  1.00  0.00     0.060 A 
BRANCH 113 114
ATOM    114  S   UNL A   1      43.257  40.476  26.920  1.00  0.00     0.124 S 
ATOM    115  O   UNL A   1      41.839  40.700  27.182  1.00  0.00    -0.237 OA
ATOM    116  O   UNL A   1      44.179  41.280  27.716  1.00  0.00    -0.237 OA
ATOM    117  O   UNL A   1      43.625  40.322  25.516  1.00  0.00    -0.744 OA
ENDBRANCH 113 114
ENDBRANCH  81 106
ENDBRANCH  55  56
ENDBRANCH  47  50
ENDBRANCH  45  46
ENDBRANCH  44  45
ENDBRANCH  43  44
ENDBRANCH   1  43
TORSDOF 21
ENDMDL
