MODEL 1
REMARK VINA RESULT:     -13.1      0.000      0.000
REMARK SMILES COc1ccc(C[NH2+]Cc2cccn2-c2sc(C)c(C)c2C(=O)NCCCCNC(=O)c2ccc(-c3c4nc(c(-c5c(F)cc(S(=O)(=O)[O-])cc5F)c5ccc([nH]5)c(-c5c(F)cc(S(=O)(=O)[O-])cc5F)c5nc(c(-c6c(F)cc(S(=O)(=O)[O-])cc6F)c6ccc3[nH]6)C=C5)C=C4)cc2)cc1
REMARK SMILES IDX 25 1 24 2 22 3 23 4 21 6 15 7 16 8 17 9 19 10 18 11 20 12
REMARK SMILES IDX 14 13 10 14 11 15 12 16 13 17 9 18 8 19 7 22 6 23 3 24 4 25
REMARK SMILES IDX 99 26 5 27 98 28 2 29 1 30 26 31 27 32 28 33 29 34 30 35
REMARK SMILES IDX 31 37 32 38 33 39 97 40 34 41 96 42 35 43 36 44 37 45 90 46
REMARK SMILES IDX 38 47 95 48 89 49 91 50 39 51 94 52 88 53 87 54 40 56 74 57
REMARK SMILES IDX 53 58 73 59 54 60 57 61 72 62 92 63 55 64 56 65 71 67 93 68
REMARK SMILES IDX 58 69 41 70 42 71 51 72 43 73 44 74 50 75 52 76 45 77 46 78
REMARK SMILES IDX 47 79 48 80 49 81 75 82 76 83 85 84 77 85 78 86 84 87 86 88
REMARK SMILES IDX 79 89 80 90 81 91 82 92 83 93 59 94 60 95 69 96 61 97 62 98
REMARK SMILES IDX 68 99 70 100 63 101 64 102 65 103 66 104 67 105
REMARK H PARENT 24 5 8 20 8 21 29 36 91 55 57 66
REMARK Flexibility Score: inf
ROOT
ATOM      1  C   UNL A   1      33.674  26.471  25.811  1.00  0.00     0.116 C 
ENDROOT
BRANCH   1   2
ATOM      2  N   UNL A   1      32.587  25.800  26.467  1.00  0.00    -0.352 N 
ATOM      3  C   UNL A   1      32.199  24.474  26.413  1.00  0.00     0.254 C 
ATOM      4  O   UNL A   1      31.282  24.175  27.182  1.00  0.00    -0.269 OA
ATOM      5  H   UNL A   1      32.032  26.373  27.045  1.00  0.00     0.163 HD
BRANCH   3   6
ATOM      6  C   UNL A   1      32.725  23.468  25.445  1.00  0.00     0.078 A 
ATOM      7  C   UNL A   1      32.770  23.484  24.057  1.00  0.00     0.113 A 
ATOM      8  S   UNL A   1      33.381  22.070  23.341  1.00  0.00    -0.122 S 
ATOM      9  C   UNL A   1      33.752  21.386  24.850  1.00  0.00     0.007 A 
ATOM     10  C   UNL A   1      33.348  22.201  25.901  1.00  0.00    -0.022 A 
ATOM     11  C   UNL A   1      34.447  20.064  24.905  1.00  0.00     0.057 C 
ATOM     12  C   UNL A   1      33.544  21.829  27.346  1.00  0.00     0.046 C 
BRANCH   7  13
ATOM     13  N   UNL A   1      32.570  24.527  23.151  1.00  0.00    -0.306 N 
ATOM     14  C   UNL A   1      31.364  25.177  22.814  1.00  0.00     0.078 A 
ATOM     15  C   UNL A   1      31.673  26.081  21.805  1.00  0.00     0.029 A 
ATOM     16  C   UNL A   1      33.067  26.073  21.595  1.00  0.00     0.020 A 
ATOM     17  C   UNL A   1      33.592  25.120  22.430  1.00  0.00     0.092 A 
BRANCH  14  18
ATOM     18  C   UNL A   1      30.039  24.878  23.480  1.00  0.00     0.316 C 
BRANCH  18  19
ATOM     19  N   UNL A   1      29.483  25.935  24.346  1.00  0.00    -0.338 N 
ATOM     20  H   UNL A   1      29.251  25.519  25.248  1.00  0.00     0.346 HD
ATOM     21  H   UNL A   1      30.196  26.660  24.413  1.00  0.00     0.346 HD
BRANCH  19  22
ATOM     22  C   UNL A   1      28.286  26.575  23.819  1.00  0.00     0.297 C 
BRANCH  22  23
ATOM     23  C   UNL A   1      28.462  28.035  23.452  1.00  0.00     0.006 A 
ATOM     24  C   UNL A   1      28.872  30.621  22.402  1.00  0.00     0.118 A 
ATOM     25  C   UNL A   1      27.578  30.137  22.603  1.00  0.00     0.047 A 
ATOM     26  C   UNL A   1      29.961  29.849  22.796  1.00  0.00     0.047 A 
ATOM     27  C   UNL A   1      27.372  28.851  23.121  1.00  0.00     0.013 A 
ATOM     28  C   UNL A   1      29.757  28.565  23.310  1.00  0.00     0.013 A 
BRANCH  24  29
ATOM     29  O   UNL A   1      28.980  31.868  21.844  1.00  0.00    -0.497 OA
ATOM     30  C   UNL A   1      28.711  32.933  22.755  1.00  0.00     0.278 C 
ENDBRANCH  24  29
ENDBRANCH  22  23
ENDBRANCH  19  22
ENDBRANCH  18  19
ENDBRANCH  14  18
ENDBRANCH   7  13
ENDBRANCH   3   6
ENDBRANCH   1   2
BRANCH   1  31
ATOM     31  C   UNL A   1      33.394  27.743  25.026  1.00  0.00     0.023 C 
BRANCH  31  32
ATOM     32  C   UNL A   1      33.591  29.083  25.730  1.00  0.00     0.023 C 
BRANCH  32  33
ATOM     33  C   UNL A   1      34.677  29.121  26.808  1.00  0.00     0.116 C 
BRANCH  33  34
ATOM     34  N   UNL A   1      35.096  30.474  27.148  1.00  0.00    -0.352 N 
ATOM     35  C   UNL A   1      36.167  30.858  27.918  1.00  0.00     0.251 C 
ATOM     36  H   UNL A   1      34.545  31.202  26.780  1.00  0.00     0.163 HD
ATOM     37  O   UNL A   1      36.210  32.006  28.374  1.00  0.00    -0.269 OA
BRANCH  35  38
ATOM     38  C   UNL A   1      37.265  29.910  28.204  1.00  0.00     0.039 A 
ATOM     39  C   UNL A   1      38.339  29.808  27.311  1.00  0.00     0.014 A 
ATOM     40  C   UNL A   1      37.204  29.083  29.332  1.00  0.00     0.014 A 
ATOM     41  C   UNL A   1      39.386  28.931  27.591  1.00  0.00     0.010 A 
ATOM     42  C   UNL A   1      38.253  28.218  29.622  1.00  0.00     0.010 A 
ATOM     43  C   UNL A   1      39.354  28.157  28.762  1.00  0.00    -0.014 A 
BRANCH  43  44
ATOM     44  C   UNL A   1      40.583  27.452  29.200  1.00  0.00     0.031 A 
ATOM     45  C   UNL A   1      40.795  26.168  28.340  1.00  0.00     0.074 A 
ATOM     46  C   UNL A   1      41.288  28.012  30.242  1.00  0.00     0.049 A 
ATOM     47  N   UNL A   1      41.325  25.029  28.661  1.00  0.00    -0.248 NA
ATOM     48  C   UNL A   1      40.244  26.095  26.952  1.00  0.00     0.031 C 
ATOM     49  C   UNL A   1      40.944  29.292  30.914  1.00  0.00     0.029 A 
ATOM     50  N   UNL A   1      42.424  27.657  30.948  1.00  0.00    -0.354 N 
ATOM     51  C   UNL A   1      41.396  24.222  27.493  1.00  0.00     0.074 A 
ATOM     52  C   UNL A   1      40.581  24.875  26.517  1.00  0.00     0.031 C 
ATOM     53  C   UNL A   1      41.773  29.546  31.956  1.00  0.00     0.029 A 
ATOM     54  C   UNL A   1      42.757  28.487  32.067  1.00  0.00     0.049 A 
ATOM     55  H   UNL A   1      42.972  26.879  30.697  1.00  0.00     0.167 HD
ATOM     56  C   UNL A   1      42.261  23.163  27.374  1.00  0.00     0.037 A 
ATOM     57  C   UNL A   1      43.729  28.304  33.025  1.00  0.00     0.037 A 
ATOM     58  C   UNL A   1      43.036  23.091  28.566  1.00  0.00     0.049 A 
ATOM     59  C   UNL A   1      44.505  27.165  32.534  1.00  0.00     0.074 A 
ATOM     60  C   UNL A   1      42.708  22.763  29.855  1.00  0.00     0.029 A 
ATOM     61  N   UNL A   1      44.215  23.801  28.548  1.00  0.00    -0.354 N 
ATOM     62  N   UNL A   1      45.326  27.215  31.532  1.00  0.00    -0.248 NA
ATOM     63  C   UNL A   1      44.310  25.859  33.174  1.00  0.00     0.031 C 
ATOM     64  C   UNL A   1      43.389  23.750  30.589  1.00  0.00     0.029 A 
ATOM     65  C   UNL A   1      44.337  24.385  29.776  1.00  0.00     0.049 A 
ATOM     66  H   UNL A   1      44.847  23.872  27.797  1.00  0.00     0.167 HD
ATOM     67  C   UNL A   1      45.444  25.891  31.203  1.00  0.00     0.074 A 
ATOM     68  C   UNL A   1      45.093  25.127  32.386  1.00  0.00     0.031 C 
ATOM     69  C   UNL A   1      45.200  25.528  29.919  1.00  0.00     0.037 A 
BRANCH  56  70
ATOM     70  C   UNL A   1      42.774  22.308  26.236  1.00  0.00     0.058 A 
ATOM     71  C   UNL A   1      42.543  20.905  26.321  1.00  0.00     0.135 A 
ATOM     72  C   UNL A   1      43.763  22.708  25.331  1.00  0.00     0.135 A 
ATOM     73  F   UNL A   1      41.559  20.415  27.096  1.00  0.00    -0.206 F 
ATOM     74  C   UNL A   1      43.359  19.965  25.704  1.00  0.00     0.059 A 
ATOM     75  C   UNL A   1      44.564  21.776  24.654  1.00  0.00     0.059 A 
ATOM     76  F   UNL A   1      44.033  24.005  25.136  1.00  0.00    -0.206 F 
ATOM     77  C   UNL A   1      44.395  20.411  24.898  1.00  0.00     0.060 A 
BRANCH  77  78
ATOM     78  S   UNL A   1      45.520  19.178  24.207  1.00  0.00     0.124 S 
ATOM     79  O   UNL A   1      44.992  19.015  22.857  1.00  0.00    -0.237 OA
ATOM     80  O   UNL A   1      46.812  19.851  24.301  1.00  0.00    -0.237 OA
ATOM     81  O   UNL A   1      45.353  18.035  25.099  1.00  0.00    -0.744 OA
ENDBRANCH  77  78
ENDBRANCH  56  70
BRANCH  57  82
ATOM     82  C   UNL A   1      44.180  28.792  34.401  1.00  0.00     0.058 A 
ATOM     83  C   UNL A   1      43.500  28.626  35.610  1.00  0.00     0.135 A 
ATOM     84  C   UNL A   1      45.525  29.267  34.558  1.00  0.00     0.135 A 
ATOM     85  F   UNL A   1      42.192  28.339  35.622  1.00  0.00    -0.206 F 
ATOM     86  C   UNL A   1      44.157  28.717  36.858  1.00  0.00     0.059 A 
ATOM     87  C   UNL A   1      46.214  29.289  35.767  1.00  0.00     0.059 A 
ATOM     88  F   UNL A   1      46.259  29.671  33.510  1.00  0.00    -0.206 F 
ATOM     89  C   UNL A   1      45.532  28.964  36.919  1.00  0.00     0.060 A 
BRANCH  89  90
ATOM     90  S   UNL A   1      46.468  28.703  38.446  1.00  0.00     0.124 S 
ATOM     91  O   UNL A   1      45.444  28.874  39.470  1.00  0.00    -0.237 OA
ATOM     92  O   UNL A   1      46.976  27.346  38.272  1.00  0.00    -0.237 OA
ATOM     93  O   UNL A   1      47.490  29.748  38.398  1.00  0.00    -0.744 OA
ENDBRANCH  89  90
ENDBRANCH  57  82
BRANCH  69  94
ATOM     94  C   UNL A   1      45.543  26.577  28.870  1.00  0.00     0.058 A 
ATOM     95  C   UNL A   1      46.867  27.046  28.779  1.00  0.00     0.135 A 
ATOM     96  C   UNL A   1      44.621  27.198  28.009  1.00  0.00     0.135 A 
ATOM     97  F   UNL A   1      47.822  26.507  29.554  1.00  0.00    -0.206 F 
ATOM     98  C   UNL A   1      47.251  28.062  27.898  1.00  0.00     0.059 A 
ATOM     99  C   UNL A   1      44.979  28.214  27.110  1.00  0.00     0.059 A 
ATOM    100  F   UNL A   1      43.335  26.842  28.019  1.00  0.00    -0.206 F 
ATOM    101  C   UNL A   1      46.302  28.638  27.060  1.00  0.00     0.060 A 
BRANCH 101 102
ATOM    102  S   UNL A   1      46.837  29.905  25.884  1.00  0.00     0.124 S 
ATOM    103  O   UNL A   1      45.866  30.971  26.106  1.00  0.00    -0.237 OA
ATOM    104  O   UNL A   1      48.196  30.185  26.333  1.00  0.00    -0.237 OA
ATOM    105  O   UNL A   1      46.736  29.238  24.587  1.00  0.00    -0.744 OA
ENDBRANCH 101 102
ENDBRANCH  69  94
ENDBRANCH  43  44
ENDBRANCH  35  38
ENDBRANCH  33  34
ENDBRANCH  32  33
ENDBRANCH  31  32
ENDBRANCH   1  31
TORSDOF 20
ENDMDL
MODEL 2
REMARK VINA RESULT:     -11.8      3.236      9.637
REMARK SMILES COc1ccc(C[NH2+]Cc2cccn2-c2sc(C)c(C)c2C(=O)NCCCCNC(=O)c2ccc(-c3c4nc(c(-c5c(F)cc(S(=O)(=O)[O-])cc5F)c5ccc([nH]5)c(-c5c(F)cc(S(=O)(=O)[O-])cc5F)c5nc(c(-c6c(F)cc(S(=O)(=O)[O-])cc6F)c6ccc3[nH]6)C=C5)C=C4)cc2)cc1
REMARK SMILES IDX 25 1 24 2 22 3 23 4 21 6 15 7 16 8 17 9 19 10 18 11 20 12
REMARK SMILES IDX 14 13 10 14 11 15 12 16 13 17 9 18 8 19 7 22 6 23 3 24 4 25
REMARK SMILES IDX 99 26 5 27 98 28 2 29 1 30 26 31 27 32 28 33 29 34 30 35
REMARK SMILES IDX 31 37 32 38 33 39 97 40 34 41 96 42 35 43 36 44 37 45 90 46
REMARK SMILES IDX 38 47 95 48 89 49 91 50 39 51 94 52 88 53 87 54 40 56 74 57
REMARK SMILES IDX 53 58 73 59 54 60 57 61 72 62 92 63 55 64 56 65 71 67 93 68
REMARK SMILES IDX 58 69 41 70 42 71 51 72 43 73 44 74 50 75 52 76 45 77 46 78
REMARK SMILES IDX 47 79 48 80 49 81 75 82 76 83 85 84 77 85 78 86 84 87 86 88
REMARK SMILES IDX 79 89 80 90 81 91 82 92 83 93 59 94 60 95 69 96 61 97 62 98
REMARK SMILES IDX 68 99 70 100 63 101 64 102 65 103 66 104 67 105
REMARK H PARENT 24 5 8 20 8 21 29 36 91 55 57 66
REMARK Flexibility Score: inf
ROOT
ATOM      1  C   UNL A   1      34.111  28.644  26.401  1.00  0.00     0.116 C 
ENDROOT
BRANCH   1   2
ATOM      2  N   UNL A   1      32.992  27.908  26.919  1.00  0.00    -0.352 N 
ATOM      3  C   UNL A   1      31.935  27.314  26.254  1.00  0.00     0.254 C 
ATOM      4  O   UNL A   1      31.181  26.655  26.974  1.00  0.00    -0.269 OA
ATOM      5  H   UNL A   1      32.974  27.813  27.899  1.00  0.00     0.163 HD
BRANCH   3   6
ATOM      6  C   UNL A   1      31.611  27.512  24.812  1.00  0.00     0.078 A 
ATOM      7  C   UNL A   1      31.639  26.622  23.747  1.00  0.00     0.113 A 
ATOM      8  S   UNL A   1      31.276  27.300  22.232  1.00  0.00    -0.122 S 
ATOM      9  C   UNL A   1      30.926  28.812  22.919  1.00  0.00     0.007 A 
ATOM     10  C   UNL A   1      31.152  28.824  24.290  1.00  0.00    -0.022 A 
ATOM     11  C   UNL A   1      30.425  29.917  22.044  1.00  0.00     0.057 C 
ATOM     12  C   UNL A   1      30.934  30.043  25.145  1.00  0.00     0.046 C 
BRANCH   7  13
ATOM     13  N   UNL A   1      31.736  25.229  23.726  1.00  0.00    -0.306 N 
ATOM     14  C   UNL A   1      32.878  24.426  23.932  1.00  0.00     0.078 A 
ATOM     15  C   UNL A   1      32.478  23.113  23.722  1.00  0.00     0.029 A 
ATOM     16  C   UNL A   1      31.086  23.088  23.501  1.00  0.00     0.020 A 
ATOM     17  C   UNL A   1      30.656  24.391  23.511  1.00  0.00     0.092 A 
BRANCH  14  18
ATOM     18  C   UNL A   1      34.234  24.983  24.304  1.00  0.00     0.316 C 
BRANCH  18  19
ATOM     19  N   UNL A   1      35.376  24.053  24.216  1.00  0.00    -0.338 N 
ATOM     20  H   UNL A   1      35.159  23.349  23.511  1.00  0.00     0.346 HD
ATOM     21  H   UNL A   1      36.192  24.617  23.979  1.00  0.00     0.346 HD
BRANCH  19  22
ATOM     22  C   UNL A   1      35.691  23.369  25.462  1.00  0.00     0.297 C 
BRANCH  22  23
ATOM     23  C   UNL A   1      34.986  22.039  25.648  1.00  0.00     0.006 A 
ATOM     24  C   UNL A   1      33.358  19.743  25.830  1.00  0.00     0.118 A 
ATOM     25  C   UNL A   1      34.313  19.854  24.818  1.00  0.00     0.047 A 
ATOM     26  C   UNL A   1      33.268  20.740  26.798  1.00  0.00     0.047 A 
ATOM     27  C   UNL A   1      35.120  20.996  24.722  1.00  0.00     0.013 A 
ATOM     28  C   UNL A   1      34.071  21.880  26.703  1.00  0.00     0.013 A 
BRANCH  24  29
ATOM     29  O   UNL A   1      32.578  18.617  25.817  1.00  0.00    -0.497 OA
ATOM     30  C   UNL A   1      32.395  18.056  24.517  1.00  0.00     0.278 C 
ENDBRANCH  24  29
ENDBRANCH  22  23
ENDBRANCH  19  22
ENDBRANCH  18  19
ENDBRANCH  14  18
ENDBRANCH   7  13
ENDBRANCH   3   6
ENDBRANCH   1   2
BRANCH   1  31
ATOM     31  C   UNL A   1      34.642  29.835  27.183  1.00  0.00     0.023 C 
BRANCH  31  32
ATOM     32  C   UNL A   1      33.641  30.878  27.674  1.00  0.00     0.023 C 
BRANCH  32  33
ATOM     33  C   UNL A   1      34.192  32.291  27.879  1.00  0.00     0.116 C 
BRANCH  33  34
ATOM     34  N   UNL A   1      34.040  32.770  29.247  1.00  0.00    -0.352 N 
ATOM     35  C   UNL A   1      34.753  32.390  30.358  1.00  0.00     0.251 C 
ATOM     36  H   UNL A   1      33.342  33.450  29.392  1.00  0.00     0.163 HD
ATOM     37  O   UNL A   1      34.307  32.641  31.483  1.00  0.00    -0.269 OA
BRANCH  35  38
ATOM     38  C   UNL A   1      36.044  31.686  30.218  1.00  0.00     0.039 A 
ATOM     39  C   UNL A   1      36.920  32.049  29.187  1.00  0.00     0.014 A 
ATOM     40  C   UNL A   1      36.364  30.627  31.075  1.00  0.00     0.014 A 
ATOM     41  C   UNL A   1      38.149  31.401  29.067  1.00  0.00     0.010 A 
ATOM     42  C   UNL A   1      37.595  29.988  30.968  1.00  0.00     0.010 A 
ATOM     43  C   UNL A   1      38.496  30.389  29.976  1.00  0.00    -0.014 A 
BRANCH  43  44
ATOM     44  C   UNL A   1      39.898  29.909  30.027  1.00  0.00     0.031 A 
ATOM     45  C   UNL A   1      40.817  31.010  30.641  1.00  0.00     0.074 A 
ATOM     46  C   UNL A   1      40.144  28.645  29.541  1.00  0.00     0.049 A 
ATOM     47  N   UNL A   1      42.059  31.289  30.398  1.00  0.00    -0.248 NA
ATOM     48  C   UNL A   1      40.248  32.019  31.588  1.00  0.00     0.031 C 
ATOM     49  C   UNL A   1      39.106  27.711  29.029  1.00  0.00     0.029 A 
ATOM     50  N   UNL A   1      41.279  27.869  29.379  1.00  0.00    -0.354 N 
ATOM     51  C   UNL A   1      42.477  32.303  31.303  1.00  0.00     0.074 A 
ATOM     52  C   UNL A   1      41.282  32.810  31.900  1.00  0.00     0.031 C 
ATOM     53  C   UNL A   1      39.658  26.571  28.544  1.00  0.00     0.029 A 
ATOM     54  C   UNL A   1      41.098  26.618  28.705  1.00  0.00     0.049 A 
ATOM     55  H   UNL A   1      42.160  28.160  29.707  1.00  0.00     0.167 HD
ATOM     56  C   UNL A   1      43.796  32.526  31.609  1.00  0.00     0.037 A 
ATOM     57  C   UNL A   1      42.048  25.716  28.279  1.00  0.00     0.037 A 
ATOM     58  C   UNL A   1      44.580  31.565  30.910  1.00  0.00     0.049 A 
ATOM     59  C   UNL A   1      43.297  26.214  28.856  1.00  0.00     0.074 A 
ATOM     60  C   UNL A   1      44.850  31.396  29.579  1.00  0.00     0.029 A 
ATOM     61  N   UNL A   1      44.824  30.394  31.591  1.00  0.00    -0.354 N 
ATOM     62  N   UNL A   1      43.607  26.137  30.112  1.00  0.00    -0.248 NA
ATOM     63  C   UNL A   1      44.250  26.898  27.973  1.00  0.00     0.031 C 
ATOM     64  C   UNL A   1      44.708  30.005  29.426  1.00  0.00     0.029 A 
ATOM     65  C   UNL A   1      44.707  29.383  30.682  1.00  0.00     0.049 A 
ATOM     66  H   UNL A   1      45.042  30.304  32.547  1.00  0.00     0.167 HD
ATOM     67  C   UNL A   1      44.593  27.081  30.214  1.00  0.00     0.074 A 
ATOM     68  C   UNL A   1      45.149  27.259  28.885  1.00  0.00     0.031 C 
ATOM     69  C   UNL A   1      44.457  28.047  31.156  1.00  0.00     0.037 A 
BRANCH  56  70
ATOM     70  C   UNL A   1      44.543  33.289  32.681  1.00  0.00     0.058 A 
ATOM     71  C   UNL A   1      44.261  32.950  34.036  1.00  0.00     0.135 A 
ATOM     72  C   UNL A   1      45.172  34.523  32.480  1.00  0.00     0.135 A 
ATOM     73  F   UNL A   1      43.735  31.754  34.352  1.00  0.00    -0.206 F 
ATOM     74  C   UNL A   1      44.413  33.846  35.087  1.00  0.00     0.059 A 
ATOM     75  C   UNL A   1      45.386  35.422  33.537  1.00  0.00     0.059 A 
ATOM     76  F   UNL A   1      45.524  34.923  31.253  1.00  0.00    -0.206 F 
ATOM     77  C   UNL A   1      44.944  35.099  34.821  1.00  0.00     0.060 A 
BRANCH  77  78
ATOM     78  S   UNL A   1      45.017  36.291  36.177  1.00  0.00     0.124 S 
ATOM     79  O   UNL A   1      46.123  37.148  35.763  1.00  0.00    -0.237 OA
ATOM     80  O   UNL A   1      43.692  36.903  36.122  1.00  0.00    -0.237 OA
ATOM     81  O   UNL A   1      45.262  35.454  37.346  1.00  0.00    -0.744 OA
ENDBRANCH  77  78
ENDBRANCH  56  70
BRANCH  57  82
ATOM     82  C   UNL A   1      42.244  24.501  27.374  1.00  0.00     0.058 A 
ATOM     83  C   UNL A   1      42.345  24.507  25.980  1.00  0.00     0.135 A 
ATOM     84  C   UNL A   1      42.592  23.244  27.970  1.00  0.00     0.135 A 
ATOM     85  F   UNL A   1      41.907  25.554  25.269  1.00  0.00    -0.206 F 
ATOM     86  C   UNL A   1      42.938  23.439  25.268  1.00  0.00     0.059 A 
ATOM     87  C   UNL A   1      43.247  22.213  27.304  1.00  0.00     0.059 A 
ATOM     88  F   UNL A   1      42.367  22.992  29.269  1.00  0.00    -0.206 F 
ATOM     89  C   UNL A   1      43.462  22.337  25.950  1.00  0.00     0.060 A 
BRANCH  89  90
ATOM     90  S   UNL A   1      44.559  21.156  25.126  1.00  0.00     0.124 S 
ATOM     91  O   UNL A   1      44.424  21.535  23.724  1.00  0.00    -0.237 OA
ATOM     92  O   UNL A   1      45.849  21.445  25.743  1.00  0.00    -0.237 OA
ATOM     93  O   UNL A   1      43.988  19.859  25.485  1.00  0.00    -0.744 OA
ENDBRANCH  89  90
ENDBRANCH  57  82
BRANCH  69  94
ATOM     94  C   UNL A   1      43.714  27.626  32.416  1.00  0.00     0.058 A 
ATOM     95  C   UNL A   1      44.250  26.601  33.218  1.00  0.00     0.135 A 
ATOM     96  C   UNL A   1      42.465  28.125  32.827  1.00  0.00     0.135 A 
ATOM     97  F   UNL A   1      45.444  26.068  32.911  1.00  0.00    -0.206 F 
ATOM     98  C   UNL A   1      43.594  26.101  34.347  1.00  0.00     0.059 A 
ATOM     99  C   UNL A   1      41.787  27.649  33.960  1.00  0.00     0.059 A 
ATOM    100  F   UNL A   1      41.857  29.090  32.135  1.00  0.00    -0.206 F 
ATOM    101  C   UNL A   1      42.363  26.635  34.717  1.00  0.00     0.060 A 
BRANCH 101 102
ATOM    102  S   UNL A   1      41.566  26.017  36.220  1.00  0.00     0.124 S 
ATOM    103  O   UNL A   1      42.644  25.277  36.867  1.00  0.00    -0.237 OA
ATOM    104  O   UNL A   1      41.163  27.253  36.883  1.00  0.00    -0.237 OA
ATOM    105  O   UNL A   1      40.468  25.196  35.715  1.00  0.00    -0.744 OA
ENDBRANCH 101 102
ENDBRANCH  69  94
ENDBRANCH  43  44
ENDBRANCH  35  38
ENDBRANCH  33  34
ENDBRANCH  32  33
ENDBRANCH  31  32
ENDBRANCH   1  31
TORSDOF 20
ENDMDL
MODEL 3
REMARK VINA RESULT:     -11.5      9.691     14.254
REMARK SMILES COc1ccc(C[NH2+]Cc2cccn2-c2sc(C)c(C)c2C(=O)NCCCCNC(=O)c2ccc(-c3c4nc(c(-c5c(F)cc(S(=O)(=O)[O-])cc5F)c5ccc([nH]5)c(-c5c(F)cc(S(=O)(=O)[O-])cc5F)c5nc(c(-c6c(F)cc(S(=O)(=O)[O-])cc6F)c6ccc3[nH]6)C=C5)C=C4)cc2)cc1
REMARK SMILES IDX 25 1 24 2 22 3 23 4 21 6 15 7 16 8 17 9 19 10 18 11 20 12
REMARK SMILES IDX 14 13 10 14 11 15 12 16 13 17 9 18 8 19 7 22 6 23 3 24 4 25
REMARK SMILES IDX 99 26 5 27 98 28 2 29 1 30 26 31 27 32 28 33 29 34 30 35
REMARK SMILES IDX 31 37 32 38 33 39 97 40 34 41 96 42 35 43 36 44 37 45 90 46
REMARK SMILES IDX 38 47 95 48 89 49 91 50 39 51 94 52 88 53 87 54 40 56 74 57
REMARK SMILES IDX 53 58 73 59 54 60 57 61 72 62 92 63 55 64 56 65 71 67 93 68
REMARK SMILES IDX 58 69 41 70 42 71 51 72 43 73 44 74 50 75 52 76 45 77 46 78
REMARK SMILES IDX 47 79 48 80 49 81 75 82 76 83 85 84 77 85 78 86 84 87 86 88
REMARK SMILES IDX 79 89 80 90 81 91 82 92 83 93 59 94 60 95 69 96 61 97 62 98
REMARK SMILES IDX 68 99 70 100 63 101 64 102 65 103 66 104 67 105
REMARK H PARENT 24 5 8 20 8 21 29 36 91 55 57 66
REMARK Flexibility Score: inf
ROOT
ATOM      1  C   UNL A   1      46.194  39.833  25.880  1.00  0.00     0.116 C 
ENDROOT
BRANCH   1   2
ATOM      2  N   UNL A   1      44.776  39.917  26.088  1.00  0.00    -0.352 N 
ATOM      3  C   UNL A   1      43.906  40.969  25.868  1.00  0.00     0.254 C 
ATOM      4  O   UNL A   1      42.716  40.697  26.041  1.00  0.00    -0.269 OA
ATOM      5  H   UNL A   1      44.358  39.099  26.442  1.00  0.00     0.163 HD
BRANCH   3   6
ATOM      6  C   UNL A   1      44.319  42.370  25.561  1.00  0.00     0.078 A 
ATOM      7  C   UNL A   1      44.169  43.125  24.405  1.00  0.00     0.113 A 
ATOM      8  S   UNL A   1      44.876  44.669  24.459  1.00  0.00    -0.122 S 
ATOM      9  C   UNL A   1      45.319  44.483  26.087  1.00  0.00     0.007 A 
ATOM     10  C   UNL A   1      44.993  43.222  26.572  1.00  0.00    -0.022 A 
ATOM     11  C   UNL A   1      45.963  45.624  26.806  1.00  0.00     0.057 C 
ATOM     12  C   UNL A   1      45.287  42.787  27.982  1.00  0.00     0.046 C 
BRANCH   7  13
ATOM     13  N   UNL A   1      43.385  42.909  23.271  1.00  0.00    -0.306 N 
ATOM     14  C   UNL A   1      43.799  42.795  21.927  1.00  0.00     0.078 A 
ATOM     15  C   UNL A   1      42.642  42.674  21.168  1.00  0.00     0.029 A 
ATOM     16  C   UNL A   1      41.532  42.600  22.034  1.00  0.00     0.020 A 
ATOM     17  C   UNL A   1      42.011  42.743  23.312  1.00  0.00     0.092 A 
BRANCH  14  18
ATOM     18  C   UNL A   1      45.249  42.814  21.495  1.00  0.00     0.316 C 
BRANCH  18  19
ATOM     19  N   UNL A   1      45.667  43.940  20.639  1.00  0.00    -0.338 N 
ATOM     20  H   UNL A   1      45.223  44.789  20.989  1.00  0.00     0.346 HD
ATOM     21  H   UNL A   1      46.685  43.976  20.683  1.00  0.00     0.346 HD
BRANCH  19  22
ATOM     22  C   UNL A   1      45.316  43.790  19.234  1.00  0.00     0.297 C 
BRANCH  22  23
ATOM     23  C   UNL A   1      44.674  45.013  18.609  1.00  0.00     0.006 A 
ATOM     24  C   UNL A   1      43.164  47.206  17.676  1.00  0.00     0.118 A 
ATOM     25  C   UNL A   1      44.176  47.394  18.619  1.00  0.00     0.047 A 
ATOM     26  C   UNL A   1      42.956  45.938  17.140  1.00  0.00     0.047 A 
ATOM     27  C   UNL A   1      44.925  46.306  19.087  1.00  0.00     0.013 A 
ATOM     28  C   UNL A   1      43.700  44.851  17.608  1.00  0.00     0.013 A 
BRANCH  24  29
ATOM     29  O   UNL A   1      42.449  48.316  17.313  1.00  0.00    -0.497 OA
ATOM     30  C   UNL A   1      41.681  48.144  16.122  1.00  0.00     0.278 C 
ENDBRANCH  24  29
ENDBRANCH  22  23
ENDBRANCH  19  22
ENDBRANCH  18  19
ENDBRANCH  14  18
ENDBRANCH   7  13
ENDBRANCH   3   6
ENDBRANCH   1   2
BRANCH   1  31
ATOM     31  C   UNL A   1      47.029  38.969  26.811  1.00  0.00     0.023 C 
BRANCH  31  32
ATOM     32  C   UNL A   1      46.627  37.507  26.992  1.00  0.00     0.023 C 
BRANCH  32  33
ATOM     33  C   UNL A   1      47.035  36.858  28.317  1.00  0.00     0.116 C 
BRANCH  33  34
ATOM     34  N   UNL A   1      46.533  37.575  29.482  1.00  0.00    -0.352 N 
ATOM     35  C   UNL A   1      45.350  37.375  30.151  1.00  0.00     0.251 C 
ATOM     36  H   UNL A   1      47.113  38.290  29.833  1.00  0.00     0.163 HD
ATOM     37  O   UNL A   1      44.922  38.254  30.909  1.00  0.00    -0.269 OA
BRANCH  35  38
ATOM     38  C   UNL A   1      44.588  36.122  29.972  1.00  0.00     0.039 A 
ATOM     39  C   UNL A   1      44.541  35.187  31.015  1.00  0.00     0.014 A 
ATOM     40  C   UNL A   1      43.963  35.848  28.750  1.00  0.00     0.014 A 
ATOM     41  C   UNL A   1      43.803  34.015  30.855  1.00  0.00     0.010 A 
ATOM     42  C   UNL A   1      43.215  34.686  28.592  1.00  0.00     0.010 A 
ATOM     43  C   UNL A   1      43.118  33.779  29.653  1.00  0.00    -0.014 A 
BRANCH  43  44
ATOM     44  C   UNL A   1      42.115  32.690  29.591  1.00  0.00     0.031 A 
ATOM     45  C   UNL A   1      42.719  31.448  28.865  1.00  0.00     0.074 A 
ATOM     46  C   UNL A   1      40.880  32.944  30.145  1.00  0.00     0.049 A 
ATOM     47  N   UNL A   1      42.145  30.557  28.120  1.00  0.00    -0.248 NA
ATOM     48  C   UNL A   1      44.198  31.219  28.879  1.00  0.00     0.031 C 
ATOM     49  C   UNL A   1      40.502  34.199  30.847  1.00  0.00     0.029 A 
ATOM     50  N   UNL A   1      39.698  32.232  30.254  1.00  0.00    -0.354 N 
ATOM     51  C   UNL A   1      43.103  29.560  27.792  1.00  0.00     0.074 A 
ATOM     52  C   UNL A   1      44.373  30.102  28.161  1.00  0.00     0.031 C 
ATOM     53  C   UNL A   1      39.197  34.191  31.214  1.00  0.00     0.029 A 
ATOM     54  C   UNL A   1      38.586  32.936  30.820  1.00  0.00     0.049 A 
ATOM     55  H   UNL A   1      39.625  31.295  29.961  1.00  0.00     0.167 HD
ATOM     56  C   UNL A   1      42.751  28.293  27.396  1.00  0.00     0.037 A 
ATOM     57  C   UNL A   1      37.271  32.543  30.922  1.00  0.00     0.037 A 
ATOM     58  C   UNL A   1      41.331  28.200  27.429  1.00  0.00     0.049 A 
ATOM     59  C   UNL A   1      37.284  31.139  30.510  1.00  0.00     0.074 A 
ATOM     60  C   UNL A   1      40.356  28.782  26.664  1.00  0.00     0.029 A 
ATOM     61  N   UNL A   1      40.795  27.763  28.620  1.00  0.00    -0.354 N 
ATOM     62  N   UNL A   1      37.760  30.169  31.227  1.00  0.00    -0.248 NA
ATOM     63  C   UNL A   1      36.779  30.798  29.175  1.00  0.00     0.031 C 
ATOM     64  C   UNL A   1      39.415  29.170  27.634  1.00  0.00     0.029 A 
ATOM     65  C   UNL A   1      39.683  28.523  28.848  1.00  0.00     0.049 A 
ATOM     66  H   UNL A   1      41.145  27.044  29.193  1.00  0.00     0.167 HD
ATOM     67  C   UNL A   1      37.947  29.193  30.285  1.00  0.00     0.074 A 
ATOM     68  C   UNL A   1      37.061  29.498  29.177  1.00  0.00     0.031 C 
ATOM     69  C   UNL A   1      39.175  28.624  30.190  1.00  0.00     0.037 A 
BRANCH  56  70
ATOM     70  C   UNL A   1      43.466  26.969  27.249  1.00  0.00     0.058 A 
ATOM     71  C   UNL A   1      43.798  26.553  25.927  1.00  0.00     0.135 A 
ATOM     72  C   UNL A   1      43.483  25.966  28.224  1.00  0.00     0.135 A 
ATOM     73  F   UNL A   1      43.895  27.448  24.927  1.00  0.00    -0.206 F 
ATOM     74  C   UNL A   1      43.943  25.219  25.567  1.00  0.00     0.059 A 
ATOM     75  C   UNL A   1      43.681  24.616  27.892  1.00  0.00     0.059 A 
ATOM     76  F   UNL A   1      43.231  26.251  29.508  1.00  0.00    -0.206 F 
ATOM     77  C   UNL A   1      43.845  24.250  26.555  1.00  0.00     0.060 A 
BRANCH  77  78
ATOM     78  S   UNL A   1      43.911  22.517  26.048  1.00  0.00     0.124 S 
ATOM     79  O   UNL A   1      45.341  22.236  26.126  1.00  0.00    -0.237 OA
ATOM     80  O   UNL A   1      43.084  21.867  27.061  1.00  0.00    -0.237 OA
ATOM     81  O   UNL A   1      43.339  22.539  24.705  1.00  0.00    -0.744 OA
ENDBRANCH  77  78
ENDBRANCH  56  70
BRANCH  57  82
ATOM     82  C   UNL A   1      35.866  33.075  31.202  1.00  0.00     0.058 A 
ATOM     83  C   UNL A   1      35.176  33.012  32.415  1.00  0.00     0.135 A 
ATOM     84  C   UNL A   1      35.245  33.930  30.232  1.00  0.00     0.135 A 
ATOM     85  F   UNL A   1      35.543  32.140  33.364  1.00  0.00    -0.206 F 
ATOM     86  C   UNL A   1      34.097  33.877  32.710  1.00  0.00     0.059 A 
ATOM     87  C   UNL A   1      34.237  34.844  30.520  1.00  0.00     0.059 A 
ATOM     88  F   UNL A   1      35.653  33.960  28.954  1.00  0.00    -0.206 F 
ATOM     89  C   UNL A   1      33.693  34.845  31.786  1.00  0.00     0.060 A 
BRANCH  89  90
ATOM     90  S   UNL A   1      32.598  36.205  32.267  1.00  0.00     0.124 S 
ATOM     91  O   UNL A   1      33.337  36.826  33.360  1.00  0.00    -0.237 OA
ATOM     92  O   UNL A   1      32.508  36.982  31.035  1.00  0.00    -0.237 OA
ATOM     93  O   UNL A   1      31.363  35.523  32.649  1.00  0.00    -0.744 OA
ENDBRANCH  89  90
ENDBRANCH  57  82
BRANCH  69  94
ATOM     94  C   UNL A   1      39.956  28.542  31.494  1.00  0.00     0.058 A 
ATOM     95  C   UNL A   1      39.410  27.827  32.576  1.00  0.00     0.135 A 
ATOM     96  C   UNL A   1      41.172  29.199  31.755  1.00  0.00     0.135 A 
ATOM     97  F   UNL A   1      38.255  27.159  32.421  1.00  0.00    -0.206 F 
ATOM     98  C   UNL A   1      40.023  27.768  33.831  1.00  0.00     0.059 A 
ATOM     99  C   UNL A   1      41.815  29.151  33.001  1.00  0.00     0.059 A 
ATOM    100  F   UNL A   1      41.774  29.918  30.806  1.00  0.00    -0.206 F 
ATOM    101  C   UNL A   1      41.232  28.427  34.036  1.00  0.00     0.060 A 
BRANCH 101 102
ATOM    102  S   UNL A   1      42.038  28.280  35.649  1.00  0.00     0.124 S 
ATOM    103  O   UNL A   1      43.454  28.304  35.296  1.00  0.00    -0.237 OA
ATOM    104  O   UNL A   1      41.543  29.461  36.348  1.00  0.00    -0.237 OA
ATOM    105  O   UNL A   1      41.552  27.002  36.164  1.00  0.00    -0.744 OA
ENDBRANCH 101 102
ENDBRANCH  69  94
ENDBRANCH  43  44
ENDBRANCH  35  38
ENDBRANCH  33  34
ENDBRANCH  32  33
ENDBRANCH  31  32
ENDBRANCH   1  31
TORSDOF 20
ENDMDL
