MODEL 1
REMARK VINA RESULT:     -11.1      0.000      0.000
REMARK SMILES C[NH2+][C@]1(C(=O)NCCCCNC(=O)c2ccc(-c3c4nc(c(-c5c(F)cc(S(=O)(=O)[O-])cc5F)c5ccc([nH]5)c(-c5c(F)cc(S(=O)(=O)[O-])cc5F)c5nc(c(-c6c(F)cc(S(=O)(=O)[O-])cc6F)c6ccc3[nH]6)C=C5)C=C4)cc2)CC[C@@H]([N@@H+](C)C[C@@H]2CCCCO2)C1
REMARK SMILES IDX 8 1 7 2 6 3 4 4 5 5 3 7 80 8 92 9 81 10 82 11 2 12 1 13
REMARK SMILES IDX 83 16 84 17 85 19 86 20 87 21 91 22 88 23 90 24 89 25 9 26
REMARK SMILES IDX 10 27 11 28 12 29 13 31 14 32 15 33 79 34 16 35 78 36 17 37
REMARK SMILES IDX 18 38 19 39 72 40 20 41 77 42 71 43 73 44 21 45 76 46 70 47
REMARK SMILES IDX 69 48 22 50 56 51 35 52 55 53 36 54 39 55 54 56 74 57 37 58
REMARK SMILES IDX 38 59 53 61 75 62 40 63 23 64 24 65 33 66 25 67 26 68 32 69
REMARK SMILES IDX 34 70 27 71 28 72 29 73 30 74 31 75 57 76 58 77 67 78 59 79
REMARK SMILES IDX 60 80 66 81 68 82 61 83 62 84 63 85 64 86 65 87 41 88 42 89
REMARK SMILES IDX 51 90 43 91 44 92 50 93 52 94 45 95 46 96 47 97 48 98 49 99
REMARK H PARENT 6 6 2 14 2 15 83 18 11 30 73 49 39 60
REMARK Flexibility Score: inf
ROOT
ATOM      1  C   UNL A   1      31.381  27.420  26.926  1.00  0.00     0.023 C 
ENDROOT
BRANCH   1   2
ATOM      2  C   UNL A   1      30.761  26.312  26.083  1.00  0.00     0.116 C 
BRANCH   2   3
ATOM      3  N   UNL A   1      30.431  26.762  24.752  1.00  0.00    -0.351 N 
ATOM      4  C   UNL A   1      30.763  26.355  23.509  1.00  0.00     0.281 C 
ATOM      5  O   UNL A   1      30.206  26.986  22.593  1.00  0.00    -0.268 OA
ATOM      6  H   UNL A   1      29.827  27.540  24.751  1.00  0.00     0.163 HD
BRANCH   4   7
ATOM      7  C   UNL A   1      31.751  25.199  23.116  1.00  0.00     0.181 C 
ATOM      8  C   UNL A   1      33.174  25.036  23.666  1.00  0.00     0.085 C 
ATOM      9  C   UNL A   1      31.023  23.903  23.594  1.00  0.00     0.144 C 
ATOM     10  C   UNL A   1      33.439  23.532  23.749  1.00  0.00     0.072 C 
ATOM     11  C   UNL A   1      32.081  22.839  23.928  1.00  0.00     0.191 C 
BRANCH   7  12
ATOM     12  N   UNL A   1      31.851  25.181  21.617  1.00  0.00    -0.336 N 
ATOM     13  C   UNL A   1      32.974  25.990  21.124  1.00  0.00     0.331 C 
ATOM     14  H   UNL A   1      31.980  24.217  21.308  1.00  0.00     0.346 HD
ATOM     15  H   UNL A   1      30.990  25.581  21.242  1.00  0.00     0.346 HD
ENDBRANCH   7  12
BRANCH  11  16
ATOM     16  N   UNL A   1      31.872  22.054  25.162  1.00  0.00    -0.333 N 
ATOM     17  C   UNL A   1      30.768  22.509  25.991  1.00  0.00     0.333 C 
ATOM     18  H   UNL A   1      32.743  22.324  25.620  1.00  0.00     0.348 HD
BRANCH  16  19
ATOM     19  C   UNL A   1      32.090  20.597  25.187  1.00  0.00     0.294 C 
BRANCH  19  20
ATOM     20  C   UNL A   1      32.921  19.944  24.060  1.00  0.00     0.173 C 
ATOM     21  C   UNL A   1      32.129  19.215  22.962  1.00  0.00     0.038 C 
ATOM     22  O   UNL A   1      34.087  19.310  24.589  1.00  0.00    -0.372 OA
ATOM     23  C   UNL A   1      32.503  17.760  22.698  1.00  0.00     0.005 C 
ATOM     24  C   UNL A   1      34.118  17.897  24.543  1.00  0.00     0.161 C 
ATOM     25  C   UNL A   1      33.925  17.435  23.115  1.00  0.00     0.029 C 
ENDBRANCH  19  20
ENDBRANCH  16  19
ENDBRANCH  11  16
ENDBRANCH   4   7
ENDBRANCH   2   3
ENDBRANCH   1   2
BRANCH   1  26
ATOM     26  C   UNL A   1      32.561  28.128  26.252  1.00  0.00     0.023 C 
BRANCH  26  27
ATOM     27  C   UNL A   1      33.710  28.525  27.178  1.00  0.00     0.116 C 
BRANCH  27  28
ATOM     28  N   UNL A   1      33.603  29.883  27.693  1.00  0.00    -0.352 N 
ATOM     29  C   UNL A   1      34.567  30.633  28.326  1.00  0.00     0.251 C 
ATOM     30  H   UNL A   1      32.730  30.321  27.573  1.00  0.00     0.163 HD
ATOM     31  O   UNL A   1      34.292  31.741  28.778  1.00  0.00    -0.269 OA
BRANCH  29  32
ATOM     32  C   UNL A   1      35.922  30.070  28.491  1.00  0.00     0.039 A 
ATOM     33  C   UNL A   1      36.794  30.079  27.400  1.00  0.00     0.014 A 
ATOM     34  C   UNL A   1      36.343  29.589  29.733  1.00  0.00     0.014 A 
ATOM     35  C   UNL A   1      38.120  29.677  27.579  1.00  0.00     0.010 A 
ATOM     36  C   UNL A   1      37.680  29.253  29.923  1.00  0.00     0.010 A 
ATOM     37  C   UNL A   1      38.583  29.301  28.850  1.00  0.00    -0.014 A 
BRANCH  37  38
ATOM     38  C   UNL A   1      40.011  28.972  29.085  1.00  0.00     0.031 A 
ATOM     39  C   UNL A   1      40.949  30.020  29.619  1.00  0.00     0.074 A 
ATOM     40  C   UNL A   1      40.480  27.755  28.740  1.00  0.00     0.049 A 
ATOM     41  N   UNL A   1      42.241  29.950  29.811  1.00  0.00    -0.248 NA
ATOM     42  C   UNL A   1      40.362  31.328  29.951  1.00  0.00     0.031 C 
ATOM     43  C   UNL A   1      39.682  26.674  28.156  1.00  0.00     0.029 A 
ATOM     44  N   UNL A   1      41.744  27.227  28.818  1.00  0.00    -0.354 N 
ATOM     45  C   UNL A   1      42.624  31.206  30.266  1.00  0.00     0.074 A 
ATOM     46  C   UNL A   1      41.436  32.032  30.276  1.00  0.00     0.031 C 
ATOM     47  C   UNL A   1      40.471  25.608  27.945  1.00  0.00     0.029 A 
ATOM     48  C   UNL A   1      41.835  25.938  28.347  1.00  0.00     0.049 A 
ATOM     49  H   UNL A   1      42.514  27.725  29.177  1.00  0.00     0.167 HD
ATOM     50  C   UNL A   1      43.849  31.625  30.662  1.00  0.00     0.037 A 
ATOM     51  C   UNL A   1      42.898  25.117  28.244  1.00  0.00     0.037 A 
ATOM     52  C   UNL A   1      45.020  30.788  30.682  1.00  0.00     0.049 A 
ATOM     53  C   UNL A   1      44.244  25.597  28.714  1.00  0.00     0.074 A 
ATOM     54  C   UNL A   1      46.291  31.099  31.132  1.00  0.00     0.029 A 
ATOM     55  N   UNL A   1      45.063  29.475  30.236  1.00  0.00    -0.354 N 
ATOM     56  N   UNL A   1      44.574  26.766  29.207  1.00  0.00    -0.248 NA
ATOM     57  C   UNL A   1      45.359  24.645  28.622  1.00  0.00     0.031 C 
ATOM     58  C   UNL A   1      47.112  29.985  30.925  1.00  0.00     0.029 A 
ATOM     59  C   UNL A   1      46.342  28.966  30.384  1.00  0.00     0.049 A 
ATOM     60  H   UNL A   1      44.297  28.980  29.867  1.00  0.00     0.167 HD
ATOM     61  C   UNL A   1      45.929  26.683  29.506  1.00  0.00     0.074 A 
ATOM     62  C   UNL A   1      46.354  25.344  29.149  1.00  0.00     0.031 C 
ATOM     63  C   UNL A   1      46.746  27.629  30.030  1.00  0.00     0.037 A 
BRANCH  50  64
ATOM     64  C   UNL A   1      43.983  33.054  31.112  1.00  0.00     0.058 A 
ATOM     65  C   UNL A   1      43.816  33.419  32.458  1.00  0.00     0.135 A 
ATOM     66  C   UNL A   1      44.310  34.065  30.195  1.00  0.00     0.135 A 
ATOM     67  F   UNL A   1      43.489  32.494  33.374  1.00  0.00    -0.206 F 
ATOM     68  C   UNL A   1      43.939  34.741  32.873  1.00  0.00     0.059 A 
ATOM     69  C   UNL A   1      44.463  35.391  30.593  1.00  0.00     0.059 A 
ATOM     70  F   UNL A   1      44.479  33.772  28.896  1.00  0.00    -0.206 F 
ATOM     71  C   UNL A   1      44.259  35.720  31.933  1.00  0.00     0.060 A 
BRANCH  71  72
ATOM     72  S   UNL A   1      44.416  37.430  32.488  1.00  0.00     0.124 S 
ATOM     73  O   UNL A   1      43.406  37.486  33.542  1.00  0.00    -0.237 OA
ATOM     74  O   UNL A   1      45.803  37.489  32.937  1.00  0.00    -0.237 OA
ATOM     75  O   UNL A   1      44.114  38.206  31.290  1.00  0.00    -0.744 OA
ENDBRANCH  71  72
ENDBRANCH  50  64
BRANCH  51  76
ATOM     76  C   UNL A   1      42.723  23.744  27.697  1.00  0.00     0.058 A 
ATOM     77  C   UNL A   1      42.535  22.649  28.553  1.00  0.00     0.135 A 
ATOM     78  C   UNL A   1      42.719  23.504  26.316  1.00  0.00     0.135 A 
ATOM     79  F   UNL A   1      42.537  22.829  29.883  1.00  0.00    -0.206 F 
ATOM     80  C   UNL A   1      42.361  21.360  28.060  1.00  0.00     0.059 A 
ATOM     81  C   UNL A   1      42.525  22.227  25.796  1.00  0.00     0.059 A 
ATOM     82  F   UNL A   1      42.878  24.522  25.455  1.00  0.00    -0.206 F 
ATOM     83  C   UNL A   1      42.355  21.160  26.678  1.00  0.00     0.060 A 
BRANCH  83  84
ATOM     84  S   UNL A   1      42.070  19.492  26.045  1.00  0.00     0.124 S 
ATOM     85  O   UNL A   1      42.914  19.482  24.856  1.00  0.00    -0.237 OA
ATOM     86  O   UNL A   1      42.521  18.660  27.157  1.00  0.00    -0.237 OA
ATOM     87  O   UNL A   1      40.631  19.468  25.800  1.00  0.00    -0.744 OA
ENDBRANCH  83  84
ENDBRANCH  51  76
BRANCH  63  88
ATOM     88  C   UNL A   1      48.178  27.245  30.280  1.00  0.00     0.058 A 
ATOM     89  C   UNL A   1      49.187  27.515  29.343  1.00  0.00     0.135 A 
ATOM     90  C   UNL A   1      48.551  26.650  31.496  1.00  0.00     0.135 A 
ATOM     91  F   UNL A   1      48.881  28.077  28.163  1.00  0.00    -0.206 F 
ATOM     92  C   UNL A   1      50.516  27.190  29.595  1.00  0.00     0.059 A 
ATOM     93  C   UNL A   1      49.877  26.340  31.779  1.00  0.00     0.059 A 
ATOM     94  F   UNL A   1      47.625  26.380  32.429  1.00  0.00    -0.206 F 
ATOM     95  C   UNL A   1      50.852  26.604  30.817  1.00  0.00     0.060 A 
BRANCH  95  96
ATOM     96  S   UNL A   1      52.585  26.221  31.149  1.00  0.00     0.124 S 
ATOM     97  O   UNL A   1      52.992  27.374  31.946  1.00  0.00    -0.237 OA
ATOM     98  O   UNL A   1      52.495  24.955  31.867  1.00  0.00    -0.237 OA
ATOM     99  O   UNL A   1      53.175  26.139  29.817  1.00  0.00    -0.744 OA
ENDBRANCH  95  96
ENDBRANCH  63  88
ENDBRANCH  37  38
ENDBRANCH  29  32
ENDBRANCH  27  28
ENDBRANCH  26  27
ENDBRANCH   1  26
TORSDOF 18
ENDMDL
MODEL 2
REMARK VINA RESULT:     -11.0      4.978     10.849
REMARK SMILES C[NH2+][C@]1(C(=O)NCCCCNC(=O)c2ccc(-c3c4nc(c(-c5c(F)cc(S(=O)(=O)[O-])cc5F)c5ccc([nH]5)c(-c5c(F)cc(S(=O)(=O)[O-])cc5F)c5nc(c(-c6c(F)cc(S(=O)(=O)[O-])cc6F)c6ccc3[nH]6)C=C5)C=C4)cc2)CC[C@@H]([N@@H+](C)C[C@@H]2CCCCO2)C1
REMARK SMILES IDX 8 1 7 2 6 3 4 4 5 5 3 7 80 8 92 9 81 10 82 11 2 12 1 13
REMARK SMILES IDX 83 16 84 17 85 19 86 20 87 21 91 22 88 23 90 24 89 25 9 26
REMARK SMILES IDX 10 27 11 28 12 29 13 31 14 32 15 33 79 34 16 35 78 36 17 37
REMARK SMILES IDX 18 38 19 39 72 40 20 41 77 42 71 43 73 44 21 45 76 46 70 47
REMARK SMILES IDX 69 48 22 50 56 51 35 52 55 53 36 54 39 55 54 56 74 57 37 58
REMARK SMILES IDX 38 59 53 61 75 62 40 63 23 64 24 65 33 66 25 67 26 68 32 69
REMARK SMILES IDX 34 70 27 71 28 72 29 73 30 74 31 75 57 76 58 77 67 78 59 79
REMARK SMILES IDX 60 80 66 81 68 82 61 83 62 84 63 85 64 86 65 87 41 88 42 89
REMARK SMILES IDX 51 90 43 91 44 92 50 93 52 94 45 95 46 96 47 97 48 98 49 99
REMARK H PARENT 6 6 2 14 2 15 83 18 11 30 73 49 39 60
REMARK Flexibility Score: inf
ROOT
ATOM      1  C   UNL A   1      37.194  22.071  25.379  1.00  0.00     0.023 C 
ENDROOT
BRANCH   1   2
ATOM      2  C   UNL A   1      35.728  21.662  25.452  1.00  0.00     0.116 C 
BRANCH   2   3
ATOM      3  N   UNL A   1      35.032  21.907  24.212  1.00  0.00    -0.351 N 
ATOM      4  C   UNL A   1      33.913  22.582  23.876  1.00  0.00     0.281 C 
ATOM      5  O   UNL A   1      33.674  22.609  22.654  1.00  0.00    -0.268 OA
ATOM      6  H   UNL A   1      35.473  21.487  23.438  1.00  0.00     0.163 HD
BRANCH   4   7
ATOM      7  C   UNL A   1      32.916  23.317  24.840  1.00  0.00     0.181 C 
ATOM      8  C   UNL A   1      33.304  23.964  26.176  1.00  0.00     0.085 C 
ATOM      9  C   UNL A   1      32.386  24.516  23.993  1.00  0.00     0.144 C 
ATOM     10  C   UNL A   1      32.397  25.183  26.349  1.00  0.00     0.072 C 
ATOM     11  C   UNL A   1      32.001  25.660  24.945  1.00  0.00     0.191 C 
BRANCH   7  12
ATOM     12  N   UNL A   1      31.780  22.373  25.120  1.00  0.00    -0.336 N 
ATOM     13  C   UNL A   1      32.233  20.983  25.265  1.00  0.00     0.331 C 
ATOM     14  H   UNL A   1      31.320  22.661  25.984  1.00  0.00     0.346 HD
ATOM     15  H   UNL A   1      31.140  22.412  24.326  1.00  0.00     0.346 HD
ENDBRANCH   7  12
BRANCH  11  16
ATOM     16  N   UNL A   1      32.404  27.023  24.548  1.00  0.00    -0.333 N 
ATOM     17  C   UNL A   1      32.236  27.319  23.134  1.00  0.00     0.333 C 
ATOM     18  H   UNL A   1      33.401  26.907  24.729  1.00  0.00     0.348 HD
BRANCH  16  19
ATOM     19  C   UNL A   1      32.184  28.177  25.439  1.00  0.00     0.294 C 
BRANCH  19  20
ATOM     20  C   UNL A   1      33.350  29.158  25.694  1.00  0.00     0.173 C 
ATOM     21  C   UNL A   1      34.532  28.614  26.514  1.00  0.00     0.038 C 
ATOM     22  O   UNL A   1      32.859  30.464  25.997  1.00  0.00    -0.372 OA
ATOM     23  C   UNL A   1      34.928  29.409  27.754  1.00  0.00     0.005 C 
ATOM     24  C   UNL A   1      33.042  30.920  27.323  1.00  0.00     0.161 C 
ATOM     25  C   UNL A   1      34.513  30.866  27.676  1.00  0.00     0.029 C 
ENDBRANCH  19  20
ENDBRANCH  16  19
ENDBRANCH  11  16
ENDBRANCH   4   7
ENDBRANCH   2   3
ENDBRANCH   1   2
BRANCH   1  26
ATOM     26  C   UNL A   1      37.420  23.586  25.427  1.00  0.00     0.023 C 
BRANCH  26  27
ATOM     27  C   UNL A   1      38.339  24.082  26.543  1.00  0.00     0.116 C 
BRANCH  27  28
ATOM     28  N   UNL A   1      39.754  23.867  26.274  1.00  0.00    -0.352 N 
ATOM     29  C   UNL A   1      40.829  24.594  26.730  1.00  0.00     0.251 C 
ATOM     30  H   UNL A   1      39.969  23.103  25.692  1.00  0.00     0.163 HD
ATOM     31  O   UNL A   1      41.963  24.332  26.343  1.00  0.00    -0.269 OA
BRANCH  29  32
ATOM     32  C   UNL A   1      40.592  25.719  27.658  1.00  0.00     0.039 A 
ATOM     33  C   UNL A   1      39.603  25.593  28.635  1.00  0.00     0.014 A 
ATOM     34  C   UNL A   1      41.386  26.867  27.594  1.00  0.00     0.014 A 
ATOM     35  C   UNL A   1      39.463  26.590  29.603  1.00  0.00     0.010 A 
ATOM     36  C   UNL A   1      41.288  27.826  28.598  1.00  0.00     0.010 A 
ATOM     37  C   UNL A   1      40.332  27.693  29.616  1.00  0.00    -0.014 A 
BRANCH  37  38
ATOM     38  C   UNL A   1      40.270  28.710  30.696  1.00  0.00     0.031 A 
ATOM     39  C   UNL A   1      41.149  28.577  31.909  1.00  0.00     0.074 A 
ATOM     40  C   UNL A   1      39.366  29.708  30.620  1.00  0.00     0.049 A 
ATOM     41  N   UNL A   1      41.181  29.313  32.990  1.00  0.00    -0.248 NA
ATOM     42  C   UNL A   1      42.095  27.449  31.922  1.00  0.00     0.031 C 
ATOM     43  C   UNL A   1      38.417  29.909  29.523  1.00  0.00     0.029 A 
ATOM     44  N   UNL A   1      39.088  30.732  31.490  1.00  0.00    -0.354 N 
ATOM     45  C   UNL A   1      42.132  28.728  33.818  1.00  0.00     0.074 A 
ATOM     46  C   UNL A   1      42.618  27.549  33.135  1.00  0.00     0.031 C 
ATOM     47  C   UNL A   1      37.674  30.998  29.777  1.00  0.00     0.029 A 
ATOM     48  C   UNL A   1      38.069  31.555  31.068  1.00  0.00     0.049 A 
ATOM     49  H   UNL A   1      39.571  30.866  32.337  1.00  0.00     0.167 HD
ATOM     50  C   UNL A   1      42.574  29.149  35.027  1.00  0.00     0.037 A 
ATOM     51  C   UNL A   1      37.512  32.631  31.656  1.00  0.00     0.037 A 
ATOM     52  C   UNL A   1      42.110  30.341  35.685  1.00  0.00     0.049 A 
ATOM     53  C   UNL A   1      38.039  33.094  32.987  1.00  0.00     0.074 A 
ATOM     54  C   UNL A   1      42.547  30.891  36.878  1.00  0.00     0.029 A 
ATOM     55  N   UNL A   1      41.106  31.171  35.206  1.00  0.00    -0.354 N 
ATOM     56  N   UNL A   1      38.987  32.568  33.724  1.00  0.00    -0.248 NA
ATOM     57  C   UNL A   1      37.427  34.299  33.562  1.00  0.00     0.031 C 
ATOM     58  C   UNL A   1      41.782  32.033  37.138  1.00  0.00     0.029 A 
ATOM     59  C   UNL A   1      40.898  32.219  36.086  1.00  0.00     0.049 A 
ATOM     60  H   UNL A   1      40.615  31.034  34.365  1.00  0.00     0.167 HD
ATOM     61  C   UNL A   1      39.102  33.390  34.839  1.00  0.00     0.074 A 
ATOM     62  C   UNL A   1      38.134  34.457  34.672  1.00  0.00     0.031 C 
ATOM     63  C   UNL A   1      39.935  33.275  35.902  1.00  0.00     0.037 A 
BRANCH  50  64
ATOM     64  C   UNL A   1      43.620  28.314  35.712  1.00  0.00     0.058 A 
ATOM     65  C   UNL A   1      44.990  28.512  35.475  1.00  0.00     0.135 A 
ATOM     66  C   UNL A   1      43.252  27.325  36.638  1.00  0.00     0.135 A 
ATOM     67  F   UNL A   1      45.397  29.434  34.588  1.00  0.00    -0.206 F 
ATOM     68  C   UNL A   1      45.957  27.738  36.109  1.00  0.00     0.059 A 
ATOM     69  C   UNL A   1      44.204  26.557  37.304  1.00  0.00     0.059 A 
ATOM     70  F   UNL A   1      41.957  27.093  36.902  1.00  0.00    -0.206 F 
ATOM     71  C   UNL A   1      45.555  26.761  37.019  1.00  0.00     0.060 A 
BRANCH  71  72
ATOM     72  S   UNL A   1      46.822  25.767  37.833  1.00  0.00     0.124 S 
ATOM     73  O   UNL A   1      47.883  26.751  38.026  1.00  0.00    -0.237 OA
ATOM     74  O   UNL A   1      46.141  25.324  39.046  1.00  0.00    -0.237 OA
ATOM     75  O   UNL A   1      47.108  24.718  36.861  1.00  0.00    -0.744 OA
ENDBRANCH  71  72
ENDBRANCH  50  64
BRANCH  51  76
ATOM     76  C   UNL A   1      36.410  33.361  30.974  1.00  0.00     0.058 A 
ATOM     77  C   UNL A   1      36.664  34.148  29.841  1.00  0.00     0.135 A 
ATOM     78  C   UNL A   1      35.085  33.269  31.424  1.00  0.00     0.135 A 
ATOM     79  F   UNL A   1      37.917  34.271  29.376  1.00  0.00    -0.206 F 
ATOM     80  C   UNL A   1      35.644  34.831  29.185  1.00  0.00     0.059 A 
ATOM     81  C   UNL A   1      34.044  33.924  30.772  1.00  0.00     0.059 A 
ATOM     82  F   UNL A   1      34.789  32.514  32.493  1.00  0.00    -0.206 F 
ATOM     83  C   UNL A   1      34.337  34.710  29.657  1.00  0.00     0.060 A 
BRANCH  83  84
ATOM     84  S   UNL A   1      33.011  35.553  28.764  1.00  0.00     0.124 S 
ATOM     85  O   UNL A   1      32.439  34.459  27.988  1.00  0.00    -0.237 OA
ATOM     86  O   UNL A   1      32.184  36.065  29.853  1.00  0.00    -0.237 OA
ATOM     87  O   UNL A   1      33.720  36.571  27.995  1.00  0.00    -0.744 OA
ENDBRANCH  83  84
ENDBRANCH  51  76
BRANCH  63  88
ATOM     88  C   UNL A   1      39.861  34.343  36.958  1.00  0.00     0.058 A 
ATOM     89  C   UNL A   1      40.610  35.526  36.861  1.00  0.00     0.135 A 
ATOM     90  C   UNL A   1      38.988  34.203  38.048  1.00  0.00     0.135 A 
ATOM     91  F   UNL A   1      41.463  35.705  35.841  1.00  0.00    -0.206 F 
ATOM     92  C   UNL A   1      40.510  36.527  37.822  1.00  0.00     0.059 A 
ATOM     93  C   UNL A   1      38.853  35.202  39.008  1.00  0.00     0.059 A 
ATOM     94  F   UNL A   1      38.243  33.095  38.181  1.00  0.00    -0.206 F 
ATOM     95  C   UNL A   1      39.628  36.357  38.892  1.00  0.00     0.060 A 
BRANCH  95  96
ATOM     96  S   UNL A   1      39.478  37.679  40.112  1.00  0.00     0.124 S 
ATOM     97  O   UNL A   1      40.771  38.344  39.983  1.00  0.00    -0.237 OA
ATOM     98  O   UNL A   1      38.328  38.430  39.621  1.00  0.00    -0.237 OA
ATOM     99  O   UNL A   1      39.262  36.962  41.364  1.00  0.00    -0.744 OA
ENDBRANCH  95  96
ENDBRANCH  63  88
ENDBRANCH  37  38
ENDBRANCH  29  32
ENDBRANCH  27  28
ENDBRANCH  26  27
ENDBRANCH   1  26
TORSDOF 18
ENDMDL
MODEL 3
REMARK VINA RESULT:     -10.9      2.619      3.552
REMARK SMILES C[NH2+][C@]1(C(=O)NCCCCNC(=O)c2ccc(-c3c4nc(c(-c5c(F)cc(S(=O)(=O)[O-])cc5F)c5ccc([nH]5)c(-c5c(F)cc(S(=O)(=O)[O-])cc5F)c5nc(c(-c6c(F)cc(S(=O)(=O)[O-])cc6F)c6ccc3[nH]6)C=C5)C=C4)cc2)CC[C@@H]([N@@H+](C)C[C@@H]2CCCCO2)C1
REMARK SMILES IDX 8 1 7 2 6 3 4 4 5 5 3 7 80 8 92 9 81 10 82 11 2 12 1 13
REMARK SMILES IDX 83 16 84 17 85 19 86 20 87 21 91 22 88 23 90 24 89 25 9 26
REMARK SMILES IDX 10 27 11 28 12 29 13 31 14 32 15 33 79 34 16 35 78 36 17 37
REMARK SMILES IDX 18 38 19 39 72 40 20 41 77 42 71 43 73 44 21 45 76 46 70 47
REMARK SMILES IDX 69 48 22 50 56 51 35 52 55 53 36 54 39 55 54 56 74 57 37 58
REMARK SMILES IDX 38 59 53 61 75 62 40 63 23 64 24 65 33 66 25 67 26 68 32 69
REMARK SMILES IDX 34 70 27 71 28 72 29 73 30 74 31 75 57 76 58 77 67 78 59 79
REMARK SMILES IDX 60 80 66 81 68 82 61 83 62 84 63 85 64 86 65 87 41 88 42 89
REMARK SMILES IDX 51 90 43 91 44 92 50 93 52 94 45 95 46 96 47 97 48 98 49 99
REMARK H PARENT 6 6 2 14 2 15 83 18 11 30 73 49 39 60
REMARK Flexibility Score: inf
ROOT
ATOM      1  C   UNL A   1      33.950  28.652  25.396  1.00  0.00     0.023 C 
ENDROOT
BRANCH   1   2
ATOM      2  C   UNL A   1      33.515  27.198  25.535  1.00  0.00     0.116 C 
BRANCH   2   3
ATOM      3  N   UNL A   1      33.670  26.463  24.303  1.00  0.00    -0.351 N 
ATOM      4  C   UNL A   1      34.053  25.206  23.996  1.00  0.00     0.281 C 
ATOM      5  O   UNL A   1      33.995  24.930  22.784  1.00  0.00    -0.268 OA
ATOM      6  H   UNL A   1      33.447  26.999  23.508  1.00  0.00     0.163 HD
BRANCH   4   7
ATOM      7  C   UNL A   1      34.546  24.090  24.985  1.00  0.00     0.181 C 
ATOM      8  C   UNL A   1      34.191  24.021  26.477  1.00  0.00     0.085 C 
ATOM      9  C   UNL A   1      33.938  22.775  24.403  1.00  0.00     0.144 C 
ATOM     10  C   UNL A   1      34.103  22.538  26.835  1.00  0.00     0.072 C 
ATOM     11  C   UNL A   1      33.722  21.780  25.555  1.00  0.00     0.191 C 
BRANCH   7  12
ATOM     12  N   UNL A   1      36.043  24.026  24.884  1.00  0.00    -0.336 N 
ATOM     13  C   UNL A   1      36.492  23.116  23.820  1.00  0.00     0.331 C 
ATOM     14  H   UNL A   1      36.399  24.961  24.688  1.00  0.00     0.346 HD
ATOM     15  H   UNL A   1      36.401  23.669  25.771  1.00  0.00     0.346 HD
ENDBRANCH   7  12
BRANCH  11  16
ATOM     16  N   UNL A   1      32.451  21.029  25.560  1.00  0.00    -0.333 N 
ATOM     17  C   UNL A   1      31.256  21.857  25.611  1.00  0.00     0.333 C 
ATOM     18  H   UNL A   1      32.574  20.597  26.475  1.00  0.00     0.348 HD
BRANCH  16  19
ATOM     19  C   UNL A   1      32.294  19.786  24.784  1.00  0.00     0.294 C 
BRANCH  19  20
ATOM     20  C   UNL A   1      33.305  18.637  24.999  1.00  0.00     0.173 C 
ATOM     21  C   UNL A   1      33.966  18.064  23.735  1.00  0.00     0.038 C 
ATOM     22  O   UNL A   1      32.833  17.723  25.991  1.00  0.00    -0.372 OA
ATOM     23  C   UNL A   1      33.843  16.559  23.519  1.00  0.00     0.005 C 
ATOM     24  C   UNL A   1      32.456  16.437  25.541  1.00  0.00     0.161 C 
ATOM     25  C   UNL A   1      33.617  15.797  24.812  1.00  0.00     0.029 C 
ENDBRANCH  19  20
ENDBRANCH  16  19
ENDBRANCH  11  16
ENDBRANCH   4   7
ENDBRANCH   2   3
ENDBRANCH   1   2
BRANCH   1  26
ATOM     26  C   UNL A   1      33.904  29.442  26.708  1.00  0.00     0.023 C 
BRANCH  26  27
ATOM     27  C   UNL A   1      35.109  29.262  27.630  1.00  0.00     0.116 C 
BRANCH  27  28
ATOM     28  N   UNL A   1      35.179  30.247  28.700  1.00  0.00    -0.352 N 
ATOM     29  C   UNL A   1      36.267  30.596  29.467  1.00  0.00     0.251 C 
ATOM     30  H   UNL A   1      34.342  30.724  28.901  1.00  0.00     0.163 HD
ATOM     31  O   UNL A   1      36.142  31.392  30.393  1.00  0.00    -0.269 OA
BRANCH  29  32
ATOM     32  C   UNL A   1      37.574  29.968  29.187  1.00  0.00     0.039 A 
ATOM     33  C   UNL A   1      37.963  29.780  27.860  1.00  0.00     0.014 A 
ATOM     34  C   UNL A   1      38.432  29.622  30.235  1.00  0.00     0.014 A 
ATOM     35  C   UNL A   1      39.250  29.316  27.580  1.00  0.00     0.010 A 
ATOM     36  C   UNL A   1      39.735  29.224  29.952  1.00  0.00     0.010 A 
ATOM     37  C   UNL A   1      40.159  29.074  28.623  1.00  0.00    -0.014 A 
BRANCH  37  38
ATOM     38  C   UNL A   1      41.564  28.683  28.346  1.00  0.00     0.031 A 
ATOM     39  C   UNL A   1      42.648  29.726  28.324  1.00  0.00     0.074 A 
ATOM     40  C   UNL A   1      41.850  27.403  28.035  1.00  0.00     0.049 A 
ATOM     41  N   UNL A   1      43.914  29.595  28.021  1.00  0.00    -0.248 NA
ATOM     42  C   UNL A   1      42.249  31.104  28.655  1.00  0.00     0.031 C 
ATOM     43  C   UNL A   1      40.876  26.310  27.964  1.00  0.00     0.029 A 
ATOM     44  N   UNL A   1      43.040  26.805  27.706  1.00  0.00    -0.354 N 
ATOM     45  C   UNL A   1      44.457  30.871  28.105  1.00  0.00     0.074 A 
ATOM     46  C   UNL A   1      43.374  31.770  28.441  1.00  0.00     0.031 C 
ATOM     47  C   UNL A   1      41.510  25.175  27.631  1.00  0.00     0.029 A 
ATOM     48  C   UNL A   1      42.928  25.461  27.433  1.00  0.00     0.049 A 
ATOM     49  H   UNL A   1      43.895  27.291  27.669  1.00  0.00     0.167 HD
ATOM     50  C   UNL A   1      45.745  31.255  27.941  1.00  0.00     0.037 A 
ATOM     51  C   UNL A   1      43.860  24.563  27.059  1.00  0.00     0.037 A 
ATOM     52  C   UNL A   1      46.824  30.350  27.641  1.00  0.00     0.049 A 
ATOM     53  C   UNL A   1      45.289  25.008  26.909  1.00  0.00     0.074 A 
ATOM     54  C   UNL A   1      48.174  30.630  27.525  1.00  0.00     0.029 A 
ATOM     55  N   UNL A   1      46.676  28.990  27.413  1.00  0.00    -0.354 N 
ATOM     56  N   UNL A   1      45.797  26.207  27.060  1.00  0.00    -0.248 NA
ATOM     57  C   UNL A   1      46.271  23.978  26.544  1.00  0.00     0.031 C 
ATOM     58  C   UNL A   1      48.839  29.445  27.191  1.00  0.00     0.029 A 
ATOM     59  C   UNL A   1      47.908  28.419  27.140  1.00  0.00     0.049 A 
ATOM     60  H   UNL A   1      45.822  28.503  27.439  1.00  0.00     0.167 HD
ATOM     61  C   UNL A   1      47.162  26.073  26.833  1.00  0.00     0.074 A 
ATOM     62  C   UNL A   1      47.401  24.673  26.546  1.00  0.00     0.031 C 
ATOM     63  C   UNL A   1      48.129  27.022  26.862  1.00  0.00     0.037 A 
BRANCH  50  64
ATOM     64  C   UNL A   1      46.059  32.718  28.089  1.00  0.00     0.058 A 
ATOM     65  C   UNL A   1      45.886  33.618  27.025  1.00  0.00     0.135 A 
ATOM     66  C   UNL A   1      46.510  33.232  29.315  1.00  0.00     0.135 A 
ATOM     67  F   UNL A   1      45.472  33.177  25.826  1.00  0.00    -0.206 F 
ATOM     68  C   UNL A   1      46.179  34.971  27.162  1.00  0.00     0.059 A 
ATOM     69  C   UNL A   1      46.784  34.587  29.482  1.00  0.00     0.059 A 
ATOM     70  F   UNL A   1      46.693  32.416  30.365  1.00  0.00    -0.206 F 
ATOM     71  C   UNL A   1      46.630  35.446  28.394  1.00  0.00     0.060 A 
BRANCH  71  72
ATOM     72  S   UNL A   1      47.004  37.204  28.556  1.00  0.00     0.124 S 
ATOM     73  O   UNL A   1      48.236  37.166  29.337  1.00  0.00    -0.237 OA
ATOM     74  O   UNL A   1      47.148  37.623  27.166  1.00  0.00    -0.237 OA
ATOM     75  O   UNL A   1      45.837  37.738  29.251  1.00  0.00    -0.744 OA
ENDBRANCH  71  72
ENDBRANCH  50  64
BRANCH  51  76
ATOM     76  C   UNL A   1      43.472  23.145  26.830  1.00  0.00     0.058 A 
ATOM     77  C   UNL A   1      43.367  22.631  25.529  1.00  0.00     0.135 A 
ATOM     78  C   UNL A   1      43.221  22.275  27.901  1.00  0.00     0.135 A 
ATOM     79  F   UNL A   1      43.591  23.427  24.473  1.00  0.00    -0.206 F 
ATOM     80  C   UNL A   1      43.014  21.305  25.296  1.00  0.00     0.059 A 
ATOM     81  C   UNL A   1      42.889  20.939  27.695  1.00  0.00     0.059 A 
ATOM     82  F   UNL A   1      43.326  22.716  29.164  1.00  0.00    -0.206 F 
ATOM     83  C   UNL A   1      42.779  20.466  26.387  1.00  0.00     0.060 A 
BRANCH  83  84
ATOM     84  S   UNL A   1      42.379  18.732  26.076  1.00  0.00     0.124 S 
ATOM     85  O   UNL A   1      40.989  18.825  25.645  1.00  0.00    -0.237 OA
ATOM     86  O   UNL A   1      43.346  18.373  25.043  1.00  0.00    -0.237 OA
ATOM     87  O   UNL A   1      42.598  18.100  27.374  1.00  0.00    -0.744 OA
ENDBRANCH  83  84
ENDBRANCH  51  76
BRANCH  63  88
ATOM     88  C   UNL A   1      49.543  26.578  26.606  1.00  0.00     0.058 A 
ATOM     89  C   UNL A   1      50.339  26.034  27.626  1.00  0.00     0.135 A 
ATOM     90  C   UNL A   1      50.084  26.645  25.313  1.00  0.00     0.135 A 
ATOM     91  F   UNL A   1      49.869  25.954  28.881  1.00  0.00    -0.206 F 
ATOM     92  C   UNL A   1      51.634  25.591  27.375  1.00  0.00     0.059 A 
ATOM     93  C   UNL A   1      51.367  26.185  25.034  1.00  0.00     0.059 A 
ATOM     94  F   UNL A   1      49.359  27.148  24.301  1.00  0.00    -0.206 F 
ATOM     95  C   UNL A   1      52.139  25.669  26.075  1.00  0.00     0.060 A 
BRANCH  95  96
ATOM     96  S   UNL A   1      53.806  25.055  25.754  1.00  0.00     0.124 S 
ATOM     97  O   UNL A   1      54.436  25.222  27.060  1.00  0.00    -0.237 OA
ATOM     98  O   UNL A   1      53.559  23.677  25.342  1.00  0.00    -0.237 OA
ATOM     99  O   UNL A   1      54.296  25.939  24.702  1.00  0.00    -0.744 OA
ENDBRANCH  95  96
ENDBRANCH  63  88
ENDBRANCH  37  38
ENDBRANCH  29  32
ENDBRANCH  27  28
ENDBRANCH  26  27
ENDBRANCH   1  26
TORSDOF 18
ENDMDL
