MODEL 1
REMARK VINA RESULT:     -11.6      0.000      0.000
REMARK SMILES CCC(CC)(NC(=O)c1ccc(NC(C)=O)cc1)C(=O)NCCCCNC(=O)c1ccc(-c2c3nc(c(-c4c(F)cc(S(=O)(=O)[O-])cc4F)c4ccc([nH]4)c(-c4c(F)cc(S(=O)(=O)[O-])cc4F)c4nc(c(-c5c(F)cc(S(=O)(=O)[O-])cc5F)c5ccc2[nH]5)C=C4)C=C3)cc1
REMARK SMILES IDX 23 1 22 2 21 3 19 4 20 5 3 7 2 8 1 9 4 10 5 11 6 12 7 13
REMARK SMILES IDX 8 15 9 16 10 17 18 18 11 19 17 20 12 21 13 22 14 23 15 25
REMARK SMILES IDX 16 26 24 27 25 28 26 29 27 30 28 32 29 33 30 34 94 35 31 36
REMARK SMILES IDX 93 37 32 38 33 39 34 40 87 41 35 42 92 43 86 44 88 45 36 46
REMARK SMILES IDX 91 47 85 48 84 49 37 51 71 52 50 53 70 54 51 55 54 56 69 57
REMARK SMILES IDX 89 58 52 59 53 60 68 62 90 63 55 64 38 65 39 66 48 67 40 68
REMARK SMILES IDX 41 69 47 70 49 71 42 72 43 73 44 74 45 75 46 76 72 77 73 78
REMARK SMILES IDX 82 79 74 80 75 81 81 82 83 83 76 84 77 85 78 86 79 87 80 88
REMARK SMILES IDX 56 89 57 90 66 91 58 92 59 93 65 94 67 95 60 96 61 97 62 98
REMARK SMILES IDX 63 99 64 100
REMARK H PARENT 21 6 6 14 13 24 26 31 88 50 54 61
REMARK Flexibility Score: inf
ROOT
ATOM      1  C   UNL A   1      37.827  22.121  25.455  1.00  0.00     0.023 C 
ENDROOT
BRANCH   1   2
ATOM      2  C   UNL A   1      36.364  21.791  25.161  1.00  0.00     0.116 C 
BRANCH   2   3
ATOM      3  N   UNL A   1      35.487  21.484  26.281  1.00  0.00    -0.354 N 
ATOM      4  C   UNL A   1      34.168  21.750  26.547  1.00  0.00     0.245 C 
ATOM      5  O   UNL A   1      33.660  21.061  27.439  1.00  0.00    -0.272 OA
ATOM      6  H   UNL A   1      35.934  20.977  26.997  1.00  0.00     0.163 HD
BRANCH   4   7
ATOM      7  C   UNL A   1      33.320  22.780  25.734  1.00  0.00     0.118 C 
BRANCH   7   8
ATOM      8  C   UNL A   1      33.634  24.274  26.060  1.00  0.00     0.035 C 
ATOM      9  C   UNL A   1      34.796  24.954  25.353  1.00  0.00     0.007 C 
ENDBRANCH   7   8
BRANCH   7  10
ATOM     10  C   UNL A   1      31.866  22.409  26.192  1.00  0.00     0.035 C 
ATOM     11  C   UNL A   1      31.028  23.486  26.857  1.00  0.00     0.007 C 
ENDBRANCH   7  10
BRANCH   7  12
ATOM     12  N   UNL A   1      33.474  22.651  24.250  1.00  0.00    -0.338 N 
ATOM     13  C   UNL A   1      32.712  23.077  23.163  1.00  0.00     0.252 C 
ATOM     14  H   UNL A   1      34.286  22.162  23.986  1.00  0.00     0.164 HD
ATOM     15  O   UNL A   1      32.772  22.355  22.163  1.00  0.00    -0.269 OA
BRANCH  13  16
ATOM     16  C   UNL A   1      31.925  24.359  23.057  1.00  0.00     0.039 A 
ATOM     17  C   UNL A   1      32.563  25.553  22.667  1.00  0.00     0.016 A 
ATOM     18  C   UNL A   1      30.614  24.491  23.476  1.00  0.00     0.016 A 
ATOM     19  C   UNL A   1      31.913  26.811  22.765  1.00  0.00     0.027 A 
ATOM     20  C   UNL A   1      29.968  25.717  23.597  1.00  0.00     0.027 A 
ATOM     21  C   UNL A   1      30.616  26.894  23.269  1.00  0.00     0.041 A 
BRANCH  21  22
ATOM     22  N   UNL A   1      29.876  28.057  23.529  1.00  0.00    -0.326 N 
ATOM     23  C   UNL A   1      29.600  29.116  22.699  1.00  0.00     0.221 C 
ATOM     24  H   UNL A   1      29.501  28.125  24.437  1.00  0.00     0.169 HD
ATOM     25  C   UNL A   1      28.819  30.202  23.409  1.00  0.00     0.114 C 
ATOM     26  O   UNL A   1      29.903  29.201  21.509  1.00  0.00    -0.275 OA
ENDBRANCH  21  22
ENDBRANCH  13  16
ENDBRANCH   7  12
ENDBRANCH   4   7
ENDBRANCH   2   3
ENDBRANCH   1   2
BRANCH   1  27
ATOM     27  C   UNL A   1      38.159  23.462  26.102  1.00  0.00     0.023 C 
BRANCH  27  28
ATOM     28  C   UNL A   1      39.436  23.528  26.919  1.00  0.00     0.116 C 
BRANCH  28  29
ATOM     29  N   UNL A   1      40.592  23.910  26.129  1.00  0.00    -0.352 N 
ATOM     30  C   UNL A   1      41.397  25.015  26.248  1.00  0.00     0.251 C 
ATOM     31  H   UNL A   1      40.831  23.289  25.403  1.00  0.00     0.163 HD
ATOM     32  O   UNL A   1      42.247  25.237  25.388  1.00  0.00    -0.269 OA
BRANCH  30  33
ATOM     33  C   UNL A   1      41.232  25.947  27.388  1.00  0.00     0.039 A 
ATOM     34  C   UNL A   1      42.134  27.006  27.525  1.00  0.00     0.014 A 
ATOM     35  C   UNL A   1      40.213  25.773  28.328  1.00  0.00     0.014 A 
ATOM     36  C   UNL A   1      41.988  27.913  28.578  1.00  0.00     0.010 A 
ATOM     37  C   UNL A   1      40.024  26.718  29.334  1.00  0.00     0.010 A 
ATOM     38  C   UNL A   1      40.919  27.790  29.478  1.00  0.00    -0.014 A 
BRANCH  38  39
ATOM     39  C   UNL A   1      40.736  28.752  30.596  1.00  0.00     0.031 A 
ATOM     40  C   UNL A   1      41.586  28.635  31.833  1.00  0.00     0.074 A 
ATOM     41  C   UNL A   1      39.771  29.689  30.524  1.00  0.00     0.049 A 
ATOM     42  N   UNL A   1      41.531  29.327  32.942  1.00  0.00    -0.248 NA
ATOM     43  C   UNL A   1      42.613  27.581  31.835  1.00  0.00     0.031 C 
ATOM     44  C   UNL A   1      38.853  29.877  29.398  1.00  0.00     0.029 A 
ATOM     45  N   UNL A   1      39.394  30.657  31.422  1.00  0.00    -0.354 N 
ATOM     46  C   UNL A   1      42.497  28.779  33.779  1.00  0.00     0.074 A 
ATOM     47  C   UNL A   1      43.090  27.667  33.068  1.00  0.00     0.031 C 
ATOM     48  C   UNL A   1      38.038  30.911  29.662  1.00  0.00     0.029 A 
ATOM     49  C   UNL A   1      38.350  31.439  30.986  1.00  0.00     0.049 A 
ATOM     50  H   UNL A   1      39.830  30.780  32.295  1.00  0.00     0.167 HD
ATOM     51  C   UNL A   1      42.872  29.179  35.018  1.00  0.00     0.037 A 
ATOM     52  C   UNL A   1      37.716  32.465  31.588  1.00  0.00     0.037 A 
ATOM     53  C   UNL A   1      42.309  30.314  35.702  1.00  0.00     0.049 A 
ATOM     54  C   UNL A   1      38.165  32.905  32.955  1.00  0.00     0.074 A 
ATOM     55  C   UNL A   1      42.668  30.843  36.929  1.00  0.00     0.029 A 
ATOM     56  N   UNL A   1      41.273  31.096  35.216  1.00  0.00    -0.354 N 
ATOM     57  N   UNL A   1      39.118  32.411  33.708  1.00  0.00    -0.248 NA
ATOM     58  C   UNL A   1      37.455  34.046  33.552  1.00  0.00     0.031 C 
ATOM     59  C   UNL A   1      41.823  31.925  37.202  1.00  0.00     0.029 A 
ATOM     60  C   UNL A   1      40.967  32.094  36.127  1.00  0.00     0.049 A 
ATOM     61  H   UNL A   1      40.821  30.963  34.352  1.00  0.00     0.167 HD
ATOM     62  C   UNL A   1      39.142  33.195  34.855  1.00  0.00     0.074 A 
ATOM     63  C   UNL A   1      38.113  34.202  34.693  1.00  0.00     0.031 C 
ATOM     64  C   UNL A   1      39.944  33.094  35.944  1.00  0.00     0.037 A 
BRANCH  51  65
ATOM     65  C   UNL A   1      43.945  28.386  35.710  1.00  0.00     0.058 A 
ATOM     66  C   UNL A   1      45.309  28.662  35.517  1.00  0.00     0.135 A 
ATOM     67  C   UNL A   1      43.607  27.351  36.598  1.00  0.00     0.135 A 
ATOM     68  F   UNL A   1      45.688  29.629  34.667  1.00  0.00    -0.206 F 
ATOM     69  C   UNL A   1      46.299  27.918  36.151  1.00  0.00     0.059 A 
ATOM     70  C   UNL A   1      44.581  26.612  37.265  1.00  0.00     0.059 A 
ATOM     71  F   UNL A   1      42.319  27.045  36.820  1.00  0.00    -0.206 F 
ATOM     72  C   UNL A   1      45.925  26.893  37.020  1.00  0.00     0.060 A 
BRANCH  72  73
ATOM     73  S   UNL A   1      47.221  25.932  37.831  1.00  0.00     0.124 S 
ATOM     74  O   UNL A   1      47.700  26.880  38.833  1.00  0.00    -0.237 OA
ATOM     75  O   UNL A   1      46.484  24.784  38.348  1.00  0.00    -0.237 OA
ATOM     76  O   UNL A   1      48.154  25.639  36.748  1.00  0.00    -0.744 OA
ENDBRANCH  72  73
ENDBRANCH  51  65
BRANCH  52  77
ATOM     77  C   UNL A   1      36.612  33.169  30.885  1.00  0.00     0.058 A 
ATOM     78  C   UNL A   1      35.280  32.996  31.288  1.00  0.00     0.135 A 
ATOM     79  C   UNL A   1      36.864  34.039  29.812  1.00  0.00     0.135 A 
ATOM     80  F   UNL A   1      34.989  32.172  32.305  1.00  0.00    -0.206 F 
ATOM     81  C   UNL A   1      34.233  33.648  30.644  1.00  0.00     0.059 A 
ATOM     82  C   UNL A   1      35.836  34.719  29.167  1.00  0.00     0.059 A 
ATOM     83  F   UNL A   1      38.124  34.251  29.400  1.00  0.00    -0.206 F 
ATOM     84  C   UNL A   1      34.522  34.509  29.584  1.00  0.00     0.060 A 
BRANCH  84  85
ATOM     85  S   UNL A   1      33.157  35.383  28.785  1.00  0.00     0.124 S 
ATOM     86  O   UNL A   1      33.872  36.374  27.988  1.00  0.00    -0.237 OA
ATOM     87  O   UNL A   1      32.504  34.313  28.038  1.00  0.00    -0.237 OA
ATOM     88  O   UNL A   1      32.393  35.909  29.912  1.00  0.00    -0.744 OA
ENDBRANCH  84  85
ENDBRANCH  52  77
BRANCH  64  89
ATOM     89  C   UNL A   1      39.763  34.113  37.034  1.00  0.00     0.058 A 
ATOM     90  C   UNL A   1      38.999  33.839  38.177  1.00  0.00     0.135 A 
ATOM     91  C   UNL A   1      40.410  35.357  36.956  1.00  0.00     0.135 A 
ATOM     92  F   UNL A   1      38.356  32.668  38.296  1.00  0.00    -0.206 F 
ATOM     93  C   UNL A   1      38.864  34.773  39.200  1.00  0.00     0.059 A 
ATOM     94  C   UNL A   1      40.309  36.296  37.978  1.00  0.00     0.059 A 
ATOM     95  F   UNL A   1      41.163  35.663  35.887  1.00  0.00    -0.206 F 
ATOM     96  C   UNL A   1      39.525  35.999  39.091  1.00  0.00     0.060 A 
BRANCH  96  97
ATOM     97  S   UNL A   1      39.375  37.187  40.442  1.00  0.00     0.124 S 
ATOM     98  O   UNL A   1      38.559  36.445  41.397  1.00  0.00    -0.237 OA
ATOM     99  O   UNL A   1      40.766  37.401  40.828  1.00  0.00    -0.237 OA
ATOM    100  O   UNL A   1      38.722  38.333  39.814  1.00  0.00    -0.744 OA
ENDBRANCH  96  97
ENDBRANCH  64  89
ENDBRANCH  38  39
ENDBRANCH  30  33
ENDBRANCH  28  29
ENDBRANCH  27  28
ENDBRANCH   1  27
TORSDOF 19
ENDMDL
MODEL 2
REMARK VINA RESULT:     -11.6      6.496     12.183
REMARK SMILES CCC(CC)(NC(=O)c1ccc(NC(C)=O)cc1)C(=O)NCCCCNC(=O)c1ccc(-c2c3nc(c(-c4c(F)cc(S(=O)(=O)[O-])cc4F)c4ccc([nH]4)c(-c4c(F)cc(S(=O)(=O)[O-])cc4F)c4nc(c(-c5c(F)cc(S(=O)(=O)[O-])cc5F)c5ccc2[nH]5)C=C4)C=C3)cc1
REMARK SMILES IDX 23 1 22 2 21 3 19 4 20 5 3 7 2 8 1 9 4 10 5 11 6 12 7 13
REMARK SMILES IDX 8 15 9 16 10 17 18 18 11 19 17 20 12 21 13 22 14 23 15 25
REMARK SMILES IDX 16 26 24 27 25 28 26 29 27 30 28 32 29 33 30 34 94 35 31 36
REMARK SMILES IDX 93 37 32 38 33 39 34 40 87 41 35 42 92 43 86 44 88 45 36 46
REMARK SMILES IDX 91 47 85 48 84 49 37 51 71 52 50 53 70 54 51 55 54 56 69 57
REMARK SMILES IDX 89 58 52 59 53 60 68 62 90 63 55 64 38 65 39 66 48 67 40 68
REMARK SMILES IDX 41 69 47 70 49 71 42 72 43 73 44 74 45 75 46 76 72 77 73 78
REMARK SMILES IDX 82 79 74 80 75 81 81 82 83 83 76 84 77 85 78 86 79 87 80 88
REMARK SMILES IDX 56 89 57 90 66 91 58 92 59 93 65 94 67 95 60 96 61 97 62 98
REMARK SMILES IDX 63 99 64 100
REMARK H PARENT 21 6 6 14 13 24 26 31 88 50 54 61
REMARK Flexibility Score: inf
ROOT
ATOM      1  C   UNL A   1      33.409  30.510  26.608  1.00  0.00     0.023 C 
ENDROOT
BRANCH   1   2
ATOM      2  C   UNL A   1      32.200  29.742  26.073  1.00  0.00     0.116 C 
BRANCH   2   3
ATOM      3  N   UNL A   1      32.020  29.656  24.632  1.00  0.00    -0.354 N 
ATOM      4  C   UNL A   1      31.786  28.614  23.771  1.00  0.00     0.245 C 
ATOM      5  O   UNL A   1      31.359  28.936  22.656  1.00  0.00    -0.272 OA
ATOM      6  H   UNL A   1      32.076  30.529  24.180  1.00  0.00     0.163 HD
BRANCH   4   7
ATOM      7  C   UNL A   1      31.949  27.114  24.176  1.00  0.00     0.118 C 
BRANCH   7   8
ATOM      8  C   UNL A   1      33.424  26.675  24.441  1.00  0.00     0.035 C 
ATOM      9  C   UNL A   1      33.936  26.636  25.873  1.00  0.00     0.007 C 
ENDBRANCH   7   8
BRANCH   7  10
ATOM     10  C   UNL A   1      31.378  26.389  22.907  1.00  0.00     0.035 C 
ATOM     11  C   UNL A   1      32.306  25.478  22.125  1.00  0.00     0.007 C 
ENDBRANCH   7  10
BRANCH   7  12
ATOM     12  N   UNL A   1      31.189  26.735  25.410  1.00  0.00    -0.338 N 
ATOM     13  C   UNL A   1      30.676  25.531  25.891  1.00  0.00     0.252 C 
ATOM     14  H   UNL A   1      31.014  27.498  26.006  1.00  0.00     0.164 HD
ATOM     15  O   UNL A   1      29.655  25.633  26.579  1.00  0.00    -0.269 OA
BRANCH  13  16
ATOM     16  C   UNL A   1      31.292  24.163  25.747  1.00  0.00     0.039 A 
ATOM     17  C   UNL A   1      32.290  23.735  26.644  1.00  0.00     0.016 A 
ATOM     18  C   UNL A   1      31.056  23.326  24.671  1.00  0.00     0.016 A 
ATOM     19  C   UNL A   1      33.042  22.553  26.413  1.00  0.00     0.027 A 
ATOM     20  C   UNL A   1      31.796  22.176  24.418  1.00  0.00     0.027 A 
ATOM     21  C   UNL A   1      32.815  21.788  25.270  1.00  0.00     0.041 A 
BRANCH  21  22
ATOM     22  N   UNL A   1      33.535  20.663  24.842  1.00  0.00    -0.326 N 
ATOM     23  C   UNL A   1      33.216  19.332  24.956  1.00  0.00     0.221 C 
ATOM     24  H   UNL A   1      34.391  20.854  24.396  1.00  0.00     0.169 HD
ATOM     25  C   UNL A   1      34.315  18.440  24.416  1.00  0.00     0.114 C 
ATOM     26  O   UNL A   1      32.167  18.875  25.406  1.00  0.00    -0.275 OA
ENDBRANCH  21  22
ENDBRANCH  13  16
ENDBRANCH   7  12
ENDBRANCH   4   7
ENDBRANCH   2   3
ENDBRANCH   1   2
BRANCH   1  27
ATOM     27  C   UNL A   1      34.425  29.765  27.469  1.00  0.00     0.023 C 
BRANCH  27  28
ATOM     28  C   UNL A   1      35.522  30.600  28.105  1.00  0.00     0.116 C 
BRANCH  28  29
ATOM     29  N   UNL A   1      35.455  30.606  29.555  1.00  0.00    -0.352 N 
ATOM     30  C   UNL A   1      36.409  30.232  30.468  1.00  0.00     0.251 C 
ATOM     31  H   UNL A   1      34.605  30.924  29.937  1.00  0.00     0.163 HD
ATOM     32  O   UNL A   1      36.112  30.174  31.660  1.00  0.00    -0.269 OA
BRANCH  30  33
ATOM     33  C   UNL A   1      37.778  29.878  30.025  1.00  0.00     0.039 A 
ATOM     34  C   UNL A   1      38.711  29.477  30.985  1.00  0.00     0.014 A 
ATOM     35  C   UNL A   1      38.151  29.958  28.680  1.00  0.00     0.014 A 
ATOM     36  C   UNL A   1      40.002  29.114  30.592  1.00  0.00     0.010 A 
ATOM     37  C   UNL A   1      39.414  29.528  28.281  1.00  0.00     0.010 A 
ATOM     38  C   UNL A   1      40.358  29.115  29.234  1.00  0.00    -0.014 A 
BRANCH  38  39
ATOM     39  C   UNL A   1      41.721  28.721  28.793  1.00  0.00     0.031 A 
ATOM     40  C   UNL A   1      42.815  29.752  28.719  1.00  0.00     0.074 A 
ATOM     41  C   UNL A   1      41.959  27.453  28.405  1.00  0.00     0.049 A 
ATOM     42  N   UNL A   1      44.044  29.625  28.291  1.00  0.00    -0.248 NA
ATOM     43  C   UNL A   1      42.471  31.116  29.155  1.00  0.00     0.031 C 
ATOM     44  C   UNL A   1      40.973  26.371  28.389  1.00  0.00     0.029 A 
ATOM     45  N   UNL A   1      43.107  26.860  27.939  1.00  0.00    -0.354 N 
ATOM     46  C   UNL A   1      44.612  30.891  28.385  1.00  0.00     0.074 A 
ATOM     47  C   UNL A   1      43.578  31.782  28.865  1.00  0.00     0.031 C 
ATOM     48  C   UNL A   1      41.562  25.242  27.962  1.00  0.00     0.029 A 
ATOM     49  C   UNL A   1      42.958  25.526  27.641  1.00  0.00     0.049 A 
ATOM     50  H   UNL A   1      43.956  27.344  27.829  1.00  0.00     0.167 HD
ATOM     51  C   UNL A   1      45.884  31.272  28.118  1.00  0.00     0.037 A 
ATOM     52  C   UNL A   1      43.846  24.632  27.161  1.00  0.00     0.037 A 
ATOM     53  C   UNL A   1      46.919  30.371  27.683  1.00  0.00     0.049 A 
ATOM     54  C   UNL A   1      45.259  25.074  26.893  1.00  0.00     0.074 A 
ATOM     55  C   UNL A   1      48.256  30.645  27.453  1.00  0.00     0.029 A 
ATOM     56  N   UNL A   1      46.736  29.023  27.418  1.00  0.00    -0.354 N 
ATOM     57  N   UNL A   1      45.793  26.263  27.040  1.00  0.00    -0.248 NA
ATOM     58  C   UNL A   1      46.192  24.053  26.396  1.00  0.00     0.031 C 
ATOM     59  C   UNL A   1      48.873  29.468  27.013  1.00  0.00     0.029 A 
ATOM     60  C   UNL A   1      47.930  28.454  27.009  1.00  0.00     0.049 A 
ATOM     61  H   UNL A   1      45.882  28.541  27.508  1.00  0.00     0.167 HD
ATOM     62  C   UNL A   1      47.129  26.128  26.683  1.00  0.00     0.074 A 
ATOM     63  C   UNL A   1      47.324  24.739  26.318  1.00  0.00     0.031 C 
ATOM     64  C   UNL A   1      48.108  27.067  26.659  1.00  0.00     0.037 A 
BRANCH  51  65
ATOM     65  C   UNL A   1      46.226  32.726  28.292  1.00  0.00     0.058 A 
ATOM     66  C   UNL A   1      46.682  33.235  29.519  1.00  0.00     0.135 A 
ATOM     67  C   UNL A   1      46.121  33.618  27.213  1.00  0.00     0.135 A 
ATOM     68  F   UNL A   1      46.785  32.429  30.589  1.00  0.00    -0.206 F 
ATOM     69  C   UNL A   1      46.987  34.583  29.680  1.00  0.00     0.059 A 
ATOM     70  C   UNL A   1      46.448  34.965  27.344  1.00  0.00     0.059 A 
ATOM     71  F   UNL A   1      45.691  33.185  26.017  1.00  0.00    -0.206 F 
ATOM     72  C   UNL A   1      46.863  35.440  28.587  1.00  0.00     0.060 A 
BRANCH  72  73
ATOM     73  S   UNL A   1      47.256  37.188  28.812  1.00  0.00     0.124 S 
ATOM     74  O   UNL A   1      48.539  37.287  28.121  1.00  0.00    -0.237 OA
ATOM     75  O   UNL A   1      46.132  37.850  28.158  1.00  0.00    -0.237 OA
ATOM     76  O   UNL A   1      47.311  37.340  30.262  1.00  0.00    -0.744 OA
ENDBRANCH  72  73
ENDBRANCH  51  65
BRANCH  52  77
ATOM     77  C   UNL A   1      43.434  23.222  26.939  1.00  0.00     0.058 A 
ATOM     78  C   UNL A   1      43.265  22.720  25.641  1.00  0.00     0.135 A 
ATOM     79  C   UNL A   1      43.217  22.345  28.014  1.00  0.00     0.135 A 
ATOM     80  F   UNL A   1      43.456  23.522  24.583  1.00  0.00    -0.206 F 
ATOM     81  C   UNL A   1      42.881  21.403  25.413  1.00  0.00     0.059 A 
ATOM     82  C   UNL A   1      42.855  21.017  27.811  1.00  0.00     0.059 A 
ATOM     83  F   UNL A   1      43.383  22.773  29.276  1.00  0.00    -0.206 F 
ATOM     84  C   UNL A   1      42.679  20.558  26.505  1.00  0.00     0.060 A 
BRANCH  84  85
ATOM     85  S   UNL A   1      42.225  18.838  26.194  1.00  0.00     0.124 S 
ATOM     86  O   UNL A   1      42.421  18.241  27.510  1.00  0.00    -0.237 OA
ATOM     87  O   UNL A   1      40.840  18.963  25.750  1.00  0.00    -0.237 OA
ATOM     88  O   UNL A   1      43.171  18.423  25.163  1.00  0.00    -0.744 OA
ENDBRANCH  84  85
ENDBRANCH  52  77
BRANCH  64  89
ATOM     89  C   UNL A   1      49.484  26.621  26.254  1.00  0.00     0.058 A 
ATOM     90  C   UNL A   1      49.945  26.762  24.937  1.00  0.00     0.135 A 
ATOM     91  C   UNL A   1      50.371  26.098  27.209  1.00  0.00     0.135 A 
ATOM     92  F   UNL A   1      49.135  27.250  23.986  1.00  0.00    -0.206 F 
ATOM     93  C   UNL A   1      51.234  26.381  24.575  1.00  0.00     0.059 A 
ATOM     94  C   UNL A   1      51.671  25.733  26.874  1.00  0.00     0.059 A 
ATOM     95  F   UNL A   1      49.981  25.953  28.486  1.00  0.00    -0.206 F 
ATOM     96  C   UNL A   1      52.089  25.868  25.552  1.00  0.00     0.060 A 
BRANCH  96  97
ATOM     97  S   UNL A   1      53.771  25.414  25.079  1.00  0.00     0.124 S 
ATOM     98  O   UNL A   1      54.563  26.177  26.038  1.00  0.00    -0.237 OA
ATOM     99  O   UNL A   1      53.770  23.967  25.267  1.00  0.00    -0.237 OA
ATOM    100  O   UNL A   1      53.864  25.859  23.691  1.00  0.00    -0.744 OA
ENDBRANCH  96  97
ENDBRANCH  64  89
ENDBRANCH  38  39
ENDBRANCH  30  33
ENDBRANCH  28  29
ENDBRANCH  27  28
ENDBRANCH   1  27
TORSDOF 19
ENDMDL
MODEL 3
REMARK VINA RESULT:     -11.6      1.681      3.715
REMARK SMILES CCC(CC)(NC(=O)c1ccc(NC(C)=O)cc1)C(=O)NCCCCNC(=O)c1ccc(-c2c3nc(c(-c4c(F)cc(S(=O)(=O)[O-])cc4F)c4ccc([nH]4)c(-c4c(F)cc(S(=O)(=O)[O-])cc4F)c4nc(c(-c5c(F)cc(S(=O)(=O)[O-])cc5F)c5ccc2[nH]5)C=C4)C=C3)cc1
REMARK SMILES IDX 23 1 22 2 21 3 19 4 20 5 3 7 2 8 1 9 4 10 5 11 6 12 7 13
REMARK SMILES IDX 8 15 9 16 10 17 18 18 11 19 17 20 12 21 13 22 14 23 15 25
REMARK SMILES IDX 16 26 24 27 25 28 26 29 27 30 28 32 29 33 30 34 94 35 31 36
REMARK SMILES IDX 93 37 32 38 33 39 34 40 87 41 35 42 92 43 86 44 88 45 36 46
REMARK SMILES IDX 91 47 85 48 84 49 37 51 71 52 50 53 70 54 51 55 54 56 69 57
REMARK SMILES IDX 89 58 52 59 53 60 68 62 90 63 55 64 38 65 39 66 48 67 40 68
REMARK SMILES IDX 41 69 47 70 49 71 42 72 43 73 44 74 45 75 46 76 72 77 73 78
REMARK SMILES IDX 82 79 74 80 75 81 81 82 83 83 76 84 77 85 78 86 79 87 80 88
REMARK SMILES IDX 56 89 57 90 66 91 58 92 59 93 65 94 67 95 60 96 61 97 62 98
REMARK SMILES IDX 63 99 64 100
REMARK H PARENT 21 6 6 14 13 24 26 31 88 50 54 61
REMARK Flexibility Score: inf
ROOT
ATOM      1  C   UNL A   1      37.991  24.032  26.010  1.00  0.00     0.023 C 
ENDROOT
BRANCH   1   2
ATOM      2  C   UNL A   1      36.491  23.846  25.776  1.00  0.00     0.116 C 
BRANCH   2   3
ATOM      3  N   UNL A   1      35.729  23.086  26.754  1.00  0.00    -0.354 N 
ATOM      4  C   UNL A   1      34.395  22.799  26.894  1.00  0.00     0.245 C 
ATOM      5  O   UNL A   1      34.134  21.857  27.652  1.00  0.00    -0.272 OA
ATOM      6  H   UNL A   1      36.288  22.694  27.464  1.00  0.00     0.163 HD
BRANCH   4   7
ATOM      7  C   UNL A   1      33.271  23.533  26.094  1.00  0.00     0.118 C 
BRANCH   7   8
ATOM      8  C   UNL A   1      33.145  25.056  26.410  1.00  0.00     0.035 C 
ATOM      9  C   UNL A   1      32.467  25.966  25.397  1.00  0.00     0.007 C 
ENDBRANCH   7   8
BRANCH   7  10
ATOM     10  C   UNL A   1      31.995  22.762  26.581  1.00  0.00     0.035 C 
ATOM     11  C   UNL A   1      30.751  22.812  25.712  1.00  0.00     0.007 C 
ENDBRANCH   7  10
BRANCH   7  12
ATOM     12  N   UNL A   1      33.430  23.442  24.608  1.00  0.00    -0.338 N 
ATOM     13  C   UNL A   1      33.833  22.425  23.745  1.00  0.00     0.252 C 
ATOM     14  H   UNL A   1      33.201  24.278  24.142  1.00  0.00     0.164 HD
ATOM     15  O   UNL A   1      34.401  22.803  22.715  1.00  0.00    -0.269 OA
BRANCH  13  16
ATOM     16  C   UNL A   1      33.554  20.950  23.891  1.00  0.00     0.039 A 
ATOM     17  C   UNL A   1      32.401  20.385  23.313  1.00  0.00     0.016 A 
ATOM     18  C   UNL A   1      34.288  20.109  24.708  1.00  0.00     0.016 A 
ATOM     19  C   UNL A   1      31.993  19.057  23.610  1.00  0.00     0.027 A 
ATOM     20  C   UNL A   1      33.893  18.813  25.026  1.00  0.00     0.027 A 
ATOM     21  C   UNL A   1      32.729  18.279  24.503  1.00  0.00     0.041 A 
BRANCH  21  22
ATOM     22  N   UNL A   1      32.409  17.001  24.982  1.00  0.00    -0.326 N 
ATOM     23  C   UNL A   1      33.112  15.827  24.862  1.00  0.00     0.221 C 
ATOM     24  H   UNL A   1      31.559  16.935  25.474  1.00  0.00     0.169 HD
ATOM     25  C   UNL A   1      32.366  14.658  25.472  1.00  0.00     0.114 C 
ATOM     26  O   UNL A   1      34.226  15.698  24.357  1.00  0.00    -0.275 OA
ENDBRANCH  21  22
ENDBRANCH  13  16
ENDBRANCH   7  12
ENDBRANCH   4   7
ENDBRANCH   2   3
ENDBRANCH   1   2
BRANCH   1  27
ATOM     27  C   UNL A   1      38.814  22.830  26.463  1.00  0.00     0.023 C 
BRANCH  27  28
ATOM     28  C   UNL A   1      40.169  23.126  27.079  1.00  0.00     0.116 C 
BRANCH  28  29
ATOM     29  N   UNL A   1      41.109  23.690  26.127  1.00  0.00    -0.352 N 
ATOM     30  C   UNL A   1      41.703  24.927  26.124  1.00  0.00     0.251 C 
ATOM     31  H   UNL A   1      41.354  23.102  25.376  1.00  0.00     0.163 HD
ATOM     32  O   UNL A   1      42.366  25.276  25.148  1.00  0.00    -0.269 OA
BRANCH  30  33
ATOM     33  C   UNL A   1      41.533  25.847  27.273  1.00  0.00     0.039 A 
ATOM     34  C   UNL A   1      42.433  26.905  27.424  1.00  0.00     0.014 A 
ATOM     35  C   UNL A   1      40.510  25.662  28.207  1.00  0.00     0.014 A 
ATOM     36  C   UNL A   1      42.281  27.802  28.485  1.00  0.00     0.010 A 
ATOM     37  C   UNL A   1      40.317  26.597  29.222  1.00  0.00     0.010 A 
ATOM     38  C   UNL A   1      41.209  27.668  29.381  1.00  0.00    -0.014 A 
BRANCH  38  39
ATOM     39  C   UNL A   1      41.020  28.618  30.507  1.00  0.00     0.031 A 
ATOM     40  C   UNL A   1      41.897  28.519  31.727  1.00  0.00     0.074 A 
ATOM     41  C   UNL A   1      40.027  29.528  30.460  1.00  0.00     0.049 A 
ATOM     42  N   UNL A   1      41.844  29.203  32.841  1.00  0.00    -0.248 NA
ATOM     43  C   UNL A   1      42.953  27.494  31.703  1.00  0.00     0.031 C 
ATOM     44  C   UNL A   1      39.084  29.695  29.353  1.00  0.00     0.029 A 
ATOM     45  N   UNL A   1      39.641  30.479  31.370  1.00  0.00    -0.354 N 
ATOM     46  C   UNL A   1      42.841  28.678  33.656  1.00  0.00     0.074 A 
ATOM     47  C   UNL A   1      43.451  27.588  32.927  1.00  0.00     0.031 C 
ATOM     48  C   UNL A   1      38.244  30.704  29.638  1.00  0.00     0.029 A 
ATOM     49  C   UNL A   1      38.567  31.234  30.959  1.00  0.00     0.049 A 
ATOM     50  H   UNL A   1      40.090  30.610  32.236  1.00  0.00     0.167 HD
ATOM     51  C   UNL A   1      43.228  29.082  34.890  1.00  0.00     0.037 A 
ATOM     52  C   UNL A   1      37.915  32.237  31.579  1.00  0.00     0.037 A 
ATOM     53  C   UNL A   1      42.646  30.196  35.591  1.00  0.00     0.049 A 
ATOM     54  C   UNL A   1      38.378  32.683  32.940  1.00  0.00     0.074 A 
ATOM     55  C   UNL A   1      43.014  30.729  36.814  1.00  0.00     0.029 A 
ATOM     56  N   UNL A   1      41.579  30.951  35.131  1.00  0.00    -0.354 N 
ATOM     57  N   UNL A   1      39.359  32.212  33.672  1.00  0.00    -0.248 NA
ATOM     58  C   UNL A   1      37.647  33.799  33.558  1.00  0.00     0.031 C 
ATOM     59  C   UNL A   1      42.144  31.785  37.110  1.00  0.00     0.029 A 
ATOM     60  C   UNL A   1      41.262  31.935  36.052  1.00  0.00     0.049 A 
ATOM     61  H   UNL A   1      41.115  30.809  34.274  1.00  0.00     0.167 HD
ATOM     62  C   UNL A   1      39.383  32.990  34.823  1.00  0.00     0.074 A 
ATOM     63  C   UNL A   1      38.322  33.968  34.687  1.00  0.00     0.031 C 
ATOM     64  C   UNL A   1      40.208  32.906  35.896  1.00  0.00     0.037 A 
BRANCH  51  65
ATOM     65  C   UNL A   1      44.337  28.316  35.557  1.00  0.00     0.058 A 
ATOM     66  C   UNL A   1      44.075  27.230  36.410  1.00  0.00     0.135 A 
ATOM     67  C   UNL A   1      45.679  28.654  35.323  1.00  0.00     0.135 A 
ATOM     68  F   UNL A   1      42.808  26.875  36.681  1.00  0.00    -0.206 F 
ATOM     69  C   UNL A   1      45.102  26.531  37.034  1.00  0.00     0.059 A 
ATOM     70  C   UNL A   1      46.724  27.950  35.915  1.00  0.00     0.059 A 
ATOM     71  F   UNL A   1      45.986  29.682  34.517  1.00  0.00    -0.206 F 
ATOM     72  C   UNL A   1      46.424  26.901  36.783  1.00  0.00     0.060 A 
BRANCH  72  73
ATOM     73  S   UNL A   1      47.748  25.988  37.606  1.00  0.00     0.124 S 
ATOM     74  O   UNL A   1      48.931  26.562  36.972  1.00  0.00    -0.237 OA
ATOM     75  O   UNL A   1      47.547  26.339  39.007  1.00  0.00    -0.237 OA
ATOM     76  O   UNL A   1      47.464  24.598  37.263  1.00  0.00    -0.744 OA
ENDBRANCH  72  73
ENDBRANCH  51  65
BRANCH  52  77
ATOM     77  C   UNL A   1      36.778  32.914  30.902  1.00  0.00     0.058 A 
ATOM     78  C   UNL A   1      35.455  32.651  31.286  1.00  0.00     0.135 A 
ATOM     79  C   UNL A   1      36.988  33.845  29.873  1.00  0.00     0.135 A 
ATOM     80  F   UNL A   1      35.205  31.764  32.262  1.00  0.00    -0.206 F 
ATOM     81  C   UNL A   1      34.378  33.274  30.665  1.00  0.00     0.059 A 
ATOM     82  C   UNL A   1      35.928  34.499  29.252  1.00  0.00     0.059 A 
ATOM     83  F   UNL A   1      38.237  34.144  29.480  1.00  0.00    -0.206 F 
ATOM     84  C   UNL A   1      34.625  34.199  29.649  1.00  0.00     0.060 A 
BRANCH  84  85
ATOM     85  S   UNL A   1      33.219  35.035  28.882  1.00  0.00     0.124 S 
ATOM     86  O   UNL A   1      32.743  34.015  27.955  1.00  0.00    -0.237 OA
ATOM     87  O   UNL A   1      32.359  35.304  30.031  1.00  0.00    -0.237 OA
ATOM     88  O   UNL A   1      33.825  36.213  28.271  1.00  0.00    -0.744 OA
ENDBRANCH  84  85
ENDBRANCH  52  77
BRANCH  64  89
ATOM     89  C   UNL A   1      40.019  33.913  36.995  1.00  0.00     0.058 A 
ATOM     90  C   UNL A   1      40.601  35.188  36.931  1.00  0.00     0.135 A 
ATOM     91  C   UNL A   1      39.200  33.617  38.096  1.00  0.00     0.135 A 
ATOM     92  F   UNL A   1      41.396  35.518  35.903  1.00  0.00    -0.206 F 
ATOM     93  C   UNL A   1      40.393  36.130  37.935  1.00  0.00     0.059 A 
ATOM     94  C   UNL A   1      38.960  34.552  39.098  1.00  0.00     0.059 A 
ATOM     95  F   UNL A   1      38.612  32.415  38.198  1.00  0.00    -0.206 F 
ATOM     96  C   UNL A   1      39.570  35.802  39.013  1.00  0.00     0.060 A 
BRANCH  96  97
ATOM     97  S   UNL A   1      39.276  37.046  40.289  1.00  0.00     0.124 S 
ATOM     98  O   UNL A   1      38.666  38.122  39.515  1.00  0.00    -0.237 OA
ATOM     99  O   UNL A   1      38.389  36.346  41.211  1.00  0.00    -0.237 OA
ATOM    100  O   UNL A   1      40.614  37.323  40.805  1.00  0.00    -0.744 OA
ENDBRANCH  96  97
ENDBRANCH  64  89
ENDBRANCH  38  39
ENDBRANCH  30  33
ENDBRANCH  28  29
ENDBRANCH  27  28
ENDBRANCH   1  27
TORSDOF 19
ENDMDL
