MODEL 1
REMARK VINA RESULT:     -12.7      0.000      0.000
REMARK SMILES O=C(NCCCCNC(=O)[C@@H]1C=C[C@H](NC(=O)[C@@H]2Cc3ccccc3O2)C1)c1ccc(-c2c3nc(c(-c4c(F)cc(S(=O)(=O)[O-])cc4F)c4ccc([nH]4)c(-c4c(F)cc(S(=O)(=O)[O-])cc4F)c4nc(c(-c5c(F)cc(S(=O)(=O)[O-])cc5F)c5ccc2[nH]5)C=C4)C=C3)cc1
REMARK SMILES IDX 5 1 4 2 3 3 1 4 2 5 28 7 29 8 93 9 30 10 92 11 31 12 32 13
REMARK SMILES IDX 33 14 86 15 34 16 91 17 85 18 87 19 35 20 90 21 84 22 83 23
REMARK SMILES IDX 36 25 70 26 49 27 69 28 50 29 53 30 68 31 88 32 51 33 52 34
REMARK SMILES IDX 67 36 89 37 54 38 37 39 38 40 47 41 39 42 40 43 46 44 48 45
REMARK SMILES IDX 41 46 42 47 43 48 44 49 45 50 71 51 72 52 81 53 73 54 74 55
REMARK SMILES IDX 80 56 82 57 75 58 76 59 77 60 78 61 79 62 55 63 56 64 65 65
REMARK SMILES IDX 57 66 58 67 64 68 66 69 59 70 60 71 61 72 62 73 63 74 6 75
REMARK SMILES IDX 7 76 8 77 9 78 10 80 11 81 12 82 27 83 13 84 14 85 15 86
REMARK SMILES IDX 16 87 17 89 18 90 19 91 26 92 20 93 25 94 21 95 24 96 22 97
REMARK SMILES IDX 23 98
REMARK H PARENT 3 6 87 24 53 35 8 79 15 88
REMARK Flexibility Score: inf
ROOT
ATOM      1  C   UNL A   1      42.266  21.939  27.007  1.00  0.00     0.023 C 
ENDROOT
BRANCH   1   2
ATOM      2  C   UNL A   1      42.708  23.399  27.016  1.00  0.00     0.116 C 
BRANCH   2   3
ATOM      3  N   UNL A   1      42.138  24.193  25.935  1.00  0.00    -0.352 N 
ATOM      4  O   UNL A   1      41.025  25.927  25.014  1.00  0.00    -0.269 OA
ATOM      5  C   UNL A   1      41.533  25.431  26.008  1.00  0.00     0.251 C 
ATOM      6  H   UNL A   1      42.192  23.794  25.037  1.00  0.00     0.163 HD
BRANCH   5   7
ATOM      7  C   UNL A   1      41.464  26.121  27.317  1.00  0.00     0.039 A 
ATOM      8  C   UNL A   1      40.415  25.866  28.200  1.00  0.00     0.014 A 
ATOM      9  C   UNL A   1      42.428  27.083  27.632  1.00  0.00     0.014 A 
ATOM     10  C   UNL A   1      40.228  26.692  29.302  1.00  0.00     0.010 A 
ATOM     11  C   UNL A   1      42.284  27.858  28.788  1.00  0.00     0.010 A 
ATOM     12  C   UNL A   1      41.152  27.708  29.603  1.00  0.00    -0.014 A 
BRANCH  12  13
ATOM     13  C   UNL A   1      40.896  28.595  30.769  1.00  0.00     0.031 A 
ATOM     14  C   UNL A   1      41.788  28.560  31.983  1.00  0.00     0.074 A 
ATOM     15  C   UNL A   1      39.887  29.487  30.701  1.00  0.00     0.049 A 
ATOM     16  N   UNL A   1      41.746  29.308  33.058  1.00  0.00    -0.248 NA
ATOM     17  C   UNL A   1      42.863  27.554  32.000  1.00  0.00     0.031 C 
ATOM     18  C   UNL A   1      38.948  29.611  29.584  1.00  0.00     0.029 A 
ATOM     19  N   UNL A   1      39.504  30.479  31.567  1.00  0.00    -0.354 N 
ATOM     20  C   UNL A   1      42.759  28.844  33.890  1.00  0.00     0.074 A 
ATOM     21  C   UNL A   1      43.392  27.739  33.202  1.00  0.00     0.031 C 
ATOM     22  C   UNL A   1      38.139  30.657  29.803  1.00  0.00     0.029 A 
ATOM     23  C   UNL A   1      38.466  31.247  31.097  1.00  0.00     0.049 A 
ATOM     24  H   UNL A   1      39.932  30.626  32.442  1.00  0.00     0.167 HD
ATOM     25  C   UNL A   1      43.130  29.299  35.111  1.00  0.00     0.037 A 
ATOM     26  C   UNL A   1      37.844  32.309  31.643  1.00  0.00     0.037 A 
ATOM     27  C   UNL A   1      42.525  30.426  35.775  1.00  0.00     0.049 A 
ATOM     28  C   UNL A   1      38.297  32.814  32.981  1.00  0.00     0.074 A 
ATOM     29  C   UNL A   1      42.857  30.987  36.997  1.00  0.00     0.029 A 
ATOM     30  N   UNL A   1      41.467  31.168  35.271  1.00  0.00    -0.354 N 
ATOM     31  N   UNL A   1      39.267  32.371  33.743  1.00  0.00    -0.248 NA
ATOM     32  C   UNL A   1      37.570  33.964  33.535  1.00  0.00     0.031 C 
ATOM     33  C   UNL A   1      41.981  32.050  37.245  1.00  0.00     0.029 A 
ATOM     34  C   UNL A   1      41.128  32.175  36.161  1.00  0.00     0.049 A 
ATOM     35  H   UNL A   1      41.023  31.005  34.408  1.00  0.00     0.167 HD
ATOM     36  C   UNL A   1      39.277  33.195  34.862  1.00  0.00     0.074 A 
ATOM     37  C   UNL A   1      38.227  34.175  34.667  1.00  0.00     0.031 C 
ATOM     38  C   UNL A   1      40.081  33.143  35.952  1.00  0.00     0.037 A 
BRANCH  25  39
ATOM     39  C   UNL A   1      44.236  28.568  35.825  1.00  0.00     0.058 A 
ATOM     40  C   UNL A   1      43.981  27.464  36.653  1.00  0.00     0.135 A 
ATOM     41  C   UNL A   1      45.573  28.956  35.644  1.00  0.00     0.135 A 
ATOM     42  F   UNL A   1      42.719  27.060  36.872  1.00  0.00    -0.206 F 
ATOM     43  C   UNL A   1      45.012  26.785  37.297  1.00  0.00     0.059 A 
ATOM     44  C   UNL A   1      46.622  28.278  36.260  1.00  0.00     0.059 A 
ATOM     45  F   UNL A   1      45.873  30.005  34.860  1.00  0.00    -0.206 F 
ATOM     46  C   UNL A   1      46.330  27.202  37.096  1.00  0.00     0.060 A 
BRANCH  46  47
ATOM     47  S   UNL A   1      47.661  26.313  37.933  1.00  0.00     0.124 S 
ATOM     48  O   UNL A   1      48.508  27.414  38.380  1.00  0.00    -0.237 OA
ATOM     49  O   UNL A   1      46.948  25.594  38.985  1.00  0.00    -0.237 OA
ATOM     50  O   UNL A   1      48.224  25.476  36.878  1.00  0.00    -0.744 OA
ENDBRANCH  46  47
ENDBRANCH  25  39
BRANCH  26  51
ATOM     51  C   UNL A   1      36.738  32.970  30.905  1.00  0.00     0.058 A 
ATOM     52  C   UNL A   1      35.404  32.797  31.299  1.00  0.00     0.135 A 
ATOM     53  C   UNL A   1      36.998  33.817  29.817  1.00  0.00     0.135 A 
ATOM     54  F   UNL A   1      35.108  31.994  32.332  1.00  0.00    -0.206 F 
ATOM     55  C   UNL A   1      34.362  33.436  30.636  1.00  0.00     0.059 A 
ATOM     56  C   UNL A   1      35.975  34.486  29.153  1.00  0.00     0.059 A 
ATOM     57  F   UNL A   1      38.261  34.029  29.415  1.00  0.00    -0.206 F 
ATOM     58  C   UNL A   1      34.659  34.281  29.565  1.00  0.00     0.060 A 
BRANCH  58  59
ATOM     59  S   UNL A   1      33.309  35.162  28.751  1.00  0.00     0.124 S 
ATOM     60  O   UNL A   1      34.031  36.211  28.041  1.00  0.00    -0.237 OA
ATOM     61  O   UNL A   1      32.714  34.121  27.920  1.00  0.00    -0.237 OA
ATOM     62  O   UNL A   1      32.481  35.608  29.869  1.00  0.00    -0.744 OA
ENDBRANCH  58  59
ENDBRANCH  26  51
BRANCH  38  63
ATOM     63  C   UNL A   1      39.871  34.194  37.003  1.00  0.00     0.058 A 
ATOM     64  C   UNL A   1      40.458  35.465  36.900  1.00  0.00     0.135 A 
ATOM     65  C   UNL A   1      39.061  33.932  38.118  1.00  0.00     0.135 A 
ATOM     66  F   UNL A   1      41.248  35.761  35.855  1.00  0.00    -0.206 F 
ATOM     67  C   UNL A   1      40.274  36.431  37.883  1.00  0.00     0.059 A 
ATOM     68  C   UNL A   1      38.845  34.891  39.103  1.00  0.00     0.059 A 
ATOM     69  F   UNL A   1      38.470  32.735  38.259  1.00  0.00    -0.206 F 
ATOM     70  C   UNL A   1      39.469  36.132  38.984  1.00  0.00     0.060 A 
BRANCH  70  71
ATOM     71  S   UNL A   1      39.227  37.392  40.254  1.00  0.00     0.124 S 
ATOM     72  O   UNL A   1      38.269  38.281  39.605  1.00  0.00    -0.237 OA
ATOM     73  O   UNL A   1      38.711  36.616  41.378  1.00  0.00    -0.237 OA
ATOM     74  O   UNL A   1      40.566  37.942  40.443  1.00  0.00    -0.744 OA
ENDBRANCH  70  71
ENDBRANCH  38  63
ENDBRANCH  12  13
ENDBRANCH   5   7
ENDBRANCH   2   3
ENDBRANCH   1   2
BRANCH   1  75
ATOM     75  C   UNL A   1      40.860  21.683  27.556  1.00  0.00     0.023 C 
BRANCH  75  76
ATOM     76  C   UNL A   1      39.773  21.556  26.490  1.00  0.00     0.116 C 
BRANCH  76  77
ATOM     77  N   UNL A   1      38.794  22.621  26.587  1.00  0.00    -0.356 N 
ATOM     78  C   UNL A   1      37.773  23.016  25.786  1.00  0.00     0.227 C 
ATOM     79  H   UNL A   1      38.891  23.169  27.400  1.00  0.00     0.163 HD
ATOM     80  O   UNL A   1      37.177  24.044  26.132  1.00  0.00    -0.274 OA
BRANCH  78  81
ATOM     81  C   UNL A   1      37.284  22.260  24.534  1.00  0.00     0.103 C 
ATOM     82  C   UNL A   1      36.540  22.973  23.459  1.00  0.00    -0.016 C 
ATOM     83  C   UNL A   1      36.231  21.195  24.924  1.00  0.00     0.047 C 
ATOM     84  C   UNL A   1      35.221  22.786  23.560  1.00  0.00    -0.006 C 
ATOM     85  C   UNL A   1      34.859  21.858  24.670  1.00  0.00     0.106 C 
BRANCH  85  86
ATOM     86  N   UNL A   1      34.411  22.567  25.853  1.00  0.00    -0.347 N 
ATOM     87  C   UNL A   1      33.416  23.467  26.045  1.00  0.00     0.261 C 
ATOM     88  H   UNL A   1      34.924  22.354  26.666  1.00  0.00     0.164 HD
ATOM     89  O   UNL A   1      32.767  23.301  27.089  1.00  0.00    -0.271 OA
BRANCH  87  90
ATOM     90  C   UNL A   1      33.123  24.708  25.185  1.00  0.00     0.266 C 
ATOM     91  C   UNL A   1      34.110  25.857  25.019  1.00  0.00     0.095 C 
ATOM     92  O   UNL A   1      31.865  25.248  25.687  1.00  0.00    -0.480 OA
ATOM     93  C   UNL A   1      33.483  26.871  25.902  1.00  0.00    -0.002 A 
ATOM     94  C   UNL A   1      32.196  26.466  26.212  1.00  0.00     0.123 A 
ATOM     95  C   UNL A   1      33.958  28.094  26.343  1.00  0.00     0.008 A 
ATOM     96  C   UNL A   1      31.338  27.245  26.963  1.00  0.00     0.047 A 
ATOM     97  C   UNL A   1      33.116  28.891  27.127  1.00  0.00     0.001 A 
ATOM     98  C   UNL A   1      31.810  28.470  27.433  1.00  0.00     0.004 A 
ENDBRANCH  87  90
ENDBRANCH  85  86
ENDBRANCH  78  81
ENDBRANCH  76  77
ENDBRANCH  75  76
ENDBRANCH   1  75
TORSDOF 16
ENDMDL
MODEL 2
REMARK VINA RESULT:     -12.5      1.569      3.252
REMARK SMILES O=C(NCCCCNC(=O)[C@@H]1C=C[C@H](NC(=O)[C@@H]2Cc3ccccc3O2)C1)c1ccc(-c2c3nc(c(-c4c(F)cc(S(=O)(=O)[O-])cc4F)c4ccc([nH]4)c(-c4c(F)cc(S(=O)(=O)[O-])cc4F)c4nc(c(-c5c(F)cc(S(=O)(=O)[O-])cc5F)c5ccc2[nH]5)C=C4)C=C3)cc1
REMARK SMILES IDX 5 1 4 2 3 3 1 4 2 5 28 7 29 8 93 9 30 10 92 11 31 12 32 13
REMARK SMILES IDX 33 14 86 15 34 16 91 17 85 18 87 19 35 20 90 21 84 22 83 23
REMARK SMILES IDX 36 25 70 26 49 27 69 28 50 29 53 30 68 31 88 32 51 33 52 34
REMARK SMILES IDX 67 36 89 37 54 38 37 39 38 40 47 41 39 42 40 43 46 44 48 45
REMARK SMILES IDX 41 46 42 47 43 48 44 49 45 50 71 51 72 52 81 53 73 54 74 55
REMARK SMILES IDX 80 56 82 57 75 58 76 59 77 60 78 61 79 62 55 63 56 64 65 65
REMARK SMILES IDX 57 66 58 67 64 68 66 69 59 70 60 71 61 72 62 73 63 74 6 75
REMARK SMILES IDX 7 76 8 77 9 78 10 80 11 81 12 82 27 83 13 84 14 85 15 86
REMARK SMILES IDX 16 87 17 89 18 90 19 91 26 92 20 93 25 94 21 95 24 96 22 97
REMARK SMILES IDX 23 98
REMARK H PARENT 3 6 87 24 53 35 8 79 15 88
REMARK Flexibility Score: inf
ROOT
ATOM      1  C   UNL A   1      40.254  21.763  26.791  1.00  0.00     0.023 C 
ENDROOT
BRANCH   1   2
ATOM      2  C   UNL A   1      40.247  23.245  27.155  1.00  0.00     0.116 C 
BRANCH   2   3
ATOM      3  N   UNL A   1      40.708  24.117  26.082  1.00  0.00    -0.352 N 
ATOM      4  O   UNL A   1      41.326  26.068  25.130  1.00  0.00    -0.269 OA
ATOM      5  C   UNL A   1      41.038  25.455  26.147  1.00  0.00     0.251 C 
ATOM      6  H   UNL A   1      40.797  23.695  25.197  1.00  0.00     0.163 HD
BRANCH   5   7
ATOM      7  C   UNL A   1      40.984  26.145  27.457  1.00  0.00     0.039 A 
ATOM      8  C   UNL A   1      39.873  26.006  28.288  1.00  0.00     0.014 A 
ATOM      9  C   UNL A   1      42.033  26.994  27.823  1.00  0.00     0.014 A 
ATOM     10  C   UNL A   1      39.727  26.846  29.386  1.00  0.00     0.010 A 
ATOM     11  C   UNL A   1      41.922  27.777  28.978  1.00  0.00     0.010 A 
ATOM     12  C   UNL A   1      40.743  27.752  29.737  1.00  0.00    -0.014 A 
BRANCH  12  13
ATOM     13  C   UNL A   1      40.532  28.659  30.897  1.00  0.00     0.031 A 
ATOM     14  C   UNL A   1      41.437  28.605  32.102  1.00  0.00     0.074 A 
ATOM     15  C   UNL A   1      39.556  29.586  30.831  1.00  0.00     0.049 A 
ATOM     16  N   UNL A   1      41.434  29.364  33.169  1.00  0.00    -0.248 NA
ATOM     17  C   UNL A   1      42.475  27.561  32.116  1.00  0.00     0.031 C 
ATOM     18  C   UNL A   1      38.608  29.732  29.723  1.00  0.00     0.029 A 
ATOM     19  N   UNL A   1      39.219  30.600  31.691  1.00  0.00    -0.354 N 
ATOM     20  C   UNL A   1      42.439  28.872  33.995  1.00  0.00     0.074 A 
ATOM     21  C   UNL A   1      43.025  27.738  33.311  1.00  0.00     0.031 C 
ATOM     22  C   UNL A   1      37.840  30.809  29.941  1.00  0.00     0.029 A 
ATOM     23  C   UNL A   1      38.203  31.400  31.224  1.00  0.00     0.049 A 
ATOM     24  H   UNL A   1      39.661  30.740  32.559  1.00  0.00     0.167 HD
ATOM     25  C   UNL A   1      42.840  29.326  35.207  1.00  0.00     0.037 A 
ATOM     26  C   UNL A   1      37.626  32.489  31.766  1.00  0.00     0.037 A 
ATOM     27  C   UNL A   1      42.283  30.480  35.865  1.00  0.00     0.049 A 
ATOM     28  C   UNL A   1      38.112  32.991  33.094  1.00  0.00     0.074 A 
ATOM     29  C   UNL A   1      42.650  31.041  37.077  1.00  0.00     0.029 A 
ATOM     30  N   UNL A   1      41.247  31.255  35.366  1.00  0.00    -0.354 N 
ATOM     31  N   UNL A   1      39.074  32.521  33.850  1.00  0.00    -0.248 NA
ATOM     32  C   UNL A   1      37.434  34.172  33.644  1.00  0.00     0.031 C 
ATOM     33  C   UNL A   1      41.816  32.138  37.324  1.00  0.00     0.029 A 
ATOM     34  C   UNL A   1      40.954  32.282  36.249  1.00  0.00     0.049 A 
ATOM     35  H   UNL A   1      40.788  31.099  34.509  1.00  0.00     0.167 HD
ATOM     36  C   UNL A   1      39.127  33.355  34.959  1.00  0.00     0.074 A 
ATOM     37  C   UNL A   1      38.111  34.370  34.766  1.00  0.00     0.031 C 
ATOM     38  C   UNL A   1      39.941  33.285  36.041  1.00  0.00     0.037 A 
BRANCH  25  39
ATOM     39  C   UNL A   1      43.927  28.563  35.915  1.00  0.00     0.058 A 
ATOM     40  C   UNL A   1      43.640  27.495  36.780  1.00  0.00     0.135 A 
ATOM     41  C   UNL A   1      45.277  28.881  35.693  1.00  0.00     0.135 A 
ATOM     42  F   UNL A   1      42.367  27.159  37.040  1.00  0.00    -0.206 F 
ATOM     43  C   UNL A   1      44.654  26.786  37.420  1.00  0.00     0.059 A 
ATOM     44  C   UNL A   1      46.307  28.170  36.303  1.00  0.00     0.059 A 
ATOM     45  F   UNL A   1      45.606  29.892  34.872  1.00  0.00    -0.206 F 
ATOM     46  C   UNL A   1      45.985  27.134  37.177  1.00  0.00     0.060 A 
BRANCH  46  47
ATOM     47  S   UNL A   1      47.292  26.205  38.008  1.00  0.00     0.124 S 
ATOM     48  O   UNL A   1      48.154  27.282  38.485  1.00  0.00    -0.237 OA
ATOM     49  O   UNL A   1      46.557  25.479  39.039  1.00  0.00    -0.237 OA
ATOM     50  O   UNL A   1      47.851  25.380  36.942  1.00  0.00    -0.744 OA
ENDBRANCH  46  47
ENDBRANCH  25  39
BRANCH  26  51
ATOM     51  C   UNL A   1      36.536  33.182  31.034  1.00  0.00     0.058 A 
ATOM     52  C   UNL A   1      35.202  33.072  31.453  1.00  0.00     0.135 A 
ATOM     53  C   UNL A   1      36.812  33.998  29.926  1.00  0.00     0.135 A 
ATOM     54  F   UNL A   1      34.891  32.301  32.505  1.00  0.00    -0.206 F 
ATOM     55  C   UNL A   1      34.176  33.741  30.794  1.00  0.00     0.059 A 
ATOM     56  C   UNL A   1      35.806  34.696  29.266  1.00  0.00     0.059 A 
ATOM     57  F   UNL A   1      38.075  34.149  29.500  1.00  0.00    -0.206 F 
ATOM     58  C   UNL A   1      34.490  34.554  29.703  1.00  0.00     0.060 A 
BRANCH  58  59
ATOM     59  S   UNL A   1      33.164  35.476  28.894  1.00  0.00     0.124 S 
ATOM     60  O   UNL A   1      32.523  34.432  28.104  1.00  0.00    -0.237 OA
ATOM     61  O   UNL A   1      32.398  35.980  30.029  1.00  0.00    -0.237 OA
ATOM     62  O   UNL A   1      33.884  36.494  28.134  1.00  0.00    -0.744 OA
ENDBRANCH  58  59
ENDBRANCH  26  51
BRANCH  38  63
ATOM     63  C   UNL A   1      39.781  34.353  37.084  1.00  0.00     0.058 A 
ATOM     64  C   UNL A   1      38.977  34.158  38.218  1.00  0.00     0.135 A 
ATOM     65  C   UNL A   1      40.450  35.580  36.955  1.00  0.00     0.135 A 
ATOM     66  F   UNL A   1      38.310  33.004  38.383  1.00  0.00    -0.206 F 
ATOM     67  C   UNL A   1      38.818  35.154  39.175  1.00  0.00     0.059 A 
ATOM     68  C   UNL A   1      40.323  36.582  37.911  1.00  0.00     0.059 A 
ATOM     69  F   UNL A   1      41.237  35.812  35.892  1.00  0.00    -0.206 F 
ATOM     70  C   UNL A   1      39.492  36.366  39.009  1.00  0.00     0.060 A 
BRANCH  70  71
ATOM     71  S   UNL A   1      39.288  37.653  40.258  1.00  0.00     0.124 S 
ATOM     72  O   UNL A   1      38.254  38.487  39.654  1.00  0.00    -0.237 OA
ATOM     73  O   UNL A   1      38.880  36.891  41.435  1.00  0.00    -0.237 OA
ATOM     74  O   UNL A   1      40.615  38.257  40.340  1.00  0.00    -0.744 OA
ENDBRANCH  70  71
ENDBRANCH  38  63
ENDBRANCH  12  13
ENDBRANCH   5   7
ENDBRANCH   2   3
ENDBRANCH   1   2
BRANCH   1  75
ATOM     75  C   UNL A   1      39.165  21.331  25.806  1.00  0.00     0.023 C 
BRANCH  75  76
ATOM     76  C   UNL A   1      37.910  22.200  25.822  1.00  0.00     0.116 C 
BRANCH  76  77
ATOM     77  N   UNL A   1      37.382  22.410  24.488  1.00  0.00    -0.356 N 
ATOM     78  C   UNL A   1      36.398  23.203  23.996  1.00  0.00     0.227 C 
ATOM     79  H   UNL A   1      37.830  21.867  23.799  1.00  0.00     0.163 HD
ATOM     80  O   UNL A   1      36.140  23.068  22.792  1.00  0.00    -0.274 OA
BRANCH  78  81
ATOM     81  C   UNL A   1      35.631  24.271  24.803  1.00  0.00     0.103 C 
ATOM     82  C   UNL A   1      34.851  23.894  26.014  1.00  0.00    -0.016 C 
ATOM     83  C   UNL A   1      34.504  24.890  23.942  1.00  0.00     0.047 C 
ATOM     84  C   UNL A   1      33.547  23.778  25.748  1.00  0.00    -0.006 C 
ATOM     85  C   UNL A   1      33.219  24.129  24.336  1.00  0.00     0.106 C 
BRANCH  85  86
ATOM     86  N   UNL A   1      33.050  22.953  23.504  1.00  0.00    -0.347 N 
ATOM     87  C   UNL A   1      32.628  21.697  23.789  1.00  0.00     0.261 C 
ATOM     88  H   UNL A   1      33.286  23.094  22.558  1.00  0.00     0.164 HD
ATOM     89  O   UNL A   1      31.864  21.208  22.943  1.00  0.00    -0.271 OA
BRANCH  87  90
ATOM     90  C   UNL A   1      33.102  20.811  24.953  1.00  0.00     0.266 C 
ATOM     91  C   UNL A   1      34.506  20.223  25.032  1.00  0.00     0.095 C 
ATOM     92  O   UNL A   1      32.139  19.720  25.037  1.00  0.00    -0.480 OA
ATOM     93  C   UNL A   1      34.221  18.815  24.663  1.00  0.00    -0.002 A 
ATOM     94  C   UNL A   1      32.856  18.600  24.720  1.00  0.00     0.123 A 
ATOM     95  C   UNL A   1      35.084  17.770  24.374  1.00  0.00     0.008 A 
ATOM     96  C   UNL A   1      32.294  17.359  24.496  1.00  0.00     0.047 A 
ATOM     97  C   UNL A   1      34.537  16.508  24.119  1.00  0.00     0.001 A 
ATOM     98  C   UNL A   1      33.148  16.302  24.182  1.00  0.00     0.004 A 
ENDBRANCH  87  90
ENDBRANCH  85  86
ENDBRANCH  78  81
ENDBRANCH  76  77
ENDBRANCH  75  76
ENDBRANCH   1  75
TORSDOF 16
ENDMDL
MODEL 3
REMARK VINA RESULT:     -12.4      1.075      1.777
REMARK SMILES O=C(NCCCCNC(=O)[C@@H]1C=C[C@H](NC(=O)[C@@H]2Cc3ccccc3O2)C1)c1ccc(-c2c3nc(c(-c4c(F)cc(S(=O)(=O)[O-])cc4F)c4ccc([nH]4)c(-c4c(F)cc(S(=O)(=O)[O-])cc4F)c4nc(c(-c5c(F)cc(S(=O)(=O)[O-])cc5F)c5ccc2[nH]5)C=C4)C=C3)cc1
REMARK SMILES IDX 5 1 4 2 3 3 1 4 2 5 28 7 29 8 93 9 30 10 92 11 31 12 32 13
REMARK SMILES IDX 33 14 86 15 34 16 91 17 85 18 87 19 35 20 90 21 84 22 83 23
REMARK SMILES IDX 36 25 70 26 49 27 69 28 50 29 53 30 68 31 88 32 51 33 52 34
REMARK SMILES IDX 67 36 89 37 54 38 37 39 38 40 47 41 39 42 40 43 46 44 48 45
REMARK SMILES IDX 41 46 42 47 43 48 44 49 45 50 71 51 72 52 81 53 73 54 74 55
REMARK SMILES IDX 80 56 82 57 75 58 76 59 77 60 78 61 79 62 55 63 56 64 65 65
REMARK SMILES IDX 57 66 58 67 64 68 66 69 59 70 60 71 61 72 62 73 63 74 6 75
REMARK SMILES IDX 7 76 8 77 9 78 10 80 11 81 12 82 27 83 13 84 14 85 15 86
REMARK SMILES IDX 16 87 17 89 18 90 19 91 26 92 20 93 25 94 21 95 24 96 22 97
REMARK SMILES IDX 23 98
REMARK H PARENT 3 6 87 24 53 35 8 79 15 88
REMARK Flexibility Score: inf
ROOT
ATOM      1  C   UNL A   1      39.826  21.833  26.783  1.00  0.00     0.023 C 
ENDROOT
BRANCH   1   2
ATOM      2  C   UNL A   1      40.527  23.117  27.217  1.00  0.00     0.116 C 
BRANCH   2   3
ATOM      3  N   UNL A   1      40.845  24.016  26.116  1.00  0.00    -0.352 N 
ATOM      4  O   UNL A   1      41.219  26.006  25.118  1.00  0.00    -0.269 OA
ATOM      5  C   UNL A   1      41.045  25.381  26.153  1.00  0.00     0.251 C 
ATOM      6  H   UNL A   1      40.929  23.594  25.230  1.00  0.00     0.163 HD
BRANCH   5   7
ATOM      7  C   UNL A   1      40.991  26.078  27.459  1.00  0.00     0.039 A 
ATOM      8  C   UNL A   1      39.874  25.955  28.285  1.00  0.00     0.014 A 
ATOM      9  C   UNL A   1      42.046  26.919  27.826  1.00  0.00     0.014 A 
ATOM     10  C   UNL A   1      39.730  26.802  29.377  1.00  0.00     0.010 A 
ATOM     11  C   UNL A   1      41.936  27.710  28.975  1.00  0.00     0.010 A 
ATOM     12  C   UNL A   1      40.753  27.700  29.729  1.00  0.00    -0.014 A 
BRANCH  12  13
ATOM     13  C   UNL A   1      40.544  28.616  30.882  1.00  0.00     0.031 A 
ATOM     14  C   UNL A   1      41.450  28.568  32.087  1.00  0.00     0.074 A 
ATOM     15  C   UNL A   1      39.570  29.545  30.810  1.00  0.00     0.049 A 
ATOM     16  N   UNL A   1      41.448  29.335  33.149  1.00  0.00    -0.248 NA
ATOM     17  C   UNL A   1      42.485  27.522  32.109  1.00  0.00     0.031 C 
ATOM     18  C   UNL A   1      38.623  29.686  29.702  1.00  0.00     0.029 A 
ATOM     19  N   UNL A   1      39.236  30.566  31.663  1.00  0.00    -0.354 N 
ATOM     20  C   UNL A   1      42.453  28.846  33.978  1.00  0.00     0.074 A 
ATOM     21  C   UNL A   1      43.035  27.706  33.302  1.00  0.00     0.031 C 
ATOM     22  C   UNL A   1      37.857  30.766  29.912  1.00  0.00     0.029 A 
ATOM     23  C   UNL A   1      38.222  31.365  31.191  1.00  0.00     0.049 A 
ATOM     24  H   UNL A   1      39.679  30.711  32.530  1.00  0.00     0.167 HD
ATOM     25  C   UNL A   1      42.856  29.308  35.186  1.00  0.00     0.037 A 
ATOM     26  C   UNL A   1      37.647  32.459  31.725  1.00  0.00     0.037 A 
ATOM     27  C   UNL A   1      42.301  30.468  35.837  1.00  0.00     0.049 A 
ATOM     28  C   UNL A   1      38.135  32.969  33.049  1.00  0.00     0.074 A 
ATOM     29  C   UNL A   1      42.670  31.037  37.045  1.00  0.00     0.029 A 
ATOM     30  N   UNL A   1      41.267  31.242  35.332  1.00  0.00    -0.354 N 
ATOM     31  N   UNL A   1      39.097  32.502  33.808  1.00  0.00    -0.248 NA
ATOM     32  C   UNL A   1      37.459  34.155  33.591  1.00  0.00     0.031 C 
ATOM     33  C   UNL A   1      41.838  32.137  37.284  1.00  0.00     0.029 A 
ATOM     34  C   UNL A   1      40.977  32.276  36.208  1.00  0.00     0.049 A 
ATOM     35  H   UNL A   1      40.807  31.081  34.477  1.00  0.00     0.167 HD
ATOM     36  C   UNL A   1      39.151  33.344  34.912  1.00  0.00     0.074 A 
ATOM     37  C   UNL A   1      38.137  34.360  34.712  1.00  0.00     0.031 C 
ATOM     38  C   UNL A   1      39.966  33.280  35.994  1.00  0.00     0.037 A 
BRANCH  25  39
ATOM     39  C   UNL A   1      43.941  28.547  35.900  1.00  0.00     0.058 A 
ATOM     40  C   UNL A   1      45.298  28.867  35.741  1.00  0.00     0.135 A 
ATOM     41  C   UNL A   1      43.612  27.509  36.786  1.00  0.00     0.135 A 
ATOM     42  F   UNL A   1      45.669  29.841  34.895  1.00  0.00    -0.206 F 
ATOM     43  C   UNL A   1      46.293  28.166  36.418  1.00  0.00     0.059 A 
ATOM     44  C   UNL A   1      44.589  26.810  37.490  1.00  0.00     0.059 A 
ATOM     45  F   UNL A   1      42.328  27.164  36.977  1.00  0.00    -0.206 F 
ATOM     46  C   UNL A   1      45.929  27.137  37.287  1.00  0.00     0.060 A 
BRANCH  46  47
ATOM     47  S   UNL A   1      47.227  26.237  38.163  1.00  0.00     0.124 S 
ATOM     48  O   UNL A   1      47.158  24.929  37.518  1.00  0.00    -0.237 OA
ATOM     49  O   UNL A   1      48.417  27.028  37.865  1.00  0.00    -0.237 OA
ATOM     50  O   UNL A   1      46.786  26.274  39.554  1.00  0.00    -0.744 OA
ENDBRANCH  46  47
ENDBRANCH  25  39
BRANCH  26  51
ATOM     51  C   UNL A   1      36.559  33.149  30.989  1.00  0.00     0.058 A 
ATOM     52  C   UNL A   1      35.223  33.030  31.398  1.00  0.00     0.135 A 
ATOM     53  C   UNL A   1      36.838  33.971  29.886  1.00  0.00     0.135 A 
ATOM     54  F   UNL A   1      34.908  32.253  32.445  1.00  0.00    -0.206 F 
ATOM     55  C   UNL A   1      34.198  33.697  30.735  1.00  0.00     0.059 A 
ATOM     56  C   UNL A   1      35.833  34.667  29.222  1.00  0.00     0.059 A 
ATOM     57  F   UNL A   1      38.103  34.131  29.470  1.00  0.00    -0.206 F 
ATOM     58  C   UNL A   1      34.515  34.516  29.649  1.00  0.00     0.060 A 
BRANCH  58  59
ATOM     59  S   UNL A   1      33.190  35.434  28.835  1.00  0.00     0.124 S 
ATOM     60  O   UNL A   1      33.944  36.413  28.062  1.00  0.00    -0.237 OA
ATOM     61  O   UNL A   1      32.516  34.393  28.066  1.00  0.00    -0.237 OA
ATOM     62  O   UNL A   1      32.419  35.969  29.955  1.00  0.00    -0.744 OA
ENDBRANCH  58  59
ENDBRANCH  26  51
BRANCH  38  63
ATOM     63  C   UNL A   1      39.808  34.355  37.029  1.00  0.00     0.058 A 
ATOM     64  C   UNL A   1      40.500  35.574  36.935  1.00  0.00     0.135 A 
ATOM     65  C   UNL A   1      38.944  34.172  38.119  1.00  0.00     0.135 A 
ATOM     66  F   UNL A   1      41.344  35.793  35.914  1.00  0.00    -0.206 F 
ATOM     67  C   UNL A   1      40.364  36.562  37.903  1.00  0.00     0.059 A 
ATOM     68  C   UNL A   1      38.776  35.156  39.088  1.00  0.00     0.059 A 
ATOM     69  F   UNL A   1      38.253  33.028  38.250  1.00  0.00    -0.206 F 
ATOM     70  C   UNL A   1      39.502  36.341  38.980  1.00  0.00     0.060 A 
BRANCH  70  71
ATOM     71  S   UNL A   1      39.323  37.631  40.230  1.00  0.00     0.124 S 
ATOM     72  O   UNL A   1      38.258  38.448  39.658  1.00  0.00    -0.237 OA
ATOM     73  O   UNL A   1      38.966  36.869  41.423  1.00  0.00    -0.237 OA
ATOM     74  O   UNL A   1      40.644  38.253  40.265  1.00  0.00    -0.744 OA
ENDBRANCH  70  71
ENDBRANCH  38  63
ENDBRANCH  12  13
ENDBRANCH   5   7
ENDBRANCH   2   3
ENDBRANCH   1   2
BRANCH   1  75
ATOM     75  C   UNL A   1      38.733  22.016  25.727  1.00  0.00     0.023 C 
BRANCH  75  76
ATOM     76  C   UNL A   1      37.656  23.034  26.093  1.00  0.00     0.116 C 
BRANCH  76  77
ATOM     77  N   UNL A   1      36.404  22.394  26.449  1.00  0.00    -0.356 N 
ATOM     78  C   UNL A   1      35.187  22.343  25.853  1.00  0.00     0.227 C 
ATOM     79  H   UNL A   1      36.448  21.893  27.296  1.00  0.00     0.163 HD
ATOM     80  O   UNL A   1      34.294  21.768  26.489  1.00  0.00    -0.274 OA
BRANCH  78  81
ATOM     81  C   UNL A   1      34.862  22.896  24.450  1.00  0.00     0.103 C 
ATOM     82  C   UNL A   1      34.913  24.359  24.179  1.00  0.00    -0.016 C 
ATOM     83  C   UNL A   1      33.385  22.610  24.088  1.00  0.00     0.047 C 
ATOM     84  C   UNL A   1      33.697  24.912  24.208  1.00  0.00    -0.006 C 
ATOM     85  C   UNL A   1      32.618  23.907  24.427  1.00  0.00     0.106 C 
BRANCH  85  86
ATOM     86  N   UNL A   1      32.164  23.881  25.804  1.00  0.00    -0.347 N 
ATOM     87  C   UNL A   1      30.978  24.214  26.371  1.00  0.00     0.261 C 
ATOM     88  H   UNL A   1      32.842  23.564  26.444  1.00  0.00     0.164 HD
ATOM     89  O   UNL A   1      30.593  23.430  27.253  1.00  0.00    -0.271 OA
BRANCH  87  90
ATOM     90  C   UNL A   1      30.170  25.498  26.123  1.00  0.00     0.266 C 
ATOM     91  C   UNL A   1      29.811  25.998  24.729  1.00  0.00     0.095 C 
ATOM     92  O   UNL A   1      30.886  26.558  26.824  1.00  0.00    -0.480 OA
ATOM     93  C   UNL A   1      30.780  27.113  24.593  1.00  0.00    -0.002 A 
ATOM     94  C   UNL A   1      31.325  27.392  25.834  1.00  0.00     0.123 A 
ATOM     95  C   UNL A   1      31.111  27.886  23.492  1.00  0.00     0.008 A 
ATOM     96  C   UNL A   1      32.210  28.433  26.034  1.00  0.00     0.047 A 
ATOM     97  C   UNL A   1      32.025  28.932  23.665  1.00  0.00     0.001 A 
ATOM     98  C   UNL A   1      32.570  29.207  24.930  1.00  0.00     0.004 A 
ENDBRANCH  87  90
ENDBRANCH  85  86
ENDBRANCH  78  81
ENDBRANCH  76  77
ENDBRANCH  75  76
ENDBRANCH   1  75
TORSDOF 16
ENDMDL
