MODEL 1
REMARK VINA RESULT:     -11.8      0.000      0.000
REMARK SMILES O=C(CC1(NC(=O)c2ccncc2Cl)CCCCC1)NCCCCNC(=O)c1ccc(-c2c3nc(c(-c4c(F)cc(S(=O)(=O)[O-])cc4F)c4ccc([nH]4)c(-c4c(F)cc(S(=O)(=O)[O-])cc4F)c4nc(c(-c5c(F)cc(S(=O)(=O)[O-])cc5F)c5ccc2[nH]5)C=C4)C=C3)cc1
REMARK SMILES IDX 22 1 21 2 20 3 1 4 2 5 3 7 4 8 15 9 19 10 16 11 18 12 17 13
REMARK SMILES IDX 5 14 6 15 7 17 8 18 9 19 13 20 10 21 12 22 14 23 11 24 23 25
REMARK SMILES IDX 24 26 25 27 26 28 27 30 28 31 29 32 93 33 30 34 92 35 31 36
REMARK SMILES IDX 32 37 33 38 86 39 34 40 91 41 85 42 87 43 35 44 90 45 84 46
REMARK SMILES IDX 83 47 36 49 70 50 49 51 69 52 50 53 53 54 68 55 88 56 51 57
REMARK SMILES IDX 52 58 67 60 89 61 54 62 37 63 38 64 47 65 39 66 40 67 46 68
REMARK SMILES IDX 48 69 41 70 42 71 43 72 44 73 45 74 71 75 72 76 81 77 73 78
REMARK SMILES IDX 74 79 80 80 82 81 75 82 76 83 77 84 78 85 79 86 55 87 56 88
REMARK SMILES IDX 65 89 57 90 58 91 64 92 66 93 59 94 60 95 61 96 62 97 63 98
REMARK H PARENT 20 6 5 16 25 29 87 48 53 59
REMARK Flexibility Score: inf
ROOT
ATOM      1  C   UNL A   1      32.701  28.873  27.153  1.00  0.00     0.023 C 
ENDROOT
BRANCH   1   2
ATOM      2  C   UNL A   1      31.620  27.814  27.368  1.00  0.00     0.116 C 
BRANCH   2   3
ATOM      3  N   UNL A   1      31.504  26.962  26.210  1.00  0.00    -0.356 N 
ATOM      4  O   UNL A   1      31.470  24.921  27.289  1.00  0.00    -0.275 OA
ATOM      5  C   UNL A   1      31.474  25.585  26.265  1.00  0.00     0.222 C 
ATOM      6  H   UNL A   1      31.443  27.391  25.325  1.00  0.00     0.163 HD
BRANCH   5   7
ATOM      7  C   UNL A   1      31.480  24.978  24.878  1.00  0.00     0.128 C 
BRANCH   7   8
ATOM      8  C   UNL A   1      32.835  24.467  24.319  1.00  0.00     0.049 C 
ATOM      9  C   UNL A   1      33.973  25.061  25.196  1.00  0.00     0.029 C 
ATOM     10  C   UNL A   1      32.916  22.909  24.364  1.00  0.00     0.029 C 
ATOM     11  C   UNL A   1      35.352  24.446  24.945  1.00  0.00     0.002 C 
ATOM     12  C   UNL A   1      34.310  22.318  24.151  1.00  0.00     0.002 C 
ATOM     13  C   UNL A   1      35.320  22.935  25.108  1.00  0.00     0.000 C 
BRANCH   8  14
ATOM     14  N   UNL A   1      33.087  24.888  22.893  1.00  0.00    -0.346 N 
ATOM     15  C   UNL A   1      32.933  26.019  22.126  1.00  0.00     0.253 C 
ATOM     16  H   UNL A   1      33.467  24.149  22.365  1.00  0.00     0.164 HD
ATOM     17  O   UNL A   1      33.374  26.040  20.981  1.00  0.00    -0.269 OA
BRANCH  15  18
ATOM     18  C   UNL A   1      32.134  27.166  22.566  1.00  0.00     0.061 A 
ATOM     19  C   UNL A   1      30.748  27.081  22.375  1.00  0.00     0.035 A 
ATOM     20  C   UNL A   1      32.690  28.286  23.176  1.00  0.00     0.072 A 
ATOM     21  C   UNL A   1      29.957  28.086  22.901  1.00  0.00     0.112 A 
ATOM     22  C   UNL A   1      31.806  29.224  23.686  1.00  0.00     0.132 A 
ATOM     23  Cl  UNL A   1      34.379  28.539  23.344  1.00  0.00    -0.082 Cl
ATOM     24  N   UNL A   1      30.456  29.140  23.581  1.00  0.00    -0.263 NA
ENDBRANCH  15  18
ENDBRANCH   8  14
ENDBRANCH   7   8
ENDBRANCH   5   7
ENDBRANCH   2   3
ENDBRANCH   1   2
BRANCH   1  25
ATOM     25  C   UNL A   1      34.135  28.335  27.048  1.00  0.00     0.023 C 
BRANCH  25  26
ATOM     26  C   UNL A   1      35.235  29.327  27.412  1.00  0.00     0.116 C 
BRANCH  26  27
ATOM     27  N   UNL A   1      35.135  29.780  28.788  1.00  0.00    -0.352 N 
ATOM     28  C   UNL A   1      36.100  29.849  29.763  1.00  0.00     0.251 C 
ATOM     29  H   UNL A   1      34.239  30.084  29.064  1.00  0.00     0.163 HD
ATOM     30  O   UNL A   1      35.770  30.084  30.923  1.00  0.00    -0.269 OA
BRANCH  28  31
ATOM     31  C   UNL A   1      37.523  29.616  29.430  1.00  0.00     0.039 A 
ATOM     32  C   UNL A   1      38.413  29.305  30.460  1.00  0.00     0.014 A 
ATOM     33  C   UNL A   1      37.986  29.718  28.114  1.00  0.00     0.014 A 
ATOM     34  C   UNL A   1      39.752  29.035  30.164  1.00  0.00     0.010 A 
ATOM     35  C   UNL A   1      39.303  29.375  27.813  1.00  0.00     0.010 A 
ATOM     36  C   UNL A   1      40.201  29.030  28.833  1.00  0.00    -0.014 A 
BRANCH  36  37
ATOM     37  C   UNL A   1      41.600  28.655  28.493  1.00  0.00     0.031 A 
ATOM     38  C   UNL A   1      42.680  29.703  28.442  1.00  0.00     0.074 A 
ATOM     39  C   UNL A   1      41.888  27.377  28.172  1.00  0.00     0.049 A 
ATOM     40  N   UNL A   1      43.937  29.578  28.101  1.00  0.00    -0.248 NA
ATOM     41  C   UNL A   1      42.290  31.077  28.796  1.00  0.00     0.031 C 
ATOM     42  C   UNL A   1      40.922  26.277  28.140  1.00  0.00     0.029 A 
ATOM     43  N   UNL A   1      43.071  26.789  27.799  1.00  0.00    -0.354 N 
ATOM     44  C   UNL A   1      44.485  30.852  28.193  1.00  0.00     0.074 A 
ATOM     45  C   UNL A   1      43.409  31.746  28.563  1.00  0.00     0.031 C 
ATOM     46  C   UNL A   1      41.553  25.146  27.785  1.00  0.00     0.029 A 
ATOM     47  C   UNL A   1      42.958  25.445  27.523  1.00  0.00     0.049 A 
ATOM     48  H   UNL A   1      43.921  27.282  27.734  1.00  0.00     0.167 HD
ATOM     49  C   UNL A   1      45.770  31.239  28.009  1.00  0.00     0.037 A 
ATOM     50  C   UNL A   1      43.876  24.556  27.096  1.00  0.00     0.037 A 
ATOM     51  C   UNL A   1      46.840  30.342  27.651  1.00  0.00     0.049 A 
ATOM     52  C   UNL A   1      45.295  25.011  26.881  1.00  0.00     0.074 A 
ATOM     53  C   UNL A   1      48.184  30.628  27.487  1.00  0.00     0.029 A 
ATOM     54  N   UNL A   1      46.689  28.986  27.397  1.00  0.00    -0.354 N 
ATOM     55  N   UNL A   1      45.807  26.210  27.033  1.00  0.00    -0.248 NA
ATOM     56  C   UNL A   1      46.262  23.994  26.447  1.00  0.00     0.031 C 
ATOM     57  C   UNL A   1      48.835  29.458  27.083  1.00  0.00     0.029 A 
ATOM     58  C   UNL A   1      47.910  28.428  27.055  1.00  0.00     0.049 A 
ATOM     59  H   UNL A   1      45.838  28.493  27.452  1.00  0.00     0.167 HD
ATOM     60  C   UNL A   1      47.161  26.085  26.738  1.00  0.00     0.074 A 
ATOM     61  C   UNL A   1      47.389  24.691  26.414  1.00  0.00     0.031 C 
ATOM     62  C   UNL A   1      48.127  27.037  26.739  1.00  0.00     0.037 A 
BRANCH  49  63
ATOM     63  C   UNL A   1      46.093  32.698  28.193  1.00  0.00     0.058 A 
ATOM     64  C   UNL A   1      45.975  33.619  27.139  1.00  0.00     0.135 A 
ATOM     65  C   UNL A   1      46.492  33.192  29.447  1.00  0.00     0.135 A 
ATOM     66  F   UNL A   1      45.610  33.203  25.915  1.00  0.00    -0.206 F 
ATOM     67  C   UNL A   1      46.274  34.967  27.310  1.00  0.00     0.059 A 
ATOM     68  C   UNL A   1      46.765  34.541  29.650  1.00  0.00     0.059 A 
ATOM     69  F   UNL A   1      46.620  32.359  30.491  1.00  0.00    -0.206 F 
ATOM     70  C   UNL A   1      46.669  35.418  28.570  1.00  0.00     0.060 A 
BRANCH  70  71
ATOM     71  S   UNL A   1      47.054  37.170  28.774  1.00  0.00     0.124 S 
ATOM     72  O   UNL A   1      47.878  37.149  29.979  1.00  0.00    -0.237 OA
ATOM     73  O   UNL A   1      47.756  37.481  27.532  1.00  0.00    -0.237 OA
ATOM     74  O   UNL A   1      45.742  37.793  28.923  1.00  0.00    -0.744 OA
ENDBRANCH  70  71
ENDBRANCH  49  63
BRANCH  50  75
ATOM     75  C   UNL A   1      43.481  23.142  26.854  1.00  0.00     0.058 A 
ATOM     76  C   UNL A   1      43.360  22.636  25.551  1.00  0.00     0.135 A 
ATOM     77  C   UNL A   1      43.234  22.263  27.921  1.00  0.00     0.135 A 
ATOM     78  F   UNL A   1      43.579  23.437  24.498  1.00  0.00    -0.206 F 
ATOM     79  C   UNL A   1      42.994  21.314  25.313  1.00  0.00     0.059 A 
ATOM     80  C   UNL A   1      42.895  20.931  27.709  1.00  0.00     0.059 A 
ATOM     81  F   UNL A   1      43.354  22.692  29.187  1.00  0.00    -0.206 F 
ATOM     82  C   UNL A   1      42.768  20.468  26.400  1.00  0.00     0.060 A 
BRANCH  82  83
ATOM     83  S   UNL A   1      42.348  18.741  26.080  1.00  0.00     0.124 S 
ATOM     84  O   UNL A   1      43.310  18.391  25.042  1.00  0.00    -0.237 OA
ATOM     85  O   UNL A   1      42.566  18.127  27.386  1.00  0.00    -0.237 OA
ATOM     86  O   UNL A   1      40.954  18.809  25.654  1.00  0.00    -0.744 OA
ENDBRANCH  82  83
ENDBRANCH  50  75
BRANCH  62  87
ATOM     87  C   UNL A   1      49.532  26.604  26.414  1.00  0.00     0.058 A 
ATOM     88  C   UNL A   1      50.356  25.987  27.367  1.00  0.00     0.135 A 
ATOM     89  C   UNL A   1      50.039  26.760  25.114  1.00  0.00     0.135 A 
ATOM     90  F   UNL A   1      49.925  25.818  28.627  1.00  0.00    -0.206 F 
ATOM     91  C   UNL A   1      51.643  25.563  27.050  1.00  0.00     0.059 A 
ATOM     92  C   UNL A   1      51.310  26.316  24.766  1.00  0.00     0.059 A 
ATOM     93  F   UNL A   1      49.288  27.335  24.161  1.00  0.00    -0.206 F 
ATOM     94  C   UNL A   1      52.111  25.730  25.745  1.00  0.00     0.060 A 
BRANCH  94  95
ATOM     95  S   UNL A   1      53.768  25.143  25.338  1.00  0.00     0.124 S 
ATOM     96  O   UNL A   1      53.598  23.696  25.421  1.00  0.00    -0.237 OA
ATOM     97  O   UNL A   1      53.969  25.682  23.996  1.00  0.00    -0.237 OA
ATOM     98  O   UNL A   1      54.604  25.737  26.376  1.00  0.00    -0.744 OA
ENDBRANCH  94  95
ENDBRANCH  62  87
ENDBRANCH  36  37
ENDBRANCH  28  31
ENDBRANCH  26  27
ENDBRANCH  25  26
ENDBRANCH   1  25
TORSDOF 17
ENDMDL
MODEL 2
REMARK VINA RESULT:     -11.8      6.778     12.102
REMARK SMILES O=C(CC1(NC(=O)c2ccncc2Cl)CCCCC1)NCCCCNC(=O)c1ccc(-c2c3nc(c(-c4c(F)cc(S(=O)(=O)[O-])cc4F)c4ccc([nH]4)c(-c4c(F)cc(S(=O)(=O)[O-])cc4F)c4nc(c(-c5c(F)cc(S(=O)(=O)[O-])cc5F)c5ccc2[nH]5)C=C4)C=C3)cc1
REMARK SMILES IDX 22 1 21 2 20 3 1 4 2 5 3 7 4 8 15 9 19 10 16 11 18 12 17 13
REMARK SMILES IDX 5 14 6 15 7 17 8 18 9 19 13 20 10 21 12 22 14 23 11 24 23 25
REMARK SMILES IDX 24 26 25 27 26 28 27 30 28 31 29 32 93 33 30 34 92 35 31 36
REMARK SMILES IDX 32 37 33 38 86 39 34 40 91 41 85 42 87 43 35 44 90 45 84 46
REMARK SMILES IDX 83 47 36 49 70 50 49 51 69 52 50 53 53 54 68 55 88 56 51 57
REMARK SMILES IDX 52 58 67 60 89 61 54 62 37 63 38 64 47 65 39 66 40 67 46 68
REMARK SMILES IDX 48 69 41 70 42 71 43 72 44 73 45 74 71 75 72 76 81 77 73 78
REMARK SMILES IDX 74 79 80 80 82 81 75 82 76 83 77 84 78 85 79 86 55 87 56 88
REMARK SMILES IDX 65 89 57 90 58 91 64 92 66 93 59 94 60 95 61 96 62 97 63 98
REMARK H PARENT 20 6 5 16 25 29 87 48 53 59
REMARK Flexibility Score: inf
ROOT
ATOM      1  C   UNL A   1      39.642  21.365  26.117  1.00  0.00     0.023 C 
ENDROOT
BRANCH   1   2
ATOM      2  C   UNL A   1      38.721  22.583  26.176  1.00  0.00     0.116 C 
BRANCH   2   3
ATOM      3  N   UNL A   1      37.340  22.184  26.052  1.00  0.00    -0.356 N 
ATOM      4  O   UNL A   1      37.197  22.161  23.748  1.00  0.00    -0.275 OA
ATOM      5  C   UNL A   1      36.684  22.040  24.849  1.00  0.00     0.222 C 
ATOM      6  H   UNL A   1      36.836  22.002  26.879  1.00  0.00     0.163 HD
BRANCH   5   7
ATOM      7  C   UNL A   1      35.214  21.741  25.056  1.00  0.00     0.128 C 
BRANCH   7   8
ATOM      8  C   UNL A   1      34.196  22.870  24.741  1.00  0.00     0.049 C 
ATOM      9  C   UNL A   1      34.615  24.134  25.543  1.00  0.00     0.029 C 
ATOM     10  C   UNL A   1      34.181  23.213  23.219  1.00  0.00     0.029 C 
ATOM     11  C   UNL A   1      33.873  25.411  25.144  1.00  0.00     0.002 C 
ATOM     12  C   UNL A   1      33.470  24.514  22.846  1.00  0.00     0.002 C 
ATOM     13  C   UNL A   1      34.009  25.685  23.655  1.00  0.00     0.000 C 
BRANCH   8  14
ATOM     14  N   UNL A   1      32.782  22.522  25.137  1.00  0.00    -0.346 N 
ATOM     15  C   UNL A   1      32.003  21.394  25.231  1.00  0.00     0.253 C 
ATOM     16  H   UNL A   1      32.279  23.326  25.402  1.00  0.00     0.164 HD
ATOM     17  O   UNL A   1      30.882  21.470  25.725  1.00  0.00    -0.269 OA
BRANCH  15  18
ATOM     18  C   UNL A   1      32.394  20.114  24.633  1.00  0.00     0.061 A 
ATOM     19  C   UNL A   1      32.872  19.129  25.508  1.00  0.00     0.035 A 
ATOM     20  C   UNL A   1      32.280  19.848  23.274  1.00  0.00     0.072 A 
ATOM     21  C   UNL A   1      33.121  17.869  24.994  1.00  0.00     0.112 A 
ATOM     22  C   UNL A   1      32.534  18.547  22.866  1.00  0.00     0.132 A 
ATOM     23  Cl  UNL A   1      31.823  21.023  22.108  1.00  0.00    -0.082 Cl
ATOM     24  N   UNL A   1      32.931  17.549  23.696  1.00  0.00    -0.263 NA
ENDBRANCH  15  18
ENDBRANCH   8  14
ENDBRANCH   7   8
ENDBRANCH   5   7
ENDBRANCH   2   3
ENDBRANCH   1   2
BRANCH   1  25
ATOM     25  C   UNL A   1      41.105  21.628  26.502  1.00  0.00     0.023 C 
BRANCH  25  26
ATOM     26  C   UNL A   1      41.412  23.045  26.975  1.00  0.00     0.116 C 
BRANCH  26  27
ATOM     27  N   UNL A   1      41.854  23.904  25.890  1.00  0.00    -0.352 N 
ATOM     28  C   UNL A   1      41.970  25.272  25.844  1.00  0.00     0.251 C 
ATOM     29  H   UNL A   1      42.110  23.434  25.063  1.00  0.00     0.163 HD
ATOM     30  O   UNL A   1      42.184  25.824  24.768  1.00  0.00    -0.269 OA
BRANCH  28  31
ATOM     31  C   UNL A   1      41.814  26.081  27.074  1.00  0.00     0.039 A 
ATOM     32  C   UNL A   1      42.747  27.084  27.342  1.00  0.00     0.014 A 
ATOM     33  C   UNL A   1      40.766  25.845  27.969  1.00  0.00     0.014 A 
ATOM     34  C   UNL A   1      42.594  27.893  28.473  1.00  0.00     0.010 A 
ATOM     35  C   UNL A   1      40.573  26.700  29.053  1.00  0.00     0.010 A 
ATOM     36  C   UNL A   1      41.484  27.732  29.318  1.00  0.00    -0.014 A 
BRANCH  36  37
ATOM     37  C   UNL A   1      41.258  28.642  30.473  1.00  0.00     0.031 A 
ATOM     38  C   UNL A   1      42.089  28.511  31.722  1.00  0.00     0.074 A 
ATOM     39  C   UNL A   1      40.262  29.551  30.420  1.00  0.00     0.049 A 
ATOM     40  N   UNL A   1      41.992  29.167  32.850  1.00  0.00    -0.248 NA
ATOM     41  C   UNL A   1      43.150  27.493  31.710  1.00  0.00     0.031 C 
ATOM     42  C   UNL A   1      39.357  29.746  29.285  1.00  0.00     0.029 A 
ATOM     43  N   UNL A   1      39.834  30.471  31.345  1.00  0.00    -0.354 N 
ATOM     44  C   UNL A   1      42.973  28.639  33.683  1.00  0.00     0.074 A 
ATOM     45  C   UNL A   1      43.612  27.567  32.950  1.00  0.00     0.031 C 
ATOM     46  C   UNL A   1      38.495  30.734  29.573  1.00  0.00     0.029 A 
ATOM     47  C   UNL A   1      38.755  31.215  30.927  1.00  0.00     0.049 A 
ATOM     48  H   UNL A   1      40.260  30.586  32.226  1.00  0.00     0.167 HD
ATOM     49  C   UNL A   1      43.324  29.025  34.933  1.00  0.00     0.037 A 
ATOM     50  C   UNL A   1      38.046  32.168  31.564  1.00  0.00     0.037 A 
ATOM     51  C   UNL A   1      42.691  30.100  35.653  1.00  0.00     0.049 A 
ATOM     52  C   UNL A   1      38.443  32.569  32.959  1.00  0.00     0.074 A 
ATOM     53  C   UNL A   1      43.004  30.598  36.905  1.00  0.00     0.029 A 
ATOM     54  N   UNL A   1      41.612  30.841  35.189  1.00  0.00    -0.354 N 
ATOM     55  N   UNL A   1      39.413  32.099  33.707  1.00  0.00    -0.248 NA
ATOM     56  C   UNL A   1      37.657  33.636  33.594  1.00  0.00     0.031 C 
ATOM     57  C   UNL A   1      42.084  31.603  37.220  1.00  0.00     0.029 A 
ATOM     58  C   UNL A   1      41.234  31.775  36.140  1.00  0.00     0.049 A 
ATOM     59  H   UNL A   1      41.180  30.720  34.313  1.00  0.00     0.167 HD
ATOM     60  C   UNL A   1      39.370  32.831  34.890  1.00  0.00     0.074 A 
ATOM     61  C   UNL A   1      38.287  33.783  34.751  1.00  0.00     0.031 C 
ATOM     62  C   UNL A   1      40.157  32.724  35.989  1.00  0.00     0.037 A 
BRANCH  49  63
ATOM     63  C   UNL A   1      44.447  28.280  35.604  1.00  0.00     0.058 A 
ATOM     64  C   UNL A   1      45.778  28.722  35.521  1.00  0.00     0.135 A 
ATOM     65  C   UNL A   1      44.190  27.131  36.369  1.00  0.00     0.135 A 
ATOM     66  F   UNL A   1      46.087  29.807  34.793  1.00  0.00    -0.206 F 
ATOM     67  C   UNL A   1      46.816  28.033  36.141  1.00  0.00     0.059 A 
ATOM     68  C   UNL A   1      45.207  26.444  37.025  1.00  0.00     0.059 A 
ATOM     69  F   UNL A   1      42.937  26.664  36.486  1.00  0.00    -0.206 F 
ATOM     70  C   UNL A   1      46.519  26.894  36.891  1.00  0.00     0.060 A 
BRANCH  70  71
ATOM     71  S   UNL A   1      47.878  26.012  37.687  1.00  0.00     0.124 S 
ATOM     72  O   UNL A   1      47.294  24.688  37.878  1.00  0.00    -0.237 OA
ATOM     73  O   UNL A   1      48.936  26.099  36.686  1.00  0.00    -0.237 OA
ATOM     74  O   UNL A   1      48.112  26.776  38.910  1.00  0.00    -0.744 OA
ENDBRANCH  70  71
ENDBRANCH  49  63
BRANCH  50  75
ATOM     75  C   UNL A   1      36.893  32.815  30.880  1.00  0.00     0.058 A 
ATOM     76  C   UNL A   1      35.573  32.443  31.175  1.00  0.00     0.135 A 
ATOM     77  C   UNL A   1      37.089  33.831  29.930  1.00  0.00     0.135 A 
ATOM     78  F   UNL A   1      35.334  31.473  32.069  1.00  0.00    -0.206 F 
ATOM     79  C   UNL A   1      34.489  33.043  30.543  1.00  0.00     0.059 A 
ATOM     80  C   UNL A   1      36.020  34.465  29.306  1.00  0.00     0.059 A 
ATOM     81  F   UNL A   1      38.331  34.237  29.625  1.00  0.00    -0.206 F 
ATOM     82  C   UNL A   1      34.723  34.058  29.613  1.00  0.00     0.060 A 
BRANCH  82  83
ATOM     83  S   UNL A   1      33.305  34.868  28.840  1.00  0.00     0.124 S 
ATOM     84  O   UNL A   1      32.461  35.150  29.995  1.00  0.00    -0.237 OA
ATOM     85  O   UNL A   1      33.926  36.026  28.204  1.00  0.00    -0.237 OA
ATOM     86  O   UNL A   1      32.800  33.854  27.921  1.00  0.00    -0.744 OA
ENDBRANCH  82  83
ENDBRANCH  50  75
BRANCH  62  87
ATOM     87  C   UNL A   1      39.906  33.684  37.121  1.00  0.00     0.058 A 
ATOM     88  C   UNL A   1      40.515  34.947  37.170  1.00  0.00     0.135 A 
ATOM     89  C   UNL A   1      39.000  33.354  38.142  1.00  0.00     0.135 A 
ATOM     90  F   UNL A   1      41.394  35.312  36.223  1.00  0.00    -0.206 F 
ATOM     91  C   UNL A   1      40.254  35.840  38.205  1.00  0.00     0.059 A 
ATOM     92  C   UNL A   1      38.700  34.243  39.170  1.00  0.00     0.059 A 
ATOM     93  F   UNL A   1      38.382  32.163  38.138  1.00  0.00    -0.206 F 
ATOM     94  C   UNL A   1      39.343  35.480  39.200  1.00  0.00     0.060 A 
BRANCH  94  95
ATOM     95  S   UNL A   1      38.987  36.662  40.517  1.00  0.00     0.124 S 
ATOM     96  O   UNL A   1      37.973  35.948  41.287  1.00  0.00    -0.237 OA
ATOM     97  O   UNL A   1      40.288  36.808  41.163  1.00  0.00    -0.237 OA
ATOM     98  O   UNL A   1      38.514  37.841  39.798  1.00  0.00    -0.744 OA
ENDBRANCH  94  95
ENDBRANCH  62  87
ENDBRANCH  36  37
ENDBRANCH  28  31
ENDBRANCH  26  27
ENDBRANCH  25  26
ENDBRANCH   1  25
TORSDOF 17
ENDMDL
MODEL 3
REMARK VINA RESULT:     -11.7      2.377      8.125
REMARK SMILES O=C(CC1(NC(=O)c2ccncc2Cl)CCCCC1)NCCCCNC(=O)c1ccc(-c2c3nc(c(-c4c(F)cc(S(=O)(=O)[O-])cc4F)c4ccc([nH]4)c(-c4c(F)cc(S(=O)(=O)[O-])cc4F)c4nc(c(-c5c(F)cc(S(=O)(=O)[O-])cc5F)c5ccc2[nH]5)C=C4)C=C3)cc1
REMARK SMILES IDX 22 1 21 2 20 3 1 4 2 5 3 7 4 8 15 9 19 10 16 11 18 12 17 13
REMARK SMILES IDX 5 14 6 15 7 17 8 18 9 19 13 20 10 21 12 22 14 23 11 24 23 25
REMARK SMILES IDX 24 26 25 27 26 28 27 30 28 31 29 32 93 33 30 34 92 35 31 36
REMARK SMILES IDX 32 37 33 38 86 39 34 40 91 41 85 42 87 43 35 44 90 45 84 46
REMARK SMILES IDX 83 47 36 49 70 50 49 51 69 52 50 53 53 54 68 55 88 56 51 57
REMARK SMILES IDX 52 58 67 60 89 61 54 62 37 63 38 64 47 65 39 66 40 67 46 68
REMARK SMILES IDX 48 69 41 70 42 71 43 72 44 73 45 74 71 75 72 76 81 77 73 78
REMARK SMILES IDX 74 79 80 80 82 81 75 82 76 83 77 84 78 85 79 86 55 87 56 88
REMARK SMILES IDX 65 89 57 90 58 91 64 92 66 93 59 94 60 95 61 96 62 97 63 98
REMARK H PARENT 20 6 5 16 25 29 87 48 53 59
REMARK Flexibility Score: inf
ROOT
ATOM      1  C   UNL A   1      37.169  20.991  24.760  1.00  0.00     0.023 C 
ENDROOT
BRANCH   1   2
ATOM      2  C   UNL A   1      37.493  22.361  25.355  1.00  0.00     0.116 C 
BRANCH   2   3
ATOM      3  N   UNL A   1      36.301  22.984  25.877  1.00  0.00    -0.356 N 
ATOM      4  O   UNL A   1      35.451  23.811  23.896  1.00  0.00    -0.275 OA
ATOM      5  C   UNL A   1      35.397  23.687  25.109  1.00  0.00     0.222 C 
ATOM      6  H   UNL A   1      36.121  22.901  26.842  1.00  0.00     0.163 HD
BRANCH   5   7
ATOM      7  C   UNL A   1      34.327  24.328  25.967  1.00  0.00     0.128 C 
BRANCH   7   8
ATOM      8  C   UNL A   1      32.845  24.058  25.594  1.00  0.00     0.049 C 
ATOM      9  C   UNL A   1      32.567  22.541  25.792  1.00  0.00     0.029 C 
ATOM     10  C   UNL A   1      31.873  24.878  26.500  1.00  0.00     0.029 C 
ATOM     11  C   UNL A   1      31.087  22.155  25.723  1.00  0.00     0.002 C 
ATOM     12  C   UNL A   1      30.407  24.449  26.446  1.00  0.00     0.002 C 
ATOM     13  C   UNL A   1      30.261  22.958  26.714  1.00  0.00     0.000 C 
BRANCH   8  14
ATOM     14  N   UNL A   1      32.520  24.401  24.161  1.00  0.00    -0.346 N 
ATOM     15  C   UNL A   1      32.436  25.531  23.382  1.00  0.00     0.253 C 
ATOM     16  H   UNL A   1      32.311  23.593  23.640  1.00  0.00     0.164 HD
ATOM     17  O   UNL A   1      32.254  25.421  22.173  1.00  0.00    -0.269 OA
BRANCH  15  18
ATOM     18  C   UNL A   1      32.412  26.881  23.952  1.00  0.00     0.061 A 
ATOM     19  C   UNL A   1      33.651  27.456  24.266  1.00  0.00     0.035 A 
ATOM     20  C   UNL A   1      31.237  27.595  24.154  1.00  0.00     0.072 A 
ATOM     21  C   UNL A   1      33.668  28.776  24.677  1.00  0.00     0.112 A 
ATOM     22  C   UNL A   1      31.368  28.918  24.549  1.00  0.00     0.132 A 
ATOM     23  Cl  UNL A   1      29.669  26.937  23.917  1.00  0.00    -0.082 Cl
ATOM     24  N   UNL A   1      32.554  29.529  24.794  1.00  0.00    -0.263 NA
ENDBRANCH  15  18
ENDBRANCH   8  14
ENDBRANCH   7   8
ENDBRANCH   5   7
ENDBRANCH   2   3
ENDBRANCH   1   2
BRANCH   1  25
ATOM     25  C   UNL A   1      38.193  19.887  25.058  1.00  0.00     0.023 C 
BRANCH  25  26
ATOM     26  C   UNL A   1      39.396  20.317  25.892  1.00  0.00     0.116 C 
BRANCH  26  27
ATOM     27  N   UNL A   1      40.388  19.263  26.013  1.00  0.00    -0.352 N 
ATOM     28  C   UNL A   1      41.749  19.351  26.173  1.00  0.00     0.251 C 
ATOM     29  H   UNL A   1      40.030  18.346  25.974  1.00  0.00     0.163 HD
ATOM     30  O   UNL A   1      42.437  18.339  26.066  1.00  0.00    -0.269 OA
BRANCH  28  31
ATOM     31  C   UNL A   1      42.390  20.658  26.447  1.00  0.00     0.039 A 
ATOM     32  C   UNL A   1      42.916  21.385  25.378  1.00  0.00     0.014 A 
ATOM     33  C   UNL A   1      42.489  21.158  27.749  1.00  0.00     0.014 A 
ATOM     34  C   UNL A   1      43.485  22.642  25.605  1.00  0.00     0.010 A 
ATOM     35  C   UNL A   1      42.988  22.442  27.963  1.00  0.00     0.010 A 
ATOM     36  C   UNL A   1      43.491  23.199  26.894  1.00  0.00    -0.014 A 
BRANCH  36  37
ATOM     37  C   UNL A   1      44.009  24.572  27.138  1.00  0.00     0.031 A 
ATOM     38  C   UNL A   1      43.073  25.681  27.540  1.00  0.00     0.074 A 
ATOM     39  C   UNL A   1      45.317  24.836  26.939  1.00  0.00     0.049 A 
ATOM     40  N   UNL A   1      43.329  26.950  27.729  1.00  0.00    -0.248 NA
ATOM     41  C   UNL A   1      41.659  25.320  27.730  1.00  0.00     0.031 C 
ATOM     42  C   UNL A   1      46.319  23.859  26.505  1.00  0.00     0.029 A 
ATOM     43  N   UNL A   1      46.027  26.004  27.063  1.00  0.00    -0.354 N 
ATOM     44  C   UNL A   1      42.112  27.539  28.054  1.00  0.00     0.074 A 
ATOM     45  C   UNL A   1      41.108  26.500  27.975  1.00  0.00     0.031 C 
ATOM     46  C   UNL A   1      47.514  24.464  26.416  1.00  0.00     0.029 A 
ATOM     47  C   UNL A   1      47.360  25.878  26.744  1.00  0.00     0.049 A 
ATOM     48  H   UNL A   1      45.620  26.853  27.351  1.00  0.00     0.167 HD
ATOM     49  C   UNL A   1      41.857  28.822  28.406  1.00  0.00     0.037 A 
ATOM     50  C   UNL A   1      48.345  26.797  26.706  1.00  0.00     0.037 A 
ATOM     51  C   UNL A   1      42.863  29.850  28.493  1.00  0.00     0.049 A 
ATOM     52  C   UNL A   1      48.036  28.220  27.086  1.00  0.00     0.074 A 
ATOM     53  C   UNL A   1      42.713  31.169  28.886  1.00  0.00     0.029 A 
ATOM     54  N   UNL A   1      44.204  29.679  28.179  1.00  0.00    -0.354 N 
ATOM     55  N   UNL A   1      46.890  28.746  27.448  1.00  0.00    -0.248 NA
ATOM     56  C   UNL A   1      49.153  29.174  27.059  1.00  0.00     0.031 C 
ATOM     57  C   UNL A   1      43.951  31.807  28.759  1.00  0.00     0.029 A 
ATOM     58  C   UNL A   1      44.887  30.873  28.346  1.00  0.00     0.049 A 
ATOM     59  H   UNL A   1      44.610  28.833  27.880  1.00  0.00     0.167 HD
ATOM     60  C   UNL A   1      47.153  30.085  27.719  1.00  0.00     0.074 A 
ATOM     61  C   UNL A   1      48.570  30.284  27.492  1.00  0.00     0.031 C 
ATOM     62  C   UNL A   1      46.300  31.059  28.122  1.00  0.00     0.037 A 
BRANCH  49  63
ATOM     63  C   UNL A   1      40.432  29.188  28.727  1.00  0.00     0.058 A 
ATOM     64  C   UNL A   1      39.986  29.325  30.052  1.00  0.00     0.135 A 
ATOM     65  C   UNL A   1      39.508  29.441  27.700  1.00  0.00     0.135 A 
ATOM     66  F   UNL A   1      40.821  29.083  31.076  1.00  0.00    -0.206 F 
ATOM     67  C   UNL A   1      38.669  29.663  30.347  1.00  0.00     0.059 A 
ATOM     68  C   UNL A   1      38.194  29.812  27.971  1.00  0.00     0.059 A 
ATOM     69  F   UNL A   1      39.878  29.328  26.415  1.00  0.00    -0.206 F 
ATOM     70  C   UNL A   1      37.780  29.904  29.299  1.00  0.00     0.060 A 
BRANCH  70  71
ATOM     71  S   UNL A   1      36.075  30.340  29.701  1.00  0.00     0.124 S 
ATOM     72  O   UNL A   1      35.348  29.722  28.596  1.00  0.00    -0.237 OA
ATOM     73  O   UNL A   1      35.893  29.715  31.007  1.00  0.00    -0.237 OA
ATOM     74  O   UNL A   1      36.088  31.800  29.704  1.00  0.00    -0.744 OA
ENDBRANCH  70  71
ENDBRANCH  49  63
BRANCH  50  75
ATOM     75  C   UNL A   1      49.720  26.394  26.304  1.00  0.00     0.058 A 
ATOM     76  C   UNL A   1      50.167  26.558  24.985  1.00  0.00     0.135 A 
ATOM     77  C   UNL A   1      50.620  25.851  27.236  1.00  0.00     0.135 A 
ATOM     78  F   UNL A   1      49.343  27.066  24.056  1.00  0.00    -0.206 F 
ATOM     79  C   UNL A   1      51.451  26.187  24.599  1.00  0.00     0.059 A 
ATOM     80  C   UNL A   1      51.918  25.498  26.880  1.00  0.00     0.059 A 
ATOM     81  F   UNL A   1      50.248  25.689  28.515  1.00  0.00    -0.206 F 
ATOM     82  C   UNL A   1      52.321  25.662  25.556  1.00  0.00     0.060 A 
BRANCH  82  83
ATOM     83  S   UNL A   1      54.004  25.235  25.056  1.00  0.00     0.124 S 
ATOM     84  O   UNL A   1      54.110  25.914  23.771  1.00  0.00    -0.237 OA
ATOM     85  O   UNL A   1      54.797  25.797  26.145  1.00  0.00    -0.237 OA
ATOM     86  O   UNL A   1      53.976  23.777  25.001  1.00  0.00    -0.744 OA
ENDBRANCH  82  83
ENDBRANCH  50  75
BRANCH  62  87
ATOM     87  C   UNL A   1      46.876  32.426  28.380  1.00  0.00     0.058 A 
ATOM     88  C   UNL A   1      47.408  32.782  29.629  1.00  0.00     0.135 A 
ATOM     89  C   UNL A   1      46.946  33.373  27.346  1.00  0.00     0.135 A 
ATOM     90  F   UNL A   1      47.362  31.917  30.656  1.00  0.00    -0.206 F 
ATOM     91  C   UNL A   1      47.965  34.038  29.851  1.00  0.00     0.059 A 
ATOM     92  C   UNL A   1      47.526  34.623  27.536  1.00  0.00     0.059 A 
ATOM     93  F   UNL A   1      46.461  33.081  26.129  1.00  0.00    -0.206 F 
ATOM     94  C   UNL A   1      48.022  34.951  28.797  1.00  0.00     0.060 A 
BRANCH  94  95
ATOM     95  S   UNL A   1      48.780  36.563  29.088  1.00  0.00     0.124 S 
ATOM     96  O   UNL A   1      49.919  36.205  29.927  1.00  0.00    -0.237 OA
ATOM     97  O   UNL A   1      49.102  37.005  27.735  1.00  0.00    -0.237 OA
ATOM     98  O   UNL A   1      47.724  37.320  29.753  1.00  0.00    -0.744 OA
ENDBRANCH  94  95
ENDBRANCH  62  87
ENDBRANCH  36  37
ENDBRANCH  28  31
ENDBRANCH  26  27
ENDBRANCH  25  26
ENDBRANCH   1  25
TORSDOF 17
ENDMDL
