MODEL 1
REMARK VINA RESULT:     -11.1      0.000      0.000
REMARK SMILES CC[NH2+][C@]1(C(=O)NCCCCNC(=O)c2ccc(-c3c4nc(c(-c5c(F)cc(S(=O)(=O)[O-])cc5F)c5ccc([nH]5)c(-c5c(F)cc(S(=O)(=O)[O-])cc5F)c5nc(c(-c6c(F)cc(S(=O)(=O)[O-])cc6F)c6ccc3[nH]6)C=C5)C=C4)cc2)CC[C@@H](Sc2ccc(OC)cc2)C1
REMARK SMILES IDX 9 1 8 2 7 3 5 4 6 5 4 7 81 8 93 9 82 10 83 11 3 12 2 15 1 16
REMARK SMILES IDX 84 17 85 18 86 19 92 20 87 21 91 22 88 23 89 24 90 25 10 26
REMARK SMILES IDX 11 27 12 28 13 29 14 31 15 32 16 33 80 34 17 35 79 36 18 37
REMARK SMILES IDX 19 38 20 39 73 40 21 41 78 42 72 43 74 44 22 45 77 46 71 47
REMARK SMILES IDX 70 48 23 50 57 51 36 52 56 53 37 54 40 55 55 56 75 57 38 58
REMARK SMILES IDX 39 59 54 61 76 62 41 63 24 64 25 65 34 66 26 67 27 68 33 69
REMARK SMILES IDX 35 70 28 71 29 72 30 73 31 74 32 75 58 76 59 77 68 78 60 79
REMARK SMILES IDX 61 80 67 81 69 82 62 83 63 84 64 85 65 86 66 87 42 88 43 89
REMARK SMILES IDX 52 90 44 91 45 92 51 93 53 94 46 95 47 96 48 97 49 98 50 99
REMARK H PARENT 7 6 3 13 3 14 12 30 74 49 40 60
REMARK Flexibility Score: inf
ROOT
ATOM      1  C   UNL A   1      31.404  27.854  26.821  1.00  0.00     0.023 C 
ENDROOT
BRANCH   1   2
ATOM      2  C   UNL A   1      31.153  26.543  26.100  1.00  0.00     0.116 C 
BRANCH   2   3
ATOM      3  N   UNL A   1      31.291  25.415  26.981  1.00  0.00    -0.351 N 
ATOM      4  C   UNL A   1      31.599  24.126  26.693  1.00  0.00     0.281 C 
ATOM      5  O   UNL A   1      31.232  23.309  27.547  1.00  0.00    -0.268 OA
ATOM      6  H   UNL A   1      31.140  25.608  27.935  1.00  0.00     0.163 HD
BRANCH   4   7
ATOM      7  C   UNL A   1      32.295  23.682  25.352  1.00  0.00     0.176 C 
ATOM      8  C   UNL A   1      31.174  23.609  24.290  1.00  0.00     0.080 C 
ATOM      9  C   UNL A   1      33.344  24.605  24.676  1.00  0.00     0.094 C 
ATOM     10  C   UNL A   1      31.852  23.669  22.932  1.00  0.00     0.022 C 
ATOM     11  C   UNL A   1      33.149  24.440  23.156  1.00  0.00     0.058 C 
BRANCH   7  12
ATOM     12  N   UNL A   1      32.899  22.321  25.531  1.00  0.00    -0.334 N 
ATOM     13  H   UNL A   1      33.763  22.277  24.989  1.00  0.00     0.347 HD
ATOM     14  H   UNL A   1      33.065  22.196  26.530  1.00  0.00     0.347 HD
BRANCH  12  15
ATOM     15  C   UNL A   1      32.020  21.225  25.098  1.00  0.00     0.257 C 
ATOM     16  C   UNL A   1      32.793  20.204  24.279  1.00  0.00     0.071 C 
ENDBRANCH  12  15
ENDBRANCH   7  12
BRANCH  11  17
ATOM     17  S   UNL A   1      33.424  25.953  22.135  1.00  0.00    -0.122 SA
BRANCH  17  18
ATOM     18  C   UNL A   1      32.207  27.148  22.665  1.00  0.00     0.008 A 
ATOM     19  C   UNL A   1      30.855  27.006  22.331  1.00  0.00     0.019 A 
ATOM     20  C   UNL A   1      32.625  28.353  23.246  1.00  0.00     0.019 A 
ATOM     21  C   UNL A   1      29.930  28.008  22.650  1.00  0.00     0.047 A 
ATOM     22  C   UNL A   1      31.701  29.362  23.555  1.00  0.00     0.047 A 
ATOM     23  C   UNL A   1      30.346  29.170  23.297  1.00  0.00     0.118 A 
BRANCH  23  24
ATOM     24  O   UNL A   1      29.388  30.108  23.563  1.00  0.00    -0.497 OA
ATOM     25  C   UNL A   1      28.094  29.752  23.072  1.00  0.00     0.278 C 
ENDBRANCH  23  24
ENDBRANCH  17  18
ENDBRANCH  11  17
ENDBRANCH   4   7
ENDBRANCH   2   3
ENDBRANCH   1   2
BRANCH   1  26
ATOM     26  C   UNL A   1      32.811  28.050  27.364  1.00  0.00     0.023 C 
BRANCH  26  27
ATOM     27  C   UNL A   1      33.595  29.196  26.738  1.00  0.00     0.116 C 
BRANCH  27  28
ATOM     28  N   UNL A   1      33.606  30.411  27.548  1.00  0.00    -0.352 N 
ATOM     29  C   UNL A   1      34.559  30.897  28.416  1.00  0.00     0.251 C 
ATOM     30  H   UNL A   1      32.803  30.974  27.458  1.00  0.00     0.163 HD
ATOM     31  O   UNL A   1      34.311  31.876  29.105  1.00  0.00    -0.269 OA
BRANCH  29  32
ATOM     32  C   UNL A   1      35.857  30.197  28.535  1.00  0.00     0.039 A 
ATOM     33  C   UNL A   1      36.718  30.161  27.437  1.00  0.00     0.014 A 
ATOM     34  C   UNL A   1      36.246  29.644  29.754  1.00  0.00     0.014 A 
ATOM     35  C   UNL A   1      38.021  29.680  27.602  1.00  0.00     0.010 A 
ATOM     36  C   UNL A   1      37.571  29.276  29.945  1.00  0.00     0.010 A 
ATOM     37  C   UNL A   1      38.479  29.299  28.874  1.00  0.00    -0.014 A 
BRANCH  37  38
ATOM     38  C   UNL A   1      39.899  28.943  29.131  1.00  0.00     0.031 A 
ATOM     39  C   UNL A   1      40.852  29.987  29.651  1.00  0.00     0.074 A 
ATOM     40  C   UNL A   1      40.359  27.723  28.782  1.00  0.00     0.049 A 
ATOM     41  N   UNL A   1      42.151  29.927  29.783  1.00  0.00    -0.248 NA
ATOM     42  C   UNL A   1      40.271  31.287  30.027  1.00  0.00     0.031 C 
ATOM     43  C   UNL A   1      39.555  26.648  28.193  1.00  0.00     0.029 A 
ATOM     44  N   UNL A   1      41.621  27.188  28.850  1.00  0.00    -0.354 N 
ATOM     45  C   UNL A   1      42.545  31.188  30.216  1.00  0.00     0.074 A 
ATOM     46  C   UNL A   1      41.355  32.008  30.274  1.00  0.00     0.031 C 
ATOM     47  C   UNL A   1      40.337  25.577  27.977  1.00  0.00     0.029 A 
ATOM     48  C   UNL A   1      41.704  25.900  28.370  1.00  0.00     0.049 A 
ATOM     49  H   UNL A   1      42.395  27.679  29.209  1.00  0.00     0.167 HD
ATOM     50  C   UNL A   1      43.782  31.617  30.560  1.00  0.00     0.037 A 
ATOM     51  C   UNL A   1      42.763  25.076  28.251  1.00  0.00     0.037 A 
ATOM     52  C   UNL A   1      44.950  30.779  30.561  1.00  0.00     0.049 A 
ATOM     53  C   UNL A   1      44.116  25.552  28.702  1.00  0.00     0.074 A 
ATOM     54  C   UNL A   1      46.233  31.092  30.977  1.00  0.00     0.029 A 
ATOM     55  N   UNL A   1      44.978  29.458  30.138  1.00  0.00    -0.354 N 
ATOM     56  N   UNL A   1      44.458  26.730  29.167  1.00  0.00    -0.248 NA
ATOM     57  C   UNL A   1      45.223  24.591  28.620  1.00  0.00     0.031 C 
ATOM     58  C   UNL A   1      47.042  29.969  30.778  1.00  0.00     0.029 A 
ATOM     59  C   UNL A   1      46.256  28.944  30.275  1.00  0.00     0.049 A 
ATOM     60  H   UNL A   1      44.203  28.960  29.790  1.00  0.00     0.167 HD
ATOM     61  C   UNL A   1      45.816  26.644  29.455  1.00  0.00     0.074 A 
ATOM     62  C   UNL A   1      46.228  25.296  29.122  1.00  0.00     0.031 C 
ATOM     63  C   UNL A   1      46.645  27.596  29.948  1.00  0.00     0.037 A 
BRANCH  50  64
ATOM     64  C   UNL A   1      43.931  33.052  30.986  1.00  0.00     0.058 A 
ATOM     65  C   UNL A   1      44.220  34.067  30.061  1.00  0.00     0.135 A 
ATOM     66  C   UNL A   1      43.745  33.421  32.328  1.00  0.00     0.135 A 
ATOM     67  F   UNL A   1      44.426  33.768  28.768  1.00  0.00    -0.206 F 
ATOM     68  C   UNL A   1      44.347  35.395  30.455  1.00  0.00     0.059 A 
ATOM     69  C   UNL A   1      43.839  34.748  32.739  1.00  0.00     0.059 A 
ATOM     70  F   UNL A   1      43.469  32.490  33.254  1.00  0.00    -0.206 F 
ATOM     71  C   UNL A   1      44.154  35.726  31.796  1.00  0.00     0.060 A 
BRANCH  71  72
ATOM     72  S   UNL A   1      44.305  37.456  32.287  1.00  0.00     0.124 S 
ATOM     73  O   UNL A   1      43.921  38.141  31.058  1.00  0.00    -0.237 OA
ATOM     74  O   UNL A   1      43.352  37.552  33.390  1.00  0.00    -0.237 OA
ATOM     75  O   UNL A   1      45.709  37.582  32.664  1.00  0.00    -0.744 OA
ENDBRANCH  71  72
ENDBRANCH  50  64
BRANCH  51  76
ATOM     76  C   UNL A   1      42.575  23.703  27.710  1.00  0.00     0.058 A 
ATOM     77  C   UNL A   1      42.623  23.464  26.328  1.00  0.00     0.135 A 
ATOM     78  C   UNL A   1      42.380  22.602  28.557  1.00  0.00     0.135 A 
ATOM     79  F   UNL A   1      42.803  24.485  25.478  1.00  0.00    -0.206 F 
ATOM     80  C   UNL A   1      42.474  22.184  25.804  1.00  0.00     0.059 A 
ATOM     81  C   UNL A   1      42.250  21.310  28.057  1.00  0.00     0.059 A 
ATOM     82  F   UNL A   1      42.346  22.775  29.887  1.00  0.00    -0.206 F 
ATOM     83  C   UNL A   1      42.292  21.111  26.678  1.00  0.00     0.060 A 
BRANCH  83  84
ATOM     84  S   UNL A   1      42.168  19.446  25.990  1.00  0.00     0.124 S 
ATOM     85  O   UNL A   1      42.635  18.632  27.106  1.00  0.00    -0.237 OA
ATOM     86  O   UNL A   1      40.746  19.347  25.677  1.00  0.00    -0.237 OA
ATOM     87  O   UNL A   1      43.055  19.497  24.829  1.00  0.00    -0.744 OA
ENDBRANCH  83  84
ENDBRANCH  51  76
BRANCH  63  88
ATOM     88  C   UNL A   1      48.077  27.209  30.190  1.00  0.00     0.058 A 
ATOM     89  C   UNL A   1      49.076  27.450  29.237  1.00  0.00     0.135 A 
ATOM     90  C   UNL A   1      48.460  26.649  31.421  1.00  0.00     0.135 A 
ATOM     91  F   UNL A   1      48.758  27.979  28.044  1.00  0.00    -0.206 F 
ATOM     92  C   UNL A   1      50.407  27.132  29.485  1.00  0.00     0.059 A 
ATOM     93  C   UNL A   1      49.789  26.346  31.700  1.00  0.00     0.059 A 
ATOM     94  F   UNL A   1      47.544  26.410  32.371  1.00  0.00    -0.206 F 
ATOM     95  C   UNL A   1      50.754  26.583  30.721  1.00  0.00     0.060 A 
BRANCH  95  96
ATOM     96  S   UNL A   1      52.491  26.211  31.046  1.00  0.00     0.124 S 
ATOM     97  O   UNL A   1      52.396  24.901  31.681  1.00  0.00    -0.237 OA
ATOM     98  O   UNL A   1      53.071  26.228  29.707  1.00  0.00    -0.237 OA
ATOM     99  O   UNL A   1      52.912  27.303  31.919  1.00  0.00    -0.744 OA
ENDBRANCH  95  96
ENDBRANCH  63  88
ENDBRANCH  37  38
ENDBRANCH  29  32
ENDBRANCH  27  28
ENDBRANCH  26  27
ENDBRANCH   1  26
TORSDOF 19
ENDMDL
MODEL 2
REMARK VINA RESULT:     -10.7      3.059      9.232
REMARK SMILES CC[NH2+][C@]1(C(=O)NCCCCNC(=O)c2ccc(-c3c4nc(c(-c5c(F)cc(S(=O)(=O)[O-])cc5F)c5ccc([nH]5)c(-c5c(F)cc(S(=O)(=O)[O-])cc5F)c5nc(c(-c6c(F)cc(S(=O)(=O)[O-])cc6F)c6ccc3[nH]6)C=C5)C=C4)cc2)CC[C@@H](Sc2ccc(OC)cc2)C1
REMARK SMILES IDX 9 1 8 2 7 3 5 4 6 5 4 7 81 8 93 9 82 10 83 11 3 12 2 15 1 16
REMARK SMILES IDX 84 17 85 18 86 19 92 20 87 21 91 22 88 23 89 24 90 25 10 26
REMARK SMILES IDX 11 27 12 28 13 29 14 31 15 32 16 33 80 34 17 35 79 36 18 37
REMARK SMILES IDX 19 38 20 39 73 40 21 41 78 42 72 43 74 44 22 45 77 46 71 47
REMARK SMILES IDX 70 48 23 50 57 51 36 52 56 53 37 54 40 55 55 56 75 57 38 58
REMARK SMILES IDX 39 59 54 61 76 62 41 63 24 64 25 65 34 66 26 67 27 68 33 69
REMARK SMILES IDX 35 70 28 71 29 72 30 73 31 74 32 75 58 76 59 77 68 78 60 79
REMARK SMILES IDX 61 80 67 81 69 82 62 83 63 84 64 85 65 86 66 87 42 88 43 89
REMARK SMILES IDX 52 90 44 91 45 92 51 93 53 94 46 95 47 96 48 97 49 98 50 99
REMARK H PARENT 7 6 3 13 3 14 12 30 74 49 40 60
REMARK Flexibility Score: inf
ROOT
ATOM      1  C   UNL A   1      33.172  29.689  26.884  1.00  0.00     0.023 C 
ENDROOT
BRANCH   1   2
ATOM      2  C   UNL A   1      32.379  29.640  25.591  1.00  0.00     0.116 C 
BRANCH   2   3
ATOM      3  N   UNL A   1      33.238  29.677  24.439  1.00  0.00    -0.351 N 
ATOM      4  C   UNL A   1      33.337  28.801  23.408  1.00  0.00     0.281 C 
ATOM      5  O   UNL A   1      34.418  28.841  22.805  1.00  0.00    -0.268 OA
ATOM      6  H   UNL A   1      33.842  30.453  24.391  1.00  0.00     0.163 HD
BRANCH   4   7
ATOM      7  C   UNL A   1      32.212  27.762  23.044  1.00  0.00     0.176 C 
ATOM      8  C   UNL A   1      32.901  26.658  22.210  1.00  0.00     0.080 C 
ATOM      9  C   UNL A   1      31.507  26.952  24.164  1.00  0.00     0.094 C 
ATOM     10  C   UNL A   1      31.996  25.438  22.264  1.00  0.00     0.022 C 
ATOM     11  C   UNL A   1      31.233  25.553  23.580  1.00  0.00     0.058 C 
BRANCH   7  12
ATOM     12  N   UNL A   1      31.164  28.434  22.207  1.00  0.00    -0.334 N 
ATOM     13  H   UNL A   1      31.556  29.299  21.832  1.00  0.00     0.347 HD
ATOM     14  H   UNL A   1      30.903  27.778  21.471  1.00  0.00     0.347 HD
BRANCH  12  15
ATOM     15  C   UNL A   1      29.938  28.760  22.950  1.00  0.00     0.257 C 
ATOM     16  C   UNL A   1      29.072  29.731  22.164  1.00  0.00     0.071 C 
ENDBRANCH  12  15
ENDBRANCH   7  12
BRANCH  11  17
ATOM     17  S   UNL A   1      31.365  24.142  24.763  1.00  0.00    -0.122 SA
BRANCH  17  18
ATOM     18  C   UNL A   1      33.098  23.722  24.856  1.00  0.00     0.008 A 
ATOM     19  C   UNL A   1      34.028  24.595  25.431  1.00  0.00     0.019 A 
ATOM     20  C   UNL A   1      33.578  22.600  24.167  1.00  0.00     0.019 A 
ATOM     21  C   UNL A   1      35.399  24.309  25.393  1.00  0.00     0.047 A 
ATOM     22  C   UNL A   1      34.951  22.318  24.117  1.00  0.00     0.047 A 
ATOM     23  C   UNL A   1      35.858  23.151  24.770  1.00  0.00     0.118 A 
BRANCH  23  24
ATOM     24  O   UNL A   1      37.210  22.946  24.761  1.00  0.00    -0.497 OA
ATOM     25  C   UNL A   1      37.576  21.573  24.906  1.00  0.00     0.278 C 
ENDBRANCH  23  24
ENDBRANCH  17  18
ENDBRANCH  11  17
ENDBRANCH   4   7
ENDBRANCH   2   3
ENDBRANCH   1   2
BRANCH   1  26
ATOM     26  C   UNL A   1      34.460  28.882  26.900  1.00  0.00     0.023 C 
BRANCH  26  27
ATOM     27  C   UNL A   1      35.647  29.564  27.570  1.00  0.00     0.116 C 
BRANCH  27  28
ATOM     28  N   UNL A   1      35.543  29.627  29.024  1.00  0.00    -0.352 N 
ATOM     29  C   UNL A   1      36.525  29.636  29.991  1.00  0.00     0.251 C 
ATOM     30  H   UNL A   1      34.622  29.673  29.370  1.00  0.00     0.163 HD
ATOM     31  O   UNL A   1      36.218  29.556  31.171  1.00  0.00    -0.269 OA
BRANCH  29  32
ATOM     32  C   UNL A   1      37.945  29.695  29.581  1.00  0.00     0.039 A 
ATOM     33  C   UNL A   1      38.943  29.505  30.539  1.00  0.00     0.014 A 
ATOM     34  C   UNL A   1      38.281  29.863  28.238  1.00  0.00     0.014 A 
ATOM     35  C   UNL A   1      40.271  29.359  30.127  1.00  0.00     0.010 A 
ATOM     36  C   UNL A   1      39.579  29.602  27.821  1.00  0.00     0.010 A 
ATOM     37  C   UNL A   1      40.589  29.336  28.759  1.00  0.00    -0.014 A 
BRANCH  37  38
ATOM     38  C   UNL A   1      41.956  29.016  28.269  1.00  0.00     0.031 A 
ATOM     39  C   UNL A   1      42.291  27.609  27.848  1.00  0.00     0.074 A 
ATOM     40  C   UNL A   1      42.924  29.955  28.319  1.00  0.00     0.049 A 
ATOM     41  N   UNL A   1      43.454  27.091  27.551  1.00  0.00    -0.248 NA
ATOM     42  C   UNL A   1      41.177  26.647  27.802  1.00  0.00     0.031 C 
ATOM     43  C   UNL A   1      42.748  31.334  28.783  1.00  0.00     0.029 A 
ATOM     44  N   UNL A   1      44.256  29.886  27.997  1.00  0.00    -0.354 N 
ATOM     45  C   UNL A   1      43.218  25.740  27.324  1.00  0.00     0.074 A 
ATOM     46  C   UNL A   1      41.812  25.508  27.568  1.00  0.00     0.031 C 
ATOM     47  C   UNL A   1      43.919  31.985  28.693  1.00  0.00     0.029 A 
ATOM     48  C   UNL A   1      44.940  31.062  28.207  1.00  0.00     0.049 A 
ATOM     49  H   UNL A   1      44.685  29.071  27.649  1.00  0.00     0.167 HD
ATOM     50  C   UNL A   1      44.088  24.784  26.922  1.00  0.00     0.037 A 
ATOM     51  C   UNL A   1      46.242  31.362  28.037  1.00  0.00     0.037 A 
ATOM     52  C   UNL A   1      45.471  25.035  26.618  1.00  0.00     0.049 A 
ATOM     53  C   UNL A   1      47.177  30.301  27.526  1.00  0.00     0.074 A 
ATOM     54  C   UNL A   1      46.415  24.154  26.118  1.00  0.00     0.029 A 
ATOM     55  N   UNL A   1      46.107  26.257  26.773  1.00  0.00    -0.354 N 
ATOM     56  N   UNL A   1      46.922  29.043  27.257  1.00  0.00    -0.248 NA
ATOM     57  C   UNL A   1      48.570  30.698  27.287  1.00  0.00     0.031 C 
ATOM     58  C   UNL A   1      47.629  24.838  25.999  1.00  0.00     0.029 A 
ATOM     59  C   UNL A   1      47.432  26.154  26.387  1.00  0.00     0.049 A 
ATOM     60  H   UNL A   1      45.680  27.078  27.110  1.00  0.00     0.167 HD
ATOM     61  C   UNL A   1      48.118  28.504  26.797  1.00  0.00     0.074 A 
ATOM     62  C   UNL A   1      49.092  29.576  26.812  1.00  0.00     0.031 C 
ATOM     63  C   UNL A   1      48.385  27.235  26.400  1.00  0.00     0.037 A 
BRANCH  50  64
ATOM     64  C   UNL A   1      43.565  23.383  26.765  1.00  0.00     0.058 A 
ATOM     65  C   UNL A   1      43.325  22.825  25.499  1.00  0.00     0.135 A 
ATOM     66  C   UNL A   1      43.338  22.575  27.891  1.00  0.00     0.135 A 
ATOM     67  F   UNL A   1      43.507  23.559  24.389  1.00  0.00    -0.206 F 
ATOM     68  C   UNL A   1      42.851  21.525  25.355  1.00  0.00     0.059 A 
ATOM     69  C   UNL A   1      42.891  21.262  27.769  1.00  0.00     0.059 A 
ATOM     70  F   UNL A   1      43.549  23.059  29.124  1.00  0.00    -0.206 F 
ATOM     71  C   UNL A   1      42.638  20.751  26.496  1.00  0.00     0.060 A 
BRANCH  71  72
ATOM     72  S   UNL A   1      42.040  19.061  26.291  1.00  0.00     0.124 S 
ATOM     73  O   UNL A   1      42.961  18.547  25.283  1.00  0.00    -0.237 OA
ATOM     74  O   UNL A   1      42.199  18.508  27.633  1.00  0.00    -0.237 OA
ATOM     75  O   UNL A   1      40.661  19.239  25.849  1.00  0.00    -0.744 OA
ENDBRANCH  71  72
ENDBRANCH  50  64
BRANCH  51  76
ATOM     76  C   UNL A   1      46.728  32.739  28.323  1.00  0.00     0.058 A 
ATOM     77  C   UNL A   1      47.268  33.063  29.577  1.00  0.00     0.135 A 
ATOM     78  C   UNL A   1      46.697  33.745  27.346  1.00  0.00     0.135 A 
ATOM     79  F   UNL A   1      47.315  32.136  30.546  1.00  0.00    -0.206 F 
ATOM     80  C   UNL A   1      47.750  34.337  29.856  1.00  0.00     0.059 A 
ATOM     81  C   UNL A   1      47.194  35.021  27.594  1.00  0.00     0.059 A 
ATOM     82  F   UNL A   1      46.209  33.480  26.124  1.00  0.00    -0.206 F 
ATOM     83  C   UNL A   1      47.712  35.310  28.856  1.00  0.00     0.060 A 
BRANCH  83  84
ATOM     84  S   UNL A   1      48.403  36.941  29.208  1.00  0.00     0.124 S 
ATOM     85  O   UNL A   1      49.823  36.716  28.965  1.00  0.00    -0.237 OA
ATOM     86  O   UNL A   1      47.713  37.783  28.236  1.00  0.00    -0.237 OA
ATOM     87  O   UNL A   1      48.028  37.169  30.601  1.00  0.00    -0.744 OA
ENDBRANCH  83  84
ENDBRANCH  51  76
BRANCH  63  88
ATOM     88  C   UNL A   1      49.776  26.940  25.916  1.00  0.00     0.058 A 
ATOM     89  C   UNL A   1      50.136  27.098  24.570  1.00  0.00     0.135 A 
ATOM     90  C   UNL A   1      50.776  26.557  26.826  1.00  0.00     0.135 A 
ATOM     91  F   UNL A   1      49.216  27.458  23.662  1.00  0.00    -0.206 F 
ATOM     92  C   UNL A   1      51.438  26.868  24.136  1.00  0.00     0.059 A 
ATOM     93  C   UNL A   1      52.089  26.345  26.418  1.00  0.00     0.059 A 
ATOM     94  F   UNL A   1      50.484  26.403  28.126  1.00  0.00    -0.206 F 
ATOM     95  C   UNL A   1      52.407  26.494  25.069  1.00  0.00     0.060 A 
BRANCH  95  96
ATOM     96  S   UNL A   1      54.102  26.236  24.500  1.00  0.00     0.124 S 
ATOM     97  O   UNL A   1      54.326  24.843  24.867  1.00  0.00    -0.237 OA
ATOM     98  O   UNL A   1      53.997  26.508  23.069  1.00  0.00    -0.237 OA
ATOM     99  O   UNL A   1      54.868  27.218  25.263  1.00  0.00    -0.744 OA
ENDBRANCH  95  96
ENDBRANCH  63  88
ENDBRANCH  37  38
ENDBRANCH  29  32
ENDBRANCH  27  28
ENDBRANCH  26  27
ENDBRANCH   1  26
TORSDOF 19
ENDMDL
MODEL 3
REMARK VINA RESULT:     -10.6      2.607      4.390
REMARK SMILES CC[NH2+][C@]1(C(=O)NCCCCNC(=O)c2ccc(-c3c4nc(c(-c5c(F)cc(S(=O)(=O)[O-])cc5F)c5ccc([nH]5)c(-c5c(F)cc(S(=O)(=O)[O-])cc5F)c5nc(c(-c6c(F)cc(S(=O)(=O)[O-])cc6F)c6ccc3[nH]6)C=C5)C=C4)cc2)CC[C@@H](Sc2ccc(OC)cc2)C1
REMARK SMILES IDX 9 1 8 2 7 3 5 4 6 5 4 7 81 8 93 9 82 10 83 11 3 12 2 15 1 16
REMARK SMILES IDX 84 17 85 18 86 19 92 20 87 21 91 22 88 23 89 24 90 25 10 26
REMARK SMILES IDX 11 27 12 28 13 29 14 31 15 32 16 33 80 34 17 35 79 36 18 37
REMARK SMILES IDX 19 38 20 39 73 40 21 41 78 42 72 43 74 44 22 45 77 46 71 47
REMARK SMILES IDX 70 48 23 50 57 51 36 52 56 53 37 54 40 55 55 56 75 57 38 58
REMARK SMILES IDX 39 59 54 61 76 62 41 63 24 64 25 65 34 66 26 67 27 68 33 69
REMARK SMILES IDX 35 70 28 71 29 72 30 73 31 74 32 75 58 76 59 77 68 78 60 79
REMARK SMILES IDX 61 80 67 81 69 82 62 83 63 84 64 85 65 86 66 87 42 88 43 89
REMARK SMILES IDX 52 90 44 91 45 92 51 93 53 94 46 95 47 96 48 97 49 98 50 99
REMARK H PARENT 7 6 3 13 3 14 12 30 74 49 40 60
REMARK Flexibility Score: inf
ROOT
ATOM      1  C   UNL A   1      33.111  30.402  26.862  1.00  0.00     0.023 C 
ENDROOT
BRANCH   1   2
ATOM      2  C   UNL A   1      32.450  29.492  25.843  1.00  0.00     0.116 C 
BRANCH   2   3
ATOM      3  N   UNL A   1      32.975  29.703  24.521  1.00  0.00    -0.351 N 
ATOM      4  C   UNL A   1      33.287  28.797  23.561  1.00  0.00     0.281 C 
ATOM      5  O   UNL A   1      34.100  29.201  22.720  1.00  0.00    -0.268 OA
ATOM      6  H   UNL A   1      33.131  30.644  24.278  1.00  0.00     0.163 HD
BRANCH   4   7
ATOM      7  C   UNL A   1      32.728  27.325  23.547  1.00  0.00     0.176 C 
ATOM      8  C   UNL A   1      32.985  26.782  22.123  1.00  0.00     0.080 C 
ATOM      9  C   UNL A   1      33.374  26.238  24.447  1.00  0.00     0.094 C 
ATOM     10  C   UNL A   1      32.919  25.267  22.213  1.00  0.00     0.022 C 
ATOM     11  C   UNL A   1      33.321  24.924  23.644  1.00  0.00     0.058 C 
BRANCH   7  12
ATOM     12  N   UNL A   1      31.252  27.349  23.810  1.00  0.00    -0.334 N 
ATOM     13  H   UNL A   1      30.964  26.421  24.121  1.00  0.00     0.347 HD
ATOM     14  H   UNL A   1      31.086  28.062  24.521  1.00  0.00     0.347 HD
BRANCH  12  15
ATOM     15  C   UNL A   1      30.450  27.717  22.634  1.00  0.00     0.257 C 
ATOM     16  C   UNL A   1      29.577  28.926  22.932  1.00  0.00     0.071 C 
ENDBRANCH  12  15
ENDBRANCH   7  12
BRANCH  11  17
ATOM     17  S   UNL A   1      34.749  23.777  23.872  1.00  0.00    -0.122 SA
BRANCH  17  18
ATOM     18  C   UNL A   1      34.054  22.175  24.251  1.00  0.00     0.008 A 
ATOM     19  C   UNL A   1      32.990  21.650  23.508  1.00  0.00     0.019 A 
ATOM     20  C   UNL A   1      34.431  21.517  25.429  1.00  0.00     0.019 A 
ATOM     21  C   UNL A   1      32.376  20.449  23.887  1.00  0.00     0.047 A 
ATOM     22  C   UNL A   1      33.810  20.320  25.816  1.00  0.00     0.047 A 
ATOM     23  C   UNL A   1      32.812  19.764  25.019  1.00  0.00     0.118 A 
BRANCH  23  24
ATOM     24  O   UNL A   1      32.155  18.606  25.333  1.00  0.00    -0.497 OA
ATOM     25  C   UNL A   1      32.766  17.440  24.779  1.00  0.00     0.278 C 
ENDBRANCH  23  24
ENDBRANCH  17  18
ENDBRANCH  11  17
ENDBRANCH   4   7
ENDBRANCH   2   3
ENDBRANCH   1   2
BRANCH   1  26
ATOM     26  C   UNL A   1      34.391  29.872  27.487  1.00  0.00     0.023 C 
BRANCH  26  27
ATOM     27  C   UNL A   1      35.363  30.937  27.981  1.00  0.00     0.116 C 
BRANCH  27  28
ATOM     28  N   UNL A   1      35.382  31.086  29.433  1.00  0.00    -0.352 N 
ATOM     29  C   UNL A   1      36.277  30.613  30.368  1.00  0.00     0.251 C 
ATOM     30  H   UNL A   1      34.636  31.611  29.803  1.00  0.00     0.163 HD
ATOM     31  O   UNL A   1      36.034  30.737  31.559  1.00  0.00    -0.269 OA
BRANCH  29  32
ATOM     32  C   UNL A   1      37.501  29.917  29.913  1.00  0.00     0.039 A 
ATOM     33  C   UNL A   1      37.889  30.018  28.576  1.00  0.00     0.014 A 
ATOM     34  C   UNL A   1      38.297  29.229  30.828  1.00  0.00     0.014 A 
ATOM     35  C   UNL A   1      39.142  29.535  28.188  1.00  0.00     0.010 A 
ATOM     36  C   UNL A   1      39.584  28.856  30.467  1.00  0.00     0.010 A 
ATOM     37  C   UNL A   1      40.028  29.014  29.145  1.00  0.00    -0.014 A 
BRANCH  37  38
ATOM     38  C   UNL A   1      41.429  28.644  28.810  1.00  0.00     0.031 A 
ATOM     39  C   UNL A   1      42.493  29.709  28.758  1.00  0.00     0.074 A 
ATOM     40  C   UNL A   1      41.719  27.381  28.434  1.00  0.00     0.049 A 
ATOM     41  N   UNL A   1      43.725  29.625  28.330  1.00  0.00    -0.248 NA
ATOM     42  C   UNL A   1      42.103  31.059  29.201  1.00  0.00     0.031 C 
ATOM     43  C   UNL A   1      40.761  26.274  28.364  1.00  0.00     0.029 A 
ATOM     44  N   UNL A   1      42.899  26.819  28.017  1.00  0.00    -0.354 N 
ATOM     45  C   UNL A   1      44.242  30.913  28.414  1.00  0.00     0.074 A 
ATOM     46  C   UNL A   1      43.175  31.769  28.883  1.00  0.00     0.031 C 
ATOM     47  C   UNL A   1      41.396  25.164  27.954  1.00  0.00     0.029 A 
ATOM     48  C   UNL A   1      42.795  25.486  27.690  1.00  0.00     0.049 A 
ATOM     49  H   UNL A   1      43.743  27.323  27.956  1.00  0.00     0.167 HD
ATOM     50  C   UNL A   1      45.499  31.340  28.150  1.00  0.00     0.037 A 
ATOM     51  C   UNL A   1      43.717  24.623  27.223  1.00  0.00     0.037 A 
ATOM     52  C   UNL A   1      46.573  30.472  27.746  1.00  0.00     0.049 A 
ATOM     53  C   UNL A   1      45.123  25.104  27.000  1.00  0.00     0.074 A 
ATOM     54  C   UNL A   1      47.904  30.790  27.539  1.00  0.00     0.029 A 
ATOM     55  N   UNL A   1      46.442  29.114  27.498  1.00  0.00    -0.354 N 
ATOM     56  N   UNL A   1      45.610  26.314  27.144  1.00  0.00    -0.248 NA
ATOM     57  C   UNL A   1      46.108  24.108  26.560  1.00  0.00     0.031 C 
ATOM     58  C   UNL A   1      48.572  29.629  27.138  1.00  0.00     0.029 A 
ATOM     59  C   UNL A   1      47.666  28.580  27.133  1.00  0.00     0.049 A 
ATOM     60  H   UNL A   1      45.603  28.604  27.569  1.00  0.00     0.167 HD
ATOM     61  C   UNL A   1      46.962  26.219  26.834  1.00  0.00     0.074 A 
ATOM     62  C   UNL A   1      47.218  24.831  26.507  1.00  0.00     0.031 C 
ATOM     63  C   UNL A   1      47.904  27.193  26.820  1.00  0.00     0.037 A 
BRANCH  50  64
ATOM     64  C   UNL A   1      45.789  32.807  28.313  1.00  0.00     0.058 A 
ATOM     65  C   UNL A   1      45.689  33.700  27.235  1.00  0.00     0.135 A 
ATOM     66  C   UNL A   1      46.133  33.331  29.569  1.00  0.00     0.135 A 
ATOM     67  F   UNL A   1      45.382  33.249  26.008  1.00  0.00    -0.206 F 
ATOM     68  C   UNL A   1      45.947  35.058  27.389  1.00  0.00     0.059 A 
ATOM     69  C   UNL A   1      46.367  34.692  29.753  1.00  0.00     0.059 A 
ATOM     70  F   UNL A   1      46.245  32.522  30.633  1.00  0.00    -0.206 F 
ATOM     71  C   UNL A   1      46.284  35.544  28.652  1.00  0.00     0.060 A 
BRANCH  71  72
ATOM     72  S   UNL A   1      46.598  37.312  28.839  1.00  0.00     0.124 S 
ATOM     73  O   UNL A   1      45.357  37.763  29.459  1.00  0.00    -0.237 OA
ATOM     74  O   UNL A   1      47.778  37.330  29.699  1.00  0.00    -0.237 OA
ATOM     75  O   UNL A   1      46.817  37.766  27.470  1.00  0.00    -0.744 OA
ENDBRANCH  71  72
ENDBRANCH  50  64
BRANCH  51  76
ATOM     76  C   UNL A   1      43.342  23.206  26.966  1.00  0.00     0.058 A 
ATOM     77  C   UNL A   1      43.252  22.714  25.655  1.00  0.00     0.135 A 
ATOM     78  C   UNL A   1      43.102  22.310  28.018  1.00  0.00     0.135 A 
ATOM     79  F   UNL A   1      43.468  23.534  24.616  1.00  0.00    -0.206 F 
ATOM     80  C   UNL A   1      42.927  21.387  25.395  1.00  0.00     0.059 A 
ATOM     81  C   UNL A   1      42.797  20.972  27.783  1.00  0.00     0.059 A 
ATOM     82  F   UNL A   1      43.195  22.726  29.290  1.00  0.00    -0.206 F 
ATOM     83  C   UNL A   1      42.704  20.522  26.467  1.00  0.00     0.060 A 
BRANCH  83  84
ATOM     84  S   UNL A   1      42.350  18.786  26.119  1.00  0.00     0.124 S 
ATOM     85  O   UNL A   1      40.940  18.842  25.752  1.00  0.00    -0.237 OA
ATOM     86  O   UNL A   1      43.282  18.493  25.034  1.00  0.00    -0.237 OA
ATOM     87  O   UNL A   1      42.649  18.123  27.386  1.00  0.00    -0.744 OA
ENDBRANCH  83  84
ENDBRANCH  51  76
BRANCH  63  88
ATOM     88  C   UNL A   1      49.309  26.792  26.471  1.00  0.00     0.058 A 
ATOM     89  C   UNL A   1      49.772  26.808  25.148  1.00  0.00     0.135 A 
ATOM     90  C   UNL A   1      50.221  26.451  27.485  1.00  0.00     0.135 A 
ATOM     91  F   UNL A   1      48.938  27.123  24.144  1.00  0.00    -0.206 F 
ATOM     92  C   UNL A   1      51.087  26.480  24.836  1.00  0.00     0.059 A 
ATOM     93  C   UNL A   1      51.547  26.144  27.198  1.00  0.00     0.059 A 
ATOM     94  F   UNL A   1      49.830  26.432  28.768  1.00  0.00    -0.206 F 
ATOM     95  C   UNL A   1      51.968  26.152  25.869  1.00  0.00     0.060 A 
BRANCH  95  96
ATOM     96  S   UNL A   1      53.682  25.767  25.454  1.00  0.00     0.124 S 
ATOM     97  O   UNL A   1      53.541  25.199  24.118  1.00  0.00    -0.237 OA
ATOM     98  O   UNL A   1      54.323  27.077  25.523  1.00  0.00    -0.237 OA
ATOM     99  O   UNL A   1      54.080  24.826  26.498  1.00  0.00    -0.744 OA
ENDBRANCH  95  96
ENDBRANCH  63  88
ENDBRANCH  37  38
ENDBRANCH  29  32
ENDBRANCH  27  28
ENDBRANCH  26  27
ENDBRANCH   1  26
TORSDOF 19
ENDMDL
