MODEL 1
REMARK VINA RESULT:     -11.3      0.000      0.000
REMARK SMILES CC(C)C[C@H](NC(=O)[C@H](Cc1ccccc1)NC(=O)CNC(=O)CNC(=O)OCc1ccccc1)C(=O)NCCCCNC(=O)c1ccc(-c2c3nc(c(-c4c(F)cc(S(=O)(=O)[O-])cc4F)c4ccc([nH]4)c(-c4c(F)cc(S(=O)(=O)[O-])cc4F)c4nc(c(-c5c(F)cc(S(=O)(=O)[O-])cc5F)c5ccc2[nH]5)C=C4)C=C3)cc1
REMARK SMILES IDX 5 1 4 2 2 3 1 4 3 5 36 6 37 7 38 8 39 10 40 11 41 12 42 13
REMARK SMILES IDX 43 14 44 15 45 17 46 18 47 19 111 20 48 21 110 22 49 23
REMARK SMILES IDX 50 24 51 25 104 26 52 27 109 28 103 29 105 30 53 31 108 32
REMARK SMILES IDX 102 33 101 34 54 36 88 37 67 38 87 39 68 40 71 41 86 42
REMARK SMILES IDX 106 43 69 44 70 45 85 47 107 48 72 49 55 50 56 51 65 52
REMARK SMILES IDX 57 53 58 54 64 55 66 56 59 57 60 58 61 59 62 60 63 61 89 62
REMARK SMILES IDX 90 63 99 64 91 65 92 66 98 67 100 68 93 69 94 70 95 71 96 72
REMARK SMILES IDX 97 73 73 74 74 75 83 76 75 77 76 78 82 79 84 80 77 81 78 82
REMARK SMILES IDX 79 83 80 84 81 85 6 86 7 87 8 89 9 90 17 91 18 92 19 94
REMARK SMILES IDX 20 95 21 96 22 97 23 99 24 100 25 101 26 102 27 104 28 105
REMARK SMILES IDX 29 106 30 107 31 108 35 109 32 110 34 111 33 112 10 113
REMARK SMILES IDX 11 114 12 115 16 116 13 117 15 118 14 119
REMARK H PARENT 38 9 43 16 105 35 71 46 6 88 17 93 21 98 25 103
REMARK Flexibility Score: inf
ROOT
ATOM      1  C   UNL A   1      34.655  23.634  24.148  1.00  0.00     0.171 C 
ENDROOT
BRANCH   1   2
ATOM      2  C   UNL A   1      33.987  24.808  23.421  1.00  0.00     0.038 C 
BRANCH   2   3
ATOM      3  C   UNL A   1      32.938  24.329  22.382  1.00  0.00    -0.015 C 
ATOM      4  C   UNL A   1      32.868  25.223  21.138  1.00  0.00     0.007 C 
ATOM      5  C   UNL A   1      33.239  22.900  21.937  1.00  0.00     0.007 C 
ENDBRANCH   2   3
ENDBRANCH   1   2
BRANCH   1   6
ATOM      6  C   UNL A   1      36.127  23.271  23.864  1.00  0.00     0.242 C 
ATOM      7  O   UNL A   1      36.612  23.296  22.734  1.00  0.00    -0.273 OA
ATOM      8  N   UNL A   1      36.890  22.812  24.894  1.00  0.00    -0.354 N 
ATOM      9  H   UNL A   1      37.389  23.419  25.488  1.00  0.00     0.163 HD
BRANCH   8  10
ATOM     10  C   UNL A   1      36.925  21.377  25.061  1.00  0.00     0.116 C 
BRANCH  10  11
ATOM     11  C   UNL A   1      38.332  20.865  25.404  1.00  0.00     0.023 C 
BRANCH  11  12
ATOM     12  C   UNL A   1      39.244  21.888  26.091  1.00  0.00     0.023 C 
BRANCH  12  13
ATOM     13  C   UNL A   1      40.613  21.355  26.495  1.00  0.00     0.116 C 
BRANCH  13  14
ATOM     14  N   UNL A   1      41.630  21.618  25.489  1.00  0.00    -0.352 N 
ATOM     15  C   UNL A   1      42.543  22.632  25.405  1.00  0.00     0.251 C 
ATOM     16  H   UNL A   1      41.667  20.963  24.755  1.00  0.00     0.163 HD
ATOM     17  O   UNL A   1      43.247  22.737  24.405  1.00  0.00    -0.269 OA
BRANCH  15  18
ATOM     18  C   UNL A   1      42.644  23.608  26.500  1.00  0.00     0.039 A 
ATOM     19  C   UNL A   1      43.139  24.880  26.207  1.00  0.00     0.014 A 
ATOM     20  C   UNL A   1      42.237  23.278  27.796  1.00  0.00     0.014 A 
ATOM     21  C   UNL A   1      43.180  25.843  27.211  1.00  0.00     0.010 A 
ATOM     22  C   UNL A   1      42.209  24.263  28.775  1.00  0.00     0.010 A 
ATOM     23  C   UNL A   1      42.687  25.551  28.493  1.00  0.00    -0.014 A 
BRANCH  23  24
ATOM     24  C   UNL A   1      42.676  26.585  29.553  1.00  0.00     0.031 A 
ATOM     25  C   UNL A   1      43.735  26.577  30.617  1.00  0.00     0.074 A 
ATOM     26  C   UNL A   1      41.683  27.496  29.576  1.00  0.00     0.049 A 
ATOM     27  N   UNL A   1      43.866  27.361  31.655  1.00  0.00    -0.248 NA
ATOM     28  C   UNL A   1      44.769  25.533  30.519  1.00  0.00     0.031 C 
ATOM     29  C   UNL A   1      40.576  27.564  28.618  1.00  0.00     0.029 A 
ATOM     30  N   UNL A   1      41.439  28.532  30.439  1.00  0.00    -0.354 N 
ATOM     31  C   UNL A   1      44.988  26.902  32.335  1.00  0.00     0.074 A 
ATOM     32  C   UNL A   1      45.466  25.735  31.627  1.00  0.00     0.031 C 
ATOM     33  C   UNL A   1      39.784  28.601  28.935  1.00  0.00     0.029 A 
ATOM     34  C   UNL A   1      40.304  29.246  30.136  1.00  0.00     0.049 A 
ATOM     35  H   UNL A   1      42.022  28.745  31.203  1.00  0.00     0.167 HD
ATOM     36  C   UNL A   1      45.581  27.426  33.434  1.00  0.00     0.037 A 
ATOM     37  C   UNL A   1      39.742  30.297  30.764  1.00  0.00     0.037 A 
ATOM     38  C   UNL A   1      45.105  28.601  34.115  1.00  0.00     0.049 A 
ATOM     39  C   UNL A   1      40.417  30.857  31.986  1.00  0.00     0.074 A 
ATOM     40  C   UNL A   1      45.658  29.243  35.209  1.00  0.00     0.029 A 
ATOM     41  N   UNL A   1      43.964  29.310  33.768  1.00  0.00    -0.354 N 
ATOM     42  N   UNL A   1      41.512  30.449  32.583  1.00  0.00    -0.248 NA
ATOM     43  C   UNL A   1      39.788  32.026  32.616  1.00  0.00     0.031 C 
ATOM     44  C   UNL A   1      44.825  30.313  35.552  1.00  0.00     0.029 A 
ATOM     45  C   UNL A   1      43.784  30.372  34.639  1.00  0.00     0.049 A 
ATOM     46  H   UNL A   1      43.371  29.091  33.014  1.00  0.00     0.167 HD
ATOM     47  C   UNL A   1      41.718  31.326  33.642  1.00  0.00     0.074 A 
ATOM     48  C   UNL A   1      40.642  32.294  33.594  1.00  0.00     0.031 C 
ATOM     49  C   UNL A   1      42.708  31.330  34.569  1.00  0.00     0.037 A 
BRANCH  36  50
ATOM     50  C   UNL A   1      46.809  26.735  33.960  1.00  0.00     0.058 A 
ATOM     51  C   UNL A   1      48.087  27.015  33.449  1.00  0.00     0.135 A 
ATOM     52  C   UNL A   1      46.713  25.806  35.009  1.00  0.00     0.135 A 
ATOM     53  F   UNL A   1      48.236  27.880  32.434  1.00  0.00    -0.206 F 
ATOM     54  C   UNL A   1      49.223  26.378  33.940  1.00  0.00     0.059 A 
ATOM     55  C   UNL A   1      47.840  25.180  35.535  1.00  0.00     0.059 A 
ATOM     56  F   UNL A   1      45.516  25.498  35.533  1.00  0.00    -0.206 F 
ATOM     57  C   UNL A   1      49.089  25.462  34.984  1.00  0.00     0.060 A 
BRANCH  57  58
ATOM     58  S   UNL A   1      50.574  24.651  35.613  1.00  0.00     0.124 S 
ATOM     59  O   UNL A   1      51.019  23.909  34.438  1.00  0.00    -0.237 OA
ATOM     60  O   UNL A   1      51.407  25.786  35.999  1.00  0.00    -0.237 OA
ATOM     61  O   UNL A   1      50.075  23.838  36.717  1.00  0.00    -0.744 OA
ENDBRANCH  57  58
ENDBRANCH  36  50
BRANCH  37  62
ATOM     62  C   UNL A   1      38.485  30.892  30.238  1.00  0.00     0.058 A 
ATOM     63  C   UNL A   1      38.497  32.101  29.528  1.00  0.00     0.135 A 
ATOM     64  C   UNL A   1      37.246  30.256  30.421  1.00  0.00     0.135 A 
ATOM     65  F   UNL A   1      39.655  32.749  29.328  1.00  0.00    -0.206 F 
ATOM     66  C   UNL A   1      37.327  32.670  29.037  1.00  0.00     0.059 A 
ATOM     67  C   UNL A   1      36.066  30.790  29.916  1.00  0.00     0.059 A 
ATOM     68  F   UNL A   1      37.182  29.086  31.077  1.00  0.00    -0.206 F 
ATOM     69  C   UNL A   1      36.115  32.005  29.234  1.00  0.00     0.060 A 
BRANCH  69  70
ATOM     70  S   UNL A   1      34.607  32.734  28.558  1.00  0.00     0.124 S 
ATOM     71  O   UNL A   1      33.933  33.188  29.768  1.00  0.00    -0.237 OA
ATOM     72  O   UNL A   1      35.136  33.779  27.689  1.00  0.00    -0.237 OA
ATOM     73  O   UNL A   1      33.975  31.614  27.866  1.00  0.00    -0.744 OA
ENDBRANCH  69  70
ENDBRANCH  37  62
BRANCH  49  74
ATOM     74  C   UNL A   1      42.693  32.435  35.589  1.00  0.00     0.058 A 
ATOM     75  C   UNL A   1      43.364  33.648  35.374  1.00  0.00     0.135 A 
ATOM     76  C   UNL A   1      41.949  32.295  36.773  1.00  0.00     0.135 A 
ATOM     77  F   UNL A   1      44.094  33.830  34.262  1.00  0.00    -0.206 F 
ATOM     78  C   UNL A   1      43.318  34.677  36.309  1.00  0.00     0.059 A 
ATOM     79  C   UNL A   1      41.865  33.322  37.707  1.00  0.00     0.059 A 
ATOM     80  F   UNL A   1      41.280  31.158  37.021  1.00  0.00    -0.206 F 
ATOM     81  C   UNL A   1      42.563  34.506  37.471  1.00  0.00     0.060 A 
BRANCH  81  82
ATOM     82  S   UNL A   1      42.483  35.863  38.658  1.00  0.00     0.124 S 
ATOM     83  O   UNL A   1      41.746  36.871  37.901  1.00  0.00    -0.237 OA
ATOM     84  O   UNL A   1      41.764  35.259  39.775  1.00  0.00    -0.237 OA
ATOM     85  O   UNL A   1      43.885  36.173  38.916  1.00  0.00    -0.744 OA
ENDBRANCH  81  82
ENDBRANCH  49  74
ENDBRANCH  23  24
ENDBRANCH  15  18
ENDBRANCH  13  14
ENDBRANCH  12  13
ENDBRANCH  11  12
ENDBRANCH  10  11
ENDBRANCH   8  10
ENDBRANCH   1   6
BRANCH   1  86
ATOM     86  N   UNL A   1      34.580  23.776  25.579  1.00  0.00    -0.343 N 
ATOM     87  C   UNL A   1      34.134  22.856  26.465  1.00  0.00     0.243 C 
ATOM     88  H   UNL A   1      34.886  24.635  25.953  1.00  0.00     0.164 HD
ATOM     89  O   UNL A   1      34.385  23.126  27.651  1.00  0.00    -0.273 OA
BRANCH  87  90
ATOM     90  C   UNL A   1      33.075  21.760  26.154  1.00  0.00     0.175 C 
BRANCH  90  91
ATOM     91  N   UNL A   1      32.019  22.180  27.118  1.00  0.00    -0.342 N 
ATOM     92  C   UNL A   1      31.054  23.129  26.941  1.00  0.00     0.240 C 
ATOM     93  H   UNL A   1      32.017  21.716  27.986  1.00  0.00     0.164 HD
ATOM     94  O   UNL A   1      30.012  23.039  27.593  1.00  0.00    -0.273 OA
BRANCH  92  95
ATOM     95  C   UNL A   1      31.259  24.230  25.899  1.00  0.00     0.216 C 
BRANCH  95  96
ATOM     96  N   UNL A   1      30.861  25.522  26.445  1.00  0.00    -0.346 N 
ATOM     97  C   UNL A   1      31.594  26.649  26.657  1.00  0.00     0.239 C 
ATOM     98  H   UNL A   1      29.914  25.590  26.700  1.00  0.00     0.164 HD
ATOM     99  O   UNL A   1      31.062  27.572  27.276  1.00  0.00    -0.273 OA
BRANCH  97 100
ATOM    100  C   UNL A   1      33.041  26.751  26.172  1.00  0.00     0.219 C 
BRANCH 100 101
ATOM    101  N   UNL A   1      33.272  27.932  25.371  1.00  0.00    -0.312 N 
ATOM    102  C   UNL A   1      32.662  28.249  24.196  1.00  0.00     0.407 C 
ATOM    103  H   UNL A   1      33.938  28.574  25.708  1.00  0.00     0.167 HD
ATOM    104  O   UNL A   1      33.032  29.225  23.559  1.00  0.00    -0.225 OA
BRANCH 102 105
ATOM    105  O   UNL A   1      31.675  27.381  23.866  1.00  0.00    -0.445 OA
BRANCH 105 106
ATOM    106  C   UNL A   1      30.976  27.583  22.621  1.00  0.00     0.270 C 
BRANCH 106 107
ATOM    107  C   UNL A   1      29.811  28.536  22.684  1.00  0.00    -0.011 A 
ATOM    108  C   UNL A   1      28.584  28.096  23.201  1.00  0.00     0.007 A 
ATOM    109  C   UNL A   1      29.907  29.826  22.145  1.00  0.00     0.007 A 
ATOM    110  C   UNL A   1      27.453  28.905  23.107  1.00  0.00     0.000 A 
ATOM    111  C   UNL A   1      28.771  30.626  22.039  1.00  0.00     0.000 A 
ATOM    112  C   UNL A   1      27.543  30.160  22.507  1.00  0.00     0.000 A 
ENDBRANCH 106 107
ENDBRANCH 105 106
ENDBRANCH 102 105
ENDBRANCH 100 101
ENDBRANCH  97 100
ENDBRANCH  95  96
ENDBRANCH  92  95
ENDBRANCH  90  91
BRANCH  90 113
ATOM    113  C   UNL A   1      32.387  21.245  24.859  1.00  0.00     0.070 C 
BRANCH 113 114
ATOM    114  C   UNL A   1      32.636  19.931  24.154  1.00  0.00    -0.045 A 
ATOM    115  C   UNL A   1      33.353  18.917  24.825  1.00  0.00     0.004 A 
ATOM    116  C   UNL A   1      32.222  19.680  22.845  1.00  0.00     0.004 A 
ATOM    117  C   UNL A   1      33.519  17.649  24.269  1.00  0.00     0.000 A 
ATOM    118  C   UNL A   1      32.420  18.414  22.271  1.00  0.00     0.000 A 
ATOM    119  C   UNL A   1      33.039  17.393  22.992  1.00  0.00     0.000 A 
ENDBRANCH 113 114
ENDBRANCH  90 113
ENDBRANCH  87  90
ENDBRANCH   1  86
TORSDOF 28
ENDMDL
MODEL 2
REMARK VINA RESULT:     -11.2      1.893      7.908
REMARK SMILES CC(C)C[C@H](NC(=O)[C@H](Cc1ccccc1)NC(=O)CNC(=O)CNC(=O)OCc1ccccc1)C(=O)NCCCCNC(=O)c1ccc(-c2c3nc(c(-c4c(F)cc(S(=O)(=O)[O-])cc4F)c4ccc([nH]4)c(-c4c(F)cc(S(=O)(=O)[O-])cc4F)c4nc(c(-c5c(F)cc(S(=O)(=O)[O-])cc5F)c5ccc2[nH]5)C=C4)C=C3)cc1
REMARK SMILES IDX 5 1 4 2 2 3 1 4 3 5 36 6 37 7 38 8 39 10 40 11 41 12 42 13
REMARK SMILES IDX 43 14 44 15 45 17 46 18 47 19 111 20 48 21 110 22 49 23
REMARK SMILES IDX 50 24 51 25 104 26 52 27 109 28 103 29 105 30 53 31 108 32
REMARK SMILES IDX 102 33 101 34 54 36 88 37 67 38 87 39 68 40 71 41 86 42
REMARK SMILES IDX 106 43 69 44 70 45 85 47 107 48 72 49 55 50 56 51 65 52
REMARK SMILES IDX 57 53 58 54 64 55 66 56 59 57 60 58 61 59 62 60 63 61 89 62
REMARK SMILES IDX 90 63 99 64 91 65 92 66 98 67 100 68 93 69 94 70 95 71 96 72
REMARK SMILES IDX 97 73 73 74 74 75 83 76 75 77 76 78 82 79 84 80 77 81 78 82
REMARK SMILES IDX 79 83 80 84 81 85 6 86 7 87 8 89 9 90 17 91 18 92 19 94
REMARK SMILES IDX 20 95 21 96 22 97 23 99 24 100 25 101 26 102 27 104 28 105
REMARK SMILES IDX 29 106 30 107 31 108 35 109 32 110 34 111 33 112 10 113
REMARK SMILES IDX 11 114 12 115 16 116 13 117 15 118 14 119
REMARK H PARENT 38 9 43 16 105 35 71 46 6 88 17 93 21 98 25 103
REMARK Flexibility Score: inf
ROOT
ATOM      1  C   UNL A   1      34.702  23.666  23.894  1.00  0.00     0.171 C 
ENDROOT
BRANCH   1   2
ATOM      2  C   UNL A   1      33.975  24.800  23.162  1.00  0.00     0.038 C 
BRANCH   2   3
ATOM      3  C   UNL A   1      32.913  24.265  22.165  1.00  0.00    -0.015 C 
ATOM      4  C   UNL A   1      33.233  22.861  21.636  1.00  0.00     0.007 C 
ATOM      5  C   UNL A   1      31.533  24.235  22.818  1.00  0.00     0.007 C 
ENDBRANCH   2   3
ENDBRANCH   1   2
BRANCH   1   6
ATOM      6  C   UNL A   1      36.165  23.320  23.550  1.00  0.00     0.242 C 
ATOM      7  O   UNL A   1      36.511  22.926  22.437  1.00  0.00    -0.273 OA
ATOM      8  N   UNL A   1      37.091  23.360  24.548  1.00  0.00    -0.354 N 
ATOM      9  H   UNL A   1      37.577  24.185  24.780  1.00  0.00     0.163 HD
BRANCH   8  10
ATOM     10  C   UNL A   1      37.319  22.115  25.245  1.00  0.00     0.116 C 
BRANCH  10  11
ATOM     11  C   UNL A   1      38.729  22.037  25.850  1.00  0.00     0.023 C 
BRANCH  11  12
ATOM     12  C   UNL A   1      39.206  23.316  26.546  1.00  0.00     0.023 C 
BRANCH  12  13
ATOM     13  C   UNL A   1      40.691  23.341  26.891  1.00  0.00     0.116 C 
BRANCH  13  14
ATOM     14  N   UNL A   1      41.480  24.045  25.893  1.00  0.00    -0.352 N 
ATOM     15  C   UNL A   1      42.020  25.300  25.922  1.00  0.00     0.251 C 
ATOM     16  H   UNL A   1      41.653  23.537  25.067  1.00  0.00     0.163 HD
ATOM     17  O   UNL A   1      42.563  25.754  24.919  1.00  0.00    -0.269 OA
BRANCH  15  18
ATOM     18  C   UNL A   1      41.910  26.107  27.146  1.00  0.00     0.039 A 
ATOM     19  C   UNL A   1      42.237  27.462  27.075  1.00  0.00     0.014 A 
ATOM     20  C   UNL A   1      41.470  25.537  28.345  1.00  0.00     0.014 A 
ATOM     21  C   UNL A   1      42.075  28.262  28.202  1.00  0.00     0.010 A 
ATOM     22  C   UNL A   1      41.239  26.353  29.445  1.00  0.00     0.010 A 
ATOM     23  C   UNL A   1      41.546  27.720  29.385  1.00  0.00    -0.014 A 
BRANCH  23  24
ATOM     24  C   UNL A   1      41.318  28.574  30.573  1.00  0.00     0.031 A 
ATOM     25  C   UNL A   1      40.205  29.583  30.567  1.00  0.00     0.074 A 
ATOM     26  C   UNL A   1      42.146  28.468  31.631  1.00  0.00     0.049 A 
ATOM     27  N   UNL A   1      39.880  30.456  31.485  1.00  0.00    -0.248 NA
ATOM     28  C   UNL A   1      39.364  29.639  29.361  1.00  0.00     0.031 C 
ATOM     29  C   UNL A   1      43.289  27.555  31.722  1.00  0.00     0.029 A 
ATOM     30  N   UNL A   1      42.161  29.136  32.828  1.00  0.00    -0.354 N 
ATOM     31  C   UNL A   1      38.805  31.166  30.965  1.00  0.00     0.074 A 
ATOM     32  C   UNL A   1      38.571  30.666  29.629  1.00  0.00     0.031 C 
ATOM     33  C   UNL A   1      43.879  27.706  32.918  1.00  0.00     0.029 A 
ATOM     34  C   UNL A   1      43.182  28.751  33.662  1.00  0.00     0.049 A 
ATOM     35  H   UNL A   1      41.501  29.827  33.066  1.00  0.00     0.167 HD
ATOM     36  C   UNL A   1      38.063  32.129  31.561  1.00  0.00     0.037 A 
ATOM     37  C   UNL A   1      43.523  29.198  34.887  1.00  0.00     0.037 A 
ATOM     38  C   UNL A   1      38.295  32.603  32.900  1.00  0.00     0.049 A 
ATOM     39  C   UNL A   1      42.686  30.272  35.525  1.00  0.00     0.074 A 
ATOM     40  C   UNL A   1      37.574  33.541  33.618  1.00  0.00     0.029 A 
ATOM     41  N   UNL A   1      39.326  32.174  33.724  1.00  0.00    -0.354 N 
ATOM     42  N   UNL A   1      41.634  30.893  35.044  1.00  0.00    -0.248 NA
ATOM     43  C   UNL A   1      43.074  30.701  36.876  1.00  0.00     0.031 C 
ATOM     44  C   UNL A   1      38.197  33.714  34.858  1.00  0.00     0.029 A 
ATOM     45  C   UNL A   1      39.273  32.844  34.935  1.00  0.00     0.049 A 
ATOM     46  H   UNL A   1      39.996  31.495  33.484  1.00  0.00     0.167 HD
ATOM     47  C   UNL A   1      41.219  31.766  36.043  1.00  0.00     0.074 A 
ATOM     48  C   UNL A   1      42.124  31.583  37.158  1.00  0.00     0.031 C 
ATOM     49  C   UNL A   1      40.181  32.640  36.037  1.00  0.00     0.037 A 
BRANCH  36  50
ATOM     50  C   UNL A   1      36.931  32.727  30.772  1.00  0.00     0.058 A 
ATOM     51  C   UNL A   1      35.658  32.133  30.743  1.00  0.00     0.135 A 
ATOM     52  C   UNL A   1      37.109  33.925  30.060  1.00  0.00     0.135 A 
ATOM     53  F   UNL A   1      35.436  30.978  31.389  1.00  0.00    -0.206 F 
ATOM     54  C   UNL A   1      34.611  32.689  30.015  1.00  0.00     0.059 A 
ATOM     55  C   UNL A   1      36.067  34.515  29.350  1.00  0.00     0.059 A 
ATOM     56  F   UNL A   1      38.305  34.534  30.050  1.00  0.00    -0.206 F 
ATOM     57  C   UNL A   1      34.826  33.881  29.322  1.00  0.00     0.060 A 
BRANCH  57  58
ATOM     58  S   UNL A   1      33.453  34.592  28.390  1.00  0.00     0.124 S 
ATOM     59  O   UNL A   1      32.704  35.268  29.445  1.00  0.00    -0.237 OA
ATOM     60  O   UNL A   1      34.140  35.464  27.441  1.00  0.00    -0.237 OA
ATOM     61  O   UNL A   1      32.799  33.426  27.804  1.00  0.00    -0.744 OA
ENDBRANCH  57  58
ENDBRANCH  36  50
BRANCH  37  62
ATOM     62  C   UNL A   1      44.699  28.618  35.588  1.00  0.00     0.058 A 
ATOM     63  C   UNL A   1      45.982  29.160  35.421  1.00  0.00     0.135 A 
ATOM     64  C   UNL A   1      44.563  27.518  36.450  1.00  0.00     0.135 A 
ATOM     65  F   UNL A   1      46.165  30.210  34.606  1.00  0.00    -0.206 F 
ATOM     66  C   UNL A   1      47.091  28.622  36.067  1.00  0.00     0.059 A 
ATOM     67  C   UNL A   1      45.651  26.979  37.129  1.00  0.00     0.059 A 
ATOM     68  F   UNL A   1      43.354  26.974  36.660  1.00  0.00    -0.206 F 
ATOM     69  C   UNL A   1      46.914  27.532  36.921  1.00  0.00     0.060 A 
BRANCH  69  70
ATOM     70  S   UNL A   1      48.354  26.866  37.783  1.00  0.00     0.124 S 
ATOM     71  O   UNL A   1      49.075  26.218  36.695  1.00  0.00    -0.237 OA
ATOM     72  O   UNL A   1      48.969  28.072  38.329  1.00  0.00    -0.237 OA
ATOM     73  O   UNL A   1      47.766  25.969  38.774  1.00  0.00    -0.744 OA
ENDBRANCH  69  70
ENDBRANCH  37  62
BRANCH  49  74
ATOM     74  C   UNL A   1      39.948  33.442  37.288  1.00  0.00     0.058 A 
ATOM     75  C   UNL A   1      39.047  33.023  38.278  1.00  0.00     0.135 A 
ATOM     76  C   UNL A   1      40.682  34.618  37.521  1.00  0.00     0.135 A 
ATOM     77  F   UNL A   1      38.318  31.911  38.101  1.00  0.00    -0.206 F 
ATOM     78  C   UNL A   1      38.862  33.755  39.447  1.00  0.00     0.059 A 
ATOM     79  C   UNL A   1      40.535  35.349  38.695  1.00  0.00     0.059 A 
ATOM     80  F   UNL A   1      41.566  35.056  36.611  1.00  0.00    -0.206 F 
ATOM     81  C   UNL A   1      39.613  34.914  39.647  1.00  0.00     0.060 A 
BRANCH  81  82
ATOM     82  S   UNL A   1      39.389  35.834  41.185  1.00  0.00     0.124 S 
ATOM     83  O   UNL A   1      37.940  36.004  41.216  1.00  0.00    -0.237 OA
ATOM     84  O   UNL A   1      39.942  34.919  42.178  1.00  0.00    -0.237 OA
ATOM     85  O   UNL A   1      40.160  37.054  40.967  1.00  0.00    -0.744 OA
ENDBRANCH  81  82
ENDBRANCH  49  74
ENDBRANCH  23  24
ENDBRANCH  15  18
ENDBRANCH  13  14
ENDBRANCH  12  13
ENDBRANCH  11  12
ENDBRANCH  10  11
ENDBRANCH   8  10
ENDBRANCH   1   6
BRANCH   1  86
ATOM     86  N   UNL A   1      34.695  23.857  25.322  1.00  0.00    -0.343 N 
ATOM     87  C   UNL A   1      34.321  22.959  26.261  1.00  0.00     0.243 C 
ATOM     88  H   UNL A   1      34.995  24.737  25.650  1.00  0.00     0.164 HD
ATOM     89  O   UNL A   1      34.623  23.278  27.423  1.00  0.00    -0.273 OA
BRANCH  87  90
ATOM     90  C   UNL A   1      33.278  21.825  26.043  1.00  0.00     0.175 C 
BRANCH  90  91
ATOM     91  N   UNL A   1      32.268  22.241  27.056  1.00  0.00    -0.342 N 
ATOM     92  C   UNL A   1      31.289  23.184  26.923  1.00  0.00     0.240 C 
ATOM     93  H   UNL A   1      32.312  21.781  27.925  1.00  0.00     0.164 HD
ATOM     94  O   UNL A   1      30.281  23.090  27.626  1.00  0.00    -0.273 OA
BRANCH  92  95
ATOM     95  C   UNL A   1      31.435  24.282  25.869  1.00  0.00     0.216 C 
BRANCH  95  96
ATOM     96  N   UNL A   1      31.023  25.568  26.417  1.00  0.00    -0.346 N 
ATOM     97  C   UNL A   1      31.752  26.689  26.671  1.00  0.00     0.239 C 
ATOM     98  H   UNL A   1      30.067  25.635  26.641  1.00  0.00     0.164 HD
ATOM     99  O   UNL A   1      31.201  27.605  27.283  1.00  0.00    -0.273 OA
BRANCH  97 100
ATOM    100  C   UNL A   1      33.214  26.793  26.237  1.00  0.00     0.219 C 
BRANCH 100 101
ATOM    101  N   UNL A   1      33.481  27.995  25.479  1.00  0.00    -0.312 N 
ATOM    102  C   UNL A   1      32.929  28.341  24.284  1.00  0.00     0.407 C 
ATOM    103  H   UNL A   1      34.128  28.628  25.866  1.00  0.00     0.167 HD
ATOM    104  O   UNL A   1      33.327  29.334  23.692  1.00  0.00    -0.225 OA
BRANCH 102 105
ATOM    105  O   UNL A   1      31.962  27.482  23.884  1.00  0.00    -0.445 OA
BRANCH 105 106
ATOM    106  C   UNL A   1      31.246  27.776  22.667  1.00  0.00     0.270 C 
BRANCH 106 107
ATOM    107  C   UNL A   1      29.844  28.294  22.854  1.00  0.00    -0.011 A 
ATOM    108  C   UNL A   1      28.888  27.490  23.491  1.00  0.00     0.007 A 
ATOM    109  C   UNL A   1      29.455  29.527  22.315  1.00  0.00     0.007 A 
ATOM    110  C   UNL A   1      27.550  27.879  23.518  1.00  0.00     0.000 A 
ATOM    111  C   UNL A   1      28.114  29.906  22.330  1.00  0.00     0.000 A 
ATOM    112  C   UNL A   1      27.161  29.076  22.918  1.00  0.00     0.000 A 
ENDBRANCH 106 107
ENDBRANCH 105 106
ENDBRANCH 102 105
ENDBRANCH 100 101
ENDBRANCH  97 100
ENDBRANCH  95  96
ENDBRANCH  92  95
ENDBRANCH  90  91
BRANCH  90 113
ATOM    113  C   UNL A   1      32.532  21.253  24.805  1.00  0.00     0.070 C 
BRANCH 113 114
ATOM    114  C   UNL A   1      32.691  19.877  24.199  1.00  0.00    -0.045 A 
ATOM    115  C   UNL A   1      32.193  19.638  22.901  1.00  0.00     0.004 A 
ATOM    116  C   UNL A   1      33.277  18.809  24.881  1.00  0.00     0.004 A 
ATOM    117  C   UNL A   1      32.406  18.423  22.249  1.00  0.00     0.000 A 
ATOM    118  C   UNL A   1      33.460  17.575  24.237  1.00  0.00     0.000 A 
ATOM    119  C   UNL A   1      33.054  17.392  22.916  1.00  0.00     0.000 A 
ENDBRANCH 113 114
ENDBRANCH  90 113
ENDBRANCH  87  90
ENDBRANCH   1  86
TORSDOF 28
ENDMDL
MODEL 3
REMARK VINA RESULT:     -11.2      2.522      8.812
REMARK SMILES CC(C)C[C@H](NC(=O)[C@H](Cc1ccccc1)NC(=O)CNC(=O)CNC(=O)OCc1ccccc1)C(=O)NCCCCNC(=O)c1ccc(-c2c3nc(c(-c4c(F)cc(S(=O)(=O)[O-])cc4F)c4ccc([nH]4)c(-c4c(F)cc(S(=O)(=O)[O-])cc4F)c4nc(c(-c5c(F)cc(S(=O)(=O)[O-])cc5F)c5ccc2[nH]5)C=C4)C=C3)cc1
REMARK SMILES IDX 5 1 4 2 2 3 1 4 3 5 36 6 37 7 38 8 39 10 40 11 41 12 42 13
REMARK SMILES IDX 43 14 44 15 45 17 46 18 47 19 111 20 48 21 110 22 49 23
REMARK SMILES IDX 50 24 51 25 104 26 52 27 109 28 103 29 105 30 53 31 108 32
REMARK SMILES IDX 102 33 101 34 54 36 88 37 67 38 87 39 68 40 71 41 86 42
REMARK SMILES IDX 106 43 69 44 70 45 85 47 107 48 72 49 55 50 56 51 65 52
REMARK SMILES IDX 57 53 58 54 64 55 66 56 59 57 60 58 61 59 62 60 63 61 89 62
REMARK SMILES IDX 90 63 99 64 91 65 92 66 98 67 100 68 93 69 94 70 95 71 96 72
REMARK SMILES IDX 97 73 73 74 74 75 83 76 75 77 76 78 82 79 84 80 77 81 78 82
REMARK SMILES IDX 79 83 80 84 81 85 6 86 7 87 8 89 9 90 17 91 18 92 19 94
REMARK SMILES IDX 20 95 21 96 22 97 23 99 24 100 25 101 26 102 27 104 28 105
REMARK SMILES IDX 29 106 30 107 31 108 35 109 32 110 34 111 33 112 10 113
REMARK SMILES IDX 11 114 12 115 16 116 13 117 15 118 14 119
REMARK H PARENT 38 9 43 16 105 35 71 46 6 88 17 93 21 98 25 103
REMARK Flexibility Score: inf
ROOT
ATOM      1  C   UNL A   1      38.355  23.656  26.512  1.00  0.00     0.171 C 
ENDROOT
BRANCH   1   2
ATOM      2  C   UNL A   1      39.204  24.456  27.508  1.00  0.00     0.038 C 
BRANCH   2   3
ATOM      3  C   UNL A   1      39.585  25.856  26.957  1.00  0.00    -0.015 C 
ATOM      4  C   UNL A   1      39.791  26.903  28.058  1.00  0.00     0.007 C 
ATOM      5  C   UNL A   1      40.859  25.773  26.120  1.00  0.00     0.007 C 
ENDBRANCH   2   3
ENDBRANCH   1   2
BRANCH   1   6
ATOM      6  C   UNL A   1      38.877  22.330  25.923  1.00  0.00     0.242 C 
ATOM      7  O   UNL A   1      38.130  21.416  25.575  1.00  0.00    -0.273 OA
ATOM      8  N   UNL A   1      40.224  22.129  25.876  1.00  0.00    -0.354 N 
ATOM      9  H   UNL A   1      40.772  22.424  25.112  1.00  0.00     0.163 HD
BRANCH   8  10
ATOM     10  C   UNL A   1      40.799  21.452  27.015  1.00  0.00     0.116 C 
BRANCH  10  11
ATOM     11  C   UNL A   1      42.228  21.929  27.314  1.00  0.00     0.023 C 
BRANCH  11  12
ATOM     12  C   UNL A   1      42.386  22.730  28.611  1.00  0.00     0.023 C 
BRANCH  12  13
ATOM     13  C   UNL A   1      43.756  23.370  28.804  1.00  0.00     0.116 C 
BRANCH  13  14
ATOM     14  N   UNL A   1      44.235  24.029  27.599  1.00  0.00    -0.352 N 
ATOM     15  C   UNL A   1      44.233  25.353  27.258  1.00  0.00     0.251 C 
ATOM     16  H   UNL A   1      44.621  23.426  26.922  1.00  0.00     0.163 HD
ATOM     17  O   UNL A   1      44.585  25.694  26.133  1.00  0.00    -0.269 OA
BRANCH  15  18
ATOM     18  C   UNL A   1      43.773  26.351  28.235  1.00  0.00     0.039 A 
ATOM     19  C   UNL A   1      43.051  25.906  29.343  1.00  0.00     0.014 A 
ATOM     20  C   UNL A   1      44.070  27.707  28.070  1.00  0.00     0.014 A 
ATOM     21  C   UNL A   1      42.664  26.821  30.317  1.00  0.00     0.010 A 
ATOM     22  C   UNL A   1      43.748  28.605  29.080  1.00  0.00     0.010 A 
ATOM     23  C   UNL A   1      43.037  28.171  30.208  1.00  0.00    -0.014 A 
BRANCH  23  24
ATOM     24  C   UNL A   1      42.678  29.143  31.266  1.00  0.00     0.031 A 
ATOM     25  C   UNL A   1      41.431  29.969  31.131  1.00  0.00     0.074 A 
ATOM     26  C   UNL A   1      43.503  29.309  32.319  1.00  0.00     0.049 A 
ATOM     27  N   UNL A   1      40.975  30.907  31.919  1.00  0.00    -0.248 NA
ATOM     28  C   UNL A   1      40.601  29.731  29.938  1.00  0.00     0.031 C 
ATOM     29  C   UNL A   1      44.765  28.591  32.524  1.00  0.00     0.029 A 
ATOM     30  N   UNL A   1      43.410  30.134  33.408  1.00  0.00    -0.354 N 
ATOM     31  C   UNL A   1      39.813  31.374  31.317  1.00  0.00     0.074 A 
ATOM     32  C   UNL A   1      39.666  30.660  30.068  1.00  0.00     0.031 C 
ATOM     33  C   UNL A   1      45.316  28.995  33.680  1.00  0.00     0.029 A 
ATOM     34  C   UNL A   1      44.469  30.023  34.277  1.00  0.00     0.049 A 
ATOM     35  H   UNL A   1      42.655  30.749  33.554  1.00  0.00     0.167 HD
ATOM     36  C   UNL A   1      38.934  32.294  31.779  1.00  0.00     0.037 A 
ATOM     37  C   UNL A   1      44.731  30.683  35.422  1.00  0.00     0.037 A 
ATOM     38  C   UNL A   1      39.083  32.981  33.035  1.00  0.00     0.049 A 
ATOM     39  C   UNL A   1      43.741  31.704  35.912  1.00  0.00     0.074 A 
ATOM     40  C   UNL A   1      38.228  33.898  33.621  1.00  0.00     0.029 A 
ATOM     41  N   UNL A   1      40.158  32.827  33.899  1.00  0.00    -0.354 N 
ATOM     42  N   UNL A   1      42.616  32.092  35.360  1.00  0.00    -0.248 NA
ATOM     43  C   UNL A   1      44.051  32.372  37.183  1.00  0.00     0.031 C 
ATOM     44  C   UNL A   1      38.808  34.332  34.817  1.00  0.00     0.029 A 
ATOM     45  C   UNL A   1      39.998  33.647  35.004  1.00  0.00     0.049 A 
ATOM     46  H   UNL A   1      40.921  32.225  33.749  1.00  0.00     0.167 HD
ATOM     47  C   UNL A   1      42.069  33.029  36.230  1.00  0.00     0.074 A 
ATOM     48  C   UNL A   1      42.981  33.139  37.350  1.00  0.00     0.031 C 
ATOM     49  C   UNL A   1      40.916  33.735  36.113  1.00  0.00     0.037 A 
BRANCH  36  50
ATOM     50  C   UNL A   1      37.735  32.605  30.927  1.00  0.00     0.058 A 
ATOM     51  C   UNL A   1      36.506  31.950  31.117  1.00  0.00     0.135 A 
ATOM     52  C   UNL A   1      37.803  33.589  29.928  1.00  0.00     0.135 A 
ATOM     53  F   UNL A   1      36.389  30.987  32.045  1.00  0.00    -0.206 F 
ATOM     54  C   UNL A   1      35.396  32.241  30.330  1.00  0.00     0.059 A 
ATOM     55  C   UNL A   1      36.696  33.918  29.149  1.00  0.00     0.059 A 
ATOM     56  F   UNL A   1      38.952  34.243  29.700  1.00  0.00    -0.206 F 
ATOM     57  C   UNL A   1      35.502  33.227  29.348  1.00  0.00     0.060 A 
BRANCH  57  58
ATOM     58  S   UNL A   1      34.049  33.596  28.342  1.00  0.00     0.124 S 
ATOM     59  O   UNL A   1      33.681  32.267  27.865  1.00  0.00    -0.237 OA
ATOM     60  O   UNL A   1      33.141  34.195  29.315  1.00  0.00    -0.237 OA
ATOM     61  O   UNL A   1      34.564  34.508  27.324  1.00  0.00    -0.744 OA
ENDBRANCH  57  58
ENDBRANCH  36  50
BRANCH  37  62
ATOM     62  C   UNL A   1      45.972  30.384  36.184  1.00  0.00     0.058 A 
ATOM     63  C   UNL A   1      45.976  29.441  37.221  1.00  0.00     0.135 A 
ATOM     64  C   UNL A   1      47.184  31.027  35.883  1.00  0.00     0.135 A 
ATOM     65  F   UNL A   1      44.843  28.801  37.550  1.00  0.00    -0.206 F 
ATOM     66  C   UNL A   1      47.129  29.158  37.946  1.00  0.00     0.059 A 
ATOM     67  C   UNL A   1      48.356  30.742  36.574  1.00  0.00     0.059 A 
ATOM     68  F   UNL A   1      47.239  31.925  34.886  1.00  0.00    -0.206 F 
ATOM     69  C   UNL A   1      48.316  29.813  37.613  1.00  0.00     0.060 A 
BRANCH  69  70
ATOM     70  S   UNL A   1      49.816  29.410  38.535  1.00  0.00     0.124 S 
ATOM     71  O   UNL A   1      49.525  29.993  39.838  1.00  0.00    -0.237 OA
ATOM     72  O   UNL A   1      49.830  27.952  38.474  1.00  0.00    -0.237 OA
ATOM     73  O   UNL A   1      50.868  30.072  37.768  1.00  0.00    -0.744 OA
ENDBRANCH  69  70
ENDBRANCH  37  62
BRANCH  49  74
ATOM     74  C   UNL A   1      40.559  34.664  37.240  1.00  0.00     0.058 A 
ATOM     75  C   UNL A   1      40.932  36.016  37.230  1.00  0.00     0.135 A 
ATOM     76  C   UNL A   1      39.783  34.203  38.318  1.00  0.00     0.135 A 
ATOM     77  F   UNL A   1      41.678  36.504  36.228  1.00  0.00    -0.206 F 
ATOM     78  C   UNL A   1      40.569  36.876  38.263  1.00  0.00     0.059 A 
ATOM     79  C   UNL A   1      39.384  35.052  39.344  1.00  0.00     0.059 A 
ATOM     80  F   UNL A   1      39.390  32.921  38.369  1.00  0.00    -0.206 F 
ATOM     81  C   UNL A   1      39.792  36.385  39.313  1.00  0.00     0.060 A 
BRANCH  81  82
ATOM     82  S   UNL A   1      39.298  37.520  40.627  1.00  0.00     0.124 S 
ATOM     83  O   UNL A   1      38.823  36.595  41.651  1.00  0.00    -0.237 OA
ATOM     84  O   UNL A   1      40.547  38.212  40.927  1.00  0.00    -0.237 OA
ATOM     85  O   UNL A   1      38.269  38.341  39.997  1.00  0.00    -0.744 OA
ENDBRANCH  81  82
ENDBRANCH  49  74
ENDBRANCH  23  24
ENDBRANCH  15  18
ENDBRANCH  13  14
ENDBRANCH  12  13
ENDBRANCH  11  12
ENDBRANCH  10  11
ENDBRANCH   8  10
ENDBRANCH   1   6
BRANCH   1  86
ATOM     86  N   UNL A   1      37.058  23.334  27.049  1.00  0.00    -0.343 N 
ATOM     87  C   UNL A   1      35.866  23.455  26.422  1.00  0.00     0.243 C 
ATOM     88  H   UNL A   1      37.036  22.989  27.972  1.00  0.00     0.164 HD
ATOM     89  O   UNL A   1      34.922  22.899  27.007  1.00  0.00    -0.273 OA
BRANCH  87  90
ATOM     90  C   UNL A   1      35.547  24.490  25.305  1.00  0.00     0.175 C 
BRANCH  90  91
ATOM     91  N   UNL A   1      36.161  23.778  24.149  1.00  0.00    -0.342 N 
ATOM     92  C   UNL A   1      35.529  23.049  23.183  1.00  0.00     0.240 C 
ATOM     93  H   UNL A   1      37.140  23.841  24.073  1.00  0.00     0.164 HD
ATOM     94  O   UNL A   1      36.073  22.927  22.085  1.00  0.00    -0.273 OA
BRANCH  92  95
ATOM     95  C   UNL A   1      34.143  22.465  23.463  1.00  0.00     0.216 C 
BRANCH  95  96
ATOM     96  N   UNL A   1      34.261  21.214  24.202  1.00  0.00    -0.346 N 
ATOM     97  C   UNL A   1      33.352  20.563  24.977  1.00  0.00     0.239 C 
ATOM     98  H   UNL A   1      35.137  20.772  24.129  1.00  0.00     0.164 HD
ATOM     99  O   UNL A   1      33.743  19.591  25.625  1.00  0.00    -0.273 OA
BRANCH  97 100
ATOM    100  C   UNL A   1      31.903  21.042  25.064  1.00  0.00     0.219 C 
BRANCH 100 101
ATOM    101  N   UNL A   1      31.623  21.728  26.306  1.00  0.00    -0.312 N 
ATOM    102  C   UNL A   1      31.443  23.067  26.472  1.00  0.00     0.407 C 
ATOM    103  H   UNL A   1      31.555  21.170  27.114  1.00  0.00     0.167 HD
ATOM    104  O   UNL A   1      31.325  23.532  27.597  1.00  0.00    -0.225 OA
BRANCH 102 105
ATOM    105  O   UNL A   1      31.429  23.744  25.300  1.00  0.00    -0.445 OA
BRANCH 105 106
ATOM    106  C   UNL A   1      30.276  24.554  24.992  1.00  0.00     0.270 C 
BRANCH 106 107
ATOM    107  C   UNL A   1      30.541  25.741  24.103  1.00  0.00    -0.011 A 
ATOM    108  C   UNL A   1      30.061  27.005  24.474  1.00  0.00     0.007 A 
ATOM    109  C   UNL A   1      31.176  25.584  22.864  1.00  0.00     0.007 A 
ATOM    110  C   UNL A   1      30.145  28.076  23.587  1.00  0.00     0.000 A 
ATOM    111  C   UNL A   1      31.245  26.653  21.973  1.00  0.00     0.000 A 
ATOM    112  C   UNL A   1      30.717  27.894  22.329  1.00  0.00     0.000 A 
ENDBRANCH 106 107
ENDBRANCH 105 106
ENDBRANCH 102 105
ENDBRANCH 100 101
ENDBRANCH  97 100
ENDBRANCH  95  96
ENDBRANCH  92  95
ENDBRANCH  90  91
BRANCH  90 113
ATOM    113  C   UNL A   1      34.257  25.205  24.817  1.00  0.00     0.070 C 
BRANCH 113 114
ATOM    114  C   UNL A   1      33.819  26.617  25.136  1.00  0.00    -0.045 A 
ATOM    115  C   UNL A   1      33.232  26.886  26.390  1.00  0.00     0.004 A 
ATOM    116  C   UNL A   1      33.933  27.671  24.229  1.00  0.00     0.004 A 
ATOM    117  C   UNL A   1      32.909  28.185  26.782  1.00  0.00     0.000 A 
ATOM    118  C   UNL A   1      33.575  28.974  24.610  1.00  0.00     0.000 A 
ATOM    119  C   UNL A   1      33.094  29.235  25.893  1.00  0.00     0.000 A 
ENDBRANCH 113 114
ENDBRANCH  90 113
ENDBRANCH  87  90
ENDBRANCH   1  86
TORSDOF 28
ENDMDL
