MODEL 1
REMARK VINA RESULT:     -11.3      0.000      0.000
REMARK SMILES CCOc1ccccc1Nc1ccc(C(=O)NCCCCNC(=O)c2ccc(-c3c4nc(c(-c5c(F)cc(S(=O)(=O)[O-])cc5F)c5ccc([nH]5)c(-c5c(F)cc(S(=O)(=O)[O-])cc5F)c5nc(c(-c6c(F)cc(S(=O)(=O)[O-])cc6F)c6ccc3[nH]6)C=C5)C=C4)cc2)cc1N
REMARK SMILES IDX 19 1 18 2 17 3 15 4 16 5 14 7 11 8 12 9 92 10 13 11 91 12
REMARK SMILES IDX 10 13 9 15 4 16 5 17 6 18 8 19 7 20 3 21 2 22 1 23 93 24
REMARK SMILES IDX 20 27 21 28 22 29 23 30 24 32 25 33 26 34 90 35 27 36 89 37
REMARK SMILES IDX 28 38 29 39 30 40 83 41 31 42 88 43 82 44 84 45 32 46 87 47
REMARK SMILES IDX 81 48 80 49 33 51 67 52 46 53 66 54 47 55 50 56 65 57 85 58
REMARK SMILES IDX 48 59 49 60 64 62 86 63 51 64 34 65 35 66 44 67 36 68 37 69
REMARK SMILES IDX 43 70 45 71 38 72 39 73 40 74 41 75 42 76 68 77 69 78 78 79
REMARK SMILES IDX 70 80 71 81 77 82 79 83 72 84 73 85 74 86 75 87 76 88 52 89
REMARK SMILES IDX 53 90 62 91 54 92 55 93 61 94 63 95 56 96 57 97 58 98 59 99
REMARK SMILES IDX 60 100
REMARK H PARENT 17 6 10 14 93 25 93 26 22 31 84 50 50 61
REMARK Flexibility Score: inf
ROOT
ATOM      1  C   UNL A   1      32.949  29.476  24.920  1.00  0.00     0.023 C 
ENDROOT
BRANCH   1   2
ATOM      2  C   UNL A   1      31.438  29.267  25.050  1.00  0.00     0.116 C 
BRANCH   2   3
ATOM      3  N   UNL A   1      30.801  29.337  23.748  1.00  0.00    -0.352 N 
ATOM      4  C   UNL A   1      30.755  28.440  22.710  1.00  0.00     0.251 C 
ATOM      5  O   UNL A   1      30.117  28.738  21.702  1.00  0.00    -0.269 OA
ATOM      6  H   UNL A   1      30.317  30.177  23.578  1.00  0.00     0.163 HD
BRANCH   4   7
ATOM      7  C   UNL A   1      31.381  27.096  22.795  1.00  0.00     0.041 A 
ATOM      8  C   UNL A   1      32.625  24.571  22.740  1.00  0.00     0.062 A 
ATOM      9  C   UNL A   1      33.308  25.713  22.304  1.00  0.00     0.029 A 
ATOM     10  C   UNL A   1      31.318  24.706  23.260  1.00  0.00     0.056 A 
ATOM     11  C   UNL A   1      32.688  26.963  22.316  1.00  0.00     0.016 A 
ATOM     12  C   UNL A   1      30.747  25.979  23.341  1.00  0.00     0.041 A 
BRANCH   8  13
ATOM     13  N   UNL A   1      33.265  23.327  22.601  1.00  0.00    -0.351 N 
ATOM     14  H   UNL A   1      32.971  22.800  21.824  1.00  0.00     0.167 HD
BRANCH  13  15
ATOM     15  C   UNL A   1      34.254  22.712  23.385  1.00  0.00     0.081 A 
ATOM     16  C   UNL A   1      33.903  21.652  24.236  1.00  0.00     0.142 A 
ATOM     17  C   UNL A   1      34.860  21.004  25.019  1.00  0.00     0.048 A 
ATOM     18  C   UNL A   1      36.198  21.384  24.924  1.00  0.00     0.004 A 
ATOM     19  C   UNL A   1      35.606  23.061  23.285  1.00  0.00     0.030 A 
ATOM     20  C   UNL A   1      36.572  22.408  24.055  1.00  0.00     0.002 A 
BRANCH  16  21
ATOM     21  O   UNL A   1      32.586  21.277  24.336  1.00  0.00    -0.492 OA
BRANCH  21  22
ATOM     22  C   UNL A   1      32.452  19.852  24.461  1.00  0.00     0.226 C 
ATOM     23  C   UNL A   1      32.225  19.224  23.096  1.00  0.00     0.049 C 
ENDBRANCH  21  22
ENDBRANCH  16  21
ENDBRANCH  13  15
ENDBRANCH   8  13
BRANCH  10  24
ATOM     24  N   UNL A   1      30.646  23.641  23.866  1.00  0.00    -0.397 N 
ATOM     25  H   UNL A   1      30.015  23.095  23.344  1.00  0.00     0.156 HD
ATOM     26  H   UNL A   1      30.805  23.435  24.817  1.00  0.00     0.156 HD
ENDBRANCH  10  24
ENDBRANCH   4   7
ENDBRANCH   2   3
ENDBRANCH   1   2
BRANCH   1  27
ATOM     27  C   UNL A   1      33.786  28.408  25.628  1.00  0.00     0.023 C 
BRANCH  27  28
ATOM     28  C   UNL A   1      33.791  28.517  27.146  1.00  0.00     0.116 C 
BRANCH  28  29
ATOM     29  N   UNL A   1      33.602  29.880  27.619  1.00  0.00    -0.352 N 
ATOM     30  C   UNL A   1      34.511  30.677  28.275  1.00  0.00     0.251 C 
ATOM     31  H   UNL A   1      32.719  30.281  27.447  1.00  0.00     0.163 HD
ATOM     32  O   UNL A   1      34.181  31.769  28.716  1.00  0.00    -0.269 OA
BRANCH  30  33
ATOM     33  C   UNL A   1      35.882  30.163  28.476  1.00  0.00     0.039 A 
ATOM     34  C   UNL A   1      36.799  30.260  27.428  1.00  0.00     0.014 A 
ATOM     35  C   UNL A   1      36.267  29.647  29.715  1.00  0.00     0.014 A 
ATOM     36  C   UNL A   1      38.129  29.895  27.644  1.00  0.00     0.010 A 
ATOM     37  C   UNL A   1      37.603  29.345  29.947  1.00  0.00     0.010 A 
ATOM     38  C   UNL A   1      38.546  29.465  28.914  1.00  0.00    -0.014 A 
BRANCH  38  39
ATOM     39  C   UNL A   1      39.961  29.118  29.191  1.00  0.00     0.031 A 
ATOM     40  C   UNL A   1      40.881  30.158  29.766  1.00  0.00     0.074 A 
ATOM     41  C   UNL A   1      40.435  27.905  28.846  1.00  0.00     0.049 A 
ATOM     42  N   UNL A   1      42.173  30.104  29.961  1.00  0.00    -0.248 NA
ATOM     43  C   UNL A   1      40.269  31.444  30.142  1.00  0.00     0.031 C 
ATOM     44  C   UNL A   1      39.648  26.828  28.242  1.00  0.00     0.029 A 
ATOM     45  N   UNL A   1      41.700  27.381  28.938  1.00  0.00    -0.354 N 
ATOM     46  C   UNL A   1      42.533  31.351  30.455  1.00  0.00     0.074 A 
ATOM     47  C   UNL A   1      41.330  32.156  30.490  1.00  0.00     0.031 C 
ATOM     48  C   UNL A   1      40.445  25.767  28.029  1.00  0.00     0.029 A 
ATOM     49  C   UNL A   1      41.804  26.101  28.447  1.00  0.00     0.049 A 
ATOM     50  H   UNL A   1      42.461  27.875  29.319  1.00  0.00     0.167 HD
ATOM     51  C   UNL A   1      43.750  31.781  30.861  1.00  0.00     0.037 A 
ATOM     52  C   UNL A   1      42.876  25.292  28.337  1.00  0.00     0.037 A 
ATOM     53  C   UNL A   1      44.934  30.963  30.858  1.00  0.00     0.049 A 
ATOM     54  C   UNL A   1      44.216  25.783  28.816  1.00  0.00     0.074 A 
ATOM     55  C   UNL A   1      46.205  31.285  31.298  1.00  0.00     0.029 A 
ATOM     56  N   UNL A   1      44.987  29.655  30.397  1.00  0.00    -0.354 N 
ATOM     57  N   UNL A   1      44.531  26.951  29.323  1.00  0.00    -0.248 NA
ATOM     58  C   UNL A   1      45.344  24.847  28.714  1.00  0.00     0.031 C 
ATOM     59  C   UNL A   1      47.035  30.180  31.079  1.00  0.00     0.029 A 
ATOM     60  C   UNL A   1      46.272  29.158  30.537  1.00  0.00     0.049 A 
ATOM     61  H   UNL A   1      44.225  29.155  30.026  1.00  0.00     0.167 HD
ATOM     62  C   UNL A   1      45.886  26.880  29.629  1.00  0.00     0.074 A 
ATOM     63  C   UNL A   1      46.329  25.553  29.252  1.00  0.00     0.031 C 
ATOM     64  C   UNL A   1      46.688  27.826  30.175  1.00  0.00     0.037 A 
BRANCH  51  65
ATOM     65  C   UNL A   1      43.856  33.199  31.345  1.00  0.00     0.058 A 
ATOM     66  C   UNL A   1      43.605  33.541  32.684  1.00  0.00     0.135 A 
ATOM     67  C   UNL A   1      44.221  34.231  30.464  1.00  0.00     0.135 A 
ATOM     68  F   UNL A   1      43.237  32.595  33.564  1.00  0.00    -0.206 F 
ATOM     69  C   UNL A   1      43.675  34.857  33.125  1.00  0.00     0.059 A 
ATOM     70  C   UNL A   1      44.322  35.552  30.889  1.00  0.00     0.059 A 
ATOM     71  F   UNL A   1      44.471  33.960  29.174  1.00  0.00    -0.206 F 
ATOM     72  C   UNL A   1      44.029  35.857  32.218  1.00  0.00     0.060 A 
BRANCH  72  73
ATOM     73  S   UNL A   1      44.101  37.564  32.799  1.00  0.00     0.124 S 
ATOM     74  O   UNL A   1      43.841  38.301  31.566  1.00  0.00    -0.237 OA
ATOM     75  O   UNL A   1      43.036  37.604  33.796  1.00  0.00    -0.237 OA
ATOM     76  O   UNL A   1      45.456  37.685  33.330  1.00  0.00    -0.744 OA
ENDBRANCH  72  73
ENDBRANCH  51  65
BRANCH  52  77
ATOM     77  C   UNL A   1      42.720  23.925  27.777  1.00  0.00     0.058 A 
ATOM     78  C   UNL A   1      42.559  22.818  28.624  1.00  0.00     0.135 A 
ATOM     79  C   UNL A   1      42.704  23.698  26.393  1.00  0.00     0.135 A 
ATOM     80  F   UNL A   1      42.572  22.985  29.955  1.00  0.00    -0.206 F 
ATOM     81  C   UNL A   1      42.403  21.532  28.120  1.00  0.00     0.059 A 
ATOM     82  C   UNL A   1      42.528  22.423  25.864  1.00  0.00     0.059 A 
ATOM     83  F   UNL A   1      42.836  24.727  25.541  1.00  0.00    -0.206 F 
ATOM     84  C   UNL A   1      42.386  21.344  26.736  1.00  0.00     0.060 A 
BRANCH  84  85
ATOM     85  S   UNL A   1      42.126  19.677  26.091  1.00  0.00     0.124 S 
ATOM     86  O   UNL A   1      43.018  19.667  24.937  1.00  0.00    -0.237 OA
ATOM     87  O   UNL A   1      42.530  18.844  27.219  1.00  0.00    -0.237 OA
ATOM     88  O   UNL A   1      40.698  19.656  25.788  1.00  0.00    -0.744 OA
ENDBRANCH  84  85
ENDBRANCH  52  77
BRANCH  64  89
ATOM     89  C   UNL A   1      48.117  27.451  30.444  1.00  0.00     0.058 A 
ATOM     90  C   UNL A   1      48.488  26.734  31.591  1.00  0.00     0.135 A 
ATOM     91  C   UNL A   1      49.115  27.749  29.502  1.00  0.00     0.135 A 
ATOM     92  F   UNL A   1      47.571  26.430  32.524  1.00  0.00    -0.206 F 
ATOM     93  C   UNL A   1      49.804  26.336  31.803  1.00  0.00     0.059 A 
ATOM     94  C   UNL A   1      50.432  27.343  29.682  1.00  0.00     0.059 A 
ATOM     95  F   UNL A   1      48.808  28.426  28.383  1.00  0.00    -0.206 F 
ATOM     96  C   UNL A   1      50.769  26.643  30.840  1.00  0.00     0.060 A 
BRANCH  96  97
ATOM     97  S   UNL A   1      52.464  26.076  31.099  1.00  0.00     0.124 S 
ATOM     98  O   UNL A   1      52.247  24.813  31.797  1.00  0.00    -0.237 OA
ATOM     99  O   UNL A   1      52.971  25.968  29.734  1.00  0.00    -0.237 OA
ATOM    100  O   UNL A   1      53.058  27.143  31.899  1.00  0.00    -0.744 OA
ENDBRANCH  96  97
ENDBRANCH  64  89
ENDBRANCH  38  39
ENDBRANCH  30  33
ENDBRANCH  28  29
ENDBRANCH  27  28
ENDBRANCH   1  27
TORSDOF 19
ENDMDL
MODEL 2
REMARK VINA RESULT:     -11.1      2.855      9.253
REMARK SMILES CCOc1ccccc1Nc1ccc(C(=O)NCCCCNC(=O)c2ccc(-c3c4nc(c(-c5c(F)cc(S(=O)(=O)[O-])cc5F)c5ccc([nH]5)c(-c5c(F)cc(S(=O)(=O)[O-])cc5F)c5nc(c(-c6c(F)cc(S(=O)(=O)[O-])cc6F)c6ccc3[nH]6)C=C5)C=C4)cc2)cc1N
REMARK SMILES IDX 19 1 18 2 17 3 15 4 16 5 14 7 11 8 12 9 92 10 13 11 91 12
REMARK SMILES IDX 10 13 9 15 4 16 5 17 6 18 8 19 7 20 3 21 2 22 1 23 93 24
REMARK SMILES IDX 20 27 21 28 22 29 23 30 24 32 25 33 26 34 90 35 27 36 89 37
REMARK SMILES IDX 28 38 29 39 30 40 83 41 31 42 88 43 82 44 84 45 32 46 87 47
REMARK SMILES IDX 81 48 80 49 33 51 67 52 46 53 66 54 47 55 50 56 65 57 85 58
REMARK SMILES IDX 48 59 49 60 64 62 86 63 51 64 34 65 35 66 44 67 36 68 37 69
REMARK SMILES IDX 43 70 45 71 38 72 39 73 40 74 41 75 42 76 68 77 69 78 78 79
REMARK SMILES IDX 70 80 71 81 77 82 79 83 72 84 73 85 74 86 75 87 76 88 52 89
REMARK SMILES IDX 53 90 62 91 54 92 55 93 61 94 63 95 56 96 57 97 58 98 59 99
REMARK SMILES IDX 60 100
REMARK H PARENT 17 6 10 14 93 25 93 26 22 31 84 50 50 61
REMARK Flexibility Score: inf
ROOT
ATOM      1  C   UNL A   1      35.460  21.909  26.451  1.00  0.00     0.023 C 
ENDROOT
BRANCH   1   2
ATOM      2  C   UNL A   1      34.186  21.531  27.211  1.00  0.00     0.116 C 
BRANCH   2   3
ATOM      3  N   UNL A   1      33.448  20.510  26.490  1.00  0.00    -0.352 N 
ATOM      4  C   UNL A   1      32.501  20.602  25.501  1.00  0.00     0.251 C 
ATOM      5  O   UNL A   1      32.037  19.563  25.032  1.00  0.00    -0.269 OA
ATOM      6  H   UNL A   1      33.665  19.588  26.759  1.00  0.00     0.163 HD
BRANCH   4   7
ATOM      7  C   UNL A   1      32.078  21.903  24.926  1.00  0.00     0.041 A 
ATOM      8  C   UNL A   1      31.490  24.415  23.796  1.00  0.00     0.062 A 
ATOM      9  C   UNL A   1      32.277  23.486  23.103  1.00  0.00     0.029 A 
ATOM     10  C   UNL A   1      30.947  24.057  25.052  1.00  0.00     0.056 A 
ATOM     11  C   UNL A   1      32.582  22.247  23.669  1.00  0.00     0.016 A 
ATOM     12  C   UNL A   1      31.196  22.779  25.561  1.00  0.00     0.041 A 
BRANCH   8  13
ATOM     13  N   UNL A   1      31.310  25.685  23.222  1.00  0.00    -0.351 N 
ATOM     14  H   UNL A   1      30.427  25.828  22.812  1.00  0.00     0.167 HD
BRANCH  13  15
ATOM     15  C   UNL A   1      32.180  26.784  23.136  1.00  0.00     0.081 A 
ATOM     16  C   UNL A   1      32.233  27.708  24.192  1.00  0.00     0.142 A 
ATOM     17  C   UNL A   1      33.097  28.804  24.153  1.00  0.00     0.048 A 
ATOM     18  C   UNL A   1      33.956  28.963  23.066  1.00  0.00     0.004 A 
ATOM     19  C   UNL A   1      33.069  26.947  22.067  1.00  0.00     0.030 A 
ATOM     20  C   UNL A   1      33.947  28.034  22.027  1.00  0.00     0.002 A 
BRANCH  16  21
ATOM     21  O   UNL A   1      31.385  27.558  25.261  1.00  0.00    -0.492 OA
BRANCH  21  22
ATOM     22  C   UNL A   1      31.529  28.635  26.202  1.00  0.00     0.226 C 
ATOM     23  C   UNL A   1      31.709  28.085  27.607  1.00  0.00     0.049 C 
ENDBRANCH  21  22
ENDBRANCH  16  21
ENDBRANCH  13  15
ENDBRANCH   8  13
BRANCH  10  24
ATOM     24  N   UNL A   1      30.021  24.865  25.716  1.00  0.00    -0.397 N 
ATOM     25  H   UNL A   1      30.062  24.959  26.695  1.00  0.00     0.156 HD
ATOM     26  H   UNL A   1      29.325  25.340  25.205  1.00  0.00     0.156 HD
ENDBRANCH  10  24
ENDBRANCH   4   7
ENDBRANCH   2   3
ENDBRANCH   1   2
BRANCH   1  27
ATOM     27  C   UNL A   1      35.471  23.351  25.938  1.00  0.00     0.023 C 
BRANCH  27  28
ATOM     28  C   UNL A   1      36.778  23.775  25.282  1.00  0.00     0.116 C 
BRANCH  28  29
ATOM     29  N   UNL A   1      37.834  22.784  25.428  1.00  0.00    -0.352 N 
ATOM     30  C   UNL A   1      39.048  22.933  26.058  1.00  0.00     0.251 C 
ATOM     31  H   UNL A   1      37.659  21.901  25.028  1.00  0.00     0.163 HD
ATOM     32  O   UNL A   1      39.890  22.049  26.009  1.00  0.00    -0.269 OA
BRANCH  30  33
ATOM     33  C   UNL A   1      39.326  24.206  26.757  1.00  0.00     0.039 A 
ATOM     34  C   UNL A   1      38.853  24.378  28.059  1.00  0.00     0.014 A 
ATOM     35  C   UNL A   1      40.102  25.192  26.144  1.00  0.00     0.014 A 
ATOM     36  C   UNL A   1      39.215  25.521  28.775  1.00  0.00     0.010 A 
ATOM     37  C   UNL A   1      40.513  26.296  26.879  1.00  0.00     0.010 A 
ATOM     38  C   UNL A   1      40.074  26.472  28.201  1.00  0.00    -0.014 A 
BRANCH  38  39
ATOM     39  C   UNL A   1      40.518  27.671  28.951  1.00  0.00     0.031 A 
ATOM     40  C   UNL A   1      41.853  27.661  29.642  1.00  0.00     0.074 A 
ATOM     41  C   UNL A   1      39.690  28.726  29.083  1.00  0.00     0.049 A 
ATOM     42  N   UNL A   1      42.371  28.547  30.452  1.00  0.00    -0.248 NA
ATOM     43  C   UNL A   1      42.703  26.481  29.416  1.00  0.00     0.031 C 
ATOM     44  C   UNL A   1      38.354  28.834  28.494  1.00  0.00     0.029 A 
ATOM     45  N   UNL A   1      39.844  29.902  29.772  1.00  0.00    -0.354 N 
ATOM     46  C   UNL A   1      43.593  28.022  30.853  1.00  0.00     0.074 A 
ATOM     47  C   UNL A   1      43.719  26.721  30.231  1.00  0.00     0.031 C 
ATOM     48  C   UNL A   1      37.815  30.016  28.837  1.00  0.00     0.029 A 
ATOM     49  C   UNL A   1      38.752  30.733  29.698  1.00  0.00     0.049 A 
ATOM     50  H   UNL A   1      40.660  30.130  30.274  1.00  0.00     0.167 HD
ATOM     51  C   UNL A   1      44.533  28.580  31.650  1.00  0.00     0.037 A 
ATOM     52  C   UNL A   1      38.527  31.934  30.267  1.00  0.00     0.037 A 
ATOM     53  C   UNL A   1      44.417  29.889  32.235  1.00  0.00     0.049 A 
ATOM     54  C   UNL A   1      39.596  32.546  31.132  1.00  0.00     0.074 A 
ATOM     55  C   UNL A   1      45.335  30.569  33.014  1.00  0.00     0.029 A 
ATOM     56  N   UNL A   1      43.315  30.720  32.095  1.00  0.00    -0.354 N 
ATOM     57  N   UNL A   1      40.766  32.055  31.465  1.00  0.00    -0.248 NA
ATOM     58  C   UNL A   1      39.319  33.875  31.693  1.00  0.00     0.031 C 
ATOM     59  C   UNL A   1      44.777  31.803  33.370  1.00  0.00     0.029 A 
ATOM     60  C   UNL A   1      43.527  31.905  32.780  1.00  0.00     0.049 A 
ATOM     61  H   UNL A   1      42.502  30.501  31.585  1.00  0.00     0.167 HD
ATOM     62  C   UNL A   1      41.377  33.027  32.250  1.00  0.00     0.074 A 
ATOM     63  C   UNL A   1      40.448  34.135  32.338  1.00  0.00     0.031 C 
ATOM     64  C   UNL A   1      42.597  33.005  32.839  1.00  0.00     0.037 A 
BRANCH  51  65
ATOM     65  C   UNL A   1      45.770  27.773  31.931  1.00  0.00     0.058 A 
ATOM     66  C   UNL A   1      45.839  26.888  33.018  1.00  0.00     0.135 A 
ATOM     67  C   UNL A   1      46.897  27.878  31.100  1.00  0.00     0.135 A 
ATOM     68  F   UNL A   1      44.795  26.762  33.854  1.00  0.00    -0.206 F 
ATOM     69  C   UNL A   1      46.993  26.163  33.295  1.00  0.00     0.059 A 
ATOM     70  C   UNL A   1      48.053  27.143  31.341  1.00  0.00     0.059 A 
ATOM     71  F   UNL A   1      46.884  28.710  30.046  1.00  0.00    -0.206 F 
ATOM     72  C   UNL A   1      48.097  26.302  32.454  1.00  0.00     0.060 A 
BRANCH  72  73
ATOM     73  S   UNL A   1      49.594  25.367  32.831  1.00  0.00     0.124 S 
ATOM     74  O   UNL A   1      49.977  24.887  31.507  1.00  0.00    -0.237 OA
ATOM     75  O   UNL A   1      50.465  26.386  33.410  1.00  0.00    -0.237 OA
ATOM     76  O   UNL A   1      49.130  24.344  33.762  1.00  0.00    -0.744 OA
ENDBRANCH  72  73
ENDBRANCH  51  65
BRANCH  52  77
ATOM     77  C   UNL A   1      37.250  32.649  30.011  1.00  0.00     0.058 A 
ATOM     78  C   UNL A   1      36.121  32.406  30.807  1.00  0.00     0.135 A 
ATOM     79  C   UNL A   1      37.136  33.601  28.987  1.00  0.00     0.135 A 
ATOM     80  F   UNL A   1      36.180  31.501  31.795  1.00  0.00    -0.206 F 
ATOM     81  C   UNL A   1      34.919  33.071  30.590  1.00  0.00     0.059 A 
ATOM     82  C   UNL A   1      35.952  34.295  28.763  1.00  0.00     0.059 A 
ATOM     83  F   UNL A   1      38.194  33.882  28.209  1.00  0.00    -0.206 F 
ATOM     84  C   UNL A   1      34.844  34.017  29.565  1.00  0.00     0.060 A 
BRANCH  84  85
ATOM     85  S   UNL A   1      33.296  34.915  29.327  1.00  0.00     0.124 S 
ATOM     86  O   UNL A   1      33.777  36.206  28.850  1.00  0.00    -0.237 OA
ATOM     87  O   UNL A   1      32.606  34.086  28.343  1.00  0.00    -0.237 OA
ATOM     88  O   UNL A   1      32.702  34.915  30.660  1.00  0.00    -0.744 OA
ENDBRANCH  84  85
ENDBRANCH  52  77
BRANCH  64  89
ATOM     89  C   UNL A   1      43.023  34.231  33.595  1.00  0.00     0.058 A 
ATOM     90  C   UNL A   1      42.711  34.407  34.950  1.00  0.00     0.135 A 
ATOM     91  C   UNL A   1      43.819  35.204  32.970  1.00  0.00     0.135 A 
ATOM     92  F   UNL A   1      41.947  33.507  35.591  1.00  0.00    -0.206 F 
ATOM     93  C   UNL A   1      43.161  35.515  35.660  1.00  0.00     0.059 A 
ATOM     94  C   UNL A   1      44.299  36.309  33.665  1.00  0.00     0.059 A 
ATOM     95  F   UNL A   1      44.153  35.076  31.676  1.00  0.00    -0.206 F 
ATOM     96  C   UNL A   1      43.958  36.460  35.009  1.00  0.00     0.060 A 
BRANCH  96  97
ATOM     97  S   UNL A   1      44.583  37.867  35.953  1.00  0.00     0.124 S 
ATOM     98  O   UNL A   1      46.015  37.786  35.688  1.00  0.00    -0.237 OA
ATOM     99  O   UNL A   1      43.885  38.992  35.337  1.00  0.00    -0.237 OA
ATOM    100  O   UNL A   1      44.179  37.561  37.322  1.00  0.00    -0.744 OA
ENDBRANCH  96  97
ENDBRANCH  64  89
ENDBRANCH  38  39
ENDBRANCH  30  33
ENDBRANCH  28  29
ENDBRANCH  27  28
ENDBRANCH   1  27
TORSDOF 19
ENDMDL
MODEL 3
REMARK VINA RESULT:     -11.0      0.980      2.079
REMARK SMILES CCOc1ccccc1Nc1ccc(C(=O)NCCCCNC(=O)c2ccc(-c3c4nc(c(-c5c(F)cc(S(=O)(=O)[O-])cc5F)c5ccc([nH]5)c(-c5c(F)cc(S(=O)(=O)[O-])cc5F)c5nc(c(-c6c(F)cc(S(=O)(=O)[O-])cc6F)c6ccc3[nH]6)C=C5)C=C4)cc2)cc1N
REMARK SMILES IDX 19 1 18 2 17 3 15 4 16 5 14 7 11 8 12 9 92 10 13 11 91 12
REMARK SMILES IDX 10 13 9 15 4 16 5 17 6 18 8 19 7 20 3 21 2 22 1 23 93 24
REMARK SMILES IDX 20 27 21 28 22 29 23 30 24 32 25 33 26 34 90 35 27 36 89 37
REMARK SMILES IDX 28 38 29 39 30 40 83 41 31 42 88 43 82 44 84 45 32 46 87 47
REMARK SMILES IDX 81 48 80 49 33 51 67 52 46 53 66 54 47 55 50 56 65 57 85 58
REMARK SMILES IDX 48 59 49 60 64 62 86 63 51 64 34 65 35 66 44 67 36 68 37 69
REMARK SMILES IDX 43 70 45 71 38 72 39 73 40 74 41 75 42 76 68 77 69 78 78 79
REMARK SMILES IDX 70 80 71 81 77 82 79 83 72 84 73 85 74 86 75 87 76 88 52 89
REMARK SMILES IDX 53 90 62 91 54 92 55 93 61 94 63 95 56 96 57 97 58 98 59 99
REMARK SMILES IDX 60 100
REMARK H PARENT 17 6 10 14 93 25 93 26 22 31 84 50 50 61
REMARK Flexibility Score: inf
ROOT
ATOM      1  C   UNL A   1      32.877  29.655  24.968  1.00  0.00     0.023 C 
ENDROOT
BRANCH   1   2
ATOM      2  C   UNL A   1      31.369  29.859  25.133  1.00  0.00     0.116 C 
BRANCH   2   3
ATOM      3  N   UNL A   1      30.719  29.912  23.836  1.00  0.00    -0.352 N 
ATOM      4  C   UNL A   1      30.406  28.924  22.936  1.00  0.00     0.251 C 
ATOM      5  O   UNL A   1      29.824  29.237  21.898  1.00  0.00    -0.269 OA
ATOM      6  H   UNL A   1      30.458  30.817  23.550  1.00  0.00     0.163 HD
BRANCH   4   7
ATOM      7  C   UNL A   1      30.674  27.490  23.208  1.00  0.00     0.041 A 
ATOM      8  C   UNL A   1      31.228  24.826  23.933  1.00  0.00     0.062 A 
ATOM      9  C   UNL A   1      30.314  25.592  24.669  1.00  0.00     0.029 A 
ATOM     10  C   UNL A   1      31.832  25.389  22.786  1.00  0.00     0.056 A 
ATOM     11  C   UNL A   1      30.051  26.917  24.320  1.00  0.00     0.016 A 
ATOM     12  C   UNL A   1      31.489  26.689  22.406  1.00  0.00     0.041 A 
BRANCH   8  13
ATOM     13  N   UNL A   1      31.533  23.535  24.400  1.00  0.00    -0.351 N 
ATOM     14  H   UNL A   1      31.124  22.805  23.882  1.00  0.00     0.167 HD
BRANCH  13  15
ATOM     15  C   UNL A   1      32.324  23.115  25.482  1.00  0.00     0.081 A 
ATOM     16  C   UNL A   1      33.712  22.991  25.315  1.00  0.00     0.142 A 
ATOM     17  C   UNL A   1      34.535  22.593  26.370  1.00  0.00     0.048 A 
ATOM     18  C   UNL A   1      33.976  22.355  27.626  1.00  0.00     0.004 A 
ATOM     19  C   UNL A   1      31.786  22.897  26.756  1.00  0.00     0.030 A 
ATOM     20  C   UNL A   1      32.605  22.511  27.820  1.00  0.00     0.002 A 
BRANCH  16  21
ATOM     21  O   UNL A   1      34.266  23.219  24.080  1.00  0.00    -0.492 OA
BRANCH  21  22
ATOM     22  C   UNL A   1      35.287  22.256  23.775  1.00  0.00     0.226 C 
ATOM     23  C   UNL A   1      36.600  22.959  23.471  1.00  0.00     0.049 C 
ENDBRANCH  21  22
ENDBRANCH  16  21
ENDBRANCH  13  15
ENDBRANCH   8  13
BRANCH  10  24
ATOM     24  N   UNL A   1      32.618  24.631  21.914  1.00  0.00    -0.397 N 
ATOM     25  H   UNL A   1      33.207  23.926  22.268  1.00  0.00     0.156 HD
ATOM     26  H   UNL A   1      32.582  24.800  20.944  1.00  0.00     0.156 HD
ENDBRANCH  10  24
ENDBRANCH   4   7
ENDBRANCH   2   3
ENDBRANCH   1   2
BRANCH   1  27
ATOM     27  C   UNL A   1      33.393  28.339  25.554  1.00  0.00     0.023 C 
BRANCH  27  28
ATOM     28  C   UNL A   1      34.028  28.469  26.931  1.00  0.00     0.116 C 
BRANCH  28  29
ATOM     29  N   UNL A   1      33.826  29.781  27.528  1.00  0.00    -0.352 N 
ATOM     30  C   UNL A   1      34.726  30.521  28.260  1.00  0.00     0.251 C 
ATOM     31  H   UNL A   1      32.940  30.188  27.391  1.00  0.00     0.163 HD
ATOM     32  O   UNL A   1      34.385  31.564  28.798  1.00  0.00    -0.269 OA
BRANCH  30  33
ATOM     33  C   UNL A   1      36.101  30.002  28.417  1.00  0.00     0.039 A 
ATOM     34  C   UNL A   1      36.982  30.085  27.337  1.00  0.00     0.014 A 
ATOM     35  C   UNL A   1      36.526  29.494  29.647  1.00  0.00     0.014 A 
ATOM     36  C   UNL A   1      38.317  29.715  27.511  1.00  0.00     0.010 A 
ATOM     37  C   UNL A   1      37.868  29.187  29.835  1.00  0.00     0.010 A 
ATOM     38  C   UNL A   1      38.776  29.294  28.769  1.00  0.00    -0.014 A 
BRANCH  38  39
ATOM     39  C   UNL A   1      40.198  28.942  29.000  1.00  0.00     0.031 A 
ATOM     40  C   UNL A   1      41.146  29.988  29.516  1.00  0.00     0.074 A 
ATOM     41  C   UNL A   1      40.650  27.718  28.665  1.00  0.00     0.049 A 
ATOM     42  N   UNL A   1      42.444  29.928  29.662  1.00  0.00    -0.248 NA
ATOM     43  C   UNL A   1      40.558  31.287  29.885  1.00  0.00     0.031 C 
ATOM     44  C   UNL A   1      39.833  26.634  28.116  1.00  0.00     0.029 A 
ATOM     45  N   UNL A   1      41.913  27.186  28.720  1.00  0.00    -0.354 N 
ATOM     46  C   UNL A   1      42.831  31.183  30.113  1.00  0.00     0.074 A 
ATOM     47  C   UNL A   1      41.636  31.998  30.176  1.00  0.00     0.031 C 
ATOM     48  C   UNL A   1      40.614  25.562  27.896  1.00  0.00     0.029 A 
ATOM     49  C   UNL A   1      41.990  25.895  28.255  1.00  0.00     0.049 A 
ATOM     50  H   UNL A   1      42.692  27.683  29.060  1.00  0.00     0.167 HD
ATOM     51  C   UNL A   1      44.066  31.612  30.463  1.00  0.00     0.037 A 
ATOM     52  C   UNL A   1      43.051  25.075  28.123  1.00  0.00     0.037 A 
ATOM     53  C   UNL A   1      45.243  30.785  30.434  1.00  0.00     0.049 A 
ATOM     54  C   UNL A   1      44.412  25.567  28.539  1.00  0.00     0.074 A 
ATOM     55  C   UNL A   1      46.532  31.107  30.818  1.00  0.00     0.029 A 
ATOM     56  N   UNL A   1      45.270  29.467  30.002  1.00  0.00    -0.354 N 
ATOM     57  N   UNL A   1      44.754  26.743  29.007  1.00  0.00    -0.248 NA
ATOM     58  C   UNL A   1      45.528  24.619  28.416  1.00  0.00     0.031 C 
ATOM     59  C   UNL A   1      47.346  29.991  30.593  1.00  0.00     0.029 A 
ATOM     60  C   UNL A   1      46.556  28.963  30.103  1.00  0.00     0.049 A 
ATOM     61  H   UNL A   1      44.491  28.964  29.671  1.00  0.00     0.167 HD
ATOM     62  C   UNL A   1      46.119  26.668  29.263  1.00  0.00     0.074 A 
ATOM     63  C   UNL A   1      46.538  25.329  28.900  1.00  0.00     0.031 C 
ATOM     64  C   UNL A   1      46.948  27.620  29.756  1.00  0.00     0.037 A 
BRANCH  51  65
ATOM     65  C   UNL A   1      44.201  33.040  30.910  1.00  0.00     0.058 A 
ATOM     66  C   UNL A   1      44.394  34.084  29.991  1.00  0.00     0.135 A 
ATOM     67  C   UNL A   1      44.128  33.374  32.273  1.00  0.00     0.135 A 
ATOM     68  F   UNL A   1      44.488  33.818  28.678  1.00  0.00    -0.206 F 
ATOM     69  C   UNL A   1      44.547  35.401  30.407  1.00  0.00     0.059 A 
ATOM     70  C   UNL A   1      44.253  34.689  32.710  1.00  0.00     0.059 A 
ATOM     71  F   UNL A   1      43.945  32.415  33.194  1.00  0.00    -0.206 F 
ATOM     72  C   UNL A   1      44.481  35.694  31.769  1.00  0.00     0.060 A 
BRANCH  72  73
ATOM     73  S   UNL A   1      44.697  37.406  32.298  1.00  0.00     0.124 S 
ATOM     74  O   UNL A   1      45.800  37.279  33.246  1.00  0.00    -0.237 OA
ATOM     75  O   UNL A   1      45.015  38.085  31.046  1.00  0.00    -0.237 OA
ATOM     76  O   UNL A   1      43.403  37.747  32.881  1.00  0.00    -0.744 OA
ENDBRANCH  72  73
ENDBRANCH  51  65
BRANCH  52  77
ATOM     77  C   UNL A   1      42.864  23.697  27.601  1.00  0.00     0.058 A 
ATOM     78  C   UNL A   1      42.471  22.655  28.454  1.00  0.00     0.135 A 
ATOM     79  C   UNL A   1      43.050  23.396  26.243  1.00  0.00     0.135 A 
ATOM     80  F   UNL A   1      42.286  22.893  29.761  1.00  0.00    -0.206 F 
ATOM     81  C   UNL A   1      42.282  21.360  27.983  1.00  0.00     0.059 A 
ATOM     82  C   UNL A   1      42.848  22.114  25.744  1.00  0.00     0.059 A 
ATOM     83  F   UNL A   1      43.409  24.363  25.384  1.00  0.00    -0.206 F 
ATOM     84  C   UNL A   1      42.471  21.099  26.625  1.00  0.00     0.060 A 
BRANCH  84  85
ATOM     85  S   UNL A   1      42.169  19.427  26.014  1.00  0.00     0.124 S 
ATOM     86  O   UNL A   1      42.606  18.618  27.146  1.00  0.00    -0.237 OA
ATOM     87  O   UNL A   1      40.731  19.446  25.760  1.00  0.00    -0.237 OA
ATOM     88  O   UNL A   1      43.006  19.351  24.821  1.00  0.00    -0.744 OA
ENDBRANCH  84  85
ENDBRANCH  52  77
BRANCH  64  89
ATOM     89  C   UNL A   1      48.384  27.240  29.979  1.00  0.00     0.058 A 
ATOM     90  C   UNL A   1      49.378  27.523  29.031  1.00  0.00     0.135 A 
ATOM     91  C   UNL A   1      48.778  26.651  31.191  1.00  0.00     0.135 A 
ATOM     92  F   UNL A   1      49.050  28.081  27.854  1.00  0.00    -0.206 F 
ATOM     93  C   UNL A   1      50.715  27.225  29.271  1.00  0.00     0.059 A 
ATOM     94  C   UNL A   1      50.111  26.363  31.462  1.00  0.00     0.059 A 
ATOM     95  F   UNL A   1      47.865  26.368  32.135  1.00  0.00    -0.206 F 
ATOM     96  C   UNL A   1      51.072  26.647  30.492  1.00  0.00     0.060 A 
BRANCH  96  97
ATOM     97  S   UNL A   1      52.817  26.311  30.815  1.00  0.00     0.124 S 
ATOM     98  O   UNL A   1      53.252  27.570  31.411  1.00  0.00    -0.237 OA
ATOM     99  O   UNL A   1      52.755  25.167  31.720  1.00  0.00    -0.237 OA
ATOM    100  O   UNL A   1      53.357  26.024  29.489  1.00  0.00    -0.744 OA
ENDBRANCH  96  97
ENDBRANCH  64  89
ENDBRANCH  38  39
ENDBRANCH  30  33
ENDBRANCH  28  29
ENDBRANCH  27  28
ENDBRANCH   1  27
TORSDOF 19
ENDMDL
