MODEL 1
REMARK VINA RESULT:     -13.4      0.000      0.000
REMARK SMILES Cc1cccc(C(=O)NCCCCNC(=O)c2ccc(-c3c4nc(c(-c5c(F)cc(S(=O)(=O)[O-])cc5F)c5ccc([nH]5)c(-c5c(F)cc(S(=O)(=O)[O-])cc5F)c5nc(c(-c6c(F)cc(S(=O)(=O)[O-])cc6F)c6ccc3[nH]6)C=C5)C=C4)cc2)c1OC[C@@H]1C[C@H]2CC[C@@H]1C2
REMARK SMILES IDX 11 1 10 2 9 3 7 4 8 5 6 7 1 8 2 9 3 10 83 11 4 12 5 13 84 14
REMARK SMILES IDX 85 15 86 16 87 17 91 18 88 19 90 20 92 21 89 22 12 23 13 24
REMARK SMILES IDX 14 25 15 26 16 28 17 29 18 30 82 31 19 32 81 33 20 34 21 35
REMARK SMILES IDX 22 36 75 37 23 38 80 39 74 40 76 41 24 42 79 43 73 44 72 45
REMARK SMILES IDX 25 47 59 48 38 49 58 50 39 51 42 52 57 53 77 54 40 55 41 56
REMARK SMILES IDX 56 58 78 59 43 60 26 61 27 62 36 63 28 64 29 65 35 66 37 67
REMARK SMILES IDX 30 68 31 69 32 70 33 71 34 72 60 73 61 74 70 75 62 76 63 77
REMARK SMILES IDX 69 78 71 79 64 80 65 81 66 82 67 83 68 84 44 85 45 86 54 87
REMARK SMILES IDX 46 88 47 89 53 90 55 91 48 92 49 93 50 94 51 95 52 96
REMARK H PARENT 9 6 14 27 76 46 42 57
REMARK Flexibility Score: inf
ROOT
ATOM      1  C   UNL A   1      33.306  27.842  26.320  1.00  0.00     0.023 C 
ENDROOT
BRANCH   1   2
ATOM      2  C   UNL A   1      31.983  28.131  27.051  1.00  0.00     0.116 C 
BRANCH   2   3
ATOM      3  N   UNL A   1      31.137  26.960  27.110  1.00  0.00    -0.352 N 
ATOM      4  C   UNL A   1      30.586  26.133  26.174  1.00  0.00     0.255 C 
ATOM      5  O   UNL A   1      29.923  25.197  26.645  1.00  0.00    -0.269 OA
ATOM      6  H   UNL A   1      30.907  26.701  28.031  1.00  0.00     0.163 HD
BRANCH   4   7
ATOM      7  C   UNL A   1      30.697  26.213  24.678  1.00  0.00     0.082 A 
ATOM      8  C   UNL A   1      33.039  25.631  21.712  1.00  0.00     0.048 C 
ATOM      9  C   UNL A   1      31.841  26.029  22.533  1.00  0.00    -0.008 A 
ATOM     10  C   UNL A   1      31.103  27.123  22.047  1.00  0.00     0.007 A 
ATOM     11  C   UNL A   1      31.553  25.497  23.813  1.00  0.00     0.134 A 
ATOM     12  C   UNL A   1      30.151  27.743  22.837  1.00  0.00     0.001 A 
ATOM     13  C   UNL A   1      29.979  27.312  24.147  1.00  0.00     0.018 A 
BRANCH  11  14
ATOM     14  O   UNL A   1      32.204  24.390  24.260  1.00  0.00    -0.492 OA
BRANCH  14  15
ATOM     15  C   UNL A   1      33.266  24.509  25.238  1.00  0.00     0.233 C 
BRANCH  15  16
ATOM     16  C   UNL A   1      34.728  24.253  24.800  1.00  0.00     0.030 C 
ATOM     17  C   UNL A   1      34.839  23.095  23.763  1.00  0.00     0.011 C 
ATOM     18  C   UNL A   1      35.586  23.679  25.964  1.00  0.00    -0.004 C 
ATOM     19  C   UNL A   1      35.751  22.064  24.454  1.00  0.00    -0.010 C 
ATOM     20  C   UNL A   1      37.072  23.726  25.569  1.00  0.00     0.004 C 
ATOM     21  C   UNL A   1      35.298  22.178  25.903  1.00  0.00     0.007 C 
ATOM     22  C   UNL A   1      37.183  22.615  24.518  1.00  0.00     0.004 C 
ENDBRANCH  15  16
ENDBRANCH  14  15
ENDBRANCH  11  14
ENDBRANCH   4   7
ENDBRANCH   2   3
ENDBRANCH   1   2
BRANCH   1  23
ATOM     23  C   UNL A   1      34.317  28.990  26.332  1.00  0.00     0.023 C 
BRANCH  23  24
ATOM     24  C   UNL A   1      34.353  29.724  27.662  1.00  0.00     0.116 C 
BRANCH  24  25
ATOM     25  N   UNL A   1      35.174  30.922  27.675  1.00  0.00    -0.352 N 
ATOM     26  C   UNL A   1      36.459  31.056  28.176  1.00  0.00     0.251 C 
ATOM     27  H   UNL A   1      34.772  31.731  27.283  1.00  0.00     0.163 HD
ATOM     28  O   UNL A   1      36.943  32.145  28.433  1.00  0.00    -0.269 OA
BRANCH  26  29
ATOM     29  C   UNL A   1      37.278  29.824  28.265  1.00  0.00     0.039 A 
ATOM     30  C   UNL A   1      37.394  29.233  29.529  1.00  0.00     0.014 A 
ATOM     31  C   UNL A   1      38.127  29.456  27.224  1.00  0.00     0.014 A 
ATOM     32  C   UNL A   1      38.491  28.421  29.807  1.00  0.00     0.010 A 
ATOM     33  C   UNL A   1      39.263  28.729  27.528  1.00  0.00     0.010 A 
ATOM     34  C   UNL A   1      39.473  28.259  28.834  1.00  0.00    -0.014 A 
BRANCH  34  35
ATOM     35  C   UNL A   1      40.793  27.696  29.096  1.00  0.00     0.031 A 
ATOM     36  C   UNL A   1      41.079  26.286  28.733  1.00  0.00     0.074 A 
ATOM     37  C   UNL A   1      41.784  28.487  29.569  1.00  0.00     0.049 A 
ATOM     38  N   UNL A   1      42.153  25.654  29.069  1.00  0.00    -0.248 NA
ATOM     39  C   UNL A   1      40.122  25.438  28.024  1.00  0.00     0.031 C 
ATOM     40  C   UNL A   1      43.221  28.235  29.500  1.00  0.00     0.029 A 
ATOM     41  N   UNL A   1      41.673  29.596  30.407  1.00  0.00    -0.354 N 
ATOM     42  C   UNL A   1      42.161  24.454  28.402  1.00  0.00     0.074 A 
ATOM     43  C   UNL A   1      40.830  24.313  27.871  1.00  0.00     0.031 C 
ATOM     44  C   UNL A   1      43.845  28.992  30.413  1.00  0.00     0.029 A 
ATOM     45  C   UNL A   1      42.820  29.628  31.220  1.00  0.00     0.049 A 
ATOM     46  H   UNL A   1      40.926  30.239  30.428  1.00  0.00     0.167 HD
ATOM     47  C   UNL A   1      43.337  23.781  28.272  1.00  0.00     0.037 A 
ATOM     48  C   UNL A   1      42.735  29.500  32.578  1.00  0.00     0.037 A 
ATOM     49  C   UNL A   1      44.322  24.279  29.232  1.00  0.00     0.049 A 
ATOM     50  C   UNL A   1      43.433  28.286  33.143  1.00  0.00     0.074 A 
ATOM     51  C   UNL A   1      45.448  25.075  29.126  1.00  0.00     0.029 A 
ATOM     52  N   UNL A   1      44.048  24.163  30.593  1.00  0.00    -0.354 N 
ATOM     53  N   UNL A   1      43.843  27.277  32.426  1.00  0.00    -0.248 NA
ATOM     54  C   UNL A   1      43.704  28.105  34.566  1.00  0.00     0.031 C 
ATOM     55  C   UNL A   1      45.772  25.539  30.432  1.00  0.00     0.029 A 
ATOM     56  C   UNL A   1      44.878  24.980  31.333  1.00  0.00     0.049 A 
ATOM     57  H   UNL A   1      43.354  23.577  30.975  1.00  0.00     0.167 HD
ATOM     58  C   UNL A   1      44.338  26.301  33.251  1.00  0.00     0.074 A 
ATOM     59  C   UNL A   1      44.277  26.889  34.576  1.00  0.00     0.031 C 
ATOM     60  C   UNL A   1      44.725  25.078  32.781  1.00  0.00     0.037 A 
BRANCH  47  61
ATOM     61  C   UNL A   1      43.661  22.794  27.163  1.00  0.00     0.058 A 
ATOM     62  C   UNL A   1      43.017  21.536  27.115  1.00  0.00     0.135 A 
ATOM     63  C   UNL A   1      44.698  22.951  26.213  1.00  0.00     0.135 A 
ATOM     64  F   UNL A   1      42.030  21.233  27.971  1.00  0.00    -0.206 F 
ATOM     65  C   UNL A   1      43.381  20.523  26.218  1.00  0.00     0.059 A 
ATOM     66  C   UNL A   1      45.043  21.974  25.276  1.00  0.00     0.059 A 
ATOM     67  F   UNL A   1      45.488  24.029  26.184  1.00  0.00    -0.206 F 
ATOM     68  C   UNL A   1      44.401  20.750  25.302  1.00  0.00     0.060 A 
BRANCH  68  69
ATOM     69  S   UNL A   1      44.914  19.437  24.178  1.00  0.00     0.124 S 
ATOM     70  O   UNL A   1      44.154  18.298  24.681  1.00  0.00    -0.237 OA
ATOM     71  O   UNL A   1      44.501  19.955  22.878  1.00  0.00    -0.237 OA
ATOM     72  O   UNL A   1      46.359  19.361  24.382  1.00  0.00    -0.744 OA
ENDBRANCH  68  69
ENDBRANCH  47  61
BRANCH  48  73
ATOM     73  C   UNL A   1      41.531  30.153  33.157  1.00  0.00     0.058 A 
ATOM     74  C   UNL A   1      41.603  31.541  33.359  1.00  0.00     0.135 A 
ATOM     75  C   UNL A   1      40.260  29.576  33.034  1.00  0.00     0.135 A 
ATOM     76  F   UNL A   1      42.799  32.124  33.527  1.00  0.00    -0.206 F 
ATOM     77  C   UNL A   1      40.485  32.354  33.228  1.00  0.00     0.059 A 
ATOM     78  C   UNL A   1      39.120  30.371  32.914  1.00  0.00     0.059 A 
ATOM     79  F   UNL A   1      40.133  28.252  32.858  1.00  0.00    -0.206 F 
ATOM     80  C   UNL A   1      39.264  31.759  32.920  1.00  0.00     0.060 A 
BRANCH  80  81
ATOM     81  S   UNL A   1      37.941  32.831  32.310  1.00  0.00     0.124 S 
ATOM     82  O   UNL A   1      37.137  31.906  31.517  1.00  0.00    -0.237 OA
ATOM     83  O   UNL A   1      37.336  33.276  33.564  1.00  0.00    -0.237 OA
ATOM     84  O   UNL A   1      38.659  33.852  31.556  1.00  0.00    -0.744 OA
ENDBRANCH  80  81
ENDBRANCH  48  73
BRANCH  60  85
ATOM     85  C   UNL A   1      45.050  23.881  33.648  1.00  0.00     0.058 A 
ATOM     86  C   UNL A   1      44.154  22.827  33.902  1.00  0.00     0.135 A 
ATOM     87  C   UNL A   1      46.358  23.701  34.156  1.00  0.00     0.135 A 
ATOM     88  F   UNL A   1      42.924  22.811  33.366  1.00  0.00    -0.206 F 
ATOM     89  C   UNL A   1      44.497  21.718  34.679  1.00  0.00     0.059 A 
ATOM     90  C   UNL A   1      46.739  22.575  34.886  1.00  0.00     0.059 A 
ATOM     91  F   UNL A   1      47.317  24.615  33.950  1.00  0.00    -0.206 F 
ATOM     92  C   UNL A   1      45.792  21.603  35.172  1.00  0.00     0.060 A 
BRANCH  92  93
ATOM     93  S   UNL A   1      46.262  20.156  36.139  1.00  0.00     0.124 S 
ATOM     94  O   UNL A   1      45.839  20.552  37.479  1.00  0.00    -0.237 OA
ATOM     95  O   UNL A   1      45.483  19.084  35.526  1.00  0.00    -0.237 OA
ATOM     96  O   UNL A   1      47.703  20.073  35.927  1.00  0.00    -0.744 OA
ENDBRANCH  92  93
ENDBRANCH  60  85
ENDBRANCH  34  35
ENDBRANCH  26  29
ENDBRANCH  24  25
ENDBRANCH  23  24
ENDBRANCH   1  23
TORSDOF 17
ENDMDL
MODEL 2
REMARK VINA RESULT:     -13.2      0.824      2.796
REMARK SMILES Cc1cccc(C(=O)NCCCCNC(=O)c2ccc(-c3c4nc(c(-c5c(F)cc(S(=O)(=O)[O-])cc5F)c5ccc([nH]5)c(-c5c(F)cc(S(=O)(=O)[O-])cc5F)c5nc(c(-c6c(F)cc(S(=O)(=O)[O-])cc6F)c6ccc3[nH]6)C=C5)C=C4)cc2)c1OC[C@@H]1C[C@H]2CC[C@@H]1C2
REMARK SMILES IDX 11 1 10 2 9 3 7 4 8 5 6 7 1 8 2 9 3 10 83 11 4 12 5 13 84 14
REMARK SMILES IDX 85 15 86 16 87 17 91 18 88 19 90 20 92 21 89 22 12 23 13 24
REMARK SMILES IDX 14 25 15 26 16 28 17 29 18 30 82 31 19 32 81 33 20 34 21 35
REMARK SMILES IDX 22 36 75 37 23 38 80 39 74 40 76 41 24 42 79 43 73 44 72 45
REMARK SMILES IDX 25 47 59 48 38 49 58 50 39 51 42 52 57 53 77 54 40 55 41 56
REMARK SMILES IDX 56 58 78 59 43 60 26 61 27 62 36 63 28 64 29 65 35 66 37 67
REMARK SMILES IDX 30 68 31 69 32 70 33 71 34 72 60 73 61 74 70 75 62 76 63 77
REMARK SMILES IDX 69 78 71 79 64 80 65 81 66 82 67 83 68 84 44 85 45 86 54 87
REMARK SMILES IDX 46 88 47 89 53 90 55 91 48 92 49 93 50 94 51 95 52 96
REMARK H PARENT 9 6 14 27 76 46 42 57
REMARK Flexibility Score: inf
ROOT
ATOM      1  C   UNL A   1      32.764  28.509  27.503  1.00  0.00     0.023 C 
ENDROOT
BRANCH   1   2
ATOM      2  C   UNL A   1      31.392  28.079  26.955  1.00  0.00     0.116 C 
BRANCH   2   3
ATOM      3  N   UNL A   1      31.137  26.676  27.192  1.00  0.00    -0.352 N 
ATOM      4  C   UNL A   1      31.583  25.517  26.627  1.00  0.00     0.255 C 
ATOM      5  O   UNL A   1      31.132  24.487  27.147  1.00  0.00    -0.269 OA
ATOM      6  H   UNL A   1      30.498  26.522  27.925  1.00  0.00     0.163 HD
BRANCH   4   7
ATOM      7  C   UNL A   1      32.545  25.345  25.485  1.00  0.00     0.082 A 
ATOM      8  C   UNL A   1      32.951  23.896  21.970  1.00  0.00     0.048 C 
ATOM      9  C   UNL A   1      33.252  24.555  23.290  1.00  0.00    -0.008 A 
ATOM     10  C   UNL A   1      34.560  24.379  23.775  1.00  0.00     0.007 A 
ATOM     11  C   UNL A   1      32.268  25.152  24.114  1.00  0.00     0.134 A 
ATOM     12  C   UNL A   1      34.881  24.706  25.081  1.00  0.00     0.001 A 
ATOM     13  C   UNL A   1      33.875  25.150  25.931  1.00  0.00     0.018 A 
BRANCH  11  14
ATOM     14  O   UNL A   1      31.022  25.401  23.628  1.00  0.00    -0.492 OA
BRANCH  14  15
ATOM     15  C   UNL A   1      30.763  26.600  22.857  1.00  0.00     0.233 C 
BRANCH  15  16
ATOM     16  C   UNL A   1      30.160  27.837  23.566  1.00  0.00     0.030 C 
ATOM     17  C   UNL A   1      28.790  28.257  22.953  1.00  0.00     0.011 C 
ATOM     18  C   UNL A   1      30.999  29.119  23.299  1.00  0.00    -0.004 C 
ATOM     19  C   UNL A   1      29.027  29.699  22.466  1.00  0.00    -0.010 C 
ATOM     20  C   UNL A   1      30.536  30.235  24.251  1.00  0.00     0.004 C 
ATOM     21  C   UNL A   1      30.459  29.617  21.957  1.00  0.00     0.007 C 
ATOM     22  C   UNL A   1      29.168  30.629  23.680  1.00  0.00     0.004 C 
ENDBRANCH  15  16
ENDBRANCH  14  15
ENDBRANCH  11  14
ENDBRANCH   4   7
ENDBRANCH   2   3
ENDBRANCH   1   2
BRANCH   1  23
ATOM     23  C   UNL A   1      33.273  29.857  26.988  1.00  0.00     0.023 C 
BRANCH  23  24
ATOM     24  C   UNL A   1      34.782  29.882  26.809  1.00  0.00     0.116 C 
BRANCH  24  25
ATOM     25  N   UNL A   1      35.451  31.014  27.426  1.00  0.00    -0.352 N 
ATOM     26  C   UNL A   1      36.501  30.981  28.331  1.00  0.00     0.251 C 
ATOM     27  H   UNL A   1      35.122  31.907  27.172  1.00  0.00     0.163 HD
ATOM     28  O   UNL A   1      36.784  31.939  29.027  1.00  0.00    -0.269 OA
BRANCH  26  29
ATOM     29  C   UNL A   1      37.356  29.770  28.324  1.00  0.00     0.039 A 
ATOM     30  C   UNL A   1      37.423  29.038  29.516  1.00  0.00     0.014 A 
ATOM     31  C   UNL A   1      38.272  29.550  27.299  1.00  0.00     0.014 A 
ATOM     32  C   UNL A   1      38.530  28.231  29.761  1.00  0.00     0.010 A 
ATOM     33  C   UNL A   1      39.414  28.825  27.582  1.00  0.00     0.010 A 
ATOM     34  C   UNL A   1      39.569  28.211  28.835  1.00  0.00    -0.014 A 
BRANCH  34  35
ATOM     35  C   UNL A   1      40.892  27.659  29.107  1.00  0.00     0.031 A 
ATOM     36  C   UNL A   1      41.196  26.256  28.733  1.00  0.00     0.074 A 
ATOM     37  C   UNL A   1      41.869  28.454  29.599  1.00  0.00     0.049 A 
ATOM     38  N   UNL A   1      42.273  25.631  29.074  1.00  0.00    -0.248 NA
ATOM     39  C   UNL A   1      40.255  25.406  28.003  1.00  0.00     0.031 C 
ATOM     40  C   UNL A   1      43.309  28.218  29.544  1.00  0.00     0.029 A 
ATOM     41  N   UNL A   1      41.737  29.554  30.448  1.00  0.00    -0.354 N 
ATOM     42  C   UNL A   1      42.300  24.438  28.395  1.00  0.00     0.074 A 
ATOM     43  C   UNL A   1      40.977  24.290  27.847  1.00  0.00     0.031 C 
ATOM     44  C   UNL A   1      43.915  28.971  30.473  1.00  0.00     0.029 A 
ATOM     45  C   UNL A   1      42.875  29.589  31.274  1.00  0.00     0.049 A 
ATOM     46  H   UNL A   1      40.984  30.189  30.466  1.00  0.00     0.167 HD
ATOM     47  C   UNL A   1      43.484  23.779  28.272  1.00  0.00     0.037 A 
ATOM     48  C   UNL A   1      42.775  29.445  32.630  1.00  0.00     0.037 A 
ATOM     49  C   UNL A   1      44.453  24.276  29.248  1.00  0.00     0.049 A 
ATOM     50  C   UNL A   1      43.478  28.232  33.190  1.00  0.00     0.074 A 
ATOM     51  C   UNL A   1      45.572  25.085  29.163  1.00  0.00     0.029 A 
ATOM     52  N   UNL A   1      44.165  24.143  30.605  1.00  0.00    -0.354 N 
ATOM     53  N   UNL A   1      43.907  27.235  32.467  1.00  0.00    -0.248 NA
ATOM     54  C   UNL A   1      43.735  28.039  34.615  1.00  0.00     0.031 C 
ATOM     55  C   UNL A   1      45.876  25.538  30.478  1.00  0.00     0.029 A 
ATOM     56  C   UNL A   1      44.978  24.960  31.362  1.00  0.00     0.049 A 
ATOM     57  H   UNL A   1      43.472  23.546  30.972  1.00  0.00     0.167 HD
ATOM     58  C   UNL A   1      44.402  26.256  33.287  1.00  0.00     0.074 A 
ATOM     59  C   UNL A   1      44.320  26.829  34.618  1.00  0.00     0.031 C 
ATOM     60  C   UNL A   1      44.807  25.042  32.809  1.00  0.00     0.037 A 
BRANCH  47  61
ATOM     61  C   UNL A   1      43.831  22.806  27.156  1.00  0.00     0.058 A 
ATOM     62  C   UNL A   1      43.099  21.606  27.000  1.00  0.00     0.135 A 
ATOM     63  C   UNL A   1      44.959  22.912  26.308  1.00  0.00     0.135 A 
ATOM     64  F   UNL A   1      42.019  21.354  27.754  1.00  0.00    -0.206 F 
ATOM     65  C   UNL A   1      43.465  20.598  26.099  1.00  0.00     0.059 A 
ATOM     66  C   UNL A   1      45.312  21.943  25.366  1.00  0.00     0.059 A 
ATOM     67  F   UNL A   1      45.828  23.924  26.392  1.00  0.00    -0.206 F 
ATOM     68  C   UNL A   1      44.578  20.774  25.286  1.00  0.00     0.060 A 
BRANCH  68  69
ATOM     69  S   UNL A   1      45.089  19.463  24.158  1.00  0.00     0.124 S 
ATOM     70  O   UNL A   1      44.468  19.885  22.907  1.00  0.00    -0.237 OA
ATOM     71  O   UNL A   1      46.544  19.550  24.210  1.00  0.00    -0.237 OA
ATOM     72  O   UNL A   1      44.520  18.258  24.760  1.00  0.00    -0.744 OA
ENDBRANCH  68  69
ENDBRANCH  47  61
BRANCH  48  73
ATOM     73  C   UNL A   1      41.558  30.080  33.201  1.00  0.00     0.058 A 
ATOM     74  C   UNL A   1      41.639  31.453  33.488  1.00  0.00     0.135 A 
ATOM     75  C   UNL A   1      40.286  29.529  32.997  1.00  0.00     0.135 A 
ATOM     76  F   UNL A   1      42.835  32.008  33.735  1.00  0.00    -0.206 F 
ATOM     77  C   UNL A   1      40.537  32.288  33.365  1.00  0.00     0.059 A 
ATOM     78  C   UNL A   1      39.160  30.347  32.882  1.00  0.00     0.059 A 
ATOM     79  F   UNL A   1      40.149  28.220  32.738  1.00  0.00    -0.206 F 
ATOM     80  C   UNL A   1      39.321  31.730  32.976  1.00  0.00     0.060 A 
BRANCH  80  81
ATOM     81  S   UNL A   1      38.035  32.855  32.382  1.00  0.00     0.124 S 
ATOM     82  O   UNL A   1      36.896  31.959  32.218  1.00  0.00    -0.237 OA
ATOM     83  O   UNL A   1      37.942  33.794  33.499  1.00  0.00    -0.237 OA
ATOM     84  O   UNL A   1      38.602  33.390  31.150  1.00  0.00    -0.744 OA
ENDBRANCH  80  81
ENDBRANCH  48  73
BRANCH  60  85
ATOM     85  C   UNL A   1      45.134  23.839  33.668  1.00  0.00     0.058 A 
ATOM     86  C   UNL A   1      44.219  22.812  33.965  1.00  0.00     0.135 A 
ATOM     87  C   UNL A   1      46.457  23.622  34.120  1.00  0.00     0.135 A 
ATOM     88  F   UNL A   1      42.968  22.831  33.482  1.00  0.00    -0.206 F 
ATOM     89  C   UNL A   1      44.563  21.697  34.731  1.00  0.00     0.059 A 
ATOM     90  C   UNL A   1      46.836  22.488  34.838  1.00  0.00     0.059 A 
ATOM     91  F   UNL A   1      47.433  24.508  33.869  1.00  0.00    -0.206 F 
ATOM     92  C   UNL A   1      45.874  21.545  35.169  1.00  0.00     0.060 A 
BRANCH  92  93
ATOM     93  S   UNL A   1      46.343  20.089  36.123  1.00  0.00     0.124 S 
ATOM     94  O   UNL A   1      45.721  20.372  37.412  1.00  0.00    -0.237 OA
ATOM     95  O   UNL A   1      45.746  18.993  35.364  1.00  0.00    -0.237 OA
ATOM     96  O   UNL A   1      47.801  20.135  36.098  1.00  0.00    -0.744 OA
ENDBRANCH  92  93
ENDBRANCH  60  85
ENDBRANCH  34  35
ENDBRANCH  26  29
ENDBRANCH  24  25
ENDBRANCH  23  24
ENDBRANCH   1  23
TORSDOF 17
ENDMDL
MODEL 3
REMARK VINA RESULT:     -13.1      2.004      3.852
REMARK SMILES Cc1cccc(C(=O)NCCCCNC(=O)c2ccc(-c3c4nc(c(-c5c(F)cc(S(=O)(=O)[O-])cc5F)c5ccc([nH]5)c(-c5c(F)cc(S(=O)(=O)[O-])cc5F)c5nc(c(-c6c(F)cc(S(=O)(=O)[O-])cc6F)c6ccc3[nH]6)C=C5)C=C4)cc2)c1OC[C@@H]1C[C@H]2CC[C@@H]1C2
REMARK SMILES IDX 11 1 10 2 9 3 7 4 8 5 6 7 1 8 2 9 3 10 83 11 4 12 5 13 84 14
REMARK SMILES IDX 85 15 86 16 87 17 91 18 88 19 90 20 92 21 89 22 12 23 13 24
REMARK SMILES IDX 14 25 15 26 16 28 17 29 18 30 82 31 19 32 81 33 20 34 21 35
REMARK SMILES IDX 22 36 75 37 23 38 80 39 74 40 76 41 24 42 79 43 73 44 72 45
REMARK SMILES IDX 25 47 59 48 38 49 58 50 39 51 42 52 57 53 77 54 40 55 41 56
REMARK SMILES IDX 56 58 78 59 43 60 26 61 27 62 36 63 28 64 29 65 35 66 37 67
REMARK SMILES IDX 30 68 31 69 32 70 33 71 34 72 60 73 61 74 70 75 62 76 63 77
REMARK SMILES IDX 69 78 71 79 64 80 65 81 66 82 67 83 68 84 44 85 45 86 54 87
REMARK SMILES IDX 46 88 47 89 53 90 55 91 48 92 49 93 50 94 51 95 52 96
REMARK H PARENT 9 6 14 27 76 46 42 57
REMARK Flexibility Score: inf
ROOT
ATOM      1  C   UNL A   1      31.455  29.451  26.456  1.00  0.00     0.023 C 
ENDROOT
BRANCH   1   2
ATOM      2  C   UNL A   1      31.770  28.391  27.527  1.00  0.00     0.116 C 
BRANCH   2   3
ATOM      3  N   UNL A   1      31.058  27.157  27.283  1.00  0.00    -0.352 N 
ATOM      4  C   UNL A   1      31.156  26.168  26.348  1.00  0.00     0.255 C 
ATOM      5  O   UNL A   1      30.354  25.236  26.502  1.00  0.00    -0.269 OA
ATOM      6  H   UNL A   1      30.342  26.993  27.938  1.00  0.00     0.163 HD
BRANCH   4   7
ATOM      7  C   UNL A   1      32.108  26.070  25.189  1.00  0.00     0.082 A 
ATOM      8  C   UNL A   1      32.419  25.065  21.513  1.00  0.00     0.048 C 
ATOM      9  C   UNL A   1      32.763  25.519  22.907  1.00  0.00    -0.008 A 
ATOM     10  C   UNL A   1      34.050  25.177  23.360  1.00  0.00     0.007 A 
ATOM     11  C   UNL A   1      31.825  26.080  23.806  1.00  0.00     0.134 A 
ATOM     12  C   UNL A   1      34.388  25.304  24.695  1.00  0.00     0.001 A 
ATOM     13  C   UNL A   1      33.415  25.712  25.601  1.00  0.00     0.018 A 
BRANCH  11  14
ATOM     14  O   UNL A   1      30.607  26.490  23.361  1.00  0.00    -0.492 OA
BRANCH  14  15
ATOM     15  C   UNL A   1      30.454  27.788  22.737  1.00  0.00     0.233 C 
BRANCH  15  16
ATOM     16  C   UNL A   1      29.485  28.819  23.366  1.00  0.00     0.030 C 
ATOM     17  C   UNL A   1      28.053  28.731  22.756  1.00  0.00     0.011 C 
ATOM     18  C   UNL A   1      29.870  30.278  22.985  1.00  0.00    -0.004 C 
ATOM     19  C   UNL A   1      27.818  30.130  22.157  1.00  0.00    -0.010 C 
ATOM     20  C   UNL A   1      29.072  31.258  23.862  1.00  0.00     0.004 C 
ATOM     21  C   UNL A   1      29.201  30.471  21.623  1.00  0.00     0.007 C 
ATOM     22  C   UNL A   1      27.651  31.148  23.296  1.00  0.00     0.004 C 
ENDBRANCH  15  16
ENDBRANCH  14  15
ENDBRANCH  11  14
ENDBRANCH   4   7
ENDBRANCH   2   3
ENDBRANCH   1   2
BRANCH   1  23
ATOM     23  C   UNL A   1      32.061  30.831  26.713  1.00  0.00     0.023 C 
BRANCH  23  24
ATOM     24  C   UNL A   1      33.525  30.762  27.116  1.00  0.00     0.116 C 
BRANCH  24  25
ATOM     25  N   UNL A   1      33.964  31.823  28.006  1.00  0.00    -0.352 N 
ATOM     26  C   UNL A   1      34.906  31.735  29.019  1.00  0.00     0.251 C 
ATOM     27  H   UNL A   1      33.545  32.704  27.874  1.00  0.00     0.163 HD
ATOM     28  O   UNL A   1      34.980  32.568  29.906  1.00  0.00    -0.269 OA
BRANCH  26  29
ATOM     29  C   UNL A   1      35.914  30.654  28.909  1.00  0.00     0.039 A 
ATOM     30  C   UNL A   1      36.095  29.843  30.036  1.00  0.00     0.014 A 
ATOM     31  C   UNL A   1      36.835  30.643  27.865  1.00  0.00     0.014 A 
ATOM     32  C   UNL A   1      37.303  29.174  30.209  1.00  0.00     0.010 A 
ATOM     33  C   UNL A   1      38.068  30.056  28.083  1.00  0.00     0.010 A 
ATOM     34  C   UNL A   1      38.321  29.368  29.281  1.00  0.00    -0.014 A 
BRANCH  34  35
ATOM     35  C   UNL A   1      39.710  28.976  29.501  1.00  0.00     0.031 A 
ATOM     36  C   UNL A   1      40.155  27.608  29.141  1.00  0.00     0.074 A 
ATOM     37  C   UNL A   1      40.610  29.890  29.930  1.00  0.00     0.049 A 
ATOM     38  N   UNL A   1      41.311  27.118  29.444  1.00  0.00    -0.248 NA
ATOM     39  C   UNL A   1      39.287  26.638  28.475  1.00  0.00     0.031 C 
ATOM     40  C   UNL A   1      42.064  29.817  29.811  1.00  0.00     0.029 A 
ATOM     41  N   UNL A   1      40.391  30.989  30.761  1.00  0.00    -0.354 N 
ATOM     42  C   UNL A   1      41.444  25.919  28.789  1.00  0.00     0.074 A 
ATOM     43  C   UNL A   1      40.124  25.608  28.308  1.00  0.00     0.031 C 
ATOM     44  C   UNL A   1      42.621  30.658  30.694  1.00  0.00     0.029 A 
ATOM     45  C   UNL A   1      41.553  31.174  31.531  1.00  0.00     0.049 A 
ATOM     46  H   UNL A   1      39.572  31.534  30.802  1.00  0.00     0.167 HD
ATOM     47  C   UNL A   1      42.689  25.395  28.623  1.00  0.00     0.037 A 
ATOM     48  C   UNL A   1      41.531  31.055  32.892  1.00  0.00     0.037 A 
ATOM     49  C   UNL A   1      43.638  26.025  29.542  1.00  0.00     0.049 A 
ATOM     50  C   UNL A   1      42.394  29.945  33.444  1.00  0.00     0.074 A 
ATOM     51  C   UNL A   1      44.652  26.952  29.388  1.00  0.00     0.029 A 
ATOM     52  N   UNL A   1      43.427  25.894  30.913  1.00  0.00    -0.354 N 
ATOM     53  N   UNL A   1      42.901  28.984  32.722  1.00  0.00    -0.248 NA
ATOM     54  C   UNL A   1      42.734  29.819  34.858  1.00  0.00     0.031 C 
ATOM     55  C   UNL A   1      44.960  27.470  30.677  1.00  0.00     0.029 A 
ATOM     56  C   UNL A   1      44.175  26.818  31.614  1.00  0.00     0.049 A 
ATOM     57  H   UNL A   1      42.825  25.233  31.326  1.00  0.00     0.167 HD
ATOM     58  C   UNL A   1      43.541  28.089  33.538  1.00  0.00     0.074 A 
ATOM     59  C   UNL A   1      43.453  28.684  34.859  1.00  0.00     0.031 C 
ATOM     60  C   UNL A   1      44.061  26.917  33.066  1.00  0.00     0.037 A 
BRANCH  47  61
ATOM     61  C   UNL A   1      43.095  24.440  27.512  1.00  0.00     0.058 A 
ATOM     62  C   UNL A   1      43.527  23.129  27.820  1.00  0.00     0.135 A 
ATOM     63  C   UNL A   1      43.233  24.792  26.149  1.00  0.00     0.135 A 
ATOM     64  F   UNL A   1      43.481  22.664  29.077  1.00  0.00    -0.206 F 
ATOM     65  C   UNL A   1      44.063  22.255  26.864  1.00  0.00     0.059 A 
ATOM     66  C   UNL A   1      43.715  23.920  25.170  1.00  0.00     0.059 A 
ATOM     67  F   UNL A   1      42.978  26.023  25.696  1.00  0.00    -0.206 F 
ATOM     68  C   UNL A   1      44.157  22.662  25.538  1.00  0.00     0.060 A 
BRANCH  68  69
ATOM     69  S   UNL A   1      44.891  21.567  24.308  1.00  0.00     0.124 S 
ATOM     70  O   UNL A   1      46.309  21.653  24.639  1.00  0.00    -0.237 OA
ATOM     71  O   UNL A   1      44.245  20.291  24.595  1.00  0.00    -0.237 OA
ATOM     72  O   UNL A   1      44.510  22.181  23.038  1.00  0.00    -0.744 OA
ENDBRANCH  68  69
ENDBRANCH  47  61
BRANCH  48  73
ATOM     73  C   UNL A   1      40.277  31.563  33.508  1.00  0.00     0.058 A 
ATOM     74  C   UNL A   1      39.308  30.604  33.847  1.00  0.00     0.135 A 
ATOM     75  C   UNL A   1      40.242  32.792  34.180  1.00  0.00     0.135 A 
ATOM     76  F   UNL A   1      39.280  29.433  33.193  1.00  0.00    -0.206 F 
ATOM     77  C   UNL A   1      38.478  30.765  34.948  1.00  0.00     0.059 A 
ATOM     78  C   UNL A   1      39.407  32.983  35.283  1.00  0.00     0.059 A 
ATOM     79  F   UNL A   1      41.132  33.751  33.884  1.00  0.00    -0.206 F 
ATOM     80  C   UNL A   1      38.601  31.926  35.707  1.00  0.00     0.060 A 
BRANCH  80  81
ATOM     81  S   UNL A   1      37.867  31.927  37.361  1.00  0.00     0.124 S 
ATOM     82  O   UNL A   1      37.440  30.540  37.508  1.00  0.00    -0.237 OA
ATOM     83  O   UNL A   1      39.012  32.324  38.178  1.00  0.00    -0.237 OA
ATOM     84  O   UNL A   1      36.797  32.911  37.249  1.00  0.00    -0.744 OA
ENDBRANCH  80  81
ENDBRANCH  48  73
BRANCH  60  85
ATOM     85  C   UNL A   1      44.561  25.782  33.932  1.00  0.00     0.058 A 
ATOM     86  C   UNL A   1      43.721  24.889  34.622  1.00  0.00     0.135 A 
ATOM     87  C   UNL A   1      45.943  25.479  33.987  1.00  0.00     0.135 A 
ATOM     88  F   UNL A   1      42.385  24.984  34.544  1.00  0.00    -0.206 F 
ATOM     89  C   UNL A   1      44.215  23.829  35.386  1.00  0.00     0.059 A 
ATOM     90  C   UNL A   1      46.453  24.393  34.696  1.00  0.00     0.059 A 
ATOM     91  F   UNL A   1      46.846  26.231  33.339  1.00  0.00    -0.206 F 
ATOM     92  C   UNL A   1      45.585  23.591  35.422  1.00  0.00     0.060 A 
BRANCH  92  93
ATOM     93  S   UNL A   1      46.233  22.200  36.367  1.00  0.00     0.124 S 
ATOM     94  O   UNL A   1      45.379  21.110  35.904  1.00  0.00    -0.237 OA
ATOM     95  O   UNL A   1      47.627  22.131  35.938  1.00  0.00    -0.237 OA
ATOM     96  O   UNL A   1      46.032  22.620  37.750  1.00  0.00    -0.744 OA
ENDBRANCH  92  93
ENDBRANCH  60  85
ENDBRANCH  34  35
ENDBRANCH  26  29
ENDBRANCH  24  25
ENDBRANCH  23  24
ENDBRANCH   1  23
TORSDOF 17
ENDMDL
