MODEL 1
REMARK VINA RESULT:     -12.1      0.000      0.000
REMARK SMILES Cc1nc(-c2cccc(F)c2)sc1C(=O)N[C@H](C)C(=O)NCCCCNC(=O)c1ccc(-c2c3nc(c(-c4c(F)cc(S(=O)(=O)[O-])cc4F)c4ccc([nH]4)c(-c4c(F)cc(S(=O)(=O)[O-])cc4F)c4nc(c(-c5c(F)cc(S(=O)(=O)[O-])cc5F)c5ccc2[nH]5)C=C4)C=C3)cc1
REMARK SMILES IDX 23 1 22 2 21 3 19 4 20 5 17 7 18 8 16 9 14 10 15 11 13 13
REMARK SMILES IDX 1 14 2 15 3 16 4 17 12 18 5 19 6 20 11 21 7 22 9 23 8 24
REMARK SMILES IDX 10 25 24 26 25 27 26 28 27 29 28 31 29 32 30 33 94 34 31 35
REMARK SMILES IDX 93 36 32 37 33 38 34 39 87 40 35 41 92 42 86 43 88 44 36 45
REMARK SMILES IDX 91 46 85 47 84 48 37 50 71 51 50 52 70 53 51 54 54 55 69 56
REMARK SMILES IDX 89 57 52 58 53 59 68 61 90 62 55 63 38 64 39 65 48 66 40 67
REMARK SMILES IDX 41 68 47 69 49 70 42 71 43 72 44 73 45 74 46 75 72 76 73 77
REMARK SMILES IDX 82 78 74 79 75 80 81 81 83 82 76 83 77 84 78 85 79 86 80 87
REMARK SMILES IDX 56 88 57 89 66 90 58 91 59 92 65 93 67 94 60 95 61 96 62 97
REMARK SMILES IDX 63 98 64 99
REMARK H PARENT 21 6 16 12 26 30 88 49 54 60
REMARK Flexibility Score: inf
ROOT
ATOM      1  C   UNL A   1      32.806  29.655  24.976  1.00  0.00     0.023 C 
ENDROOT
BRANCH   1   2
ATOM      2  C   UNL A   1      31.284  29.657  25.115  1.00  0.00     0.116 C 
BRANCH   2   3
ATOM      3  N   UNL A   1      30.675  29.809  23.810  1.00  0.00    -0.354 N 
ATOM      4  C   UNL A   1      30.701  29.012  22.712  1.00  0.00     0.242 C 
ATOM      5  O   UNL A   1      30.322  29.540  21.658  1.00  0.00    -0.273 OA
ATOM      6  H   UNL A   1      30.152  30.636  23.701  1.00  0.00     0.163 HD
BRANCH   4   7
ATOM      7  C   UNL A   1      30.971  27.480  22.754  1.00  0.00     0.168 C 
ATOM      8  C   UNL A   1      29.861  26.683  23.454  1.00  0.00     0.041 C 
BRANCH   7   9
ATOM      9  N   UNL A   1      31.582  26.669  21.705  1.00  0.00    -0.340 N 
ATOM     10  C   UNL A   1      32.565  25.727  21.579  1.00  0.00     0.263 C 
ATOM     11  O   UNL A   1      32.965  25.642  20.409  1.00  0.00    -0.268 OA
ATOM     12  H   UNL A   1      31.165  26.856  20.833  1.00  0.00     0.164 HD
BRANCH  10  13
ATOM     13  C   UNL A   1      33.024  24.815  22.613  1.00  0.00     0.115 A 
ATOM     14  C   UNL A   1      31.224  23.071  23.391  1.00  0.00     0.068 C 
ATOM     15  C   UNL A   1      32.555  23.722  23.334  1.00  0.00     0.062 A 
ATOM     16  N   UNL A   1      33.516  23.080  24.114  1.00  0.00    -0.241 NA
ATOM     17  C   UNL A   1      34.673  23.692  24.062  1.00  0.00     0.124 A 
ATOM     18  S   UNL A   1      34.670  25.129  23.149  1.00  0.00    -0.108 S 
BRANCH  17  19
ATOM     19  C   UNL A   1      35.908  23.164  24.640  1.00  0.00     0.013 A 
ATOM     20  C   UNL A   1      36.705  23.915  25.517  1.00  0.00     0.011 A 
ATOM     21  C   UNL A   1      36.291  21.852  24.325  1.00  0.00     0.050 A 
ATOM     22  C   UNL A   1      37.863  23.360  26.072  1.00  0.00     0.004 A 
ATOM     23  C   UNL A   1      37.450  21.317  24.873  1.00  0.00     0.123 A 
ATOM     24  C   UNL A   1      38.236  22.057  25.748  1.00  0.00     0.039 A 
ATOM     25  F   UNL A   1      37.807  20.065  24.561  1.00  0.00    -0.207 F 
ENDBRANCH  17  19
ENDBRANCH  10  13
ENDBRANCH   7   9
ENDBRANCH   4   7
ENDBRANCH   2   3
ENDBRANCH   1   2
BRANCH   1  26
ATOM     26  C   UNL A   1      33.528  28.537  25.715  1.00  0.00     0.023 C 
BRANCH  26  27
ATOM     27  C   UNL A   1      33.472  28.661  27.229  1.00  0.00     0.116 C 
BRANCH  27  28
ATOM     28  N   UNL A   1      33.506  30.035  27.718  1.00  0.00    -0.352 N 
ATOM     29  C   UNL A   1      34.567  30.726  28.263  1.00  0.00     0.251 C 
ATOM     30  H   UNL A   1      32.660  30.535  27.650  1.00  0.00     0.163 HD
ATOM     31  O   UNL A   1      34.418  31.867  28.679  1.00  0.00    -0.269 OA
BRANCH  29  32
ATOM     32  C   UNL A   1      35.874  30.043  28.379  1.00  0.00     0.039 A 
ATOM     33  C   UNL A   1      36.758  30.083  27.301  1.00  0.00     0.014 A 
ATOM     34  C   UNL A   1      36.257  29.459  29.588  1.00  0.00     0.014 A 
ATOM     35  C   UNL A   1      38.068  29.628  27.471  1.00  0.00     0.010 A 
ATOM     36  C   UNL A   1      37.585  29.108  29.785  1.00  0.00     0.010 A 
ATOM     37  C   UNL A   1      38.509  29.194  28.733  1.00  0.00    -0.014 A 
BRANCH  37  38
ATOM     38  C   UNL A   1      39.928  28.837  28.989  1.00  0.00     0.031 A 
ATOM     39  C   UNL A   1      40.859  29.855  29.593  1.00  0.00     0.074 A 
ATOM     40  C   UNL A   1      40.404  27.638  28.594  1.00  0.00     0.049 A 
ATOM     41  N   UNL A   1      42.155  29.794  29.757  1.00  0.00    -0.248 NA
ATOM     42  C   UNL A   1      40.259  31.128  30.027  1.00  0.00     0.031 C 
ATOM     43  C   UNL A   1      39.621  26.587  27.937  1.00  0.00     0.029 A 
ATOM     44  N   UNL A   1      41.665  27.103  28.679  1.00  0.00    -0.354 N 
ATOM     45  C   UNL A   1      42.527  31.028  30.277  1.00  0.00     0.074 A 
ATOM     46  C   UNL A   1      41.331  31.836  30.350  1.00  0.00     0.031 C 
ATOM     47  C   UNL A   1      40.408  25.520  27.720  1.00  0.00     0.029 A 
ATOM     48  C   UNL A   1      41.759  25.823  28.181  1.00  0.00     0.049 A 
ATOM     49  H   UNL A   1      42.431  27.588  29.061  1.00  0.00     0.167 HD
ATOM     50  C   UNL A   1      43.750  31.441  30.686  1.00  0.00     0.037 A 
ATOM     51  C   UNL A   1      42.814  24.988  28.107  1.00  0.00     0.037 A 
ATOM     52  C   UNL A   1      44.923  30.609  30.677  1.00  0.00     0.049 A 
ATOM     53  C   UNL A   1      44.149  25.446  28.622  1.00  0.00     0.074 A 
ATOM     54  C   UNL A   1      46.195  30.912  31.131  1.00  0.00     0.029 A 
ATOM     55  N   UNL A   1      44.963  29.303  30.212  1.00  0.00    -0.354 N 
ATOM     56  N   UNL A   1      44.477  26.608  29.135  1.00  0.00    -0.248 NA
ATOM     57  C   UNL A   1      45.259  24.485  28.550  1.00  0.00     0.031 C 
ATOM     58  C   UNL A   1      47.009  29.793  30.924  1.00  0.00     0.029 A 
ATOM     59  C   UNL A   1      46.237  28.785  30.371  1.00  0.00     0.049 A 
ATOM     60  H   UNL A   1      44.198  28.817  29.827  1.00  0.00     0.167 HD
ATOM     61  C   UNL A   1      45.824  26.511  29.465  1.00  0.00     0.074 A 
ATOM     62  C   UNL A   1      46.248  25.174  29.104  1.00  0.00     0.031 C 
ATOM     63  C   UNL A   1      46.635  27.447  30.016  1.00  0.00     0.037 A 
BRANCH  50  64
ATOM     64  C   UNL A   1      43.871  32.844  31.209  1.00  0.00     0.058 A 
ATOM     65  C   UNL A   1      44.054  33.923  30.330  1.00  0.00     0.135 A 
ATOM     66  C   UNL A   1      43.835  33.118  32.585  1.00  0.00     0.135 A 
ATOM     67  F   UNL A   1      44.088  33.718  29.004  1.00  0.00    -0.206 F 
ATOM     68  C   UNL A   1      44.201  35.225  30.799  1.00  0.00     0.059 A 
ATOM     69  C   UNL A   1      43.953  34.415  33.075  1.00  0.00     0.059 A 
ATOM     70  F   UNL A   1      43.636  32.124  33.466  1.00  0.00    -0.206 F 
ATOM     71  C   UNL A   1      44.149  35.460  32.174  1.00  0.00     0.060 A 
BRANCH  71  72
ATOM     72  S   UNL A   1      44.282  37.160  32.768  1.00  0.00     0.124 S 
ATOM     73  O   UNL A   1      45.475  37.091  33.605  1.00  0.00    -0.237 OA
ATOM     74  O   UNL A   1      44.420  37.912  31.524  1.00  0.00    -0.237 OA
ATOM     75  O   UNL A   1      43.023  37.368  33.478  1.00  0.00    -0.744 OA
ENDBRANCH  71  72
ENDBRANCH  50  64
BRANCH  51  76
ATOM     76  C   UNL A   1      42.630  23.615  27.569  1.00  0.00     0.058 A 
ATOM     77  C   UNL A   1      42.348  22.527  28.407  1.00  0.00     0.135 A 
ATOM     78  C   UNL A   1      42.773  23.364  26.195  1.00  0.00     0.135 A 
ATOM     79  F   UNL A   1      42.213  22.712  29.729  1.00  0.00    -0.206 F 
ATOM     80  C   UNL A   1      42.236  21.233  27.907  1.00  0.00     0.059 A 
ATOM     81  C   UNL A   1      42.645  22.082  25.668  1.00  0.00     0.059 A 
ATOM     82  F   UNL A   1      43.031  24.377  25.354  1.00  0.00    -0.206 F 
ATOM     83  C   UNL A   1      42.393  21.021  26.535  1.00  0.00     0.060 A 
BRANCH  83  84
ATOM     84  S   UNL A   1      42.258  19.334  25.904  1.00  0.00     0.124 S 
ATOM     85  O   UNL A   1      40.816  19.208  25.720  1.00  0.00    -0.237 OA
ATOM     86  O   UNL A   1      43.051  19.398  24.681  1.00  0.00    -0.237 OA
ATOM     87  O   UNL A   1      42.829  18.526  26.977  1.00  0.00    -0.744 OA
ENDBRANCH  83  84
ENDBRANCH  51  76
BRANCH  63  88
ATOM     88  C   UNL A   1      48.060  27.059  30.286  1.00  0.00     0.058 A 
ATOM     89  C   UNL A   1      48.410  26.446  31.499  1.00  0.00     0.135 A 
ATOM     90  C   UNL A   1      49.087  27.375  29.384  1.00  0.00     0.135 A 
ATOM     91  F   UNL A   1      47.463  26.128  32.396  1.00  0.00    -0.206 F 
ATOM     92  C   UNL A   1      49.735  26.175  31.817  1.00  0.00     0.059 A 
ATOM     93  C   UNL A   1      50.418  27.094  29.674  1.00  0.00     0.059 A 
ATOM     94  F   UNL A   1      48.797  27.952  28.207  1.00  0.00    -0.206 F 
ATOM     95  C   UNL A   1      50.734  26.511  30.901  1.00  0.00     0.060 A 
BRANCH  95  96
ATOM     96  S   UNL A   1      52.452  26.157  31.328  1.00  0.00     0.124 S 
ATOM     97  O   UNL A   1      53.089  26.141  30.015  1.00  0.00    -0.237 OA
ATOM     98  O   UNL A   1      52.798  27.286  32.188  1.00  0.00    -0.237 OA
ATOM     99  O   UNL A   1      52.372  24.866  32.004  1.00  0.00    -0.744 OA
ENDBRANCH  95  96
ENDBRANCH  63  88
ENDBRANCH  37  38
ENDBRANCH  29  32
ENDBRANCH  27  28
ENDBRANCH  26  27
ENDBRANCH   1  26
TORSDOF 17
ENDMDL
MODEL 2
REMARK VINA RESULT:     -11.8      4.275      6.762
REMARK SMILES Cc1nc(-c2cccc(F)c2)sc1C(=O)N[C@H](C)C(=O)NCCCCNC(=O)c1ccc(-c2c3nc(c(-c4c(F)cc(S(=O)(=O)[O-])cc4F)c4ccc([nH]4)c(-c4c(F)cc(S(=O)(=O)[O-])cc4F)c4nc(c(-c5c(F)cc(S(=O)(=O)[O-])cc5F)c5ccc2[nH]5)C=C4)C=C3)cc1
REMARK SMILES IDX 23 1 22 2 21 3 19 4 20 5 17 7 18 8 16 9 14 10 15 11 13 13
REMARK SMILES IDX 1 14 2 15 3 16 4 17 12 18 5 19 6 20 11 21 7 22 9 23 8 24
REMARK SMILES IDX 10 25 24 26 25 27 26 28 27 29 28 31 29 32 30 33 94 34 31 35
REMARK SMILES IDX 93 36 32 37 33 38 34 39 87 40 35 41 92 42 86 43 88 44 36 45
REMARK SMILES IDX 91 46 85 47 84 48 37 50 71 51 50 52 70 53 51 54 54 55 69 56
REMARK SMILES IDX 89 57 52 58 53 59 68 61 90 62 55 63 38 64 39 65 48 66 40 67
REMARK SMILES IDX 41 68 47 69 49 70 42 71 43 72 44 73 45 74 46 75 72 76 73 77
REMARK SMILES IDX 82 78 74 79 75 80 81 81 83 82 76 83 77 84 78 85 79 86 80 87
REMARK SMILES IDX 56 88 57 89 66 90 58 91 59 92 65 93 67 94 60 95 61 96 62 97
REMARK SMILES IDX 63 98 64 99
REMARK H PARENT 21 6 16 12 26 30 88 49 54 60
REMARK Flexibility Score: inf
ROOT
ATOM      1  C   UNL A   1      36.291  34.208  34.264  1.00  0.00     0.023 C 
ENDROOT
BRANCH   1   2
ATOM      2  C   UNL A   1      34.784  34.368  34.066  1.00  0.00     0.116 C 
BRANCH   2   3
ATOM      3  N   UNL A   1      34.437  35.774  34.075  1.00  0.00    -0.354 N 
ATOM      4  C   UNL A   1      33.764  36.536  33.175  1.00  0.00     0.242 C 
ATOM      5  O   UNL A   1      33.869  37.760  33.325  1.00  0.00    -0.273 OA
ATOM      6  H   UNL A   1      34.745  36.262  34.872  1.00  0.00     0.163 HD
BRANCH   4   7
ATOM      7  C   UNL A   1      32.746  35.969  32.143  1.00  0.00     0.168 C 
ATOM      8  C   UNL A   1      31.338  35.769  32.722  1.00  0.00     0.041 C 
BRANCH   7   9
ATOM      9  N   UNL A   1      32.661  36.299  30.724  1.00  0.00    -0.340 N 
ATOM     10  C   UNL A   1      33.285  35.967  29.555  1.00  0.00     0.263 C 
ATOM     11  O   UNL A   1      33.100  36.825  28.681  1.00  0.00    -0.268 OA
ATOM     12  H   UNL A   1      31.944  36.954  30.562  1.00  0.00     0.164 HD
BRANCH  10  13
ATOM     13  C   UNL A   1      33.973  34.718  29.268  1.00  0.00     0.115 A 
ATOM     14  C   UNL A   1      36.125  34.316  30.715  1.00  0.00     0.068 C 
ATOM     15  C   UNL A   1      35.071  33.996  29.723  1.00  0.00     0.062 A 
ATOM     16  N   UNL A   1      35.185  32.712  29.192  1.00  0.00    -0.241 NA
ATOM     17  C   UNL A   1      34.256  32.468  28.302  1.00  0.00     0.124 A 
ATOM     18  S   UNL A   1      33.234  33.788  27.971  1.00  0.00    -0.108 S 
BRANCH  17  19
ATOM     19  C   UNL A   1      34.020  31.157  27.699  1.00  0.00     0.013 A 
ATOM     20  C   UNL A   1      35.022  30.177  27.623  1.00  0.00     0.011 A 
ATOM     21  C   UNL A   1      32.742  30.864  27.204  1.00  0.00     0.050 A 
ATOM     22  C   UNL A   1      34.746  28.924  27.065  1.00  0.00     0.004 A 
ATOM     23  C   UNL A   1      32.483  29.620  26.641  1.00  0.00     0.123 A 
ATOM     24  C   UNL A   1      33.472  28.647  26.572  1.00  0.00     0.039 A 
ATOM     25  F   UNL A   1      31.260  29.354  26.168  1.00  0.00    -0.207 F 
ENDBRANCH  17  19
ENDBRANCH  10  13
ENDBRANCH   7   9
ENDBRANCH   4   7
ENDBRANCH   2   3
ENDBRANCH   1   2
BRANCH   1  26
ATOM     26  C   UNL A   1      36.768  32.787  34.530  1.00  0.00     0.023 C 
BRANCH  26  27
ATOM     27  C   UNL A   1      37.399  32.111  33.324  1.00  0.00     0.116 C 
BRANCH  27  28
ATOM     28  N   UNL A   1      36.503  31.209  32.608  1.00  0.00    -0.352 N 
ATOM     29  C   UNL A   1      36.805  30.328  31.592  1.00  0.00     0.251 C 
ATOM     30  H   UNL A   1      35.559  31.232  32.888  1.00  0.00     0.163 HD
ATOM     31  O   UNL A   1      35.922  29.674  31.054  1.00  0.00    -0.269 OA
BRANCH  29  32
ATOM     32  C   UNL A   1      38.208  30.226  31.134  1.00  0.00     0.039 A 
ATOM     33  C   UNL A   1      39.158  29.654  31.980  1.00  0.00     0.014 A 
ATOM     34  C   UNL A   1      38.551  30.600  29.833  1.00  0.00     0.014 A 
ATOM     35  C   UNL A   1      40.430  29.362  31.483  1.00  0.00     0.010 A 
ATOM     36  C   UNL A   1      39.778  30.212  29.313  1.00  0.00     0.010 A 
ATOM     37  C   UNL A   1      40.730  29.581  30.128  1.00  0.00    -0.014 A 
BRANCH  37  38
ATOM     38  C   UNL A   1      42.021  29.154  29.530  1.00  0.00     0.031 A 
ATOM     39  C   UNL A   1      43.157  30.137  29.420  1.00  0.00     0.074 A 
ATOM     40  C   UNL A   1      42.143  27.920  29.000  1.00  0.00     0.049 A 
ATOM     41  N   UNL A   1      44.302  30.010  28.803  1.00  0.00    -0.248 NA
ATOM     42  C   UNL A   1      42.959  31.453  30.050  1.00  0.00     0.031 C 
ATOM     43  C   UNL A   1      41.096  26.894  28.982  1.00  0.00     0.029 A 
ATOM     44  N   UNL A   1      43.202  27.318  28.365  1.00  0.00    -0.354 N 
ATOM     45  C   UNL A   1      44.941  31.236  28.938  1.00  0.00     0.074 A 
ATOM     46  C   UNL A   1      44.036  32.110  29.649  1.00  0.00     0.031 C 
ATOM     47  C   UNL A   1      41.579  25.780  28.408  1.00  0.00     0.029 A 
ATOM     48  C   UNL A   1      42.952  26.022  27.978  1.00  0.00     0.049 A 
ATOM     49  H   UNL A   1      44.059  27.772  28.202  1.00  0.00     0.167 HD
ATOM     50  C   UNL A   1      46.184  31.593  28.535  1.00  0.00     0.037 A 
ATOM     51  C   UNL A   1      43.742  25.127  27.351  1.00  0.00     0.037 A 
ATOM     52  C   UNL A   1      47.107  30.698  27.891  1.00  0.00     0.049 A 
ATOM     53  C   UNL A   1      45.139  25.527  26.966  1.00  0.00     0.074 A 
ATOM     54  C   UNL A   1      48.413  30.944  27.502  1.00  0.00     0.029 A 
ATOM     55  N   UNL A   1      46.832  29.378  27.564  1.00  0.00    -0.354 N 
ATOM     56  N   UNL A   1      45.735  26.684  27.126  1.00  0.00    -0.248 NA
ATOM     57  C   UNL A   1      45.970  24.504  26.315  1.00  0.00     0.031 C 
ATOM     58  C   UNL A   1      48.922  29.776  26.923  1.00  0.00     0.029 A 
ATOM     59  C   UNL A   1      47.944  28.796  26.981  1.00  0.00     0.049 A 
ATOM     60  H   UNL A   1      45.974  28.924  27.725  1.00  0.00     0.167 HD
ATOM     61  C   UNL A   1      47.018  26.523  26.614  1.00  0.00     0.074 A 
ATOM     62  C   UNL A   1      47.114  25.154  26.149  1.00  0.00     0.031 C 
ATOM     63  C   UNL A   1      48.023  27.428  26.536  1.00  0.00     0.037 A 
BRANCH  50  64
ATOM     64  C   UNL A   1      46.626  33.002  28.809  1.00  0.00     0.058 A 
ATOM     65  C   UNL A   1      47.235  33.338  30.028  1.00  0.00     0.135 A 
ATOM     66  C   UNL A   1      46.421  34.029  27.874  1.00  0.00     0.135 A 
ATOM     67  F   UNL A   1      47.462  32.394  30.955  1.00  0.00    -0.206 F 
ATOM     68  C   UNL A   1      47.621  34.645  30.312  1.00  0.00     0.059 A 
ATOM     69  C   UNL A   1      46.823  35.337  28.125  1.00  0.00     0.059 A 
ATOM     70  F   UNL A   1      45.866  33.755  26.682  1.00  0.00    -0.206 F 
ATOM     71  C   UNL A   1      47.411  35.637  29.353  1.00  0.00     0.060 A 
BRANCH  71  72
ATOM     72  S   UNL A   1      47.968  37.318  29.708  1.00  0.00     0.124 S 
ATOM     73  O   UNL A   1      48.937  37.543  28.642  1.00  0.00    -0.237 OA
ATOM     74  O   UNL A   1      46.727  38.081  29.613  1.00  0.00    -0.237 OA
ATOM     75  O   UNL A   1      48.523  37.210  31.054  1.00  0.00    -0.744 OA
ENDBRANCH  71  72
ENDBRANCH  50  64
BRANCH  51  76
ATOM     76  C   UNL A   1      43.241  23.751  27.098  1.00  0.00     0.058 A 
ATOM     77  C   UNL A   1      43.179  22.791  28.119  1.00  0.00     0.135 A 
ATOM     78  C   UNL A   1      42.846  23.363  25.809  1.00  0.00     0.135 A 
ATOM     79  F   UNL A   1      43.555  23.110  29.367  1.00  0.00    -0.206 F 
ATOM     80  C   UNL A   1      42.766  21.487  27.865  1.00  0.00     0.059 A 
ATOM     81  C   UNL A   1      42.410  22.070  25.534  1.00  0.00     0.059 A 
ATOM     82  F   UNL A   1      42.877  24.252  24.804  1.00  0.00    -0.206 F 
ATOM     83  C   UNL A   1      42.390  21.135  26.568  1.00  0.00     0.060 A 
BRANCH  83  84
ATOM     84  S   UNL A   1      41.869  19.434  26.253  1.00  0.00     0.124 S 
ATOM     85  O   UNL A   1      42.634  19.113  25.053  1.00  0.00    -0.237 OA
ATOM     86  O   UNL A   1      42.287  18.753  27.474  1.00  0.00    -0.237 OA
ATOM     87  O   UNL A   1      40.426  19.552  26.067  1.00  0.00    -0.744 OA
ENDBRANCH  83  84
ENDBRANCH  51  76
BRANCH  63  88
ATOM     88  C   UNL A   1      49.326  26.971  25.947  1.00  0.00     0.058 A 
ATOM     89  C   UNL A   1      50.305  26.383  26.763  1.00  0.00     0.135 A 
ATOM     90  C   UNL A   1      49.638  27.196  24.598  1.00  0.00     0.135 A 
ATOM     91  F   UNL A   1      50.055  26.150  28.062  1.00  0.00    -0.206 F 
ATOM     92  C   UNL A   1      51.559  26.049  26.264  1.00  0.00     0.059 A 
ATOM     93  C   UNL A   1      50.879  26.852  24.073  1.00  0.00     0.059 A 
ATOM     94  F   UNL A   1      48.728  27.746  23.778  1.00  0.00    -0.206 F 
ATOM     95  C   UNL A   1      51.840  26.296  24.918  1.00  0.00     0.060 A 
BRANCH  95  96
ATOM     96  S   UNL A   1      53.473  25.861  24.284  1.00  0.00     0.124 S 
ATOM     97  O   UNL A   1      54.301  26.928  24.835  1.00  0.00    -0.237 OA
ATOM     98  O   UNL A   1      53.684  24.534  24.854  1.00  0.00    -0.237 OA
ATOM     99  O   UNL A   1      53.291  25.890  22.836  1.00  0.00    -0.744 OA
ENDBRANCH  95  96
ENDBRANCH  63  88
ENDBRANCH  37  38
ENDBRANCH  29  32
ENDBRANCH  27  28
ENDBRANCH  26  27
ENDBRANCH   1  26
TORSDOF 17
ENDMDL
MODEL 3
REMARK VINA RESULT:     -11.5      2.760      3.530
REMARK SMILES Cc1nc(-c2cccc(F)c2)sc1C(=O)N[C@H](C)C(=O)NCCCCNC(=O)c1ccc(-c2c3nc(c(-c4c(F)cc(S(=O)(=O)[O-])cc4F)c4ccc([nH]4)c(-c4c(F)cc(S(=O)(=O)[O-])cc4F)c4nc(c(-c5c(F)cc(S(=O)(=O)[O-])cc5F)c5ccc2[nH]5)C=C4)C=C3)cc1
REMARK SMILES IDX 23 1 22 2 21 3 19 4 20 5 17 7 18 8 16 9 14 10 15 11 13 13
REMARK SMILES IDX 1 14 2 15 3 16 4 17 12 18 5 19 6 20 11 21 7 22 9 23 8 24
REMARK SMILES IDX 10 25 24 26 25 27 26 28 27 29 28 31 29 32 30 33 94 34 31 35
REMARK SMILES IDX 93 36 32 37 33 38 34 39 87 40 35 41 92 42 86 43 88 44 36 45
REMARK SMILES IDX 91 46 85 47 84 48 37 50 71 51 50 52 70 53 51 54 54 55 69 56
REMARK SMILES IDX 89 57 52 58 53 59 68 61 90 62 55 63 38 64 39 65 48 66 40 67
REMARK SMILES IDX 41 68 47 69 49 70 42 71 43 72 44 73 45 74 46 75 72 76 73 77
REMARK SMILES IDX 82 78 74 79 75 80 81 81 83 82 76 83 77 84 78 85 79 86 80 87
REMARK SMILES IDX 56 88 57 89 66 90 58 91 59 92 65 93 67 94 60 95 61 96 62 97
REMARK SMILES IDX 63 98 64 99
REMARK H PARENT 21 6 16 12 26 30 88 49 54 60
REMARK Flexibility Score: inf
ROOT
ATOM      1  C   UNL A   1      33.128  29.388  25.846  1.00  0.00     0.023 C 
ENDROOT
BRANCH   1   2
ATOM      2  C   UNL A   1      31.605  29.283  25.772  1.00  0.00     0.116 C 
BRANCH   2   3
ATOM      3  N   UNL A   1      31.153  29.671  24.452  1.00  0.00    -0.354 N 
ATOM      4  C   UNL A   1      31.140  28.995  23.275  1.00  0.00     0.242 C 
ATOM      5  O   UNL A   1      30.956  29.684  22.264  1.00  0.00    -0.273 OA
ATOM      6  H   UNL A   1      30.792  30.585  24.400  1.00  0.00     0.163 HD
BRANCH   4   7
ATOM      7  C   UNL A   1      31.138  27.442  23.163  1.00  0.00     0.168 C 
ATOM      8  C   UNL A   1      29.788  26.806  23.524  1.00  0.00     0.041 C 
BRANCH   7   9
ATOM      9  N   UNL A   1      31.816  26.636  22.152  1.00  0.00    -0.340 N 
ATOM     10  C   UNL A   1      32.690  25.587  22.095  1.00  0.00     0.263 C 
ATOM     11  O   UNL A   1      33.265  25.534  20.998  1.00  0.00    -0.268 OA
ATOM     12  H   UNL A   1      31.572  26.935  21.247  1.00  0.00     0.164 HD
BRANCH  10  13
ATOM     13  C   UNL A   1      32.865  24.552  23.101  1.00  0.00     0.115 A 
ATOM     14  C   UNL A   1      32.893  25.443  25.570  1.00  0.00     0.068 C 
ATOM     15  C   UNL A   1      32.909  24.431  24.486  1.00  0.00     0.062 A 
ATOM     16  N   UNL A   1      32.922  23.119  24.957  1.00  0.00    -0.241 NA
ATOM     17  C   UNL A   1      32.961  22.250  23.977  1.00  0.00     0.124 A 
ATOM     18  S   UNL A   1      33.077  22.941  22.427  1.00  0.00    -0.108 S 
BRANCH  17  19
ATOM     19  C   UNL A   1      32.818  20.806  24.155  1.00  0.00     0.013 A 
ATOM     20  C   UNL A   1      32.996  20.183  25.400  1.00  0.00     0.011 A 
ATOM     21  C   UNL A   1      32.464  20.024  23.046  1.00  0.00     0.050 A 
ATOM     22  C   UNL A   1      32.818  18.802  25.532  1.00  0.00     0.004 A 
ATOM     23  C   UNL A   1      32.302  18.651  23.188  1.00  0.00     0.123 A 
ATOM     24  C   UNL A   1      32.471  18.034  24.421  1.00  0.00     0.039 A 
ATOM     25  F   UNL A   1      31.970  17.914  22.121  1.00  0.00    -0.207 F 
ENDBRANCH  17  19
ENDBRANCH  10  13
ENDBRANCH   7   9
ENDBRANCH   4   7
ENDBRANCH   2   3
ENDBRANCH   1   2
BRANCH   1  26
ATOM     26  C   UNL A   1      33.744  29.023  27.189  1.00  0.00     0.023 C 
BRANCH  26  27
ATOM     27  C   UNL A   1      35.079  29.697  27.461  1.00  0.00     0.116 C 
BRANCH  27  28
ATOM     28  N   UNL A   1      35.174  30.326  28.774  1.00  0.00    -0.352 N 
ATOM     29  C   UNL A   1      36.245  30.341  29.643  1.00  0.00     0.251 C 
ATOM     30  H   UNL A   1      34.368  30.802  29.080  1.00  0.00     0.163 HD
ATOM     31  O   UNL A   1      36.147  30.872  30.740  1.00  0.00    -0.269 OA
BRANCH  29  32
ATOM     32  C   UNL A   1      37.495  29.661  29.239  1.00  0.00     0.039 A 
ATOM     33  C   UNL A   1      37.960  29.816  27.933  1.00  0.00     0.014 A 
ATOM     34  C   UNL A   1      38.253  28.964  30.183  1.00  0.00     0.014 A 
ATOM     35  C   UNL A   1      39.238  29.357  27.602  1.00  0.00     0.010 A 
ATOM     36  C   UNL A   1      39.559  28.607  29.881  1.00  0.00     0.010 A 
ATOM     37  C   UNL A   1      40.071  28.805  28.589  1.00  0.00    -0.014 A 
BRANCH  37  38
ATOM     38  C   UNL A   1      41.483  28.437  28.310  1.00  0.00     0.031 A 
ATOM     39  C   UNL A   1      42.553  29.496  28.338  1.00  0.00     0.074 A 
ATOM     40  C   UNL A   1      41.791  27.177  27.940  1.00  0.00     0.049 A 
ATOM     41  N   UNL A   1      43.808  29.413  27.981  1.00  0.00    -0.248 NA
ATOM     42  C   UNL A   1      42.144  30.840  28.782  1.00  0.00     0.031 C 
ATOM     43  C   UNL A   1      40.837  26.071  27.810  1.00  0.00     0.029 A 
ATOM     44  N   UNL A   1      42.995  26.613  27.595  1.00  0.00    -0.354 N 
ATOM     45  C   UNL A   1      44.326  30.694  28.123  1.00  0.00     0.074 A 
ATOM     46  C   UNL A   1      43.238  31.547  28.546  1.00  0.00     0.031 C 
ATOM     47  C   UNL A   1      41.498  24.956  27.458  1.00  0.00     0.029 A 
ATOM     48  C   UNL A   1      42.913  25.273  27.294  1.00  0.00     0.049 A 
ATOM     49  H   UNL A   1      43.837  27.121  27.565  1.00  0.00     0.167 HD
ATOM     50  C   UNL A   1      45.600  31.116  27.948  1.00  0.00     0.037 A 
ATOM     51  C   UNL A   1      43.871  24.398  26.931  1.00  0.00     0.037 A 
ATOM     52  C   UNL A   1      46.692  30.250  27.596  1.00  0.00     0.049 A 
ATOM     53  C   UNL A   1      45.290  24.877  26.800  1.00  0.00     0.074 A 
ATOM     54  C   UNL A   1      48.033  30.568  27.457  1.00  0.00     0.029 A 
ATOM     55  N   UNL A   1      46.576  28.890  27.351  1.00  0.00    -0.354 N 
ATOM     56  N   UNL A   1      45.766  26.088  26.964  1.00  0.00    -0.248 NA
ATOM     57  C   UNL A   1      46.302  23.875  26.436  1.00  0.00     0.031 C 
ATOM     58  C   UNL A   1      48.724  29.403  27.112  1.00  0.00     0.029 A 
ATOM     59  C   UNL A   1      47.820  28.354  27.065  1.00  0.00     0.049 A 
ATOM     60  H   UNL A   1      45.733  28.382  27.377  1.00  0.00     0.167 HD
ATOM     61  C   UNL A   1      47.135  25.990  26.742  1.00  0.00     0.074 A 
ATOM     62  C   UNL A   1      47.412  24.600  26.443  1.00  0.00     0.031 C 
ATOM     63  C   UNL A   1      48.075  26.965  26.782  1.00  0.00     0.037 A 
BRANCH  50  64
ATOM     64  C   UNL A   1      45.886  32.575  28.167  1.00  0.00     0.058 A 
ATOM     65  C   UNL A   1      45.800  33.489  27.106  1.00  0.00     0.135 A 
ATOM     66  C   UNL A   1      46.273  33.065  29.425  1.00  0.00     0.135 A 
ATOM     67  F   UNL A   1      45.427  33.077  25.884  1.00  0.00    -0.206 F 
ATOM     68  C   UNL A   1      46.093  34.838  27.284  1.00  0.00     0.059 A 
ATOM     69  C   UNL A   1      46.545  34.413  29.632  1.00  0.00     0.059 A 
ATOM     70  F   UNL A   1      46.345  32.235  30.479  1.00  0.00    -0.206 F 
ATOM     71  C   UNL A   1      46.464  35.290  28.552  1.00  0.00     0.060 A 
BRANCH  71  72
ATOM     72  S   UNL A   1      46.785  37.052  28.784  1.00  0.00     0.124 S 
ATOM     73  O   UNL A   1      46.011  37.643  27.699  1.00  0.00    -0.237 OA
ATOM     74  O   UNL A   1      46.273  37.284  30.132  1.00  0.00    -0.237 OA
ATOM     75  O   UNL A   1      48.237  37.149  28.652  1.00  0.00    -0.744 OA
ENDBRANCH  71  72
ENDBRANCH  50  64
BRANCH  51  76
ATOM     76  C   UNL A   1      43.522  22.969  26.718  1.00  0.00     0.058 A 
ATOM     77  C   UNL A   1      43.197  22.123  27.788  1.00  0.00     0.135 A 
ATOM     78  C   UNL A   1      43.544  22.415  25.429  1.00  0.00     0.135 A 
ATOM     79  F   UNL A   1      43.172  22.601  29.041  1.00  0.00    -0.206 F 
ATOM     80  C   UNL A   1      42.929  20.772  27.591  1.00  0.00     0.059 A 
ATOM     81  C   UNL A   1      43.259  21.072  25.203  1.00  0.00     0.059 A 
ATOM     82  F   UNL A   1      43.838  23.191  24.373  1.00  0.00    -0.206 F 
ATOM     83  C   UNL A   1      42.969  20.255  26.294  1.00  0.00     0.060 A 
BRANCH  83  84
ATOM     84  S   UNL A   1      42.632  18.496  26.058  1.00  0.00     0.124 S 
ATOM     85  O   UNL A   1      43.536  18.173  24.959  1.00  0.00    -0.237 OA
ATOM     86  O   UNL A   1      42.986  17.937  27.357  1.00  0.00    -0.237 OA
ATOM     87  O   UNL A   1      41.209  18.467  25.732  1.00  0.00    -0.744 OA
ENDBRANCH  83  84
ENDBRANCH  51  76
BRANCH  63  88
ATOM     88  C   UNL A   1      49.499  26.568  26.518  1.00  0.00     0.058 A 
ATOM     89  C   UNL A   1      50.031  26.657  25.222  1.00  0.00     0.135 A 
ATOM     90  C   UNL A   1      50.304  26.019  27.527  1.00  0.00     0.135 A 
ATOM     91  F   UNL A   1      49.298  27.171  24.222  1.00  0.00    -0.206 F 
ATOM     92  C   UNL A   1      51.310  26.196  24.931  1.00  0.00     0.059 A 
ATOM     93  C   UNL A   1      51.594  25.570  27.262  1.00  0.00     0.059 A 
ATOM     94  F   UNL A   1      49.841  25.925  28.783  1.00  0.00    -0.206 F 
ATOM     95  C   UNL A   1      52.081  25.646  25.957  1.00  0.00     0.060 A 
BRANCH  95  96
ATOM     96  S   UNL A   1      53.740  25.049  25.565  1.00  0.00     0.124 S 
ATOM     97  O   UNL A   1      54.495  25.476  26.738  1.00  0.00    -0.237 OA
ATOM     98  O   UNL A   1      53.529  23.610  25.434  1.00  0.00    -0.237 OA
ATOM     99  O   UNL A   1      54.062  25.743  24.322  1.00  0.00    -0.744 OA
ENDBRANCH  95  96
ENDBRANCH  63  88
ENDBRANCH  37  38
ENDBRANCH  29  32
ENDBRANCH  27  28
ENDBRANCH  26  27
ENDBRANCH   1  26
TORSDOF 17
ENDMDL
