MODEL 1
REMARK VINA RESULT:     -12.2      0.000      0.000
REMARK SMILES CC1(C)C(NC(=O)N[C@]2(C(=O)NCCCCNC(=O)c3ccc(-c4c5nc(c(-c6c(F)cc(S(=O)(=O)[O-])cc6F)c6ccc([nH]6)c(-c6c(F)cc(S(=O)(=O)[O-])cc6F)c6nc(c(-c7c(F)cc(S(=O)(=O)[O-])cc7F)c7ccc4[nH]7)C=C6)C=C5)cc3)CC[C@@H](C)CC2)C1(C)C
REMARK SMILES IDX 15 1 14 2 13 3 12 4 10 5 11 6 9 8 89 9 88 10 90 11 87 12
REMARK SMILES IDX 91 13 86 14 8 15 6 16 7 18 5 19 4 21 2 22 92 23 1 24 3 25
REMARK SMILES IDX 93 26 94 27 16 28 17 29 18 30 19 32 20 33 21 34 85 35 22 36
REMARK SMILES IDX 84 37 23 38 24 39 25 40 78 41 26 42 83 43 77 44 79 45 27 46
REMARK SMILES IDX 82 47 76 48 75 49 28 51 62 52 41 53 61 54 42 55 45 56 60 57
REMARK SMILES IDX 80 58 43 59 44 60 59 62 81 63 46 64 29 65 30 66 39 67 31 68
REMARK SMILES IDX 32 69 38 70 40 71 33 72 34 73 35 74 36 75 37 76 63 77 64 78
REMARK SMILES IDX 73 79 65 80 66 81 72 82 74 83 67 84 68 85 69 86 70 87 71 88
REMARK SMILES IDX 47 89 48 90 57 91 49 92 50 93 56 94 58 95 51 96 52 97 53 98
REMARK SMILES IDX 54 99 55 100
REMARK H PARENT 12 7 8 17 5 20 17 31 79 50 45 61
REMARK Flexibility Score: inf
ROOT
ATOM      1  C   UNL A   1      37.241  23.345  25.900  1.00  0.00     0.023 C 
ENDROOT
BRANCH   1   2
ATOM      2  C   UNL A   1      37.464  23.252  24.391  1.00  0.00     0.023 C 
BRANCH   2   3
ATOM      3  C   UNL A   1      36.172  23.346  23.586  1.00  0.00     0.116 C 
BRANCH   3   4
ATOM      4  N   UNL A   1      35.302  22.231  23.908  1.00  0.00    -0.354 N 
ATOM      5  C   UNL A   1      33.952  22.168  24.065  1.00  0.00     0.245 C 
ATOM      6  O   UNL A   1      33.498  21.080  24.433  1.00  0.00    -0.272 OA
ATOM      7  H   UNL A   1      35.768  21.373  24.034  1.00  0.00     0.163 HD
BRANCH   5   8
ATOM      8  C   UNL A   1      33.070  23.443  23.994  1.00  0.00     0.120 C 
ATOM      9  C   UNL A   1      32.703  22.285  28.037  1.00  0.00     0.007 C 
ATOM     10  C   UNL A   1      32.475  23.340  26.946  1.00  0.00    -0.014 C 
ATOM     11  C   UNL A   1      31.480  22.779  25.911  1.00  0.00     0.006 C 
ATOM     12  C   UNL A   1      33.826  23.825  26.395  1.00  0.00     0.006 C 
ATOM     13  C   UNL A   1      31.617  23.319  24.492  1.00  0.00     0.039 C 
ATOM     14  C   UNL A   1      33.739  24.436  24.990  1.00  0.00     0.039 C 
BRANCH   8  15
ATOM     15  N   UNL A   1      33.060  23.979  22.620  1.00  0.00    -0.324 N 
ATOM     16  C   UNL A   1      32.889  25.200  22.084  1.00  0.00     0.315 C 
ATOM     17  H   UNL A   1      33.216  23.285  21.940  1.00  0.00     0.166 HD
ATOM     18  O   UNL A   1      33.109  25.301  20.871  1.00  0.00    -0.249 OA
ATOM     19  N   UNL A   1      32.444  26.298  22.732  1.00  0.00    -0.334 N 
ATOM     20  H   UNL A   1      32.304  27.061  22.126  1.00  0.00     0.165 HD
BRANCH  19  21
ATOM     21  C   UNL A   1      32.130  26.615  24.092  1.00  0.00     0.096 C 
ATOM     22  C   UNL A   1      31.594  27.976  24.524  1.00  0.00    -0.007 C 
ATOM     23  C   UNL A   1      30.695  26.740  24.622  1.00  0.00    -0.007 C 
ATOM     24  C   UNL A   1      32.201  28.552  25.791  1.00  0.00     0.014 C 
ATOM     25  C   UNL A   1      31.220  29.056  23.538  1.00  0.00     0.014 C 
ATOM     26  C   UNL A   1      29.515  26.616  23.686  1.00  0.00     0.014 C 
ATOM     27  C   UNL A   1      30.343  26.227  26.006  1.00  0.00     0.014 C 
ENDBRANCH  19  21
ENDBRANCH   8  15
ENDBRANCH   5   8
ENDBRANCH   3   4
ENDBRANCH   2   3
ENDBRANCH   1   2
BRANCH   1  28
ATOM     28  C   UNL A   1      38.163  24.340  26.595  1.00  0.00     0.116 C 
BRANCH  28  29
ATOM     29  N   UNL A   1      39.531  24.227  26.124  1.00  0.00    -0.352 N 
ATOM     30  C   UNL A   1      40.617  24.987  26.467  1.00  0.00     0.251 C 
ATOM     31  H   UNL A   1      39.699  23.509  25.473  1.00  0.00     0.163 HD
ATOM     32  O   UNL A   1      41.655  24.904  25.810  1.00  0.00    -0.269 OA
BRANCH  30  33
ATOM     33  C   UNL A   1      40.531  25.920  27.609  1.00  0.00     0.039 A 
ATOM     34  C   UNL A   1      41.366  27.037  27.627  1.00  0.00     0.014 A 
ATOM     35  C   UNL A   1      39.636  25.690  28.662  1.00  0.00     0.014 A 
ATOM     36  C   UNL A   1      41.282  27.944  28.685  1.00  0.00     0.010 A 
ATOM     37  C   UNL A   1      39.505  26.634  29.678  1.00  0.00     0.010 A 
ATOM     38  C   UNL A   1      40.336  27.763  29.708  1.00  0.00    -0.014 A 
BRANCH  38  39
ATOM     39  C   UNL A   1      40.228  28.744  30.820  1.00  0.00     0.031 A 
ATOM     40  C   UNL A   1      41.105  28.611  32.036  1.00  0.00     0.074 A 
ATOM     41  C   UNL A   1      39.324  29.740  30.744  1.00  0.00     0.049 A 
ATOM     42  N   UNL A   1      41.149  29.361  33.106  1.00  0.00    -0.248 NA
ATOM     43  C   UNL A   1      42.044  27.478  32.060  1.00  0.00     0.031 C 
ATOM     44  C   UNL A   1      38.391  29.952  29.636  1.00  0.00     0.029 A 
ATOM     45  N   UNL A   1      39.039  30.762  31.616  1.00  0.00    -0.354 N 
ATOM     46  C   UNL A   1      42.111  28.791  33.931  1.00  0.00     0.074 A 
ATOM     47  C   UNL A   1      42.587  27.601  33.263  1.00  0.00     0.031 C 
ATOM     48  C   UNL A   1      37.656  31.049  29.881  1.00  0.00     0.029 A 
ATOM     49  C   UNL A   1      38.037  31.597  31.180  1.00  0.00     0.049 A 
ATOM     50  H   UNL A   1      39.509  30.885  32.473  1.00  0.00     0.167 HD
ATOM     51  C   UNL A   1      42.574  29.232  35.127  1.00  0.00     0.037 A 
ATOM     52  C   UNL A   1      37.482  32.678  31.763  1.00  0.00     0.037 A 
ATOM     53  C   UNL A   1      42.105  30.427  35.780  1.00  0.00     0.049 A 
ATOM     54  C   UNL A   1      37.999  33.138  33.100  1.00  0.00     0.074 A 
ATOM     55  C   UNL A   1      42.546  30.985  36.968  1.00  0.00     0.029 A 
ATOM     56  N   UNL A   1      41.090  31.246  35.308  1.00  0.00    -0.354 N 
ATOM     57  N   UNL A   1      38.955  32.622  33.836  1.00  0.00    -0.248 NA
ATOM     58  C   UNL A   1      37.367  34.328  33.684  1.00  0.00     0.031 C 
ATOM     59  C   UNL A   1      41.761  32.110  37.241  1.00  0.00     0.029 A 
ATOM     60  C   UNL A   1      40.871  32.289  36.194  1.00  0.00     0.049 A 
ATOM     61  H   UNL A   1      40.597  31.106  34.467  1.00  0.00     0.167 HD
ATOM     62  C   UNL A   1      39.059  33.443  34.954  1.00  0.00     0.074 A 
ATOM     63  C   UNL A   1      38.077  34.495  34.791  1.00  0.00     0.031 C 
ATOM     64  C   UNL A   1      39.893  33.335  36.018  1.00  0.00     0.037 A 
BRANCH  51  65
ATOM     65  C   UNL A   1      43.640  28.417  35.809  1.00  0.00     0.058 A 
ATOM     66  C   UNL A   1      45.007  28.672  35.606  1.00  0.00     0.135 A 
ATOM     67  C   UNL A   1      43.292  27.397  36.708  1.00  0.00     0.135 A 
ATOM     68  F   UNL A   1      45.398  29.626  34.747  1.00  0.00    -0.206 F 
ATOM     69  C   UNL A   1      45.989  27.925  36.248  1.00  0.00     0.059 A 
ATOM     70  C   UNL A   1      44.258  26.657  37.385  1.00  0.00     0.059 A 
ATOM     71  F   UNL A   1      42.002  27.111  36.941  1.00  0.00    -0.206 F 
ATOM     72  C   UNL A   1      45.605  26.920  37.137  1.00  0.00     0.060 A 
BRANCH  72  73
ATOM     73  S   UNL A   1      46.892  25.964  37.967  1.00  0.00     0.124 S 
ATOM     74  O   UNL A   1      47.876  27.001  38.266  1.00  0.00    -0.237 OA
ATOM     75  O   UNL A   1      46.181  25.417  39.117  1.00  0.00    -0.237 OA
ATOM     76  O   UNL A   1      47.296  24.988  36.960  1.00  0.00    -0.744 OA
ENDBRANCH  72  73
ENDBRANCH  51  65
BRANCH  52  77
ATOM     77  C   UNL A   1      36.383  33.410  31.076  1.00  0.00     0.058 A 
ATOM     78  C   UNL A   1      36.629  34.170  29.923  1.00  0.00     0.135 A 
ATOM     79  C   UNL A   1      35.065  33.356  31.555  1.00  0.00     0.135 A 
ATOM     80  F   UNL A   1      37.873  34.259  29.430  1.00  0.00    -0.206 F 
ATOM     81  C   UNL A   1      35.611  34.866  29.278  1.00  0.00     0.059 A 
ATOM     82  C   UNL A   1      34.025  34.019  30.911  1.00  0.00     0.059 A 
ATOM     83  F   UNL A   1      34.773  32.630  32.644  1.00  0.00    -0.206 F 
ATOM     84  C   UNL A   1      34.311  34.781  29.778  1.00  0.00     0.060 A 
BRANCH  84  85
ATOM     85  S   UNL A   1      32.990  35.650  28.907  1.00  0.00     0.124 S 
ATOM     86  O   UNL A   1      32.431  34.586  28.082  1.00  0.00    -0.237 OA
ATOM     87  O   UNL A   1      32.151  36.113  30.007  1.00  0.00    -0.237 OA
ATOM     88  O   UNL A   1      33.700  36.702  28.184  1.00  0.00    -0.744 OA
ENDBRANCH  84  85
ENDBRANCH  52  77
BRANCH  64  89
ATOM     89  C   UNL A   1      39.811  34.400  37.078  1.00  0.00     0.058 A 
ATOM     90  C   UNL A   1      39.011  34.247  38.222  1.00  0.00     0.135 A 
ATOM     91  C   UNL A   1      40.583  35.569  36.971  1.00  0.00     0.135 A 
ATOM     92  F   UNL A   1      38.248  33.154  38.373  1.00  0.00    -0.206 F 
ATOM     93  C   UNL A   1      38.963  35.226  39.210  1.00  0.00     0.059 A 
ATOM     94  C   UNL A   1      40.573  36.545  37.962  1.00  0.00     0.059 A 
ATOM     95  F   UNL A   1      41.373  35.762  35.903  1.00  0.00    -0.206 F 
ATOM     96  C   UNL A   1      39.751  36.370  39.073  1.00  0.00     0.060 A 
BRANCH  96  97
ATOM     97  S   UNL A   1      39.704  37.615  40.380  1.00  0.00     0.124 S 
ATOM     98  O   UNL A   1      38.951  38.687  39.738  1.00  0.00    -0.237 OA
ATOM     99  O   UNL A   1      39.013  36.911  41.456  1.00  0.00    -0.237 OA
ATOM    100  O   UNL A   1      41.114  37.901  40.629  1.00  0.00    -0.744 OA
ENDBRANCH  96  97
ENDBRANCH  64  89
ENDBRANCH  38  39
ENDBRANCH  30  33
ENDBRANCH  28  29
ENDBRANCH   1  28
TORSDOF 16
ENDMDL
MODEL 2
REMARK VINA RESULT:     -12.2      1.284      2.353
REMARK SMILES CC1(C)C(NC(=O)N[C@]2(C(=O)NCCCCNC(=O)c3ccc(-c4c5nc(c(-c6c(F)cc(S(=O)(=O)[O-])cc6F)c6ccc([nH]6)c(-c6c(F)cc(S(=O)(=O)[O-])cc6F)c6nc(c(-c7c(F)cc(S(=O)(=O)[O-])cc7F)c7ccc4[nH]7)C=C6)C=C5)cc3)CC[C@@H](C)CC2)C1(C)C
REMARK SMILES IDX 15 1 14 2 13 3 12 4 10 5 11 6 9 8 89 9 88 10 90 11 87 12
REMARK SMILES IDX 91 13 86 14 8 15 6 16 7 18 5 19 4 21 2 22 92 23 1 24 3 25
REMARK SMILES IDX 93 26 94 27 16 28 17 29 18 30 19 32 20 33 21 34 85 35 22 36
REMARK SMILES IDX 84 37 23 38 24 39 25 40 78 41 26 42 83 43 77 44 79 45 27 46
REMARK SMILES IDX 82 47 76 48 75 49 28 51 62 52 41 53 61 54 42 55 45 56 60 57
REMARK SMILES IDX 80 58 43 59 44 60 59 62 81 63 46 64 29 65 30 66 39 67 31 68
REMARK SMILES IDX 32 69 38 70 40 71 33 72 34 73 35 74 36 75 37 76 63 77 64 78
REMARK SMILES IDX 73 79 65 80 66 81 72 82 74 83 67 84 68 85 69 86 70 87 71 88
REMARK SMILES IDX 47 89 48 90 57 91 49 92 50 93 56 94 58 95 51 96 52 97 53 98
REMARK SMILES IDX 54 99 55 100
REMARK H PARENT 12 7 8 17 5 20 17 31 79 50 45 61
REMARK Flexibility Score: inf
ROOT
ATOM      1  C   UNL A   1      39.203  22.708  26.502  1.00  0.00     0.023 C 
ENDROOT
BRANCH   1   2
ATOM      2  C   UNL A   1      38.108  23.745  26.251  1.00  0.00     0.023 C 
BRANCH   2   3
ATOM      3  C   UNL A   1      36.882  23.168  25.555  1.00  0.00     0.116 C 
BRANCH   3   4
ATOM      4  N   UNL A   1      35.943  22.660  26.536  1.00  0.00    -0.354 N 
ATOM      5  C   UNL A   1      34.607  22.872  26.689  1.00  0.00     0.245 C 
ATOM      6  O   UNL A   1      34.088  22.367  27.689  1.00  0.00    -0.272 OA
ATOM      7  H   UNL A   1      36.340  22.058  27.207  1.00  0.00     0.163 HD
BRANCH   5   8
ATOM      8  C   UNL A   1      33.838  23.865  25.778  1.00  0.00     0.120 C 
ATOM      9  C   UNL A   1      32.788  20.111  24.156  1.00  0.00     0.007 C 
ATOM     10  C   UNL A   1      32.553  21.626  24.223  1.00  0.00    -0.014 C 
ATOM     11  C   UNL A   1      33.806  22.350  23.692  1.00  0.00     0.006 C 
ATOM     12  C   UNL A   1      32.087  22.022  25.634  1.00  0.00     0.006 C 
ATOM     13  C   UNL A   1      34.064  23.742  24.259  1.00  0.00     0.039 C 
ATOM     14  C   UNL A   1      32.339  23.496  25.979  1.00  0.00     0.039 C 
BRANCH   8  15
ATOM     15  N   UNL A   1      34.114  25.253  26.191  1.00  0.00    -0.324 N 
ATOM     16  C   UNL A   1      33.692  26.463  25.781  1.00  0.00     0.315 C 
ATOM     17  H   UNL A   1      34.751  25.308  26.939  1.00  0.00     0.166 HD
ATOM     18  O   UNL A   1      34.024  27.425  26.482  1.00  0.00    -0.249 OA
ATOM     19  N   UNL A   1      33.000  26.722  24.650  1.00  0.00    -0.334 N 
ATOM     20  H   UNL A   1      32.878  27.687  24.498  1.00  0.00     0.165 HD
BRANCH  19  21
ATOM     21  C   UNL A   1      32.401  25.926  23.623  1.00  0.00     0.096 C 
ATOM     22  C   UNL A   1      30.893  25.756  23.479  1.00  0.00    -0.007 C 
ATOM     23  C   UNL A   1      31.676  26.520  22.407  1.00  0.00    -0.007 C 
ATOM     24  C   UNL A   1      30.413  24.346  23.182  1.00  0.00     0.014 C 
ATOM     25  C   UNL A   1      29.901  26.521  24.322  1.00  0.00     0.014 C 
ATOM     26  C   UNL A   1      31.480  28.013  22.281  1.00  0.00     0.014 C 
ATOM     27  C   UNL A   1      31.819  25.877  21.041  1.00  0.00     0.014 C 
ENDBRANCH  19  21
ENDBRANCH   8  15
ENDBRANCH   5   8
ENDBRANCH   3   4
ENDBRANCH   2   3
ENDBRANCH   1   2
BRANCH   1  28
ATOM     28  C   UNL A   1      40.471  23.291  27.116  1.00  0.00     0.116 C 
BRANCH  28  29
ATOM     29  N   UNL A   1      41.339  23.871  26.109  1.00  0.00    -0.352 N 
ATOM     30  C   UNL A   1      41.765  25.167  25.994  1.00  0.00     0.251 C 
ATOM     31  H   UNL A   1      41.665  23.251  25.417  1.00  0.00     0.163 HD
ATOM     32  O   UNL A   1      42.315  25.542  24.958  1.00  0.00    -0.269 OA
BRANCH  30  33
ATOM     33  C   UNL A   1      41.543  26.115  27.104  1.00  0.00     0.039 A 
ATOM     34  C   UNL A   1      40.515  25.857  28.012  1.00  0.00     0.014 A 
ATOM     35  C   UNL A   1      42.338  27.259  27.247  1.00  0.00     0.014 A 
ATOM     36  C   UNL A   1      40.305  26.727  29.082  1.00  0.00     0.010 A 
ATOM     37  C   UNL A   1      42.173  28.085  28.357  1.00  0.00     0.010 A 
ATOM     38  C   UNL A   1      41.145  27.836  29.278  1.00  0.00    -0.014 A 
BRANCH  38  39
ATOM     39  C   UNL A   1      40.939  28.746  30.434  1.00  0.00     0.031 A 
ATOM     40  C   UNL A   1      41.800  28.618  31.663  1.00  0.00     0.074 A 
ATOM     41  C   UNL A   1      39.963  29.674  30.387  1.00  0.00     0.049 A 
ATOM     42  N   UNL A   1      41.764  29.313  32.770  1.00  0.00    -0.248 NA
ATOM     43  C   UNL A   1      42.822  27.560  31.653  1.00  0.00     0.031 C 
ATOM     44  C   UNL A   1      39.039  29.871  29.268  1.00  0.00     0.029 A 
ATOM     45  N   UNL A   1      39.582  30.624  31.301  1.00  0.00    -0.354 N 
ATOM     46  C   UNL A   1      42.750  28.775  33.589  1.00  0.00     0.074 A 
ATOM     47  C   UNL A   1      43.330  27.661  32.874  1.00  0.00     0.031 C 
ATOM     48  C   UNL A   1      38.218  30.895  29.551  1.00  0.00     0.029 A 
ATOM     49  C   UNL A   1      38.528  31.402  30.884  1.00  0.00     0.049 A 
ATOM     50  H   UNL A   1      40.024  30.738  32.175  1.00  0.00     0.167 HD
ATOM     51  C   UNL A   1      43.153  29.187  34.816  1.00  0.00     0.037 A 
ATOM     52  C   UNL A   1      37.880  32.407  31.507  1.00  0.00     0.037 A 
ATOM     53  C   UNL A   1      42.580  30.308  35.517  1.00  0.00     0.049 A 
ATOM     54  C   UNL A   1      38.333  32.834  32.877  1.00  0.00     0.074 A 
ATOM     55  C   UNL A   1      42.953  30.836  36.742  1.00  0.00     0.029 A 
ATOM     56  N   UNL A   1      41.515  31.071  35.062  1.00  0.00    -0.354 N 
ATOM     57  N   UNL A   1      39.311  32.355  33.609  1.00  0.00    -0.248 NA
ATOM     58  C   UNL A   1      37.599  33.942  33.505  1.00  0.00     0.031 C 
ATOM     59  C   UNL A   1      42.077  31.882  37.052  1.00  0.00     0.029 A 
ATOM     60  C   UNL A   1      41.198  32.047  35.994  1.00  0.00     0.049 A 
ATOM     61  H   UNL A   1      41.051  30.938  34.204  1.00  0.00     0.167 HD
ATOM     62  C   UNL A   1      39.328  33.122  34.770  1.00  0.00     0.074 A 
ATOM     63  C   UNL A   1      38.272  34.104  34.636  1.00  0.00     0.031 C 
ATOM     64  C   UNL A   1      40.146  33.023  35.847  1.00  0.00     0.037 A 
BRANCH  51  65
ATOM     65  C   UNL A   1      44.265  28.422  35.482  1.00  0.00     0.058 A 
ATOM     66  C   UNL A   1      45.615  28.748  35.273  1.00  0.00     0.135 A 
ATOM     67  C   UNL A   1      43.977  27.376  36.373  1.00  0.00     0.135 A 
ATOM     68  F   UNL A   1      45.950  29.730  34.420  1.00  0.00    -0.206 F 
ATOM     69  C   UNL A   1      46.639  28.047  35.900  1.00  0.00     0.059 A 
ATOM     70  C   UNL A   1      44.984  26.680  37.035  1.00  0.00     0.059 A 
ATOM     71  F   UNL A   1      42.704  27.021  36.612  1.00  0.00    -0.206 F 
ATOM     72  C   UNL A   1      46.314  27.014  36.781  1.00  0.00     0.060 A 
BRANCH  72  73
ATOM     73  S   UNL A   1      47.655  26.118  37.591  1.00  0.00     0.124 S 
ATOM     74  O   UNL A   1      47.804  24.961  36.714  1.00  0.00    -0.237 OA
ATOM     75  O   UNL A   1      48.746  27.087  37.550  1.00  0.00    -0.237 OA
ATOM     76  O   UNL A   1      47.122  25.834  38.920  1.00  0.00    -0.744 OA
ENDBRANCH  72  73
ENDBRANCH  51  65
BRANCH  52  77
ATOM     77  C   UNL A   1      36.742  33.087  30.831  1.00  0.00     0.058 A 
ATOM     78  C   UNL A   1      35.416  32.825  31.205  1.00  0.00     0.135 A 
ATOM     79  C   UNL A   1      36.959  34.018  29.803  1.00  0.00     0.135 A 
ATOM     80  F   UNL A   1      35.155  31.938  32.178  1.00  0.00    -0.206 F 
ATOM     81  C   UNL A   1      34.343  33.448  30.575  1.00  0.00     0.059 A 
ATOM     82  C   UNL A   1      35.905  34.675  29.177  1.00  0.00     0.059 A 
ATOM     83  F   UNL A   1      38.208  34.317  29.418  1.00  0.00    -0.206 F 
ATOM     84  C   UNL A   1      34.598  34.375  29.563  1.00  0.00     0.060 A 
BRANCH  84  85
ATOM     85  S   UNL A   1      33.202  35.211  28.782  1.00  0.00     0.124 S 
ATOM     86  O   UNL A   1      33.872  36.269  28.036  1.00  0.00    -0.237 OA
ATOM     87  O   UNL A   1      32.612  34.141  27.984  1.00  0.00    -0.237 OA
ATOM     88  O   UNL A   1      32.397  35.651  29.918  1.00  0.00    -0.744 OA
ENDBRANCH  84  85
ENDBRANCH  52  77
BRANCH  64  89
ATOM     89  C   UNL A   1      39.960  34.023  36.956  1.00  0.00     0.058 A 
ATOM     90  C   UNL A   1      40.528  35.306  36.899  1.00  0.00     0.135 A 
ATOM     91  C   UNL A   1      39.160  33.710  38.067  1.00  0.00     0.135 A 
ATOM     92  F   UNL A   1      41.307  35.656  35.864  1.00  0.00    -0.206 F 
ATOM     93  C   UNL A   1      40.328  36.234  37.917  1.00  0.00     0.059 A 
ATOM     94  C   UNL A   1      38.921  34.634  39.080  1.00  0.00     0.059 A 
ATOM     95  F   UNL A   1      38.584  32.502  38.167  1.00  0.00    -0.206 F 
ATOM     96  C   UNL A   1      39.520  35.890  39.002  1.00  0.00     0.060 A 
BRANCH  96  97
ATOM     97  S   UNL A   1      39.241  37.117  40.297  1.00  0.00     0.124 S 
ATOM     98  O   UNL A   1      40.606  37.422  40.711  1.00  0.00    -0.237 OA
ATOM     99  O   UNL A   1      38.544  38.178  39.576  1.00  0.00    -0.237 OA
ATOM    100  O   UNL A   1      38.433  36.398  41.279  1.00  0.00    -0.744 OA
ENDBRANCH  96  97
ENDBRANCH  64  89
ENDBRANCH  38  39
ENDBRANCH  30  33
ENDBRANCH  28  29
ENDBRANCH   1  28
TORSDOF 16
ENDMDL
MODEL 3
REMARK VINA RESULT:     -11.7      5.275      6.678
REMARK SMILES CC1(C)C(NC(=O)N[C@]2(C(=O)NCCCCNC(=O)c3ccc(-c4c5nc(c(-c6c(F)cc(S(=O)(=O)[O-])cc6F)c6ccc([nH]6)c(-c6c(F)cc(S(=O)(=O)[O-])cc6F)c6nc(c(-c7c(F)cc(S(=O)(=O)[O-])cc7F)c7ccc4[nH]7)C=C6)C=C5)cc3)CC[C@@H](C)CC2)C1(C)C
REMARK SMILES IDX 15 1 14 2 13 3 12 4 10 5 11 6 9 8 89 9 88 10 90 11 87 12
REMARK SMILES IDX 91 13 86 14 8 15 6 16 7 18 5 19 4 21 2 22 92 23 1 24 3 25
REMARK SMILES IDX 93 26 94 27 16 28 17 29 18 30 19 32 20 33 21 34 85 35 22 36
REMARK SMILES IDX 84 37 23 38 24 39 25 40 78 41 26 42 83 43 77 44 79 45 27 46
REMARK SMILES IDX 82 47 76 48 75 49 28 51 62 52 41 53 61 54 42 55 45 56 60 57
REMARK SMILES IDX 80 58 43 59 44 60 59 62 81 63 46 64 29 65 30 66 39 67 31 68
REMARK SMILES IDX 32 69 38 70 40 71 33 72 34 73 35 74 36 75 37 76 63 77 64 78
REMARK SMILES IDX 73 79 65 80 66 81 72 82 74 83 67 84 68 85 69 86 70 87 71 88
REMARK SMILES IDX 47 89 48 90 57 91 49 92 50 93 56 94 58 95 51 96 52 97 53 98
REMARK SMILES IDX 54 99 55 100
REMARK H PARENT 12 7 8 17 5 20 17 31 79 50 45 61
REMARK Flexibility Score: inf
ROOT
ATOM      1  C   UNL A   1      36.691  23.906  24.977  1.00  0.00     0.023 C 
ENDROOT
BRANCH   1   2
ATOM      2  C   UNL A   1      36.578  22.861  23.867  1.00  0.00     0.023 C 
BRANCH   2   3
ATOM      3  C   UNL A   1      35.435  23.136  22.897  1.00  0.00     0.116 C 
BRANCH   3   4
ATOM      4  N   UNL A   1      34.299  22.293  23.213  1.00  0.00    -0.354 N 
ATOM      5  C   UNL A   1      32.969  22.575  23.282  1.00  0.00     0.245 C 
ATOM      6  O   UNL A   1      32.239  21.656  23.671  1.00  0.00    -0.272 OA
ATOM      7  H   UNL A   1      34.528  21.356  23.410  1.00  0.00     0.163 HD
BRANCH   5   8
ATOM      8  C   UNL A   1      32.439  24.020  23.093  1.00  0.00     0.120 C 
ATOM      9  C   UNL A   1      31.316  23.132  27.064  1.00  0.00     0.007 C 
ATOM     10  C   UNL A   1      31.484  24.171  25.947  1.00  0.00    -0.014 C 
ATOM     11  C   UNL A   1      30.515  23.828  24.798  1.00  0.00     0.006 C 
ATOM     12  C   UNL A   1      32.969  24.297  25.567  1.00  0.00     0.006 C 
ATOM     13  C   UNL A   1      30.950  24.267  23.404  1.00  0.00     0.039 C 
ATOM     14  C   UNL A   1      33.203  24.859  24.159  1.00  0.00     0.039 C 
BRANCH   8  15
ATOM     15  N   UNL A   1      32.725  24.492  21.726  1.00  0.00    -0.324 N 
ATOM     16  C   UNL A   1      32.518  25.643  21.060  1.00  0.00     0.315 C 
ATOM     17  H   UNL A   1      33.172  23.810  21.173  1.00  0.00     0.166 HD
ATOM     18  O   UNL A   1      33.047  25.734  19.947  1.00  0.00    -0.249 OA
ATOM     19  N   UNL A   1      31.743  26.670  21.471  1.00  0.00    -0.334 N 
ATOM     20  H   UNL A   1      31.658  27.372  20.786  1.00  0.00     0.165 HD
BRANCH  19  21
ATOM     21  C   UNL A   1      31.018  26.979  22.665  1.00  0.00     0.096 C 
ATOM     22  C   UNL A   1      31.483  28.029  23.669  1.00  0.00    -0.007 C 
ATOM     23  C   UNL A   1      30.210  28.270  22.853  1.00  0.00    -0.007 C 
ATOM     24  C   UNL A   1      31.363  27.641  25.132  1.00  0.00     0.014 C 
ATOM     25  C   UNL A   1      32.673  28.925  23.421  1.00  0.00     0.014 C 
ATOM     26  C   UNL A   1      30.214  29.344  21.789  1.00  0.00     0.014 C 
ATOM     27  C   UNL A   1      28.882  28.242  23.586  1.00  0.00     0.014 C 
ENDBRANCH  19  21
ENDBRANCH   8  15
ENDBRANCH   5   8
ENDBRANCH   3   4
ENDBRANCH   2   3
ENDBRANCH   1   2
BRANCH   1  28
ATOM     28  C   UNL A   1      36.965  23.311  26.354  1.00  0.00     0.116 C 
BRANCH  28  29
ATOM     29  N   UNL A   1      37.892  22.197  26.284  1.00  0.00    -0.352 N 
ATOM     30  C   UNL A   1      39.257  22.215  26.381  1.00  0.00     0.251 C 
ATOM     31  H   UNL A   1      37.484  21.311  26.149  1.00  0.00     0.163 HD
ATOM     32  O   UNL A   1      39.907  21.215  26.077  1.00  0.00    -0.269 OA
BRANCH  30  33
ATOM     33  C   UNL A   1      39.946  23.443  26.828  1.00  0.00     0.039 A 
ATOM     34  C   UNL A   1      39.853  24.590  26.039  1.00  0.00     0.014 A 
ATOM     35  C   UNL A   1      40.688  23.463  28.015  1.00  0.00     0.014 A 
ATOM     36  C   UNL A   1      40.475  25.767  26.457  1.00  0.00     0.010 A 
ATOM     37  C   UNL A   1      41.246  24.657  28.465  1.00  0.00     0.010 A 
ATOM     38  C   UNL A   1      41.158  25.818  27.683  1.00  0.00    -0.014 A 
BRANCH  38  39
ATOM     39  C   UNL A   1      41.796  27.080  28.142  1.00  0.00     0.031 A 
ATOM     40  C   UNL A   1      43.274  27.293  27.951  1.00  0.00     0.074 A 
ATOM     41  C   UNL A   1      41.049  28.023  28.748  1.00  0.00     0.049 A 
ATOM     42  N   UNL A   1      44.009  28.321  28.292  1.00  0.00    -0.248 NA
ATOM     43  C   UNL A   1      44.028  26.204  27.311  1.00  0.00     0.031 C 
ATOM     44  C   UNL A   1      39.615  27.917  29.025  1.00  0.00     0.029 A 
ATOM     45  N   UNL A   1      41.391  29.257  29.245  1.00  0.00    -0.354 N 
ATOM     46  C   UNL A   1      45.308  28.002  27.915  1.00  0.00     0.074 A 
ATOM     47  C   UNL A   1      45.271  26.663  27.370  1.00  0.00     0.031 C 
ATOM     48  C   UNL A   1      39.195  29.047  29.615  1.00  0.00     0.029 A 
ATOM     49  C   UNL A   1      40.334  29.943  29.797  1.00  0.00     0.049 A 
ATOM     50  H   UNL A   1      42.307  29.616  29.209  1.00  0.00     0.167 HD
ATOM     51  C   UNL A   1      46.426  28.764  27.992  1.00  0.00     0.037 A 
ATOM     52  C   UNL A   1      40.289  31.153  30.387  1.00  0.00     0.037 A 
ATOM     53  C   UNL A   1      46.453  30.103  28.523  1.00  0.00     0.049 A 
ATOM     54  C   UNL A   1      41.547  31.973  30.480  1.00  0.00     0.074 A 
ATOM     55  C   UNL A   1      47.525  30.975  28.599  1.00  0.00     0.029 A 
ATOM     56  N   UNL A   1      45.363  30.762  29.072  1.00  0.00    -0.354 N 
ATOM     57  N   UNL A   1      42.755  31.680  30.058  1.00  0.00    -0.248 NA
ATOM     58  C   UNL A   1      41.438  33.290  31.122  1.00  0.00     0.031 C 
ATOM     59  C   UNL A   1      47.097  32.140  29.243  1.00  0.00     0.029 A 
ATOM     60  C   UNL A   1      45.743  32.020  29.514  1.00  0.00     0.049 A 
ATOM     61  H   UNL A   1      44.453  30.392  29.139  1.00  0.00     0.167 HD
ATOM     62  C   UNL A   1      43.541  32.788  30.358  1.00  0.00     0.074 A 
ATOM     63  C   UNL A   1      42.670  33.760  30.984  1.00  0.00     0.031 C 
ATOM     64  C   UNL A   1      44.864  32.982  30.133  1.00  0.00     0.037 A 
BRANCH  51  65
ATOM     65  C   UNL A   1      47.716  28.168  27.494  1.00  0.00     0.058 A 
ATOM     66  C   UNL A   1      48.623  27.539  28.363  1.00  0.00     0.135 A 
ATOM     67  C   UNL A   1      48.029  28.189  26.126  1.00  0.00     0.135 A 
ATOM     68  F   UNL A   1      48.381  27.501  29.683  1.00  0.00    -0.206 F 
ATOM     69  C   UNL A   1      49.808  26.978  27.897  1.00  0.00     0.059 A 
ATOM     70  C   UNL A   1      49.194  27.608  25.633  1.00  0.00     0.059 A 
ATOM     71  F   UNL A   1      47.199  28.776  25.250  1.00  0.00    -0.206 F 
ATOM     72  C   UNL A   1      50.085  27.017  26.529  1.00  0.00     0.060 A 
BRANCH  72  73
ATOM     73  S   UNL A   1      51.623  26.280  25.940  1.00  0.00     0.124 S 
ATOM     74  O   UNL A   1      51.507  24.917  26.451  1.00  0.00    -0.237 OA
ATOM     75  O   UNL A   1      51.503  26.424  24.492  1.00  0.00    -0.237 OA
ATOM     76  O   UNL A   1      52.656  27.099  26.565  1.00  0.00    -0.744 OA
ENDBRANCH  72  73
ENDBRANCH  51  65
BRANCH  52  77
ATOM     77  C   UNL A   1      39.000  31.668  30.924  1.00  0.00     0.058 A 
ATOM     78  C   UNL A   1      38.668  31.520  32.280  1.00  0.00     0.135 A 
ATOM     79  C   UNL A   1      38.077  32.325  30.095  1.00  0.00     0.135 A 
ATOM     80  F   UNL A   1      39.513  30.893  33.112  1.00  0.00    -0.206 F 
ATOM     81  C   UNL A   1      37.462  31.989  32.791  1.00  0.00     0.059 A 
ATOM     82  C   UNL A   1      36.878  32.828  30.588  1.00  0.00     0.059 A 
ATOM     83  F   UNL A   1      38.352  32.507  28.795  1.00  0.00    -0.206 F 
ATOM     84  C   UNL A   1      36.575  32.645  31.937  1.00  0.00     0.060 A 
BRANCH  84  85
ATOM     85  S   UNL A   1      35.033  33.290  32.621  1.00  0.00     0.124 S 
ATOM     86  O   UNL A   1      35.164  32.936  34.029  1.00  0.00    -0.237 OA
ATOM     87  O   UNL A   1      35.131  34.712  32.307  1.00  0.00    -0.237 OA
ATOM     88  O   UNL A   1      34.007  32.562  31.880  1.00  0.00    -0.744 OA
ENDBRANCH  84  85
ENDBRANCH  52  77
BRANCH  64  89
ATOM     89  C   UNL A   1      45.451  34.310  30.531  1.00  0.00     0.058 A 
ATOM     90  C   UNL A   1      45.997  34.525  31.807  1.00  0.00     0.135 A 
ATOM     91  C   UNL A   1      45.513  35.365  29.606  1.00  0.00     0.135 A 
ATOM     92  F   UNL A   1      45.959  33.554  32.732  1.00  0.00    -0.206 F 
ATOM     93  C   UNL A   1      46.562  35.747  32.157  1.00  0.00     0.059 A 
ATOM     94  C   UNL A   1      46.102  36.584  29.926  1.00  0.00     0.059 A 
ATOM     95  F   UNL A   1      45.015  35.209  28.369  1.00  0.00    -0.206 F 
ATOM     96  C   UNL A   1      46.613  36.770  31.208  1.00  0.00     0.060 A 
BRANCH  96  97
ATOM     97  S   UNL A   1      47.381  38.338  31.667  1.00  0.00     0.124 S 
ATOM     98  O   UNL A   1      46.633  38.692  32.868  1.00  0.00    -0.237 OA
ATOM     99  O   UNL A   1      48.774  37.954  31.877  1.00  0.00    -0.237 OA
ATOM    100  O   UNL A   1      47.140  39.189  30.504  1.00  0.00    -0.744 OA
ENDBRANCH  96  97
ENDBRANCH  64  89
ENDBRANCH  38  39
ENDBRANCH  30  33
ENDBRANCH  28  29
ENDBRANCH   1  28
TORSDOF 16
ENDMDL
