MODEL 1
REMARK VINA RESULT:     -10.3      0.000      0.000
REMARK SMILES C=CCCC[C@@]1(C(=O)NCCCCNC(=O)c2ccc(-c3c4nc(c(-c5c(F)cc(S(=O)(=O)[O-])cc5F)c5ccc([nH]5)c(-c5c(F)cc(S(=O)(=O)[O-])cc5F)c5nc(c(-c6c(F)cc(S(=O)(=O)[O-])cc6F)c6ccc3[nH]6)C=C5)C=C4)cc2)CC[C@H](C)C1
REMARK SMILES IDX 11 1 10 2 9 3 7 4 8 5 6 7 83 8 87 9 84 10 85 11 86 12 5 13
REMARK SMILES IDX 4 14 3 15 2 16 1 17 12 18 13 19 14 20 15 21 16 23 17 24
REMARK SMILES IDX 18 25 82 26 19 27 81 28 20 29 21 30 22 31 75 32 23 33 80 34
REMARK SMILES IDX 74 35 76 36 24 37 79 38 73 39 72 40 25 42 59 43 38 44 58 45
REMARK SMILES IDX 39 46 42 47 57 48 77 49 40 50 41 51 56 53 78 54 43 55 26 56
REMARK SMILES IDX 27 57 36 58 28 59 29 60 35 61 37 62 30 63 31 64 32 65 33 66
REMARK SMILES IDX 34 67 60 68 61 69 70 70 62 71 63 72 69 73 71 74 64 75 65 76
REMARK SMILES IDX 66 77 67 78 68 79 44 80 45 81 54 82 46 83 47 84 53 85 55 86
REMARK SMILES IDX 48 87 49 88 50 89 51 90 52 91
REMARK H PARENT 9 6 14 22 76 41 42 52
REMARK Flexibility Score: inf
ROOT
ATOM      1  C   UNL A   1      33.986  26.525  25.545  1.00  0.00     0.023 C 
ENDROOT
BRANCH   1   2
ATOM      2  C   UNL A   1      32.850  25.630  25.032  1.00  0.00     0.116 C 
BRANCH   2   3
ATOM      3  N   UNL A   1      32.281  24.843  26.109  1.00  0.00    -0.356 N 
ATOM      4  C   UNL A   1      32.434  23.555  26.509  1.00  0.00     0.226 C 
ATOM      5  O   UNL A   1      31.646  23.189  27.391  1.00  0.00    -0.274 OA
ATOM      6  H   UNL A   1      31.649  25.351  26.668  1.00  0.00     0.163 HD
BRANCH   4   7
ATOM      7  C   UNL A   1      33.469  22.557  25.924  1.00  0.00     0.049 C 
ATOM      8  C   UNL A   1      34.834  22.933  26.589  1.00  0.00     0.017 C 
ATOM      9  C   UNL A   1      33.847  22.776  24.452  1.00  0.00     0.020 C 
ATOM     10  C   UNL A   1      35.914  22.335  25.701  1.00  0.00     0.004 C 
ATOM     11  C   UNL A   1      35.301  22.293  24.300  1.00  0.00    -0.013 C 
ATOM     12  C   UNL A   1      36.100  23.126  23.307  1.00  0.00     0.007 C 
BRANCH   7  13
ATOM     13  C   UNL A   1      33.170  21.084  26.329  1.00  0.00     0.017 C 
BRANCH  13  14
ATOM     14  C   UNL A   1      32.636  20.118  25.277  1.00  0.00     0.005 C 
BRANCH  14  15
ATOM     15  C   UNL A   1      33.614  19.074  24.735  1.00  0.00     0.027 C 
BRANCH  15  16
ATOM     16  C   UNL A   1      32.906  17.768  24.509  1.00  0.00    -0.035 C 
ATOM     17  C   UNL A   1      33.226  16.618  25.118  1.00  0.00     0.004 C 
ENDBRANCH  15  16
ENDBRANCH  14  15
ENDBRANCH  13  14
ENDBRANCH   7  13
ENDBRANCH   4   7
ENDBRANCH   2   3
ENDBRANCH   1   2
BRANCH   1  18
ATOM     18  C   UNL A   1      33.621  27.970  25.845  1.00  0.00     0.023 C 
BRANCH  18  19
ATOM     19  C   UNL A   1      33.446  28.301  27.314  1.00  0.00     0.116 C 
BRANCH  19  20
ATOM     20  N   UNL A   1      33.361  29.728  27.598  1.00  0.00    -0.352 N 
ATOM     21  C   UNL A   1      34.358  30.568  28.040  1.00  0.00     0.251 C 
ATOM     22  H   UNL A   1      32.479  30.143  27.457  1.00  0.00     0.163 HD
ATOM     23  O   UNL A   1      34.112  31.741  28.303  1.00  0.00    -0.269 OA
BRANCH  21  24
ATOM     24  C   UNL A   1      35.715  30.018  28.235  1.00  0.00     0.039 A 
ATOM     25  C   UNL A   1      36.629  30.067  27.180  1.00  0.00     0.014 A 
ATOM     26  C   UNL A   1      36.105  29.538  29.488  1.00  0.00     0.014 A 
ATOM     27  C   UNL A   1      37.959  29.705  27.407  1.00  0.00     0.010 A 
ATOM     28  C   UNL A   1      37.445  29.281  29.737  1.00  0.00     0.010 A 
ATOM     29  C   UNL A   1      38.384  29.347  28.696  1.00  0.00    -0.014 A 
BRANCH  29  30
ATOM     30  C   UNL A   1      39.792  28.979  28.983  1.00  0.00     0.031 A 
ATOM     31  C   UNL A   1      40.703  30.002  29.608  1.00  0.00     0.074 A 
ATOM     32  C   UNL A   1      40.271  27.775  28.612  1.00  0.00     0.049 A 
ATOM     33  N   UNL A   1      41.990  29.945  29.822  1.00  0.00    -0.248 NA
ATOM     34  C   UNL A   1      40.087  31.283  30.002  1.00  0.00     0.031 C 
ATOM     35  C   UNL A   1      39.502  26.723  27.941  1.00  0.00     0.029 A 
ATOM     36  N   UNL A   1      41.525  27.236  28.739  1.00  0.00    -0.354 N 
ATOM     37  C   UNL A   1      42.342  31.188  30.336  1.00  0.00     0.074 A 
ATOM     38  C   UNL A   1      41.145  31.999  30.347  1.00  0.00     0.031 C 
ATOM     39  C   UNL A   1      40.295  25.656  27.745  1.00  0.00     0.029 A 
ATOM     40  C   UNL A   1      41.633  25.957  28.246  1.00  0.00     0.049 A 
ATOM     41  H   UNL A   1      42.279  27.721  29.146  1.00  0.00     0.167 HD
ATOM     42  C   UNL A   1      43.545  31.608  30.791  1.00  0.00     0.037 A 
ATOM     43  C   UNL A   1      42.691  25.125  28.209  1.00  0.00     0.037 A 
ATOM     44  C   UNL A   1      44.714  30.773  30.842  1.00  0.00     0.049 A 
ATOM     45  C   UNL A   1      44.001  25.587  28.788  1.00  0.00     0.074 A 
ATOM     46  C   UNL A   1      45.970  31.075  31.335  1.00  0.00     0.029 A 
ATOM     47  N   UNL A   1      44.760  29.458  30.404  1.00  0.00    -0.354 N 
ATOM     48  N   UNL A   1      44.307  26.753  29.306  1.00  0.00    -0.248 NA
ATOM     49  C   UNL A   1      45.106  24.619  28.790  1.00  0.00     0.031 C 
ATOM     50  C   UNL A   1      46.780  29.944  31.186  1.00  0.00     0.029 A 
ATOM     51  C   UNL A   1      46.019  28.930  30.624  1.00  0.00     0.049 A 
ATOM     52  H   UNL A   1      44.007  28.971  29.995  1.00  0.00     0.167 HD
ATOM     53  C   UNL A   1      45.628  26.648  29.725  1.00  0.00     0.074 A 
ATOM     54  C   UNL A   1      46.062  25.303  29.404  1.00  0.00     0.031 C 
ATOM     55  C   UNL A   1      46.413  27.579  30.321  1.00  0.00     0.037 A 
BRANCH  42  56
ATOM     56  C   UNL A   1      43.638  33.020  31.294  1.00  0.00     0.058 A 
ATOM     57  C   UNL A   1      43.918  34.090  30.429  1.00  0.00     0.135 A 
ATOM     58  C   UNL A   1      43.449  33.310  32.655  1.00  0.00     0.135 A 
ATOM     59  F   UNL A   1      44.129  33.865  29.122  1.00  0.00    -0.206 F 
ATOM     60  C   UNL A   1      44.047  35.392  30.900  1.00  0.00     0.059 A 
ATOM     61  C   UNL A   1      43.545  34.610  33.143  1.00  0.00     0.059 A 
ATOM     62  F   UNL A   1      43.182  32.324  33.526  1.00  0.00    -0.206 F 
ATOM     63  C   UNL A   1      43.863  35.641  32.261  1.00  0.00     0.060 A 
BRANCH  63  64
ATOM     64  S   UNL A   1      44.043  37.334  32.861  1.00  0.00     0.124 S 
ATOM     65  O   UNL A   1      45.341  37.269  33.525  1.00  0.00    -0.237 OA
ATOM     66  O   UNL A   1      44.003  38.112  31.626  1.00  0.00    -0.237 OA
ATOM     67  O   UNL A   1      42.893  37.504  33.742  1.00  0.00    -0.744 OA
ENDBRANCH  63  64
ENDBRANCH  42  56
BRANCH  43  68
ATOM     68  C   UNL A   1      42.545  23.754  27.655  1.00  0.00     0.058 A 
ATOM     69  C   UNL A   1      42.392  22.650  28.509  1.00  0.00     0.135 A 
ATOM     70  C   UNL A   1      42.551  23.515  26.273  1.00  0.00     0.135 A 
ATOM     71  F   UNL A   1      42.383  22.828  29.839  1.00  0.00    -0.206 F 
ATOM     72  C   UNL A   1      42.273  21.355  28.015  1.00  0.00     0.059 A 
ATOM     73  C   UNL A   1      42.413  22.231  25.754  1.00  0.00     0.059 A 
ATOM     74  F   UNL A   1      42.674  24.538  25.415  1.00  0.00    -0.206 F 
ATOM     75  C   UNL A   1      42.288  21.156  26.634  1.00  0.00     0.060 A 
BRANCH  75  76
ATOM     76  S   UNL A   1      42.095  19.475  26.000  1.00  0.00     0.124 S 
ATOM     77  O   UNL A   1      42.928  19.517  24.803  1.00  0.00    -0.237 OA
ATOM     78  O   UNL A   1      42.602  18.666  27.104  1.00  0.00    -0.237 OA
ATOM     79  O   UNL A   1      40.657  19.370  25.767  1.00  0.00    -0.744 OA
ENDBRANCH  75  76
ENDBRANCH  43  68
BRANCH  55  80
ATOM     80  C   UNL A   1      47.800  27.160  30.714  1.00  0.00     0.058 A 
ATOM     81  C   UNL A   1      48.066  26.571  31.959  1.00  0.00     0.135 A 
ATOM     82  C   UNL A   1      48.862  27.297  29.807  1.00  0.00     0.135 A 
ATOM     83  F   UNL A   1      47.082  26.423  32.861  1.00  0.00    -0.206 F 
ATOM     84  C   UNL A   1      49.345  26.147  32.299  1.00  0.00     0.059 A 
ATOM     85  C   UNL A   1      50.144  26.861  30.117  1.00  0.00     0.059 A 
ATOM     86  F   UNL A   1      48.653  27.846  28.599  1.00  0.00    -0.206 F 
ATOM     87  C   UNL A   1      50.378  26.296  31.371  1.00  0.00     0.060 A 
BRANCH  87  88
ATOM     88  S   UNL A   1      52.029  25.707  31.807  1.00  0.00     0.124 S 
ATOM     89  O   UNL A   1      52.332  26.525  32.976  1.00  0.00    -0.237 OA
ATOM     90  O   UNL A   1      51.799  24.289  32.065  1.00  0.00    -0.237 OA
ATOM     91  O   UNL A   1      52.817  25.999  30.612  1.00  0.00    -0.744 OA
ENDBRANCH  87  88
ENDBRANCH  55  80
ENDBRANCH  29  30
ENDBRANCH  21  24
ENDBRANCH  19  20
ENDBRANCH  18  19
ENDBRANCH   1  18
TORSDOF 18
ENDMDL
MODEL 2
REMARK VINA RESULT:      -9.8      2.700      3.767
REMARK SMILES C=CCCC[C@@]1(C(=O)NCCCCNC(=O)c2ccc(-c3c4nc(c(-c5c(F)cc(S(=O)(=O)[O-])cc5F)c5ccc([nH]5)c(-c5c(F)cc(S(=O)(=O)[O-])cc5F)c5nc(c(-c6c(F)cc(S(=O)(=O)[O-])cc6F)c6ccc3[nH]6)C=C5)C=C4)cc2)CC[C@H](C)C1
REMARK SMILES IDX 11 1 10 2 9 3 7 4 8 5 6 7 83 8 87 9 84 10 85 11 86 12 5 13
REMARK SMILES IDX 4 14 3 15 2 16 1 17 12 18 13 19 14 20 15 21 16 23 17 24
REMARK SMILES IDX 18 25 82 26 19 27 81 28 20 29 21 30 22 31 75 32 23 33 80 34
REMARK SMILES IDX 74 35 76 36 24 37 79 38 73 39 72 40 25 42 59 43 38 44 58 45
REMARK SMILES IDX 39 46 42 47 57 48 77 49 40 50 41 51 56 53 78 54 43 55 26 56
REMARK SMILES IDX 27 57 36 58 28 59 29 60 35 61 37 62 30 63 31 64 32 65 33 66
REMARK SMILES IDX 34 67 60 68 61 69 70 70 62 71 63 72 69 73 71 74 64 75 65 76
REMARK SMILES IDX 66 77 67 78 68 79 44 80 45 81 54 82 46 83 47 84 53 85 55 86
REMARK SMILES IDX 48 87 49 88 50 89 51 90 52 91
REMARK H PARENT 9 6 14 22 76 41 42 52
REMARK Flexibility Score: inf
ROOT
ATOM      1  C   UNL A   1      34.018  26.351  25.388  1.00  0.00     0.023 C 
ENDROOT
BRANCH   1   2
ATOM      2  C   UNL A   1      32.937  25.312  25.061  1.00  0.00     0.116 C 
BRANCH   2   3
ATOM      3  N   UNL A   1      32.630  24.499  26.221  1.00  0.00    -0.356 N 
ATOM      4  C   UNL A   1      32.722  23.170  26.485  1.00  0.00     0.226 C 
ATOM      5  O   UNL A   1      32.205  22.815  27.552  1.00  0.00    -0.274 OA
ATOM      6  H   UNL A   1      32.279  25.021  26.979  1.00  0.00     0.163 HD
BRANCH   4   7
ATOM      7  C   UNL A   1      33.377  22.119  25.547  1.00  0.00     0.049 C 
ATOM      8  C   UNL A   1      32.287  21.774  24.481  1.00  0.00     0.017 C 
ATOM      9  C   UNL A   1      33.577  20.722  26.152  1.00  0.00     0.020 C 
ATOM     10  C   UNL A   1      32.694  20.439  23.879  1.00  0.00     0.004 C 
ATOM     11  C   UNL A   1      33.475  19.725  24.983  1.00  0.00    -0.013 C 
ATOM     12  C   UNL A   1      32.818  18.410  25.383  1.00  0.00     0.007 C 
BRANCH   7  13
ATOM     13  C   UNL A   1      34.594  22.695  24.767  1.00  0.00     0.017 C 
BRANCH  13  14
ATOM     14  C   UNL A   1      35.984  22.608  25.387  1.00  0.00     0.005 C 
BRANCH  14  15
ATOM     15  C   UNL A   1      36.982  23.702  25.008  1.00  0.00     0.027 C 
BRANCH  15  16
ATOM     16  C   UNL A   1      37.951  23.935  26.134  1.00  0.00    -0.035 C 
ATOM     17  C   UNL A   1      38.906  23.070  26.501  1.00  0.00     0.004 C 
ENDBRANCH  15  16
ENDBRANCH  14  15
ENDBRANCH  13  14
ENDBRANCH   7  13
ENDBRANCH   4   7
ENDBRANCH   2   3
ENDBRANCH   1   2
BRANCH   1  18
ATOM     18  C   UNL A   1      33.560  27.798  25.464  1.00  0.00     0.023 C 
BRANCH  18  19
ATOM     19  C   UNL A   1      33.513  28.389  26.859  1.00  0.00     0.116 C 
BRANCH  19  20
ATOM     20  N   UNL A   1      33.510  29.847  26.890  1.00  0.00    -0.352 N 
ATOM     21  C   UNL A   1      34.466  30.687  27.413  1.00  0.00     0.251 C 
ATOM     22  H   UNL A   1      32.725  30.284  26.487  1.00  0.00     0.163 HD
ATOM     23  O   UNL A   1      34.287  31.901  27.427  1.00  0.00    -0.269 OA
BRANCH  21  24
ATOM     24  C   UNL A   1      35.687  30.097  27.999  1.00  0.00     0.039 A 
ATOM     25  C   UNL A   1      36.870  30.100  27.256  1.00  0.00     0.014 A 
ATOM     26  C   UNL A   1      35.678  29.624  29.314  1.00  0.00     0.014 A 
ATOM     27  C   UNL A   1      38.062  29.698  27.863  1.00  0.00     0.010 A 
ATOM     28  C   UNL A   1      36.878  29.328  29.944  1.00  0.00     0.010 A 
ATOM     29  C   UNL A   1      38.080  29.347  29.222  1.00  0.00    -0.014 A 
BRANCH  29  30
ATOM     30  C   UNL A   1      39.330  28.938  29.909  1.00  0.00     0.031 A 
ATOM     31  C   UNL A   1      39.752  29.670  31.156  1.00  0.00     0.074 A 
ATOM     32  C   UNL A   1      40.118  27.983  29.378  1.00  0.00     0.049 A 
ATOM     33  N   UNL A   1      40.862  29.572  31.838  1.00  0.00    -0.248 NA
ATOM     34  C   UNL A   1      38.816  30.683  31.677  1.00  0.00     0.031 C 
ATOM     35  C   UNL A   1      39.848  27.246  28.140  1.00  0.00     0.029 A 
ATOM     36  N   UNL A   1      41.316  27.473  29.809  1.00  0.00    -0.354 N 
ATOM     37  C   UNL A   1      40.774  30.532  32.839  1.00  0.00     0.074 A 
ATOM     38  C   UNL A   1      39.530  31.242  32.641  1.00  0.00     0.031 C 
ATOM     39  C   UNL A   1      40.836  26.360  27.931  1.00  0.00     0.029 A 
ATOM     40  C   UNL A   1      41.823  26.485  28.999  1.00  0.00     0.049 A 
ATOM     41  H   UNL A   1      41.771  27.787  30.624  1.00  0.00     0.167 HD
ATOM     42  C   UNL A   1      41.634  30.780  33.855  1.00  0.00     0.037 A 
ATOM     43  C   UNL A   1      42.953  25.761  29.111  1.00  0.00     0.037 A 
ATOM     44  C   UNL A   1      42.833  30.024  34.086  1.00  0.00     0.049 A 
ATOM     45  C   UNL A   1      43.858  26.004  30.289  1.00  0.00     0.074 A 
ATOM     46  C   UNL A   1      43.749  30.150  35.114  1.00  0.00     0.029 A 
ATOM     47  N   UNL A   1      43.271  28.979  33.285  1.00  0.00    -0.354 N 
ATOM     48  N   UNL A   1      43.741  26.891  31.249  1.00  0.00    -0.248 NA
ATOM     49  C   UNL A   1      45.042  25.142  30.408  1.00  0.00     0.031 C 
ATOM     50  C   UNL A   1      44.747  29.187  34.930  1.00  0.00     0.029 A 
ATOM     51  C   UNL A   1      44.436  28.444  33.801  1.00  0.00     0.049 A 
ATOM     52  H   UNL A   1      42.818  28.665  32.468  1.00  0.00     0.167 HD
ATOM     53  C   UNL A   1      44.816  26.672  32.103  1.00  0.00     0.074 A 
ATOM     54  C   UNL A   1      45.570  25.565  31.548  1.00  0.00     0.031 C 
ATOM     55  C   UNL A   1      45.150  27.324  33.243  1.00  0.00     0.037 A 
BRANCH  42  56
ATOM     56  C   UNL A   1      41.283  31.894  34.800  1.00  0.00     0.058 A 
ATOM     57  C   UNL A   1      40.433  31.685  35.897  1.00  0.00     0.135 A 
ATOM     58  C   UNL A   1      41.798  33.186  34.607  1.00  0.00     0.135 A 
ATOM     59  F   UNL A   1      39.895  30.474  36.114  1.00  0.00    -0.206 F 
ATOM     60  C   UNL A   1      40.072  32.724  36.748  1.00  0.00     0.059 A 
ATOM     61  C   UNL A   1      41.475  34.235  35.463  1.00  0.00     0.059 A 
ATOM     62  F   UNL A   1      42.614  33.441  33.572  1.00  0.00    -0.206 F 
ATOM     63  C   UNL A   1      40.596  33.998  36.519  1.00  0.00     0.060 A 
BRANCH  63  64
ATOM     64  S   UNL A   1      40.114  35.341  37.625  1.00  0.00     0.124 S 
ATOM     65  O   UNL A   1      41.285  35.438  38.490  1.00  0.00    -0.237 OA
ATOM     66  O   UNL A   1      39.916  36.454  36.701  1.00  0.00    -0.237 OA
ATOM     67  O   UNL A   1      38.902  34.835  38.261  1.00  0.00    -0.744 OA
ENDBRANCH  63  64
ENDBRANCH  42  56
BRANCH  43  68
ATOM     68  C   UNL A   1      43.267  24.704  28.116  1.00  0.00     0.058 A 
ATOM     69  C   UNL A   1      43.951  25.018  26.931  1.00  0.00     0.135 A 
ATOM     70  C   UNL A   1      42.899  23.366  28.323  1.00  0.00     0.135 A 
ATOM     71  F   UNL A   1      44.321  26.285  26.687  1.00  0.00    -0.206 F 
ATOM     72  C   UNL A   1      44.238  24.049  25.975  1.00  0.00     0.059 A 
ATOM     73  C   UNL A   1      43.194  22.375  27.392  1.00  0.00     0.059 A 
ATOM     74  F   UNL A   1      42.261  23.012  29.449  1.00  0.00    -0.206 F 
ATOM     75  C   UNL A   1      43.853  22.730  26.214  1.00  0.00     0.060 A 
BRANCH  75  76
ATOM     76  S   UNL A   1      44.265  21.470  24.985  1.00  0.00     0.124 S 
ATOM     77  O   UNL A   1      45.619  21.102  25.385  1.00  0.00    -0.237 OA
ATOM     78  O   UNL A   1      43.234  20.463  25.216  1.00  0.00    -0.237 OA
ATOM     79  O   UNL A   1      44.153  22.191  23.720  1.00  0.00    -0.744 OA
ENDBRANCH  75  76
ENDBRANCH  43  68
BRANCH  55  80
ATOM     80  C   UNL A   1      46.350  26.827  33.994  1.00  0.00     0.058 A 
ATOM     81  C   UNL A   1      46.247  25.820  34.965  1.00  0.00     0.135 A 
ATOM     82  C   UNL A   1      47.627  27.326  33.693  1.00  0.00     0.135 A 
ATOM     83  F   UNL A   1      45.045  25.316  35.289  1.00  0.00    -0.206 F 
ATOM     84  C   UNL A   1      47.369  25.335  35.626  1.00  0.00     0.059 A 
ATOM     85  C   UNL A   1      48.765  26.842  34.327  1.00  0.00     0.059 A 
ATOM     86  F   UNL A   1      47.777  28.284  32.763  1.00  0.00    -0.206 F 
ATOM     87  C   UNL A   1      48.624  25.852  35.300  1.00  0.00     0.060 A 
BRANCH  87  88
ATOM     88  S   UNL A   1      50.081  25.189  36.136  1.00  0.00     0.124 S 
ATOM     89  O   UNL A   1      50.812  26.408  36.461  1.00  0.00    -0.237 OA
ATOM     90  O   UNL A   1      49.496  24.478  37.269  1.00  0.00    -0.237 OA
ATOM     91  O   UNL A   1      50.694  24.338  35.121  1.00  0.00    -0.744 OA
ENDBRANCH  87  88
ENDBRANCH  55  80
ENDBRANCH  29  30
ENDBRANCH  21  24
ENDBRANCH  19  20
ENDBRANCH  18  19
ENDBRANCH   1  18
TORSDOF 18
ENDMDL
MODEL 3
REMARK VINA RESULT:      -9.8      4.668      6.294
REMARK SMILES C=CCCC[C@@]1(C(=O)NCCCCNC(=O)c2ccc(-c3c4nc(c(-c5c(F)cc(S(=O)(=O)[O-])cc5F)c5ccc([nH]5)c(-c5c(F)cc(S(=O)(=O)[O-])cc5F)c5nc(c(-c6c(F)cc(S(=O)(=O)[O-])cc6F)c6ccc3[nH]6)C=C5)C=C4)cc2)CC[C@H](C)C1
REMARK SMILES IDX 11 1 10 2 9 3 7 4 8 5 6 7 83 8 87 9 84 10 85 11 86 12 5 13
REMARK SMILES IDX 4 14 3 15 2 16 1 17 12 18 13 19 14 20 15 21 16 23 17 24
REMARK SMILES IDX 18 25 82 26 19 27 81 28 20 29 21 30 22 31 75 32 23 33 80 34
REMARK SMILES IDX 74 35 76 36 24 37 79 38 73 39 72 40 25 42 59 43 38 44 58 45
REMARK SMILES IDX 39 46 42 47 57 48 77 49 40 50 41 51 56 53 78 54 43 55 26 56
REMARK SMILES IDX 27 57 36 58 28 59 29 60 35 61 37 62 30 63 31 64 32 65 33 66
REMARK SMILES IDX 34 67 60 68 61 69 70 70 62 71 63 72 69 73 71 74 64 75 65 76
REMARK SMILES IDX 66 77 67 78 68 79 44 80 45 81 54 82 46 83 47 84 53 85 55 86
REMARK SMILES IDX 48 87 49 88 50 89 51 90 52 91
REMARK H PARENT 9 6 14 22 76 41 42 52
REMARK Flexibility Score: inf
ROOT
ATOM      1  C   UNL A   1      34.829  30.869  27.878  1.00  0.00     0.023 C 
ENDROOT
BRANCH   1   2
ATOM      2  C   UNL A   1      34.604  29.406  27.474  1.00  0.00     0.116 C 
BRANCH   2   3
ATOM      3  N   UNL A   1      33.286  28.953  27.874  1.00  0.00    -0.356 N 
ATOM      4  C   UNL A   1      32.382  28.101  27.327  1.00  0.00     0.226 C 
ATOM      5  O   UNL A   1      31.277  28.087  27.885  1.00  0.00    -0.274 OA
ATOM      6  H   UNL A   1      32.981  29.348  28.723  1.00  0.00     0.163 HD
BRANCH   4   7
ATOM      7  C   UNL A   1      32.637  27.214  26.078  1.00  0.00     0.049 C 
ATOM      8  C   UNL A   1      31.643  26.014  26.210  1.00  0.00     0.017 C 
ATOM      9  C   UNL A   1      33.960  26.436  26.073  1.00  0.00     0.020 C 
ATOM     10  C   UNL A   1      32.189  24.915  25.313  1.00  0.00     0.004 C 
ATOM     11  C   UNL A   1      33.701  25.144  25.275  1.00  0.00    -0.013 C 
ATOM     12  C   UNL A   1      34.470  23.948  25.819  1.00  0.00     0.007 C 
BRANCH   7  13
ATOM     13  C   UNL A   1      32.279  27.941  24.749  1.00  0.00     0.017 C 
BRANCH  13  14
ATOM     14  C   UNL A   1      30.824  27.995  24.299  1.00  0.00     0.005 C 
BRANCH  14  15
ATOM     15  C   UNL A   1      30.556  27.841  22.801  1.00  0.00     0.027 C 
BRANCH  15  16
ATOM     16  C   UNL A   1      30.860  26.437  22.361  1.00  0.00    -0.035 C 
ATOM     17  C   UNL A   1      31.868  26.102  21.544  1.00  0.00     0.004 C 
ENDBRANCH  15  16
ENDBRANCH  14  15
ENDBRANCH  13  14
ENDBRANCH   7  13
ENDBRANCH   4   7
ENDBRANCH   2   3
ENDBRANCH   1   2
BRANCH   1  18
ATOM     18  C   UNL A   1      33.614  31.780  27.813  1.00  0.00     0.023 C 
BRANCH  18  19
ATOM     19  C   UNL A   1      33.892  33.196  27.348  1.00  0.00     0.116 C 
BRANCH  19  20
ATOM     20  N   UNL A   1      33.124  34.217  28.052  1.00  0.00    -0.352 N 
ATOM     21  C   UNL A   1      33.316  34.693  29.329  1.00  0.00     0.251 C 
ATOM     22  H   UNL A   1      32.376  34.614  27.551  1.00  0.00     0.163 HD
ATOM     23  O   UNL A   1      32.538  35.511  29.811  1.00  0.00    -0.269 OA
BRANCH  21  24
ATOM     24  C   UNL A   1      34.445  34.167  30.123  1.00  0.00     0.039 A 
ATOM     25  C   UNL A   1      34.194  33.227  31.124  1.00  0.00     0.014 A 
ATOM     26  C   UNL A   1      35.755  34.540  29.813  1.00  0.00     0.014 A 
ATOM     27  C   UNL A   1      35.269  32.602  31.763  1.00  0.00     0.010 A 
ATOM     28  C   UNL A   1      36.817  33.843  30.372  1.00  0.00     0.010 A 
ATOM     29  C   UNL A   1      36.586  32.878  31.364  1.00  0.00    -0.014 A 
BRANCH  29  30
ATOM     30  C   UNL A   1      37.752  32.218  32.001  1.00  0.00     0.031 A 
ATOM     31  C   UNL A   1      38.208  32.688  33.357  1.00  0.00     0.074 A 
ATOM     32  C   UNL A   1      38.443  31.270  31.338  1.00  0.00     0.049 A 
ATOM     33  N   UNL A   1      39.272  32.351  34.036  1.00  0.00    -0.248 NA
ATOM     34  C   UNL A   1      37.377  33.713  34.016  1.00  0.00     0.031 C 
ATOM     35  C   UNL A   1      38.137  30.775  29.993  1.00  0.00     0.029 A 
ATOM     36  N   UNL A   1      39.557  30.558  31.706  1.00  0.00    -0.354 N 
ATOM     37  C   UNL A   1      39.258  33.145  35.176  1.00  0.00     0.074 A 
ATOM     38  C   UNL A   1      38.114  34.023  35.070  1.00  0.00     0.031 C 
ATOM     39  C   UNL A   1      39.022  29.820  29.664  1.00  0.00     0.029 A 
ATOM     40  C   UNL A   1      39.975  29.655  30.757  1.00  0.00     0.049 A 
ATOM     41  H   UNL A   1      40.013  30.682  32.569  1.00  0.00     0.167 HD
ATOM     42  C   UNL A   1      40.101  33.125  36.235  1.00  0.00     0.037 A 
ATOM     43  C   UNL A   1      41.008  28.791  30.774  1.00  0.00     0.037 A 
ATOM     44  C   UNL A   1      41.194  32.202  36.365  1.00  0.00     0.049 A 
ATOM     45  C   UNL A   1      41.889  28.734  31.993  1.00  0.00     0.074 A 
ATOM     46  C   UNL A   1      42.079  32.053  37.418  1.00  0.00     0.029 A 
ATOM     47  N   UNL A   1      41.538  31.251  35.415  1.00  0.00    -0.354 N 
ATOM     48  N   UNL A   1      41.839  29.467  33.080  1.00  0.00    -0.248 NA
ATOM     49  C   UNL A   1      42.959  27.728  31.994  1.00  0.00     0.031 C 
ATOM     50  C   UNL A   1      42.964  31.018  37.101  1.00  0.00     0.029 A 
ATOM     51  C   UNL A   1      42.612  30.505  35.861  1.00  0.00     0.049 A 
ATOM     52  H   UNL A   1      41.083  31.126  34.550  1.00  0.00     0.167 HD
ATOM     53  C   UNL A   1      42.848  28.988  33.908  1.00  0.00     0.074 A 
ATOM     54  C   UNL A   1      43.489  27.899  33.198  1.00  0.00     0.031 C 
ATOM     55  C   UNL A   1      43.211  29.408  35.145  1.00  0.00     0.037 A 
BRANCH  42  56
ATOM     56  C   UNL A   1      39.846  34.110  37.339  1.00  0.00     0.058 A 
ATOM     57  C   UNL A   1      40.321  35.430  37.270  1.00  0.00     0.135 A 
ATOM     58  C   UNL A   1      39.121  33.735  38.482  1.00  0.00     0.135 A 
ATOM     59  F   UNL A   1      41.039  35.834  36.210  1.00  0.00    -0.206 F 
ATOM     60  C   UNL A   1      40.124  36.331  38.311  1.00  0.00     0.059 A 
ATOM     61  C   UNL A   1      38.886  34.628  39.523  1.00  0.00     0.059 A 
ATOM     62  F   UNL A   1      38.646  32.485  38.601  1.00  0.00    -0.206 F 
ATOM     63  C   UNL A   1      39.408  35.918  39.436  1.00  0.00     0.060 A 
BRANCH  63  64
ATOM     64  S   UNL A   1      39.166  37.094  40.784  1.00  0.00     0.124 S 
ATOM     65  O   UNL A   1      38.301  38.085  40.151  1.00  0.00    -0.237 OA
ATOM     66  O   UNL A   1      38.537  36.270  41.812  1.00  0.00    -0.237 OA
ATOM     67  O   UNL A   1      40.520  37.544  41.087  1.00  0.00    -0.744 OA
ENDBRANCH  63  64
ENDBRANCH  42  56
BRANCH  43  68
ATOM     68  C   UNL A   1      41.235  27.873  29.628  1.00  0.00     0.058 A 
ATOM     69  C   UNL A   1      42.341  28.047  28.781  1.00  0.00     0.135 A 
ATOM     70  C   UNL A   1      40.364  26.808  29.355  1.00  0.00     0.135 A 
ATOM     71  F   UNL A   1      43.201  29.054  28.999  1.00  0.00    -0.206 F 
ATOM     72  C   UNL A   1      42.563  27.212  27.690  1.00  0.00     0.059 A 
ATOM     73  C   UNL A   1      40.577  25.947  28.283  1.00  0.00     0.059 A 
ATOM     74  F   UNL A   1      39.304  26.588  30.148  1.00  0.00    -0.206 F 
ATOM     75  C   UNL A   1      41.673  26.166  27.448  1.00  0.00     0.060 A 
BRANCH  75  76
ATOM     76  S   UNL A   1      41.991  25.063  26.052  1.00  0.00     0.124 S 
ATOM     77  O   UNL A   1      41.585  25.895  24.924  1.00  0.00    -0.237 OA
ATOM     78  O   UNL A   1      43.423  24.809  26.177  1.00  0.00    -0.237 OA
ATOM     79  O   UNL A   1      41.134  23.915  26.333  1.00  0.00    -0.744 OA
ENDBRANCH  75  76
ENDBRANCH  43  68
BRANCH  55  80
ATOM     80  C   UNL A   1      44.316  28.657  35.830  1.00  0.00     0.058 A 
ATOM     81  C   UNL A   1      44.055  27.554  36.656  1.00  0.00     0.135 A 
ATOM     82  C   UNL A   1      45.655  29.013  35.605  1.00  0.00     0.135 A 
ATOM     83  F   UNL A   1      42.789  27.180  36.903  1.00  0.00    -0.206 F 
ATOM     84  C   UNL A   1      45.086  26.839  37.253  1.00  0.00     0.059 A 
ATOM     85  C   UNL A   1      46.703  28.299  36.175  1.00  0.00     0.059 A 
ATOM     86  F   UNL A   1      45.955  30.056  34.813  1.00  0.00    -0.206 F 
ATOM     87  C   UNL A   1      46.407  27.219  37.006  1.00  0.00     0.060 A 
BRANCH  87  88
ATOM     88  S   UNL A   1      47.741  26.259  37.755  1.00  0.00     0.124 S 
ATOM     89  O   UNL A   1      48.659  27.311  38.174  1.00  0.00    -0.237 OA
ATOM     90  O   UNL A   1      47.053  25.550  38.830  1.00  0.00    -0.237 OA
ATOM     91  O   UNL A   1      48.208  25.417  36.656  1.00  0.00    -0.744 OA
ENDBRANCH  87  88
ENDBRANCH  55  80
ENDBRANCH  29  30
ENDBRANCH  21  24
ENDBRANCH  19  20
ENDBRANCH  18  19
ENDBRANCH   1  18
TORSDOF 18
ENDMDL
