MODEL 1
REMARK VINA RESULT:     -13.0      0.000      0.000
REMARK SMILES C[C@@H]1CC[C@H](C)[N@H+]1Cc1cc2c(cc1Cl)C=C(C(=O)NCCCCNC(=O)c1ccc(-c3c4nc(c(-c5c(F)cc(S(=O)(=O)[O-])cc5F)c5ccc([nH]5)c(-c5c(F)cc(S(=O)(=O)[O-])cc5F)c5nc(c(-c6c(F)cc(S(=O)(=O)[O-])cc6F)c6ccc3[nH]6)C=C5)C=C4)cc1)[C@@H](C(F)(F)F)O2
REMARK SMILES IDX 23 1 22 2 21 3 20 4 18 5 19 6 17 8 9 9 10 10 14 11 11 12
REMARK SMILES IDX 13 13 15 14 12 15 99 16 16 17 94 18 8 19 7 20 6 21 5 22 4 23
REMARK SMILES IDX 3 24 2 25 1 27 95 28 96 29 97 30 98 31 24 32 25 33 26 34
REMARK SMILES IDX 27 36 28 37 29 38 93 39 30 40 92 41 31 42 32 43 33 44 86 45
REMARK SMILES IDX 34 46 91 47 85 48 87 49 35 50 90 51 84 52 83 53 36 55 70 56
REMARK SMILES IDX 49 57 69 58 50 59 53 60 68 61 88 62 51 63 52 64 67 66 89 67
REMARK SMILES IDX 54 68 37 69 38 70 47 71 39 72 40 73 46 74 48 75 41 76 42 77
REMARK SMILES IDX 43 78 44 79 45 80 71 81 72 82 81 83 73 84 74 85 80 86 82 87
REMARK SMILES IDX 75 88 76 89 77 90 78 91 79 92 55 93 56 94 65 95 57 96 58 97
REMARK SMILES IDX 64 98 66 99 59 100 60 101 61 102 62 103 63 104
REMARK H PARENT 20 7 7 26 25 35 87 54 53 65
REMARK Flexibility Score: inf
ROOT
ATOM      1  C   UNL A   1      40.150  21.850  26.654  1.00  0.00     0.023 C 
ENDROOT
BRANCH   1   2
ATOM      2  C   UNL A   1      38.677  22.226  26.474  1.00  0.00     0.023 C 
BRANCH   2   3
ATOM      3  C   UNL A   1      38.139  21.997  25.065  1.00  0.00     0.116 C 
BRANCH   3   4
ATOM      4  N   UNL A   1      37.293  20.821  24.992  1.00  0.00    -0.352 N 
ATOM      5  C   UNL A   1      35.969  20.568  24.878  1.00  0.00     0.251 C 
ATOM      6  O   UNL A   1      35.661  19.372  24.828  1.00  0.00    -0.270 OA
ATOM      7  H   UNL A   1      37.820  19.991  25.037  1.00  0.00     0.163 HD
BRANCH   5   8
ATOM      8  C   UNL A   1      34.897  21.602  24.819  1.00  0.00     0.067 C 
ATOM      9  C   UNL A   1      31.845  25.338  23.308  1.00  0.00     0.029 A 
ATOM     10  C   UNL A   1      31.691  24.192  24.115  1.00  0.00     0.058 A 
ATOM     11  C   UNL A   1      33.130  25.620  22.812  1.00  0.00     0.050 A 
ATOM     12  C   UNL A   1      32.754  23.322  24.328  1.00  0.00     0.128 A 
ATOM     13  C   UNL A   1      34.181  24.709  22.983  1.00  0.00     0.033 A 
ATOM     14  Cl  UNL A   1      33.521  27.111  22.028  1.00  0.00    -0.084 Cl
ATOM     15  C   UNL A   1      33.986  23.543  23.720  1.00  0.00     0.019 A 
ATOM     16  O   UNL A   1      32.520  22.233  25.121  1.00  0.00    -0.475 OA
ATOM     17  C   UNL A   1      35.026  22.528  23.849  1.00  0.00     0.025 C 
ATOM     18  C   UNL A   1      33.716  21.677  25.746  1.00  0.00     0.314 C 
BRANCH   9  19
ATOM     19  C   UNL A   1      30.609  26.162  23.001  1.00  0.00     0.301 C 
BRANCH  19  20
ATOM     20  N   UNL A   1      30.376  27.343  23.849  1.00  0.00    -0.327 N 
ATOM     21  C   UNL A   1      28.404  28.599  23.011  1.00  0.00     0.075 C 
ATOM     22  C   UNL A   1      29.917  28.569  23.181  1.00  0.00     0.181 C 
ATOM     23  C   UNL A   1      30.409  29.700  24.080  1.00  0.00     0.071 C 
ATOM     24  C   UNL A   1      31.734  29.163  24.578  1.00  0.00     0.071 C 
ATOM     25  C   UNL A   1      31.462  27.676  24.779  1.00  0.00     0.181 C 
ATOM     26  H   UNL A   1      29.583  26.992  24.386  1.00  0.00     0.348 HD
ATOM     27  C   UNL A   1      30.994  27.369  26.201  1.00  0.00     0.075 C 
ENDBRANCH  19  20
ENDBRANCH   9  19
BRANCH  18  28
ATOM     28  C   UNL A   1      34.045  22.449  27.043  1.00  0.00     0.429 C 
ATOM     29  F   UNL A   1      34.417  21.590  28.025  1.00  0.00    -0.167 F 
ATOM     30  F   UNL A   1      35.070  23.318  26.881  1.00  0.00    -0.167 F 
ATOM     31  F   UNL A   1      32.999  23.166  27.511  1.00  0.00    -0.167 F 
ENDBRANCH  18  28
ENDBRANCH   5   8
ENDBRANCH   3   4
ENDBRANCH   2   3
ENDBRANCH   1   2
BRANCH   1  32
ATOM     32  C   UNL A   1      41.085  23.009  26.989  1.00  0.00     0.116 C 
BRANCH  32  33
ATOM     33  N   UNL A   1      41.234  23.988  25.918  1.00  0.00    -0.352 N 
ATOM     34  C   UNL A   1      41.315  25.360  26.045  1.00  0.00     0.251 C 
ATOM     35  H   UNL A   1      41.283  23.631  25.002  1.00  0.00     0.163 HD
ATOM     36  O   UNL A   1      41.386  26.082  25.062  1.00  0.00    -0.269 OA
BRANCH  34  37
ATOM     37  C   UNL A   1      41.253  25.927  27.406  1.00  0.00     0.039 A 
ATOM     38  C   UNL A   1      40.040  25.936  28.098  1.00  0.00     0.014 A 
ATOM     39  C   UNL A   1      42.376  26.584  27.913  1.00  0.00     0.014 A 
ATOM     40  C   UNL A   1      39.903  26.753  29.212  1.00  0.00     0.010 A 
ATOM     41  C   UNL A   1      42.251  27.349  29.075  1.00  0.00     0.010 A 
ATOM     42  C   UNL A   1      40.999  27.489  29.694  1.00  0.00    -0.014 A 
BRANCH  42  43
ATOM     43  C   UNL A   1      40.800  28.442  30.815  1.00  0.00     0.031 A 
ATOM     44  C   UNL A   1      41.735  28.434  31.998  1.00  0.00     0.074 A 
ATOM     45  C   UNL A   1      39.821  29.362  30.732  1.00  0.00     0.049 A 
ATOM     46  N   UNL A   1      41.707  29.177  33.074  1.00  0.00    -0.248 NA
ATOM     47  C   UNL A   1      42.843  27.466  31.969  1.00  0.00     0.031 C 
ATOM     48  C   UNL A   1      38.878  29.488  29.620  1.00  0.00     0.029 A 
ATOM     49  N   UNL A   1      39.475  30.379  31.582  1.00  0.00    -0.354 N 
ATOM     50  C   UNL A   1      42.772  28.753  33.861  1.00  0.00     0.074 A 
ATOM     51  C   UNL A   1      43.420  27.674  33.146  1.00  0.00     0.031 C 
ATOM     52  C   UNL A   1      38.092  30.555  29.830  1.00  0.00     0.029 A 
ATOM     53  C   UNL A   1      38.436  31.150  31.119  1.00  0.00     0.049 A 
ATOM     54  H   UNL A   1      39.926  30.543  32.442  1.00  0.00     0.167 HD
ATOM     55  C   UNL A   1      43.177  29.226  35.064  1.00  0.00     0.037 A 
ATOM     56  C   UNL A   1      37.818  32.207  31.675  1.00  0.00     0.037 A 
ATOM     57  C   UNL A   1      42.547  30.319  35.757  1.00  0.00     0.049 A 
ATOM     58  C   UNL A   1      38.261  32.689  33.025  1.00  0.00     0.074 A 
ATOM     59  C   UNL A   1      42.885  30.874  36.980  1.00  0.00     0.029 A 
ATOM     60  N   UNL A   1      41.456  31.032  35.284  1.00  0.00    -0.354 N 
ATOM     61  N   UNL A   1      39.244  32.247  33.773  1.00  0.00    -0.248 NA
ATOM     62  C   UNL A   1      37.502  33.799  33.616  1.00  0.00     0.031 C 
ATOM     63  C   UNL A   1      41.981  31.905  37.258  1.00  0.00     0.029 A 
ATOM     64  C   UNL A   1      41.100  32.014  36.194  1.00  0.00     0.049 A 
ATOM     65  H   UNL A   1      41.001  30.865  34.426  1.00  0.00     0.167 HD
ATOM     66  C   UNL A   1      39.218  33.020  34.926  1.00  0.00     0.074 A 
ATOM     67  C   UNL A   1      38.140  33.975  34.765  1.00  0.00     0.031 C 
ATOM     68  C   UNL A   1      40.011  32.942  36.023  1.00  0.00     0.037 A 
BRANCH  55  69
ATOM     69  C   UNL A   1      44.353  28.555  35.718  1.00  0.00     0.058 A 
ATOM     70  C   UNL A   1      44.189  27.474  36.597  1.00  0.00     0.135 A 
ATOM     71  C   UNL A   1      45.663  28.972  35.427  1.00  0.00     0.135 A 
ATOM     72  F   UNL A   1      42.958  27.049  36.923  1.00  0.00    -0.206 F 
ATOM     73  C   UNL A   1      45.282  26.838  37.179  1.00  0.00     0.059 A 
ATOM     74  C   UNL A   1      46.772  28.339  35.983  1.00  0.00     0.059 A 
ATOM     75  F   UNL A   1      45.875  30.003  34.594  1.00  0.00    -0.206 F 
ATOM     76  C   UNL A   1      46.569  27.279  36.866  1.00  0.00     0.060 A 
BRANCH  76  77
ATOM     77  S   UNL A   1      47.976  26.442  37.628  1.00  0.00     0.124 S 
ATOM     78  O   UNL A   1      49.010  26.632  36.614  1.00  0.00    -0.237 OA
ATOM     79  O   UNL A   1      48.157  27.194  38.865  1.00  0.00    -0.237 OA
ATOM     80  O   UNL A   1      47.506  25.070  37.795  1.00  0.00    -0.744 OA
ENDBRANCH  76  77
ENDBRANCH  55  69
BRANCH  56  81
ATOM     81  C   UNL A   1      36.703  32.867  30.951  1.00  0.00     0.058 A 
ATOM     82  C   UNL A   1      35.375  32.685  31.357  1.00  0.00     0.135 A 
ATOM     83  C   UNL A   1      36.951  33.734  29.875  1.00  0.00     0.135 A 
ATOM     84  F   UNL A   1      35.092  31.861  32.377  1.00  0.00    -0.206 F 
ATOM     85  C   UNL A   1      34.326  33.344  30.724  1.00  0.00     0.059 A 
ATOM     86  C   UNL A   1      35.921  34.420  29.240  1.00  0.00     0.059 A 
ATOM     87  F   UNL A   1      38.209  33.950  29.461  1.00  0.00    -0.206 F 
ATOM     88  C   UNL A   1      34.611  34.215  29.671  1.00  0.00     0.060 A 
BRANCH  88  89
ATOM     89  S   UNL A   1      33.252  35.130  28.910  1.00  0.00     0.124 S 
ATOM     90  O   UNL A   1      32.447  35.480  30.073  1.00  0.00    -0.237 OA
ATOM     91  O   UNL A   1      33.951  36.235  28.259  1.00  0.00    -0.237 OA
ATOM     92  O   UNL A   1      32.661  34.153  28.001  1.00  0.00    -0.744 OA
ENDBRANCH  88  89
ENDBRANCH  56  81
BRANCH  68  93
ATOM     93  C   UNL A   1      39.732  33.909  37.135  1.00  0.00     0.058 A 
ATOM     94  C   UNL A   1      38.953  33.538  38.241  1.00  0.00     0.135 A 
ATOM     95  C   UNL A   1      40.276  35.202  37.115  1.00  0.00     0.135 A 
ATOM     96  F   UNL A   1      38.405  32.314  38.301  1.00  0.00    -0.206 F 
ATOM     97  C   UNL A   1      38.705  34.424  39.284  1.00  0.00     0.059 A 
ATOM     98  C   UNL A   1      40.058  36.099  38.155  1.00  0.00     0.059 A 
ATOM     99  F   UNL A   1      41.035  35.600  36.081  1.00  0.00    -0.206 F 
ATOM    100  C   UNL A   1      39.262  35.704  39.231  1.00  0.00     0.060 A 
BRANCH 100 101
ATOM    101  S   UNL A   1      38.954  36.839  40.601  1.00  0.00     0.124 S 
ATOM    102  O   UNL A   1      38.292  37.947  39.920  1.00  0.00    -0.237 OA
ATOM    103  O   UNL A   1      38.108  36.042  41.484  1.00  0.00    -0.237 OA
ATOM    104  O   UNL A   1      40.291  37.122  41.111  1.00  0.00    -0.744 OA
ENDBRANCH 100 101
ENDBRANCH  68  93
ENDBRANCH  42  43
ENDBRANCH  34  37
ENDBRANCH  32  33
ENDBRANCH   1  32
TORSDOF 17
ENDMDL
MODEL 2
REMARK VINA RESULT:     -12.7      2.579      3.324
REMARK SMILES C[C@@H]1CC[C@H](C)[N@H+]1Cc1cc2c(cc1Cl)C=C(C(=O)NCCCCNC(=O)c1ccc(-c3c4nc(c(-c5c(F)cc(S(=O)(=O)[O-])cc5F)c5ccc([nH]5)c(-c5c(F)cc(S(=O)(=O)[O-])cc5F)c5nc(c(-c6c(F)cc(S(=O)(=O)[O-])cc6F)c6ccc3[nH]6)C=C5)C=C4)cc1)[C@@H](C(F)(F)F)O2
REMARK SMILES IDX 23 1 22 2 21 3 20 4 18 5 19 6 17 8 9 9 10 10 14 11 11 12
REMARK SMILES IDX 13 13 15 14 12 15 99 16 16 17 94 18 8 19 7 20 6 21 5 22 4 23
REMARK SMILES IDX 3 24 2 25 1 27 95 28 96 29 97 30 98 31 24 32 25 33 26 34
REMARK SMILES IDX 27 36 28 37 29 38 93 39 30 40 92 41 31 42 32 43 33 44 86 45
REMARK SMILES IDX 34 46 91 47 85 48 87 49 35 50 90 51 84 52 83 53 36 55 70 56
REMARK SMILES IDX 49 57 69 58 50 59 53 60 68 61 88 62 51 63 52 64 67 66 89 67
REMARK SMILES IDX 54 68 37 69 38 70 47 71 39 72 40 73 46 74 48 75 41 76 42 77
REMARK SMILES IDX 43 78 44 79 45 80 71 81 72 82 81 83 73 84 74 85 80 86 82 87
REMARK SMILES IDX 75 88 76 89 77 90 78 91 79 92 55 93 56 94 65 95 57 96 58 97
REMARK SMILES IDX 64 98 66 99 59 100 60 101 61 102 62 103 63 104
REMARK H PARENT 20 7 7 26 25 35 87 54 53 65
REMARK Flexibility Score: inf
ROOT
ATOM      1  C   UNL A   1      36.085  23.142  25.980  1.00  0.00     0.023 C 
ENDROOT
BRANCH   1   2
ATOM      2  C   UNL A   1      35.876  21.665  26.321  1.00  0.00     0.023 C 
BRANCH   2   3
ATOM      3  C   UNL A   1      35.929  20.730  25.116  1.00  0.00     0.116 C 
BRANCH   3   4
ATOM      4  N   UNL A   1      34.730  19.920  25.005  1.00  0.00    -0.352 N 
ATOM      5  C   UNL A   1      33.412  20.139  24.793  1.00  0.00     0.251 C 
ATOM      6  O   UNL A   1      32.707  19.125  24.748  1.00  0.00    -0.270 OA
ATOM      7  H   UNL A   1      34.928  18.962  25.112  1.00  0.00     0.163 HD
BRANCH   5   8
ATOM      8  C   UNL A   1      32.778  21.478  24.624  1.00  0.00     0.067 C 
ATOM      9  C   UNL A   1      31.356  25.969  22.791  1.00  0.00     0.029 A 
ATOM     10  C   UNL A   1      30.748  24.987  23.600  1.00  0.00     0.058 A 
ATOM     11  C   UNL A   1      32.692  25.763  22.406  1.00  0.00     0.050 A 
ATOM     12  C   UNL A   1      31.419  23.812  23.918  1.00  0.00     0.128 A 
ATOM     13  C   UNL A   1      33.341  24.552  22.683  1.00  0.00     0.033 A 
ATOM     14  Cl  UNL A   1      33.640  26.988  21.636  1.00  0.00    -0.084 Cl
ATOM     15  C   UNL A   1      32.694  23.562  23.419  1.00  0.00     0.019 A 
ATOM     16  O   UNL A   1      30.758  22.909  24.705  1.00  0.00    -0.475 OA
ATOM     17  C   UNL A   1      33.298  22.257  23.655  1.00  0.00     0.025 C 
ATOM     18  C   UNL A   1      31.631  22.001  25.441  1.00  0.00     0.314 C 
BRANCH   9  19
ATOM     19  C   UNL A   1      30.515  27.157  22.363  1.00  0.00     0.301 C 
BRANCH  19  20
ATOM     20  N   UNL A   1      30.156  28.124  23.414  1.00  0.00    -0.327 N 
ATOM     21  C   UNL A   1      27.895  29.048  22.965  1.00  0.00     0.075 C 
ATOM     22  C   UNL A   1      29.394  29.312  23.001  1.00  0.00     0.181 C 
ATOM     23  C   UNL A   1      29.758  30.375  24.033  1.00  0.00     0.071 C 
ATOM     24  C   UNL A   1      31.210  30.062  24.322  1.00  0.00     0.071 C 
ATOM     25  C   UNL A   1      31.257  28.538  24.293  1.00  0.00     0.181 C 
ATOM     26  H   UNL A   1      29.514  27.540  23.948  1.00  0.00     0.348 HD
ATOM     27  C   UNL A   1      31.025  27.933  25.677  1.00  0.00     0.075 C 
ENDBRANCH  19  20
ENDBRANCH   9  19
BRANCH  18  28
ATOM     28  C   UNL A   1      32.109  22.669  26.750  1.00  0.00     0.429 C 
ATOM     29  F   UNL A   1      31.047  23.075  27.491  1.00  0.00    -0.167 F 
ATOM     30  F   UNL A   1      32.824  21.825  27.530  1.00  0.00    -0.167 F 
ATOM     31  F   UNL A   1      32.888  23.754  26.537  1.00  0.00    -0.167 F 
ENDBRANCH  18  28
ENDBRANCH   5   8
ENDBRANCH   3   4
ENDBRANCH   2   3
ENDBRANCH   1   2
BRANCH   1  32
ATOM     32  C   UNL A   1      37.253  23.440  25.044  1.00  0.00     0.116 C 
BRANCH  32  33
ATOM     33  N   UNL A   1      38.434  22.618  25.278  1.00  0.00    -0.352 N 
ATOM     34  C   UNL A   1      39.526  22.927  26.062  1.00  0.00     0.251 C 
ATOM     35  H   UNL A   1      38.455  21.743  24.826  1.00  0.00     0.163 HD
ATOM     36  O   UNL A   1      40.485  22.173  26.137  1.00  0.00    -0.269 OA
BRANCH  34  37
ATOM     37  C   UNL A   1      39.521  24.228  26.760  1.00  0.00     0.039 A 
ATOM     38  C   UNL A   1      40.229  25.304  26.222  1.00  0.00     0.014 A 
ATOM     39  C   UNL A   1      38.938  24.310  28.026  1.00  0.00     0.014 A 
ATOM     40  C   UNL A   1      40.502  26.403  27.026  1.00  0.00     0.010 A 
ATOM     41  C   UNL A   1      39.157  25.448  28.804  1.00  0.00     0.010 A 
ATOM     42  C   UNL A   1      39.993  26.473  28.333  1.00  0.00    -0.014 A 
BRANCH  42  43
ATOM     43  C   UNL A   1      40.393  27.601  29.212  1.00  0.00     0.031 A 
ATOM     44  C   UNL A   1      41.757  27.622  29.853  1.00  0.00     0.074 A 
ATOM     45  C   UNL A   1      39.552  28.640  29.375  1.00  0.00     0.049 A 
ATOM     46  N   UNL A   1      42.273  28.510  30.663  1.00  0.00    -0.248 NA
ATOM     47  C   UNL A   1      42.659  26.499  29.547  1.00  0.00     0.031 C 
ATOM     48  C   UNL A   1      38.221  28.746  28.776  1.00  0.00     0.029 A 
ATOM     49  N   UNL A   1      39.703  29.812  30.066  1.00  0.00    -0.354 N 
ATOM     50  C   UNL A   1      43.544  28.046  30.983  1.00  0.00     0.074 A 
ATOM     51  C   UNL A   1      43.718  26.786  30.292  1.00  0.00     0.031 C 
ATOM     52  C   UNL A   1      37.696  29.942  29.084  1.00  0.00     0.029 A 
ATOM     53  C   UNL A   1      38.627  30.658  29.950  1.00  0.00     0.049 A 
ATOM     54  H   UNL A   1      40.504  30.028  30.596  1.00  0.00     0.167 HD
ATOM     55  C   UNL A   1      44.482  28.622  31.772  1.00  0.00     0.037 A 
ATOM     56  C   UNL A   1      38.406  31.870  30.492  1.00  0.00     0.037 A 
ATOM     57  C   UNL A   1      44.315  29.891  32.433  1.00  0.00     0.049 A 
ATOM     58  C   UNL A   1      39.446  32.471  31.392  1.00  0.00     0.074 A 
ATOM     59  C   UNL A   1      45.208  30.560  33.252  1.00  0.00     0.029 A 
ATOM     60  N   UNL A   1      43.183  30.687  32.341  1.00  0.00    -0.354 N 
ATOM     61  N   UNL A   1      40.624  31.996  31.718  1.00  0.00    -0.248 NA
ATOM     62  C   UNL A   1      39.119  33.760  32.015  1.00  0.00     0.031 C 
ATOM     63  C   UNL A   1      44.606  31.750  33.677  1.00  0.00     0.029 A 
ATOM     64  C   UNL A   1      43.350  31.836  33.097  1.00  0.00     0.049 A 
ATOM     65  H   UNL A   1      42.380  30.469  31.816  1.00  0.00     0.167 HD
ATOM     66  C   UNL A   1      41.178  32.925  32.587  1.00  0.00     0.074 A 
ATOM     67  C   UNL A   1      40.218  34.002  32.717  1.00  0.00     0.031 C 
ATOM     68  C   UNL A   1      42.374  32.887  33.228  1.00  0.00     0.037 A 
BRANCH  55  69
ATOM     69  C   UNL A   1      45.774  27.880  31.978  1.00  0.00     0.058 A 
ATOM     70  C   UNL A   1      46.910  28.151  31.200  1.00  0.00     0.135 A 
ATOM     71  C   UNL A   1      45.887  26.918  32.995  1.00  0.00     0.135 A 
ATOM     72  F   UNL A   1      46.849  29.047  30.203  1.00  0.00    -0.206 F 
ATOM     73  C   UNL A   1      48.111  27.481  31.412  1.00  0.00     0.059 A 
ATOM     74  C   UNL A   1      47.084  26.249  33.237  1.00  0.00     0.059 A 
ATOM     75  F   UNL A   1      44.829  26.621  33.765  1.00  0.00    -0.206 F 
ATOM     76  C   UNL A   1      48.188  26.531  32.433  1.00  0.00     0.060 A 
BRANCH  76  77
ATOM     77  S   UNL A   1      49.754  25.672  32.697  1.00  0.00     0.124 S 
ATOM     78  O   UNL A   1      50.602  26.759  33.177  1.00  0.00    -0.237 OA
ATOM     79  O   UNL A   1      49.396  24.663  33.688  1.00  0.00    -0.237 OA
ATOM     80  O   UNL A   1      50.086  25.156  31.372  1.00  0.00    -0.744 OA
ENDBRANCH  76  77
ENDBRANCH  55  69
BRANCH  56  81
ATOM     81  C   UNL A   1      37.137  32.581  30.201  1.00  0.00     0.058 A 
ATOM     82  C   UNL A   1      36.004  32.386  31.001  1.00  0.00     0.135 A 
ATOM     83  C   UNL A   1      37.051  33.510  29.151  1.00  0.00     0.135 A 
ATOM     84  F   UNL A   1      36.040  31.504  32.011  1.00  0.00    -0.206 F 
ATOM     85  C   UNL A   1      34.826  33.090  30.775  1.00  0.00     0.059 A 
ATOM     86  C   UNL A   1      35.892  34.241  28.919  1.00  0.00     0.059 A 
ATOM     87  F   UNL A   1      38.116  33.740  28.369  1.00  0.00    -0.206 F 
ATOM     88  C   UNL A   1      34.783  34.021  29.735  1.00  0.00     0.060 A 
BRANCH  88  89
ATOM     89  S   UNL A   1      33.277  34.991  29.501  1.00  0.00     0.124 S 
ATOM     90  O   UNL A   1      32.693  34.952  30.836  1.00  0.00    -0.237 OA
ATOM     91  O   UNL A   1      33.806  36.282  29.071  1.00  0.00    -0.237 OA
ATOM     92  O   UNL A   1      32.557  34.246  28.473  1.00  0.00    -0.744 OA
ENDBRANCH  88  89
ENDBRANCH  56  81
BRANCH  68  93
ATOM     93  C   UNL A   1      42.699  34.039  34.131  1.00  0.00     0.058 A 
ATOM     94  C   UNL A   1      42.404  33.992  35.503  1.00  0.00     0.135 A 
ATOM     95  C   UNL A   1      43.342  35.183  33.633  1.00  0.00     0.135 A 
ATOM     96  F   UNL A   1      41.782  32.922  36.023  1.00  0.00    -0.206 F 
ATOM     97  C   UNL A   1      42.719  35.049  36.349  1.00  0.00     0.059 A 
ATOM     98  C   UNL A   1      43.683  36.244  34.464  1.00  0.00     0.059 A 
ATOM     99  F   UNL A   1      43.651  35.270  32.330  1.00  0.00    -0.206 F 
ATOM    100  C   UNL A   1      43.358  36.173  35.819  1.00  0.00     0.060 A 
BRANCH 100 101
ATOM    101  S   UNL A   1      43.784  37.530  36.930  1.00  0.00     0.124 S 
ATOM    102  O   UNL A   1      43.873  38.652  36.002  1.00  0.00    -0.237 OA
ATOM    103  O   UNL A   1      42.647  37.554  37.846  1.00  0.00    -0.237 OA
ATOM    104  O   UNL A   1      45.047  37.100  37.521  1.00  0.00    -0.744 OA
ENDBRANCH 100 101
ENDBRANCH  68  93
ENDBRANCH  42  43
ENDBRANCH  34  37
ENDBRANCH  32  33
ENDBRANCH   1  32
TORSDOF 17
ENDMDL
MODEL 3
REMARK VINA RESULT:     -12.7      2.377      8.335
REMARK SMILES C[C@@H]1CC[C@H](C)[N@H+]1Cc1cc2c(cc1Cl)C=C(C(=O)NCCCCNC(=O)c1ccc(-c3c4nc(c(-c5c(F)cc(S(=O)(=O)[O-])cc5F)c5ccc([nH]5)c(-c5c(F)cc(S(=O)(=O)[O-])cc5F)c5nc(c(-c6c(F)cc(S(=O)(=O)[O-])cc6F)c6ccc3[nH]6)C=C5)C=C4)cc1)[C@@H](C(F)(F)F)O2
REMARK SMILES IDX 23 1 22 2 21 3 20 4 18 5 19 6 17 8 9 9 10 10 14 11 11 12
REMARK SMILES IDX 13 13 15 14 12 15 99 16 16 17 94 18 8 19 7 20 6 21 5 22 4 23
REMARK SMILES IDX 3 24 2 25 1 27 95 28 96 29 97 30 98 31 24 32 25 33 26 34
REMARK SMILES IDX 27 36 28 37 29 38 93 39 30 40 92 41 31 42 32 43 33 44 86 45
REMARK SMILES IDX 34 46 91 47 85 48 87 49 35 50 90 51 84 52 83 53 36 55 70 56
REMARK SMILES IDX 49 57 69 58 50 59 53 60 68 61 88 62 51 63 52 64 67 66 89 67
REMARK SMILES IDX 54 68 37 69 38 70 47 71 39 72 40 73 46 74 48 75 41 76 42 77
REMARK SMILES IDX 43 78 44 79 45 80 71 81 72 82 81 83 73 84 74 85 80 86 82 87
REMARK SMILES IDX 75 88 76 89 77 90 78 91 79 92 55 93 56 94 65 95 57 96 58 97
REMARK SMILES IDX 64 98 66 99 59 100 60 101 61 102 62 103 63 104
REMARK H PARENT 20 7 7 26 25 35 87 54 53 65
REMARK Flexibility Score: inf
ROOT
ATOM      1  C   UNL A   1      36.140  23.326  26.091  1.00  0.00     0.023 C 
ENDROOT
BRANCH   1   2
ATOM      2  C   UNL A   1      35.977  21.837  26.402  1.00  0.00     0.023 C 
BRANCH   2   3
ATOM      3  C   UNL A   1      36.157  20.920  25.196  1.00  0.00     0.116 C 
BRANCH   3   4
ATOM      4  N   UNL A   1      35.013  20.050  25.001  1.00  0.00    -0.352 N 
ATOM      5  C   UNL A   1      33.695  20.203  24.731  1.00  0.00     0.251 C 
ATOM      6  O   UNL A   1      33.052  19.153  24.620  1.00  0.00    -0.270 OA
ATOM      7  H   UNL A   1      35.259  19.101  25.087  1.00  0.00     0.163 HD
BRANCH   5   8
ATOM      8  C   UNL A   1      32.995  21.509  24.573  1.00  0.00     0.067 C 
ATOM      9  C   UNL A   1      31.391  25.964  22.803  1.00  0.00     0.029 A 
ATOM     10  C   UNL A   1      30.811  24.930  23.566  1.00  0.00     0.058 A 
ATOM     11  C   UNL A   1      32.748  25.841  22.460  1.00  0.00     0.050 A 
ATOM     12  C   UNL A   1      31.535  23.784  23.879  1.00  0.00     0.128 A 
ATOM     13  C   UNL A   1      33.453  24.660  22.729  1.00  0.00     0.033 A 
ATOM     14  Cl  UNL A   1      33.653  27.135  21.752  1.00  0.00    -0.084 Cl
ATOM     15  C   UNL A   1      32.837  23.617  23.417  1.00  0.00     0.019 A 
ATOM     16  O   UNL A   1      30.898  22.827  24.620  1.00  0.00    -0.475 OA
ATOM     17  C   UNL A   1      33.504  22.340  23.642  1.00  0.00     0.025 C 
ATOM     18  C   UNL A   1      31.795  21.948  25.364  1.00  0.00     0.314 C 
BRANCH   9  19
ATOM     19  C   UNL A   1      30.501  27.116  22.376  1.00  0.00     0.301 C 
BRANCH  19  20
ATOM     20  N   UNL A   1      30.147  28.097  23.415  1.00  0.00    -0.327 N 
ATOM     21  C   UNL A   1      27.884  29.015  22.965  1.00  0.00     0.075 C 
ATOM     22  C   UNL A   1      29.383  29.279  22.990  1.00  0.00     0.181 C 
ATOM     23  C   UNL A   1      29.752  30.357  24.006  1.00  0.00     0.071 C 
ATOM     24  C   UNL A   1      31.206  30.047  24.291  1.00  0.00     0.071 C 
ATOM     25  C   UNL A   1      31.252  28.523  24.283  1.00  0.00     0.181 C 
ATOM     26  H   UNL A   1      29.508  27.520  23.961  1.00  0.00     0.348 HD
ATOM     27  C   UNL A   1      31.028  27.937  25.676  1.00  0.00     0.075 C 
ENDBRANCH  19  20
ENDBRANCH   9  19
BRANCH  18  28
ATOM     28  C   UNL A   1      32.192  22.606  26.704  1.00  0.00     0.429 C 
ATOM     29  F   UNL A   1      31.086  22.958  27.406  1.00  0.00    -0.167 F 
ATOM     30  F   UNL A   1      32.905  21.773  27.497  1.00  0.00    -0.167 F 
ATOM     31  F   UNL A   1      32.938  23.723  26.544  1.00  0.00    -0.167 F 
ENDBRANCH  18  28
ENDBRANCH   5   8
ENDBRANCH   3   4
ENDBRANCH   2   3
ENDBRANCH   1   2
BRANCH   1  32
ATOM     32  C   UNL A   1      37.309  23.680  25.177  1.00  0.00     0.116 C 
BRANCH  32  33
ATOM     33  N   UNL A   1      38.497  22.859  25.377  1.00  0.00    -0.352 N 
ATOM     34  C   UNL A   1      39.612  23.169  26.128  1.00  0.00     0.251 C 
ATOM     35  H   UNL A   1      38.505  21.984  24.925  1.00  0.00     0.163 HD
ATOM     36  O   UNL A   1      40.573  22.416  26.175  1.00  0.00    -0.269 OA
BRANCH  34  37
ATOM     37  C   UNL A   1      39.628  24.470  26.825  1.00  0.00     0.039 A 
ATOM     38  C   UNL A   1      40.400  25.517  26.319  1.00  0.00     0.014 A 
ATOM     39  C   UNL A   1      38.992  24.578  28.063  1.00  0.00     0.014 A 
ATOM     40  C   UNL A   1      40.681  26.606  27.134  1.00  0.00     0.010 A 
ATOM     41  C   UNL A   1      39.221  25.708  28.851  1.00  0.00     0.010 A 
ATOM     42  C   UNL A   1      40.117  26.698  28.417  1.00  0.00    -0.014 A 
BRANCH  42  43
ATOM     43  C   UNL A   1      40.521  27.811  29.313  1.00  0.00     0.031 A 
ATOM     44  C   UNL A   1      39.615  29.000  29.509  1.00  0.00     0.074 A 
ATOM     45  C   UNL A   1      41.672  27.715  30.005  1.00  0.00     0.049 A 
ATOM     46  N   UNL A   1      39.808  30.071  30.234  1.00  0.00    -0.248 NA
ATOM     47  C   UNL A   1      38.327  28.986  28.797  1.00  0.00     0.031 C 
ATOM     48  C   UNL A   1      42.611  26.596  29.923  1.00  0.00     0.029 A 
ATOM     49  N   UNL A   1      42.232  28.556  30.930  1.00  0.00    -0.354 N 
ATOM     50  C   UNL A   1      38.683  30.868  30.049  1.00  0.00     0.074 A 
ATOM     51  C   UNL A   1      37.816  30.164  29.128  1.00  0.00     0.031 C 
ATOM     52  C   UNL A   1      43.607  26.794  30.801  1.00  0.00     0.029 A 
ATOM     53  C   UNL A   1      43.407  28.081  31.461  1.00  0.00     0.049 A 
ATOM     54  H   UNL A   1      41.832  29.418  31.190  1.00  0.00     0.167 HD
ATOM     55  C   UNL A   1      38.397  32.070  30.603  1.00  0.00     0.037 A 
ATOM     56  C   UNL A   1      44.238  28.626  32.367  1.00  0.00     0.037 A 
ATOM     57  C   UNL A   1      39.249  32.752  31.542  1.00  0.00     0.049 A 
ATOM     58  C   UNL A   1      43.917  29.975  32.939  1.00  0.00     0.074 A 
ATOM     59  C   UNL A   1      39.046  33.974  32.162  1.00  0.00     0.029 A 
ATOM     60  N   UNL A   1      40.463  32.267  32.006  1.00  0.00    -0.354 N 
ATOM     61  N   UNL A   1      42.869  30.733  32.718  1.00  0.00    -0.248 NA
ATOM     62  C   UNL A   1      44.898  30.554  33.866  1.00  0.00     0.031 C 
ATOM     63  C   UNL A   1      40.150  34.238  32.980  1.00  0.00     0.029 A 
ATOM     64  C   UNL A   1      41.025  33.168  32.895  1.00  0.00     0.049 A 
ATOM     65  H   UNL A   1      40.865  31.408  31.742  1.00  0.00     0.167 HD
ATOM     66  C   UNL A   1      43.067  31.880  33.474  1.00  0.00     0.074 A 
ATOM     67  C   UNL A   1      44.322  31.706  34.179  1.00  0.00     0.031 C 
ATOM     68  C   UNL A   1      42.284  32.983  33.571  1.00  0.00     0.037 A 
BRANCH  55  69
ATOM     69  C   UNL A   1      37.111  32.737  30.199  1.00  0.00     0.058 A 
ATOM     70  C   UNL A   1      35.924  32.544  30.921  1.00  0.00     0.135 A 
ATOM     71  C   UNL A   1      37.078  33.614  29.102  1.00  0.00     0.135 A 
ATOM     72  F   UNL A   1      35.896  31.701  31.965  1.00  0.00    -0.206 F 
ATOM     73  C   UNL A   1      34.742  33.185  30.560  1.00  0.00     0.059 A 
ATOM     74  C   UNL A   1      35.912  34.280  28.734  1.00  0.00     0.059 A 
ATOM     75  F   UNL A   1      38.187  33.831  28.377  1.00  0.00    -0.206 F 
ATOM     76  C   UNL A   1      34.746  34.050  29.464  1.00  0.00     0.060 A 
BRANCH  76  77
ATOM     77  S   UNL A   1      33.206  34.876  29.010  1.00  0.00     0.124 S 
ATOM     78  O   UNL A   1      32.529  34.955  30.301  1.00  0.00    -0.237 OA
ATOM     79  O   UNL A   1      33.678  36.143  28.464  1.00  0.00    -0.237 OA
ATOM     80  O   UNL A   1      32.604  33.964  28.041  1.00  0.00    -0.744 OA
ENDBRANCH  76  77
ENDBRANCH  55  69
BRANCH  56  81
ATOM     81  C   UNL A   1      45.461  27.890  32.773  1.00  0.00     0.058 A 
ATOM     82  C   UNL A   1      45.418  26.934  33.797  1.00  0.00     0.135 A 
ATOM     83  C   UNL A   1      46.681  28.087  32.107  1.00  0.00     0.135 A 
ATOM     84  F   UNL A   1      44.274  26.717  34.464  1.00  0.00    -0.206 F 
ATOM     85  C   UNL A   1      46.542  26.195  34.148  1.00  0.00     0.059 A 
ATOM     86  C   UNL A   1      47.813  27.345  32.424  1.00  0.00     0.059 A 
ATOM     87  F   UNL A   1      46.765  28.980  31.110  1.00  0.00    -0.206 F 
ATOM     88  C   UNL A   1      47.734  26.403  33.449  1.00  0.00     0.060 A 
BRANCH  88  89
ATOM     89  S   UNL A   1      49.166  25.380  33.854  1.00  0.00     0.124 S 
ATOM     90  O   UNL A   1      50.026  26.337  34.539  1.00  0.00    -0.237 OA
ATOM     91  O   UNL A   1      48.575  24.338  34.689  1.00  0.00    -0.237 OA
ATOM     92  O   UNL A   1      49.635  24.931  32.546  1.00  0.00    -0.744 OA
ENDBRANCH  88  89
ENDBRANCH  56  81
BRANCH  68  93
ATOM     93  C   UNL A   1      42.770  34.087  34.463  1.00  0.00     0.058 A 
ATOM     94  C   UNL A   1      43.489  35.176  33.945  1.00  0.00     0.135 A 
ATOM     95  C   UNL A   1      42.485  34.077  35.837  1.00  0.00     0.135 A 
ATOM     96  F   UNL A   1      43.792  35.225  32.638  1.00  0.00    -0.206 F 
ATOM     97  C   UNL A   1      43.926  36.211  34.764  1.00  0.00     0.059 A 
ATOM     98  C   UNL A   1      42.896  35.111  36.671  1.00  0.00     0.059 A 
ATOM     99  F   UNL A   1      41.794  33.061  36.377  1.00  0.00    -0.206 F 
ATOM    100  C   UNL A   1      43.626  36.168  36.128  1.00  0.00     0.060 A 
BRANCH 100 101
ATOM    101  S   UNL A   1      44.178  37.529  37.178  1.00  0.00     0.124 S 
ATOM    102  O   UNL A   1      44.363  38.597  36.201  1.00  0.00    -0.237 OA
ATOM    103  O   UNL A   1      43.053  37.695  38.093  1.00  0.00    -0.237 OA
ATOM    104  O   UNL A   1      45.401  37.012  37.785  1.00  0.00    -0.744 OA
ENDBRANCH 100 101
ENDBRANCH  68  93
ENDBRANCH  42  43
ENDBRANCH  34  37
ENDBRANCH  32  33
ENDBRANCH   1  32
TORSDOF 17
ENDMDL
