MODEL 1
REMARK VINA RESULT:     -12.4      0.000      0.000
REMARK SMILES O=C(NCCCCNC(=O)[C@@H]1CCCC[C@@H]1C(=O)Nc1cccc(Br)c1)c1ccc(-c2c3nc(c(-c4c(F)cc(S(=O)(=O)[O-])cc4F)c4ccc([nH]4)c(-c4c(F)cc(S(=O)(=O)[O-])cc4F)c4nc(c(-c5c(F)cc(S(=O)(=O)[O-])cc5F)c5ccc2[nH]5)C=C4)C=C3)cc1
REMARK SMILES IDX 5 1 4 2 3 3 1 4 2 5 27 7 28 8 92 9 29 10 91 11 30 12 31 13
REMARK SMILES IDX 32 14 85 15 33 16 90 17 84 18 86 19 34 20 89 21 83 22 82 23
REMARK SMILES IDX 35 25 69 26 48 27 68 28 49 29 52 30 67 31 87 32 50 33 51 34
REMARK SMILES IDX 66 36 88 37 53 38 36 39 37 40 46 41 38 42 39 43 45 44 47 45
REMARK SMILES IDX 40 46 41 47 42 48 43 49 44 50 70 51 71 52 80 53 72 54 73 55
REMARK SMILES IDX 79 56 81 57 74 58 75 59 76 60 77 61 78 62 54 63 55 64 64 65
REMARK SMILES IDX 56 66 57 67 63 68 65 69 58 70 59 71 60 72 61 73 62 74 6 75
REMARK SMILES IDX 7 76 8 77 9 78 10 80 11 81 12 82 16 83 13 84 15 85 14 86
REMARK SMILES IDX 17 87 18 88 19 89 20 91 21 92 26 93 22 94 24 95 23 96 25 97
REMARK H PARENT 3 6 86 24 52 35 8 79 19 90
REMARK Flexibility Score: inf
ROOT
ATOM      1  C   UNL A   1      37.384  23.699  25.319  1.00  0.00     0.023 C 
ENDROOT
BRANCH   1   2
ATOM      2  C   UNL A   1      38.320  24.041  26.469  1.00  0.00     0.116 C 
BRANCH   2   3
ATOM      3  N   UNL A   1      39.734  23.944  26.124  1.00  0.00    -0.352 N 
ATOM      4  O   UNL A   1      41.903  24.587  26.126  1.00  0.00    -0.269 OA
ATOM      5  C   UNL A   1      40.774  24.732  26.567  1.00  0.00     0.251 C 
ATOM      6  H   UNL A   1      39.976  23.226  25.496  1.00  0.00     0.163 HD
BRANCH   5   7
ATOM      7  C   UNL A   1      40.473  25.785  27.558  1.00  0.00     0.039 A 
ATOM      8  C   UNL A   1      41.284  26.919  27.628  1.00  0.00     0.014 A 
ATOM      9  C   UNL A   1      39.448  25.580  28.483  1.00  0.00     0.014 A 
ATOM     10  C   UNL A   1      41.179  27.761  28.724  1.00  0.00     0.010 A 
ATOM     11  C   UNL A   1      39.284  26.483  29.535  1.00  0.00     0.010 A 
ATOM     12  C   UNL A   1      40.178  27.554  29.691  1.00  0.00    -0.014 A 
BRANCH  12  13
ATOM     13  C   UNL A   1      40.079  28.497  30.832  1.00  0.00     0.031 A 
ATOM     14  C   UNL A   1      41.027  28.417  31.997  1.00  0.00     0.074 A 
ATOM     15  C   UNL A   1      39.150  29.471  30.774  1.00  0.00     0.049 A 
ATOM     16  N   UNL A   1      41.101  29.190  33.050  1.00  0.00    -0.248 NA
ATOM     17  C   UNL A   1      42.013  27.325  31.988  1.00  0.00     0.031 C 
ATOM     18  C   UNL A   1      38.174  29.638  29.693  1.00  0.00     0.029 A 
ATOM     19  N   UNL A   1      38.893  30.520  31.617  1.00  0.00    -0.354 N 
ATOM     20  C   UNL A   1      42.112  28.662  33.845  1.00  0.00     0.074 A 
ATOM     21  C   UNL A   1      42.619  27.495  33.157  1.00  0.00     0.031 C 
ATOM     22  C   UNL A   1      37.475  30.762  29.900  1.00  0.00     0.029 A 
ATOM     23  C   UNL A   1      37.904  31.358  31.160  1.00  0.00     0.049 A 
ATOM     24  H   UNL A   1      39.370  30.661  32.466  1.00  0.00     0.167 HD
ATOM     25  C   UNL A   1      42.573  29.115  35.037  1.00  0.00     0.037 A 
ATOM     26  C   UNL A   1      37.391  32.480  31.697  1.00  0.00     0.037 A 
ATOM     27  C   UNL A   1      42.084  30.301  35.693  1.00  0.00     0.049 A 
ATOM     28  C   UNL A   1      37.932  32.965  33.009  1.00  0.00     0.074 A 
ATOM     29  C   UNL A   1      42.514  30.867  36.882  1.00  0.00     0.029 A 
ATOM     30  N   UNL A   1      41.059  31.106  35.217  1.00  0.00    -0.354 N 
ATOM     31  N   UNL A   1      38.896  32.459  33.739  1.00  0.00    -0.248 NA
ATOM     32  C   UNL A   1      37.308  34.167  33.575  1.00  0.00     0.031 C 
ATOM     33  C   UNL A   1      41.724  31.994  37.141  1.00  0.00     0.029 A 
ATOM     34  C   UNL A   1      40.828  32.153  36.095  1.00  0.00     0.049 A 
ATOM     35  H   UNL A   1      40.567  30.954  34.378  1.00  0.00     0.167 HD
ATOM     36  C   UNL A   1      39.003  33.286  34.849  1.00  0.00     0.074 A 
ATOM     37  C   UNL A   1      38.017  34.337  34.683  1.00  0.00     0.031 C 
ATOM     38  C   UNL A   1      39.838  33.185  35.913  1.00  0.00     0.037 A 
BRANCH  25  39
ATOM     39  C   UNL A   1      43.642  28.310  35.724  1.00  0.00     0.058 A 
ATOM     40  C   UNL A   1      45.009  28.550  35.511  1.00  0.00     0.135 A 
ATOM     41  C   UNL A   1      43.291  27.302  36.639  1.00  0.00     0.135 A 
ATOM     42  F   UNL A   1      45.402  29.492  34.639  1.00  0.00    -0.206 F 
ATOM     43  C   UNL A   1      45.989  27.801  36.159  1.00  0.00     0.059 A 
ATOM     44  C   UNL A   1      44.254  26.556  37.312  1.00  0.00     0.059 A 
ATOM     45  F   UNL A   1      41.999  27.031  36.881  1.00  0.00    -0.206 F 
ATOM     46  C   UNL A   1      45.602  26.803  37.053  1.00  0.00     0.060 A 
BRANCH  46  47
ATOM     47  S   UNL A   1      46.881  25.831  37.879  1.00  0.00     0.124 S 
ATOM     48  O   UNL A   1      47.601  26.865  38.615  1.00  0.00    -0.237 OA
ATOM     49  O   UNL A   1      46.100  24.904  38.690  1.00  0.00    -0.237 OA
ATOM     50  O   UNL A   1      47.614  25.224  36.771  1.00  0.00    -0.744 OA
ENDBRANCH  46  47
ENDBRANCH  25  39
BRANCH  26  51
ATOM     51  C   UNL A   1      36.316  33.212  30.981  1.00  0.00     0.058 A 
ATOM     52  C   UNL A   1      34.998  33.195  31.455  1.00  0.00     0.135 A 
ATOM     53  C   UNL A   1      36.598  33.983  29.844  1.00  0.00     0.135 A 
ATOM     54  F   UNL A   1      34.682  32.470  32.539  1.00  0.00    -0.206 F 
ATOM     55  C   UNL A   1      33.990  33.915  30.822  1.00  0.00     0.059 A 
ATOM     56  C   UNL A   1      35.613  34.732  29.210  1.00  0.00     0.059 A 
ATOM     57  F   UNL A   1      37.851  34.047  29.366  1.00  0.00    -0.206 F 
ATOM     58  C   UNL A   1      34.310  34.686  29.702  1.00  0.00     0.060 A 
BRANCH  58  59
ATOM     59  S   UNL A   1      33.013  35.675  28.927  1.00  0.00     0.124 S 
ATOM     60  O   UNL A   1      33.790  36.739  28.302  1.00  0.00    -0.237 OA
ATOM     61  O   UNL A   1      32.394  34.716  28.016  1.00  0.00    -0.237 OA
ATOM     62  O   UNL A   1      32.182  36.078  30.058  1.00  0.00    -0.744 OA
ENDBRANCH  58  59
ENDBRANCH  26  51
BRANCH  38  63
ATOM     63  C   UNL A   1      39.728  34.251  36.963  1.00  0.00     0.058 A 
ATOM     64  C   UNL A   1      40.405  35.474  36.840  1.00  0.00     0.135 A 
ATOM     65  C   UNL A   1      38.926  34.052  38.097  1.00  0.00     0.135 A 
ATOM     66  F   UNL A   1      41.190  35.707  35.777  1.00  0.00    -0.206 F 
ATOM     67  C   UNL A   1      40.315  36.453  37.823  1.00  0.00     0.059 A 
ATOM     68  C   UNL A   1      38.804  35.026  39.081  1.00  0.00     0.059 A 
ATOM     69  F   UNL A   1      38.253  32.901  38.256  1.00  0.00    -0.206 F 
ATOM     70  C   UNL A   1      39.515  36.217  38.943  1.00  0.00     0.060 A 
BRANCH  70  71
ATOM     71  S   UNL A   1      39.396  37.497  40.211  1.00  0.00     0.124 S 
ATOM     72  O   UNL A   1      38.420  38.404  39.620  1.00  0.00    -0.237 OA
ATOM     73  O   UNL A   1      38.940  36.746  41.377  1.00  0.00    -0.237 OA
ATOM     74  O   UNL A   1      40.760  38.010  40.300  1.00  0.00    -0.744 OA
ENDBRANCH  70  71
ENDBRANCH  38  63
ENDBRANCH  12  13
ENDBRANCH   5   7
ENDBRANCH   2   3
ENDBRANCH   1   2
BRANCH   1  75
ATOM     75  C   UNL A   1      37.226  22.208  25.037  1.00  0.00     0.023 C 
BRANCH  75  76
ATOM     76  C   UNL A   1      36.123  21.523  25.835  1.00  0.00     0.116 C 
BRANCH  76  77
ATOM     77  N   UNL A   1      34.988  21.164  25.012  1.00  0.00    -0.356 N 
ATOM     78  C   UNL A   1      33.800  21.754  24.752  1.00  0.00     0.223 C 
ATOM     79  H   UNL A   1      35.107  20.308  24.541  1.00  0.00     0.163 HD
ATOM     80  O   UNL A   1      33.048  21.157  23.972  1.00  0.00    -0.275 OA
BRANCH  78  81
ATOM     81  C   UNL A   1      33.326  23.079  25.350  1.00  0.00     0.091 C 
ATOM     82  C   UNL A   1      31.830  23.358  25.465  1.00  0.00     0.014 C 
ATOM     83  C   UNL A   1      34.122  24.308  24.846  1.00  0.00     0.091 C 
ATOM     84  C   UNL A   1      31.574  24.481  26.463  1.00  0.00     0.001 C 
ATOM     85  C   UNL A   1      33.782  25.518  25.734  1.00  0.00     0.014 C 
ATOM     86  C   UNL A   1      32.294  25.748  26.023  1.00  0.00     0.001 C 
BRANCH  83  87
ATOM     87  C   UNL A   1      34.136  24.382  23.302  1.00  0.00     0.228 C 
ATOM     88  O   UNL A   1      34.850  23.593  22.671  1.00  0.00    -0.274 OA
ATOM     89  N   UNL A   1      33.241  25.096  22.568  1.00  0.00    -0.326 N 
ATOM     90  H   UNL A   1      32.861  24.610  21.800  1.00  0.00     0.169 HD
BRANCH  89  91
ATOM     91  C   UNL A   1      32.770  26.401  22.717  1.00  0.00     0.042 A 
ATOM     92  C   UNL A   1      33.630  27.498  22.788  1.00  0.00     0.026 A 
ATOM     93  C   UNL A   1      31.390  26.601  22.731  1.00  0.00     0.041 A 
ATOM     94  C   UNL A   1      33.120  28.776  23.016  1.00  0.00     0.003 A 
ATOM     95  C   UNL A   1      30.884  27.877  22.973  1.00  0.00     0.020 A 
ATOM     96  C   UNL A   1      31.744  28.963  23.135  1.00  0.00     0.016 A 
ATOM     97  Br  UNL A   1      29.017  28.131  23.124  1.00  0.00    -0.051 Br
ENDBRANCH  89  91
ENDBRANCH  83  87
ENDBRANCH  78  81
ENDBRANCH  76  77
ENDBRANCH  75  76
ENDBRANCH   1  75
TORSDOF 16
ENDMDL
MODEL 2
REMARK VINA RESULT:     -12.4      6.859     12.135
REMARK SMILES O=C(NCCCCNC(=O)[C@@H]1CCCC[C@@H]1C(=O)Nc1cccc(Br)c1)c1ccc(-c2c3nc(c(-c4c(F)cc(S(=O)(=O)[O-])cc4F)c4ccc([nH]4)c(-c4c(F)cc(S(=O)(=O)[O-])cc4F)c4nc(c(-c5c(F)cc(S(=O)(=O)[O-])cc5F)c5ccc2[nH]5)C=C4)C=C3)cc1
REMARK SMILES IDX 5 1 4 2 3 3 1 4 2 5 27 7 28 8 92 9 29 10 91 11 30 12 31 13
REMARK SMILES IDX 32 14 85 15 33 16 90 17 84 18 86 19 34 20 89 21 83 22 82 23
REMARK SMILES IDX 35 25 69 26 48 27 68 28 49 29 52 30 67 31 87 32 50 33 51 34
REMARK SMILES IDX 66 36 88 37 53 38 36 39 37 40 46 41 38 42 39 43 45 44 47 45
REMARK SMILES IDX 40 46 41 47 42 48 43 49 44 50 70 51 71 52 80 53 72 54 73 55
REMARK SMILES IDX 79 56 81 57 74 58 75 59 76 60 77 61 78 62 54 63 55 64 64 65
REMARK SMILES IDX 56 66 57 67 63 68 65 69 58 70 59 71 60 72 61 73 62 74 6 75
REMARK SMILES IDX 7 76 8 77 9 78 10 80 11 81 12 82 16 83 13 84 15 85 14 86
REMARK SMILES IDX 17 87 18 88 19 89 20 91 21 92 26 93 22 94 24 95 23 96 25 97
REMARK H PARENT 3 6 86 24 52 35 8 79 19 90
REMARK Flexibility Score: inf
ROOT
ATOM      1  C   UNL A   1      35.622  33.011  28.296  1.00  0.00     0.023 C 
ENDROOT
BRANCH   1   2
ATOM      2  C   UNL A   1      36.349  32.905  29.630  1.00  0.00     0.116 C 
BRANCH   2   3
ATOM      3  N   UNL A   1      35.908  31.784  30.451  1.00  0.00    -0.352 N 
ATOM      4  O   UNL A   1      36.068  29.733  31.394  1.00  0.00    -0.269 OA
ATOM      5  C   UNL A   1      36.597  30.631  30.758  1.00  0.00     0.251 C 
ATOM      6  H   UNL A   1      35.004  31.859  30.833  1.00  0.00     0.163 HD
BRANCH   5   7
ATOM      7  C   UNL A   1      37.981  30.496  30.258  1.00  0.00     0.039 A 
ATOM      8  C   UNL A   1      38.207  30.322  28.892  1.00  0.00     0.014 A 
ATOM      9  C   UNL A   1      39.034  30.438  31.172  1.00  0.00     0.014 A 
ATOM     10  C   UNL A   1      39.461  29.919  28.459  1.00  0.00     0.010 A 
ATOM     11  C   UNL A   1      40.317  30.122  30.718  1.00  0.00     0.010 A 
ATOM     12  C   UNL A   1      40.531  29.814  29.366  1.00  0.00    -0.014 A 
BRANCH  12  13
ATOM     13  C   UNL A   1      41.865  29.410  28.857  1.00  0.00     0.031 A 
ATOM     14  C   UNL A   1      43.030  30.361  28.878  1.00  0.00     0.074 A 
ATOM     15  C   UNL A   1      42.025  28.144  28.425  1.00  0.00     0.049 A 
ATOM     16  N   UNL A   1      44.268  30.151  28.511  1.00  0.00    -0.248 NA
ATOM     17  C   UNL A   1      42.776  31.726  29.364  1.00  0.00     0.031 C 
ATOM     18  C   UNL A   1      40.960  27.139  28.355  1.00  0.00     0.029 A 
ATOM     19  N   UNL A   1      43.140  27.475  27.997  1.00  0.00    -0.354 N 
ATOM     20  C   UNL A   1      44.932  31.360  28.685  1.00  0.00     0.074 A 
ATOM     21  C   UNL A   1      43.956  32.305  29.184  1.00  0.00     0.031 C 
ATOM     22  C   UNL A   1      41.485  25.966  27.981  1.00  0.00     0.029 A 
ATOM     23  C   UNL A   1      42.908  26.149  27.718  1.00  0.00     0.049 A 
ATOM     24  H   UNL A   1      44.022  27.900  27.899  1.00  0.00     0.167 HD
ATOM     25  C   UNL A   1      46.236  31.649  28.452  1.00  0.00     0.037 A 
ATOM     26  C   UNL A   1      43.745  25.185  27.293  1.00  0.00     0.037 A 
ATOM     27  C   UNL A   1      47.206  30.688  27.990  1.00  0.00     0.049 A 
ATOM     28  C   UNL A   1      45.185  25.531  27.058  1.00  0.00     0.074 A 
ATOM     29  C   UNL A   1      48.559  30.871  27.763  1.00  0.00     0.029 A 
ATOM     30  N   UNL A   1      46.927  29.363  27.687  1.00  0.00    -0.354 N 
ATOM     31  N   UNL A   1      45.797  26.676  27.240  1.00  0.00    -0.248 NA
ATOM     32  C   UNL A   1      46.047  24.457  26.551  1.00  0.00     0.031 C 
ATOM     33  C   UNL A   1      49.090  29.665  27.290  1.00  0.00     0.029 A 
ATOM     34  C   UNL A   1      48.077  28.720  27.258  1.00  0.00     0.049 A 
ATOM     35  H   UNL A   1      46.040  28.941  27.765  1.00  0.00     0.167 HD
ATOM     36  C   UNL A   1      47.119  26.460  26.878  1.00  0.00     0.074 A 
ATOM     37  C   UNL A   1      47.222  25.068  26.485  1.00  0.00     0.031 C 
ATOM     38  C   UNL A   1      48.156  27.335  26.867  1.00  0.00     0.037 A 
BRANCH  25  39
ATOM     39  C   UNL A   1      46.686  33.069  28.664  1.00  0.00     0.058 A 
ATOM     40  C   UNL A   1      47.123  33.533  29.914  1.00  0.00     0.135 A 
ATOM     41  C   UNL A   1      46.711  33.971  27.587  1.00  0.00     0.135 A 
ATOM     42  F   UNL A   1      47.108  32.718  30.981  1.00  0.00    -0.206 F 
ATOM     43  C   UNL A   1      47.542  34.849  30.096  1.00  0.00     0.059 A 
ATOM     44  C   UNL A   1      47.146  35.285  27.741  1.00  0.00     0.059 A 
ATOM     45  F   UNL A   1      46.306  33.580  26.369  1.00  0.00    -0.206 F 
ATOM     46  C   UNL A   1      47.546  35.719  29.004  1.00  0.00     0.060 A 
BRANCH  46  47
ATOM     47  S   UNL A   1      48.082  37.426  29.254  1.00  0.00     0.124 S 
ATOM     48  O   UNL A   1      46.873  38.163  28.902  1.00  0.00    -0.237 OA
ATOM     49  O   UNL A   1      48.442  37.439  30.668  1.00  0.00    -0.237 OA
ATOM     50  O   UNL A   1      49.198  37.570  28.325  1.00  0.00    -0.744 OA
ENDBRANCH  46  47
ENDBRANCH  25  39
BRANCH  26  51
ATOM     51  C   UNL A   1      43.231  23.810  27.075  1.00  0.00     0.058 A 
ATOM     52  C   UNL A   1      42.893  23.365  25.789  1.00  0.00     0.135 A 
ATOM     53  C   UNL A   1      43.118  22.901  28.137  1.00  0.00     0.135 A 
ATOM     54  F   UNL A   1      42.984  24.200  24.743  1.00  0.00    -0.206 F 
ATOM     55  C   UNL A   1      42.457  22.064  25.564  1.00  0.00     0.059 A 
ATOM     56  C   UNL A   1      42.709  21.588  27.932  1.00  0.00     0.059 A 
ATOM     57  F   UNL A   1      43.451  23.275  29.383  1.00  0.00    -0.206 F 
ATOM     58  C   UNL A   1      42.373  21.180  26.642  1.00  0.00     0.060 A 
BRANCH  58  59
ATOM     59  S   UNL A   1      41.873  19.474  26.333  1.00  0.00     0.124 S 
ATOM     60  O   UNL A   1      40.430  19.615  26.175  1.00  0.00    -0.237 OA
ATOM     61  O   UNL A   1      42.619  19.146  25.122  1.00  0.00    -0.237 OA
ATOM     62  O   UNL A   1      42.313  18.775  27.537  1.00  0.00    -0.744 OA
ENDBRANCH  58  59
ENDBRANCH  26  51
BRANCH  38  63
ATOM     63  C   UNL A   1      49.488  26.798  26.433  1.00  0.00     0.058 A 
ATOM     64  C   UNL A   1      49.903  26.859  25.094  1.00  0.00     0.135 A 
ATOM     65  C   UNL A   1      50.365  26.229  27.369  1.00  0.00     0.135 A 
ATOM     66  F   UNL A   1      49.096  27.387  24.160  1.00  0.00    -0.206 F 
ATOM     67  C   UNL A   1      51.130  26.345  24.691  1.00  0.00     0.059 A 
ATOM     68  C   UNL A   1      51.606  25.729  26.993  1.00  0.00     0.059 A 
ATOM     69  F   UNL A   1      50.016  26.154  28.664  1.00  0.00    -0.206 F 
ATOM     70  C   UNL A   1      51.973  25.777  25.649  1.00  0.00     0.060 A 
BRANCH  70  71
ATOM     71  S   UNL A   1      53.569  25.120  25.120  1.00  0.00     0.124 S 
ATOM     72  O   UNL A   1      53.338  23.683  25.208  1.00  0.00    -0.237 OA
ATOM     73  O   UNL A   1      53.702  25.660  23.770  1.00  0.00    -0.237 OA
ATOM     74  O   UNL A   1      54.501  25.670  26.100  1.00  0.00    -0.744 OA
ENDBRANCH  70  71
ENDBRANCH  38  63
ENDBRANCH  12  13
ENDBRANCH   5   7
ENDBRANCH   2   3
ENDBRANCH   1   2
BRANCH   1  75
ATOM     75  C   UNL A   1      34.170  32.546  28.314  1.00  0.00     0.023 C 
BRANCH  75  76
ATOM     76  C   UNL A   1      33.926  31.193  27.655  1.00  0.00     0.116 C 
BRANCH  76  77
ATOM     77  N   UNL A   1      32.685  31.157  26.911  1.00  0.00    -0.356 N 
ATOM     78  C   UNL A   1      32.188  30.329  25.965  1.00  0.00     0.223 C 
ATOM     79  H   UNL A   1      32.073  31.891  27.143  1.00  0.00     0.163 HD
ATOM     80  O   UNL A   1      31.058  30.597  25.538  1.00  0.00    -0.275 OA
BRANCH  78  81
ATOM     81  C   UNL A   1      32.915  29.113  25.390  1.00  0.00     0.091 C 
ATOM     82  C   UNL A   1      32.626  28.674  23.958  1.00  0.00     0.014 C 
ATOM     83  C   UNL A   1      32.997  27.918  26.373  1.00  0.00     0.091 C 
ATOM     84  C   UNL A   1      33.738  27.766  23.446  1.00  0.00     0.001 C 
ATOM     85  C   UNL A   1      34.003  26.892  25.822  1.00  0.00     0.014 C 
ATOM     86  C   UNL A   1      33.865  26.538  24.337  1.00  0.00     0.001 C 
BRANCH  83  87
ATOM     87  C   UNL A   1      31.600  27.519  26.900  1.00  0.00     0.228 C 
ATOM     88  O   UNL A   1      31.233  27.942  28.003  1.00  0.00    -0.274 OA
ATOM     89  N   UNL A   1      30.642  26.924  26.139  1.00  0.00    -0.326 N 
ATOM     90  H   UNL A   1      29.745  27.318  26.229  1.00  0.00     0.169 HD
BRANCH  89  91
ATOM     91  C   UNL A   1      30.716  25.849  25.252  1.00  0.00     0.042 A 
ATOM     92  C   UNL A   1      30.353  25.967  23.910  1.00  0.00     0.026 A 
ATOM     93  C   UNL A   1      31.232  24.643  25.727  1.00  0.00     0.041 A 
ATOM     94  C   UNL A   1      30.368  24.847  23.078  1.00  0.00     0.003 A 
ATOM     95  C   UNL A   1      31.233  23.524  24.897  1.00  0.00     0.020 A 
ATOM     96  C   UNL A   1      30.784  23.615  23.580  1.00  0.00     0.016 A 
ATOM     97  Br  UNL A   1      31.808  21.856  25.576  1.00  0.00    -0.051 Br
ENDBRANCH  89  91
ENDBRANCH  83  87
ENDBRANCH  78  81
ENDBRANCH  76  77
ENDBRANCH  75  76
ENDBRANCH   1  75
TORSDOF 16
ENDMDL
MODEL 3
REMARK VINA RESULT:     -12.3      6.812     12.172
REMARK SMILES O=C(NCCCCNC(=O)[C@@H]1CCCC[C@@H]1C(=O)Nc1cccc(Br)c1)c1ccc(-c2c3nc(c(-c4c(F)cc(S(=O)(=O)[O-])cc4F)c4ccc([nH]4)c(-c4c(F)cc(S(=O)(=O)[O-])cc4F)c4nc(c(-c5c(F)cc(S(=O)(=O)[O-])cc5F)c5ccc2[nH]5)C=C4)C=C3)cc1
REMARK SMILES IDX 5 1 4 2 3 3 1 4 2 5 27 7 28 8 92 9 29 10 91 11 30 12 31 13
REMARK SMILES IDX 32 14 85 15 33 16 90 17 84 18 86 19 34 20 89 21 83 22 82 23
REMARK SMILES IDX 35 25 69 26 48 27 68 28 49 29 52 30 67 31 87 32 50 33 51 34
REMARK SMILES IDX 66 36 88 37 53 38 36 39 37 40 46 41 38 42 39 43 45 44 47 45
REMARK SMILES IDX 40 46 41 47 42 48 43 49 44 50 70 51 71 52 80 53 72 54 73 55
REMARK SMILES IDX 79 56 81 57 74 58 75 59 76 60 77 61 78 62 54 63 55 64 64 65
REMARK SMILES IDX 56 66 57 67 63 68 65 69 58 70 59 71 60 72 61 73 62 74 6 75
REMARK SMILES IDX 7 76 8 77 9 78 10 80 11 81 12 82 16 83 13 84 15 85 14 86
REMARK SMILES IDX 17 87 18 88 19 89 20 91 21 92 26 93 22 94 24 95 23 96 25 97
REMARK H PARENT 3 6 86 24 52 35 8 79 19 90
REMARK Flexibility Score: inf
ROOT
ATOM      1  C   UNL A   1      34.355  29.091  27.340  1.00  0.00     0.023 C 
ENDROOT
BRANCH   1   2
ATOM      2  C   UNL A   1      35.269  30.249  27.714  1.00  0.00     0.116 C 
BRANCH   2   3
ATOM      3  N   UNL A   1      35.286  30.544  29.142  1.00  0.00    -0.352 N 
ATOM      4  O   UNL A   1      36.145  30.543  31.236  1.00  0.00    -0.269 OA
ATOM      5  C   UNL A   1      36.303  30.320  30.045  1.00  0.00     0.251 C 
ATOM      6  H   UNL A   1      34.469  30.954  29.507  1.00  0.00     0.163 HD
BRANCH   5   7
ATOM      7  C   UNL A   1      37.572  29.763  29.537  1.00  0.00     0.039 A 
ATOM      8  C   UNL A   1      38.442  29.116  30.415  1.00  0.00     0.014 A 
ATOM      9  C   UNL A   1      37.932  29.986  28.207  1.00  0.00     0.014 A 
ATOM     10  C   UNL A   1      39.740  28.845  30.007  1.00  0.00     0.010 A 
ATOM     11  C   UNL A   1      39.210  29.626  27.774  1.00  0.00     0.010 A 
ATOM     12  C   UNL A   1      40.140  29.097  28.683  1.00  0.00    -0.014 A 
BRANCH  12  13
ATOM     13  C   UNL A   1      41.528  28.763  28.278  1.00  0.00     0.031 A 
ATOM     14  C   UNL A   1      42.630  29.784  28.351  1.00  0.00     0.074 A 
ATOM     15  C   UNL A   1      41.793  27.499  27.895  1.00  0.00     0.049 A 
ATOM     16  N   UNL A   1      43.901  29.641  28.075  1.00  0.00    -0.248 NA
ATOM     17  C   UNL A   1      42.261  31.143  28.777  1.00  0.00     0.031 C 
ATOM     18  C   UNL A   1      40.797  26.429  27.783  1.00  0.00     0.029 A 
ATOM     19  N   UNL A   1      42.973  26.889  27.565  1.00  0.00    -0.354 N 
ATOM     20  C   UNL A   1      44.478  30.893  28.259  1.00  0.00     0.074 A 
ATOM     21  C   UNL A   1      43.415  31.788  28.661  1.00  0.00     0.031 C 
ATOM     22  C   UNL A   1      41.417  25.281  27.480  1.00  0.00     0.029 A 
ATOM     23  C   UNL A   1      42.841  25.544  27.311  1.00  0.00     0.049 A 
ATOM     24  H   UNL A   1      43.833  27.365  27.515  1.00  0.00     0.167 HD
ATOM     25  C   UNL A   1      45.775  31.256  28.107  1.00  0.00     0.037 A 
ATOM     26  C   UNL A   1      43.762  24.624  26.972  1.00  0.00     0.037 A 
ATOM     27  C   UNL A   1      46.831  30.345  27.741  1.00  0.00     0.049 A 
ATOM     28  C   UNL A   1      45.192  25.051  26.826  1.00  0.00     0.074 A 
ATOM     29  C   UNL A   1      48.184  30.605  27.602  1.00  0.00     0.029 A 
ATOM     30  N   UNL A   1      46.653  28.998  27.459  1.00  0.00    -0.354 N 
ATOM     31  N   UNL A   1      45.719  26.236  27.015  1.00  0.00    -0.248 NA
ATOM     32  C   UNL A   1      46.149  24.019  26.411  1.00  0.00     0.031 C 
ATOM     33  C   UNL A   1      48.817  29.422  27.202  1.00  0.00     0.029 A 
ATOM     34  C   UNL A   1      47.867  28.417  27.129  1.00  0.00     0.049 A 
ATOM     35  H   UNL A   1      45.790  28.524  27.489  1.00  0.00     0.167 HD
ATOM     36  C   UNL A   1      47.075  26.093  26.751  1.00  0.00     0.074 A 
ATOM     37  C   UNL A   1      47.287  24.700  26.408  1.00  0.00     0.031 C 
ATOM     38  C   UNL A   1      48.055  27.029  26.785  1.00  0.00     0.037 A 
BRANCH  25  39
ATOM     39  C   UNL A   1      46.124  32.706  28.307  1.00  0.00     0.058 A 
ATOM     40  C   UNL A   1      46.053  33.640  27.261  1.00  0.00     0.135 A 
ATOM     41  C   UNL A   1      46.504  33.174  29.576  1.00  0.00     0.135 A 
ATOM     42  F   UNL A   1      45.708  33.246  26.025  1.00  0.00    -0.206 F 
ATOM     43  C   UNL A   1      46.373  34.981  27.461  1.00  0.00     0.059 A 
ATOM     44  C   UNL A   1      46.807  34.513  29.803  1.00  0.00     0.059 A 
ATOM     45  F   UNL A   1      46.587  32.324  30.612  1.00  0.00    -0.206 F 
ATOM     46  C   UNL A   1      46.754  35.407  28.734  1.00  0.00     0.060 A 
BRANCH  46  47
ATOM     47  S   UNL A   1      47.176  37.146  28.978  1.00  0.00     0.124 S 
ATOM     48  O   UNL A   1      48.268  37.316  28.025  1.00  0.00    -0.237 OA
ATOM     49  O   UNL A   1      45.930  37.825  28.639  1.00  0.00    -0.237 OA
ATOM     50  O   UNL A   1      47.557  37.209  30.386  1.00  0.00    -0.744 OA
ENDBRANCH  46  47
ENDBRANCH  25  39
BRANCH  26  51
ATOM     51  C   UNL A   1      43.347  23.214  26.760  1.00  0.00     0.058 A 
ATOM     52  C   UNL A   1      43.285  22.670  25.470  1.00  0.00     0.135 A 
ATOM     53  C   UNL A   1      43.058  22.372  27.844  1.00  0.00     0.135 A 
ATOM     54  F   UNL A   1      43.552  23.438  24.403  1.00  0.00    -0.206 F 
ATOM     55  C   UNL A   1      42.945  21.338  25.261  1.00  0.00     0.059 A 
ATOM     56  C   UNL A   1      42.741  21.031  27.662  1.00  0.00     0.059 A 
ATOM     57  F   UNL A   1      43.125  22.843  29.100  1.00  0.00    -0.206 F 
ATOM     58  C   UNL A   1      42.679  20.524  26.365  1.00  0.00     0.060 A 
BRANCH  58  59
ATOM     59  S   UNL A   1      42.308  18.779  26.090  1.00  0.00     0.124 S 
ATOM     60  O   UNL A   1      40.897  18.834  25.724  1.00  0.00    -0.237 OA
ATOM     61  O   UNL A   1      43.234  18.429  25.017  1.00  0.00    -0.237 OA
ATOM     62  O   UNL A   1      42.603  18.169  27.384  1.00  0.00    -0.744 OA
ENDBRANCH  58  59
ENDBRANCH  26  51
BRANCH  38  63
ATOM     63  C   UNL A   1      49.445  26.565  26.460  1.00  0.00     0.058 A 
ATOM     64  C   UNL A   1      49.989  26.724  25.176  1.00  0.00     0.135 A 
ATOM     65  C   UNL A   1      50.243  25.965  27.445  1.00  0.00     0.135 A 
ATOM     66  F   UNL A   1      49.261  27.284  24.198  1.00  0.00    -0.206 F 
ATOM     67  C   UNL A   1      51.270  26.277  24.872  1.00  0.00     0.059 A 
ATOM     68  C   UNL A   1      51.535  25.531  27.170  1.00  0.00     0.059 A 
ATOM     69  F   UNL A   1      49.769  25.797  28.690  1.00  0.00    -0.206 F 
ATOM     70  C   UNL A   1      52.034  25.677  25.876  1.00  0.00     0.060 A 
BRANCH  70  71
ATOM     71  S   UNL A   1      53.699  25.107  25.476  1.00  0.00     0.124 S 
ATOM     72  O   UNL A   1      54.468  25.640  26.595  1.00  0.00    -0.237 OA
ATOM     73  O   UNL A   1      53.539  23.656  25.451  1.00  0.00    -0.237 OA
ATOM     74  O   UNL A   1      53.964  25.723  24.179  1.00  0.00    -0.744 OA
ENDBRANCH  70  71
ENDBRANCH  38  63
ENDBRANCH  12  13
ENDBRANCH   5   7
ENDBRANCH   2   3
ENDBRANCH   1   2
BRANCH   1  75
ATOM     75  C   UNL A   1      32.945  29.491  26.919  1.00  0.00     0.023 C 
BRANCH  75  76
ATOM     76  C   UNL A   1      32.767  29.714  25.421  1.00  0.00     0.116 C 
BRANCH  76  77
ATOM     77  N   UNL A   1      31.602  29.035  24.897  1.00  0.00    -0.356 N 
ATOM     78  C   UNL A   1      31.397  27.809  24.366  1.00  0.00     0.223 C 
ATOM     79  H   UNL A   1      30.785  29.582  24.935  1.00  0.00     0.163 HD
ATOM     80  O   UNL A   1      30.239  27.547  24.017  1.00  0.00    -0.275 OA
BRANCH  78  81
ATOM     81  C   UNL A   1      32.477  26.746  24.162  1.00  0.00     0.091 C 
ATOM     82  C   UNL A   1      32.287  25.680  23.087  1.00  0.00     0.014 C 
ATOM     83  C   UNL A   1      33.032  26.164  25.485  1.00  0.00     0.091 C 
ATOM     84  C   UNL A   1      33.620  25.024  22.748  1.00  0.00     0.001 C 
ATOM     85  C   UNL A   1      34.306  25.359  25.176  1.00  0.00     0.014 C 
ATOM     86  C   UNL A   1      34.224  24.388  23.993  1.00  0.00     0.001 C 
BRANCH  83  87
ATOM     87  C   UNL A   1      31.899  25.623  26.387  1.00  0.00     0.228 C 
ATOM     88  O   UNL A   1      31.179  26.427  26.991  1.00  0.00    -0.274 OA
ATOM     89  N   UNL A   1      31.481  24.329  26.387  1.00  0.00    -0.326 N 
ATOM     90  H   UNL A   1      30.503  24.215  26.359  1.00  0.00     0.169 HD
BRANCH  89  91
ATOM     91  C   UNL A   1      32.202  23.134  26.419  1.00  0.00     0.042 A 
ATOM     92  C   UNL A   1      33.125  22.851  27.427  1.00  0.00     0.026 A 
ATOM     93  C   UNL A   1      31.930  22.180  25.439  1.00  0.00     0.041 A 
ATOM     94  C   UNL A   1      33.880  21.679  27.377  1.00  0.00     0.003 A 
ATOM     95  C   UNL A   1      32.696  21.016  25.385  1.00  0.00     0.020 A 
ATOM     96  C   UNL A   1      33.684  20.770  26.338  1.00  0.00     0.016 A 
ATOM     97  Br  UNL A   1      32.422  19.780  23.982  1.00  0.00    -0.051 Br
ENDBRANCH  89  91
ENDBRANCH  83  87
ENDBRANCH  78  81
ENDBRANCH  76  77
ENDBRANCH  75  76
ENDBRANCH   1  75
TORSDOF 16
ENDMDL
