MODEL 1
REMARK VINA RESULT:     -11.3      0.000      0.000
REMARK SMILES COCCC[C@@]1(C(=O)NCCCCNC(=O)c2ccc(-c3c4nc(c(-c5c(F)cc(S(=O)(=O)[O-])cc5F)c5ccc([nH]5)c(-c5c(F)cc(S(=O)(=O)[O-])cc5F)c5nc(c(-c6c(F)cc(S(=O)(=O)[O-])cc6F)c6ccc3[nH]6)C=C5)C=C4)cc2)CCCN(C(=O)C2CCC2)C1
REMARK SMILES IDX 11 1 10 2 9 3 7 4 8 5 6 7 83 8 93 9 84 10 86 11 85 12 5 13
REMARK SMILES IDX 4 14 3 15 2 16 1 17 87 18 88 19 89 20 90 21 92 22 91 23
REMARK SMILES IDX 12 24 13 25 14 26 15 27 16 29 17 30 18 31 82 32 19 33 81 34
REMARK SMILES IDX 20 35 21 36 22 37 75 38 23 39 80 40 74 41 76 42 24 43 79 44
REMARK SMILES IDX 73 45 72 46 25 48 59 49 38 50 58 51 39 52 42 53 57 54 77 55
REMARK SMILES IDX 40 56 41 57 56 59 78 60 43 61 26 62 27 63 36 64 28 65 29 66
REMARK SMILES IDX 35 67 37 68 30 69 31 70 32 71 33 72 34 73 60 74 61 75 70 76
REMARK SMILES IDX 62 77 63 78 69 79 71 80 64 81 65 82 66 83 67 84 68 85 44 86
REMARK SMILES IDX 45 87 54 88 46 89 47 90 53 91 55 92 48 93 49 94 50 95 51 96
REMARK SMILES IDX 52 97
REMARK H PARENT 9 6 14 28 76 47 42 58
REMARK Flexibility Score: inf
ROOT
ATOM      1  C   UNL A   1      32.434  29.713  27.059  1.00  0.00     0.023 C 
ENDROOT
BRANCH   1   2
ATOM      2  C   UNL A   1      32.210  29.683  25.551  1.00  0.00     0.116 C 
BRANCH   2   3
ATOM      3  N   UNL A   1      33.138  28.881  24.787  1.00  0.00    -0.356 N 
ATOM      4  C   UNL A   1      32.924  27.895  23.872  1.00  0.00     0.228 C 
ATOM      5  O   UNL A   1      33.906  27.630  23.163  1.00  0.00    -0.274 OA
ATOM      6  H   UNL A   1      34.087  29.081  24.956  1.00  0.00     0.163 HD
BRANCH   4   7
ATOM      7  C   UNL A   1      31.652  27.006  23.781  1.00  0.00     0.067 C 
ATOM      8  C   UNL A   1      31.069  26.825  25.227  1.00  0.00     0.020 C 
ATOM      9  C   UNL A   1      31.837  25.563  23.256  1.00  0.00     0.136 C 
ATOM     10  C   UNL A   1      31.960  25.940  26.117  1.00  0.00     0.023 C 
ATOM     11  N   UNL A   1      32.775  24.815  24.084  1.00  0.00    -0.341 N 
ATOM     12  C   UNL A   1      32.325  24.613  25.455  1.00  0.00     0.119 C 
BRANCH   7  13
ATOM     13  C   UNL A   1      30.604  27.723  22.874  1.00  0.00     0.021 C 
BRANCH  13  14
ATOM     14  C   UNL A   1      31.022  29.061  22.229  1.00  0.00     0.030 C 
BRANCH  14  15
ATOM     15  C   UNL A   1      29.971  30.175  22.233  1.00  0.00     0.159 C 
BRANCH  15  16
ATOM     16  O   UNL A   1      28.983  29.913  21.237  1.00  0.00    -0.385 OA
ATOM     17  C   UNL A   1      27.855  30.772  21.307  1.00  0.00     0.194 C 
ENDBRANCH  15  16
ENDBRANCH  14  15
ENDBRANCH  13  14
ENDBRANCH   7  13
BRANCH  11  18
ATOM     18  C   UNL A   1      33.911  24.261  23.492  1.00  0.00     0.225 C 
ATOM     19  O   UNL A   1      34.125  24.471  22.284  1.00  0.00    -0.275 OA
BRANCH  18  20
ATOM     20  C   UNL A   1      34.965  23.508  24.317  1.00  0.00     0.078 C 
ATOM     21  C   UNL A   1      36.296  22.984  23.743  1.00  0.00     0.013 C 
ATOM     22  C   UNL A   1      35.748  24.261  25.402  1.00  0.00     0.013 C 
ATOM     23  C   UNL A   1      37.008  23.475  25.013  1.00  0.00     0.002 C 
ENDBRANCH  18  20
ENDBRANCH  11  18
ENDBRANCH   4   7
ENDBRANCH   2   3
ENDBRANCH   1   2
BRANCH   1  24
ATOM     24  C   UNL A   1      33.682  29.013  27.578  1.00  0.00     0.023 C 
BRANCH  24  25
ATOM     25  C   UNL A   1      34.948  29.858  27.634  1.00  0.00     0.116 C 
BRANCH  25  26
ATOM     26  N   UNL A   1      35.093  30.637  28.859  1.00  0.00    -0.352 N 
ATOM     27  C   UNL A   1      36.172  30.720  29.711  1.00  0.00     0.251 C 
ATOM     28  H   UNL A   1      34.311  31.179  29.111  1.00  0.00     0.163 HD
ATOM     29  O   UNL A   1      36.111  31.383  30.743  1.00  0.00    -0.269 OA
BRANCH  27  30
ATOM     30  C   UNL A   1      37.395  29.959  29.390  1.00  0.00     0.039 A 
ATOM     31  C   UNL A   1      37.827  29.893  28.063  1.00  0.00     0.014 A 
ATOM     32  C   UNL A   1      38.166  29.413  30.418  1.00  0.00     0.014 A 
ATOM     33  C   UNL A   1      39.097  29.384  27.780  1.00  0.00     0.010 A 
ATOM     34  C   UNL A   1      39.460  28.989  30.143  1.00  0.00     0.010 A 
ATOM     35  C   UNL A   1      39.947  28.989  28.825  1.00  0.00    -0.014 A 
BRANCH  35  36
ATOM     36  C   UNL A   1      41.362  28.602  28.590  1.00  0.00     0.031 A 
ATOM     37  C   UNL A   1      42.422  29.665  28.534  1.00  0.00     0.074 A 
ATOM     38  C   UNL A   1      41.669  27.324  28.287  1.00  0.00     0.049 A 
ATOM     39  N   UNL A   1      43.667  29.572  28.148  1.00  0.00    -0.248 NA
ATOM     40  C   UNL A   1      42.010  31.024  28.918  1.00  0.00     0.031 C 
ATOM     41  C   UNL A   1      40.718  26.211  28.242  1.00  0.00     0.029 A 
ATOM     42  N   UNL A   1      42.863  26.752  27.923  1.00  0.00    -0.354 N 
ATOM     43  C   UNL A   1      44.173  30.865  28.197  1.00  0.00     0.074 A 
ATOM     44  C   UNL A   1      43.088  31.728  28.614  1.00  0.00     0.031 C 
ATOM     45  C   UNL A   1      41.365  25.093  27.873  1.00  0.00     0.029 A 
ATOM     46  C   UNL A   1      42.765  25.416  27.614  1.00  0.00     0.049 A 
ATOM     47  H   UNL A   1      43.710  27.253  27.887  1.00  0.00     0.167 HD
ATOM     48  C   UNL A   1      45.430  31.293  27.930  1.00  0.00     0.037 A 
ATOM     49  C   UNL A   1      43.690  24.551  27.152  1.00  0.00     0.037 A 
ATOM     50  C   UNL A   1      46.515  30.421  27.567  1.00  0.00     0.049 A 
ATOM     51  C   UNL A   1      45.096  25.032  26.922  1.00  0.00     0.074 A 
ATOM     52  C   UNL A   1      47.846  30.741  27.372  1.00  0.00     0.029 A 
ATOM     53  N   UNL A   1      46.392  29.056  27.347  1.00  0.00    -0.354 N 
ATOM     54  N   UNL A   1      45.578  26.246  27.045  1.00  0.00    -0.248 NA
ATOM     55  C   UNL A   1      46.085  24.031  26.497  1.00  0.00     0.031 C 
ATOM     56  C   UNL A   1      48.524  29.573  27.004  1.00  0.00     0.029 A 
ATOM     57  C   UNL A   1      47.622  28.520  27.006  1.00  0.00     0.049 A 
ATOM     58  H   UNL A   1      45.555  28.545  27.424  1.00  0.00     0.167 HD
ATOM     59  C   UNL A   1      46.929  26.152  26.733  1.00  0.00     0.074 A 
ATOM     60  C   UNL A   1      47.190  24.762  26.420  1.00  0.00     0.031 C 
ATOM     61  C   UNL A   1      47.867  27.130  26.711  1.00  0.00     0.037 A 
BRANCH  48  62
ATOM     62  C   UNL A   1      45.686  32.770  28.022  1.00  0.00     0.058 A 
ATOM     63  C   UNL A   1      45.500  33.623  26.922  1.00  0.00     0.135 A 
ATOM     64  C   UNL A   1      46.141  33.339  29.222  1.00  0.00     0.135 A 
ATOM     65  F   UNL A   1      45.080  33.129  25.747  1.00  0.00    -0.206 F 
ATOM     66  C   UNL A   1      45.808  34.977  26.993  1.00  0.00     0.059 A 
ATOM     67  C   UNL A   1      46.427  34.697  29.325  1.00  0.00     0.059 A 
ATOM     68  F   UNL A   1      46.332  32.570  30.306  1.00  0.00    -0.206 F 
ATOM     69  C   UNL A   1      46.282  35.502  28.196  1.00  0.00     0.060 A 
BRANCH  69  70
ATOM     70  S   UNL A   1      46.718  37.253  28.264  1.00  0.00     0.124 S 
ATOM     71  O   UNL A   1      48.086  37.189  28.771  1.00  0.00    -0.237 OA
ATOM     72  O   UNL A   1      46.578  37.669  26.873  1.00  0.00    -0.237 OA
ATOM     73  O   UNL A   1      45.732  37.811  29.184  1.00  0.00    -0.744 OA
ENDBRANCH  69  70
ENDBRANCH  48  62
BRANCH  49  74
ATOM     74  C   UNL A   1      43.307  23.138  26.897  1.00  0.00     0.058 A 
ATOM     75  C   UNL A   1      43.238  22.636  25.589  1.00  0.00     0.135 A 
ATOM     76  C   UNL A   1      43.065  22.246  27.954  1.00  0.00     0.135 A 
ATOM     77  F   UNL A   1      43.456  23.452  24.547  1.00  0.00    -0.206 F 
ATOM     78  C   UNL A   1      42.944  21.300  25.336  1.00  0.00     0.059 A 
ATOM     79  C   UNL A   1      42.788  20.902  27.727  1.00  0.00     0.059 A 
ATOM     80  F   UNL A   1      43.137  22.675  29.224  1.00  0.00    -0.206 F 
ATOM     81  C   UNL A   1      42.728  20.439  26.412  1.00  0.00     0.060 A 
BRANCH  81  82
ATOM     82  S   UNL A   1      42.439  18.687  26.076  1.00  0.00     0.124 S 
ATOM     83  O   UNL A   1      41.022  18.684  25.732  1.00  0.00    -0.237 OA
ATOM     84  O   UNL A   1      43.364  18.428  24.977  1.00  0.00    -0.237 OA
ATOM     85  O   UNL A   1      42.785  18.042  27.339  1.00  0.00    -0.744 OA
ENDBRANCH  81  82
ENDBRANCH  49  74
BRANCH  61  86
ATOM     86  C   UNL A   1      49.276  26.741  26.369  1.00  0.00     0.058 A 
ATOM     87  C   UNL A   1      50.089  26.054  27.283  1.00  0.00     0.135 A 
ATOM     88  C   UNL A   1      49.779  26.966  25.078  1.00  0.00     0.135 A 
ATOM     89  F   UNL A   1      49.655  25.823  28.532  1.00  0.00    -0.206 F 
ATOM     90  C   UNL A   1      51.354  25.599  26.927  1.00  0.00     0.059 A 
ATOM     91  C   UNL A   1      51.033  26.503  24.695  1.00  0.00     0.059 A 
ATOM     92  F   UNL A   1      49.036  27.613  24.166  1.00  0.00    -0.206 F 
ATOM     93  C   UNL A   1      51.814  25.821  25.627  1.00  0.00     0.060 A 
BRANCH  93  94
ATOM     94  S   UNL A   1      53.424  25.156  25.151  1.00  0.00     0.124 S 
ATOM     95  O   UNL A   1      53.521  25.587  23.761  1.00  0.00    -0.237 OA
ATOM     96  O   UNL A   1      54.328  25.821  26.086  1.00  0.00    -0.237 OA
ATOM     97  O   UNL A   1      53.271  23.718  25.354  1.00  0.00    -0.744 OA
ENDBRANCH  93  94
ENDBRANCH  61  86
ENDBRANCH  35  36
ENDBRANCH  27  30
ENDBRANCH  25  26
ENDBRANCH  24  25
ENDBRANCH   1  24
TORSDOF 20
ENDMDL
MODEL 2
REMARK VINA RESULT:     -10.9      2.861      8.666
REMARK SMILES COCCC[C@@]1(C(=O)NCCCCNC(=O)c2ccc(-c3c4nc(c(-c5c(F)cc(S(=O)(=O)[O-])cc5F)c5ccc([nH]5)c(-c5c(F)cc(S(=O)(=O)[O-])cc5F)c5nc(c(-c6c(F)cc(S(=O)(=O)[O-])cc6F)c6ccc3[nH]6)C=C5)C=C4)cc2)CCCN(C(=O)C2CCC2)C1
REMARK SMILES IDX 11 1 10 2 9 3 7 4 8 5 6 7 83 8 93 9 84 10 86 11 85 12 5 13
REMARK SMILES IDX 4 14 3 15 2 16 1 17 87 18 88 19 89 20 90 21 92 22 91 23
REMARK SMILES IDX 12 24 13 25 14 26 15 27 16 29 17 30 18 31 82 32 19 33 81 34
REMARK SMILES IDX 20 35 21 36 22 37 75 38 23 39 80 40 74 41 76 42 24 43 79 44
REMARK SMILES IDX 73 45 72 46 25 48 59 49 38 50 58 51 39 52 42 53 57 54 77 55
REMARK SMILES IDX 40 56 41 57 56 59 78 60 43 61 26 62 27 63 36 64 28 65 29 66
REMARK SMILES IDX 35 67 37 68 30 69 31 70 32 71 33 72 34 73 60 74 61 75 70 76
REMARK SMILES IDX 62 77 63 78 69 79 71 80 64 81 65 82 66 83 67 84 68 85 44 86
REMARK SMILES IDX 45 87 54 88 46 89 47 90 53 91 55 92 48 93 49 94 50 95 51 96
REMARK SMILES IDX 52 97
REMARK H PARENT 9 6 14 28 76 47 42 58
REMARK Flexibility Score: inf
ROOT
ATOM      1  C   UNL A   1      37.280  21.646  24.280  1.00  0.00     0.023 C 
ENDROOT
BRANCH   1   2
ATOM      2  C   UNL A   1      36.014  22.405  23.898  1.00  0.00     0.116 C 
BRANCH   2   3
ATOM      3  N   UNL A   1      35.285  23.013  24.989  1.00  0.00    -0.356 N 
ATOM      4  C   UNL A   1      34.171  22.603  25.657  1.00  0.00     0.228 C 
ATOM      5  O   UNL A   1      33.985  23.173  26.742  1.00  0.00    -0.274 OA
ATOM      6  H   UNL A   1      35.658  23.868  25.304  1.00  0.00     0.163 HD
BRANCH   4   7
ATOM      7  C   UNL A   1      33.082  21.646  25.098  1.00  0.00     0.067 C 
ATOM      8  C   UNL A   1      32.997  21.845  23.544  1.00  0.00     0.020 C 
ATOM      9  C   UNL A   1      31.633  21.862  25.594  1.00  0.00     0.136 C 
ATOM     10  C   UNL A   1      32.394  23.207  23.154  1.00  0.00     0.023 C 
ATOM     11  N   UNL A   1      31.163  23.207  25.287  1.00  0.00    -0.341 N 
ATOM     12  C   UNL A   1      31.070  23.490  23.861  1.00  0.00     0.119 C 
BRANCH   7  13
ATOM     13  C   UNL A   1      33.493  20.176  25.421  1.00  0.00     0.021 C 
BRANCH  13  14
ATOM     14  C   UNL A   1      33.359  19.137  24.289  1.00  0.00     0.030 C 
BRANCH  14  15
ATOM     15  C   UNL A   1      32.431  17.949  24.562  1.00  0.00     0.159 C 
BRANCH  15  16
ATOM     16  O   UNL A   1      33.126  16.725  24.324  1.00  0.00    -0.385 OA
ATOM     17  C   UNL A   1      32.965  15.763  25.354  1.00  0.00     0.194 C 
ENDBRANCH  15  16
ENDBRANCH  14  15
ENDBRANCH  13  14
ENDBRANCH   7  13
BRANCH  11  18
ATOM     18  C   UNL A   1      30.731  24.029  26.328  1.00  0.00     0.225 C 
ATOM     19  O   UNL A   1      30.078  23.528  27.261  1.00  0.00    -0.275 OA
BRANCH  18  20
ATOM     20  C   UNL A   1      31.145  25.505  26.416  1.00  0.00     0.078 C 
ATOM     21  C   UNL A   1      32.509  26.048  25.946  1.00  0.00     0.013 C 
ATOM     22  C   UNL A   1      30.444  26.536  25.519  1.00  0.00     0.013 C 
ATOM     23  C   UNL A   1      31.788  27.254  25.325  1.00  0.00     0.002 C 
ENDBRANCH  18  20
ENDBRANCH  11  18
ENDBRANCH   4   7
ENDBRANCH   2   3
ENDBRANCH   1   2
BRANCH   1  24
ATOM     24  C   UNL A   1      37.656  21.642  25.754  1.00  0.00     0.023 C 
BRANCH  24  25
ATOM     25  C   UNL A   1      39.148  21.667  26.064  1.00  0.00     0.116 C 
BRANCH  25  26
ATOM     26  N   UNL A   1      39.803  20.369  25.950  1.00  0.00    -0.352 N 
ATOM     27  C   UNL A   1      41.134  20.053  26.112  1.00  0.00     0.251 C 
ATOM     28  H   UNL A   1      39.213  19.614  25.729  1.00  0.00     0.163 HD
ATOM     29  O   UNL A   1      41.538  18.909  25.922  1.00  0.00    -0.269 OA
BRANCH  27  30
ATOM     30  C   UNL A   1      42.084  21.124  26.473  1.00  0.00     0.039 A 
ATOM     31  C   UNL A   1      42.611  21.934  25.464  1.00  0.00     0.014 A 
ATOM     32  C   UNL A   1      42.356  21.391  27.816  1.00  0.00     0.014 A 
ATOM     33  C   UNL A   1      43.315  23.090  25.811  1.00  0.00     0.010 A 
ATOM     34  C   UNL A   1      42.981  22.584  28.157  1.00  0.00     0.010 A 
ATOM     35  C   UNL A   1      43.448  23.456  27.159  1.00  0.00    -0.014 A 
BRANCH  35  36
ATOM     36  C   UNL A   1      44.038  24.756  27.571  1.00  0.00     0.031 A 
ATOM     37  C   UNL A   1      43.138  25.862  28.044  1.00  0.00     0.074 A 
ATOM     38  C   UNL A   1      45.354  24.987  27.384  1.00  0.00     0.049 A 
ATOM     39  N   UNL A   1      43.417  27.121  28.257  1.00  0.00    -0.248 NA
ATOM     40  C   UNL A   1      41.726  25.512  28.258  1.00  0.00     0.031 C 
ATOM     41  C   UNL A   1      46.322  24.016  26.868  1.00  0.00     0.029 A 
ATOM     42  N   UNL A   1      46.099  26.126  27.573  1.00  0.00    -0.354 N 
ATOM     43  C   UNL A   1      42.208  27.723  28.583  1.00  0.00     0.074 A 
ATOM     44  C   UNL A   1      41.190  26.697  28.503  1.00  0.00     0.031 C 
ATOM     45  C   UNL A   1      47.529  24.599  26.783  1.00  0.00     0.029 A 
ATOM     46  C   UNL A   1      47.415  25.994  27.197  1.00  0.00     0.049 A 
ATOM     47  H   UNL A   1      45.724  26.957  27.944  1.00  0.00     0.167 HD
ATOM     48  C   UNL A   1      41.970  29.010  28.930  1.00  0.00     0.037 A 
ATOM     49  C   UNL A   1      48.413  26.900  27.166  1.00  0.00     0.037 A 
ATOM     50  C   UNL A   1      42.996  30.010  29.058  1.00  0.00     0.049 A 
ATOM     51  C   UNL A   1      48.143  28.309  27.614  1.00  0.00     0.074 A 
ATOM     52  C   UNL A   1      42.873  31.315  29.498  1.00  0.00     0.029 A 
ATOM     53  N   UNL A   1      44.334  29.813  28.748  1.00  0.00    -0.354 N 
ATOM     54  N   UNL A   1      47.007  28.845  27.993  1.00  0.00    -0.248 NA
ATOM     55  C   UNL A   1      49.284  29.235  27.638  1.00  0.00     0.031 C 
ATOM     56  C   UNL A   1      44.134  31.918  29.425  1.00  0.00     0.029 A 
ATOM     57  C   UNL A   1      45.048  30.978  28.975  1.00  0.00     0.049 A 
ATOM     58  H   UNL A   1      44.719  28.970  28.418  1.00  0.00     0.167 HD
ATOM     59  C   UNL A   1      47.300  30.164  28.319  1.00  0.00     0.074 A 
ATOM     60  C   UNL A   1      48.720  30.344  28.098  1.00  0.00     0.031 C 
ATOM     61  C   UNL A   1      46.466  31.136  28.764  1.00  0.00     0.037 A 
BRANCH  48  62
ATOM     62  C   UNL A   1      40.542  29.398  29.190  1.00  0.00     0.058 A 
ATOM     63  C   UNL A   1      39.624  29.583  28.144  1.00  0.00     0.135 A 
ATOM     64  C   UNL A   1      40.090  29.605  30.503  1.00  0.00     0.135 A 
ATOM     65  F   UNL A   1      40.007  29.412  26.869  1.00  0.00    -0.206 F 
ATOM     66  C   UNL A   1      38.324  30.012  28.387  1.00  0.00     0.059 A 
ATOM     67  C   UNL A   1      38.785  30.006  30.772  1.00  0.00     0.059 A 
ATOM     68  F   UNL A   1      40.926  29.439  31.540  1.00  0.00    -0.206 F 
ATOM     69  C   UNL A   1      37.917  30.232  29.704  1.00  0.00     0.060 A 
BRANCH  69  70
ATOM     70  S   UNL A   1      36.240  30.829  30.005  1.00  0.00     0.124 S 
ATOM     71  O   UNL A   1      36.475  32.255  30.212  1.00  0.00    -0.237 OA
ATOM     72  O   UNL A   1      35.551  30.475  28.768  1.00  0.00    -0.237 OA
ATOM     73  O   UNL A   1      35.822  30.083  31.187  1.00  0.00    -0.744 OA
ENDBRANCH  69  70
ENDBRANCH  48  62
BRANCH  49  74
ATOM     74  C   UNL A   1      49.763  26.482  26.705  1.00  0.00     0.058 A 
ATOM     75  C   UNL A   1      50.743  26.075  27.622  1.00  0.00     0.135 A 
ATOM     76  C   UNL A   1      50.081  26.421  25.339  1.00  0.00     0.135 A 
ATOM     77  F   UNL A   1      50.487  26.121  28.939  1.00  0.00    -0.206 F 
ATOM     78  C   UNL A   1      51.989  25.620  27.204  1.00  0.00     0.059 A 
ATOM     79  C   UNL A   1      51.313  25.952  24.895  1.00  0.00     0.059 A 
ATOM     80  F   UNL A   1      49.171  26.783  24.421  1.00  0.00    -0.206 F 
ATOM     81  C   UNL A   1      52.262  25.554  25.837  1.00  0.00     0.060 A 
BRANCH  81  82
ATOM     82  S   UNL A   1      53.848  24.876  25.301  1.00  0.00     0.124 S 
ATOM     83  O   UNL A   1      53.511  23.473  25.088  1.00  0.00    -0.237 OA
ATOM     84  O   UNL A   1      54.125  25.656  24.099  1.00  0.00    -0.237 OA
ATOM     85  O   UNL A   1      54.729  25.151  26.432  1.00  0.00    -0.744 OA
ENDBRANCH  81  82
ENDBRANCH  49  74
BRANCH  61  86
ATOM     86  C   UNL A   1      47.059  32.478  29.078  1.00  0.00     0.058 A 
ATOM     87  C   UNL A   1      47.111  33.500  28.117  1.00  0.00     0.135 A 
ATOM     88  C   UNL A   1      47.484  32.777  30.382  1.00  0.00     0.135 A 
ATOM     89  F   UNL A   1      46.724  33.260  26.855  1.00  0.00    -0.206 F 
ATOM     90  C   UNL A   1      47.561  34.775  28.441  1.00  0.00     0.059 A 
ATOM     91  C   UNL A   1      47.919  34.050  30.732  1.00  0.00     0.059 A 
ATOM     92  F   UNL A   1      47.447  31.834  31.337  1.00  0.00    -0.206 F 
ATOM     93  C   UNL A   1      47.955  35.043  29.755  1.00  0.00     0.060 A 
BRANCH  93  94
ATOM     94  S   UNL A   1      48.460  36.723  30.183  1.00  0.00     0.124 S 
ATOM     95  O   UNL A   1      49.572  36.939  29.264  1.00  0.00    -0.237 OA
ATOM     96  O   UNL A   1      47.251  37.494  29.908  1.00  0.00    -0.237 OA
ATOM     97  O   UNL A   1      48.821  36.620  31.594  1.00  0.00    -0.744 OA
ENDBRANCH  93  94
ENDBRANCH  61  86
ENDBRANCH  35  36
ENDBRANCH  27  30
ENDBRANCH  25  26
ENDBRANCH  24  25
ENDBRANCH   1  24
TORSDOF 20
ENDMDL
MODEL 3
REMARK VINA RESULT:     -10.8      6.475     12.131
REMARK SMILES COCCC[C@@]1(C(=O)NCCCCNC(=O)c2ccc(-c3c4nc(c(-c5c(F)cc(S(=O)(=O)[O-])cc5F)c5ccc([nH]5)c(-c5c(F)cc(S(=O)(=O)[O-])cc5F)c5nc(c(-c6c(F)cc(S(=O)(=O)[O-])cc6F)c6ccc3[nH]6)C=C5)C=C4)cc2)CCCN(C(=O)C2CCC2)C1
REMARK SMILES IDX 11 1 10 2 9 3 7 4 8 5 6 7 83 8 93 9 84 10 86 11 85 12 5 13
REMARK SMILES IDX 4 14 3 15 2 16 1 17 87 18 88 19 89 20 90 21 92 22 91 23
REMARK SMILES IDX 12 24 13 25 14 26 15 27 16 29 17 30 18 31 82 32 19 33 81 34
REMARK SMILES IDX 20 35 21 36 22 37 75 38 23 39 80 40 74 41 76 42 24 43 79 44
REMARK SMILES IDX 73 45 72 46 25 48 59 49 38 50 58 51 39 52 42 53 57 54 77 55
REMARK SMILES IDX 40 56 41 57 56 59 78 60 43 61 26 62 27 63 36 64 28 65 29 66
REMARK SMILES IDX 35 67 37 68 30 69 31 70 32 71 33 72 34 73 60 74 61 75 70 76
REMARK SMILES IDX 62 77 63 78 69 79 71 80 64 81 65 82 66 83 67 84 68 85 44 86
REMARK SMILES IDX 45 87 54 88 46 89 47 90 53 91 55 92 48 93 49 94 50 95 51 96
REMARK SMILES IDX 52 97
REMARK H PARENT 9 6 14 28 76 47 42 58
REMARK Flexibility Score: inf
ROOT
ATOM      1  C   UNL A   1      36.973  23.545  24.414  1.00  0.00     0.023 C 
ENDROOT
BRANCH   1   2
ATOM      2  C   UNL A   1      35.536  23.957  24.715  1.00  0.00     0.116 C 
BRANCH   2   3
ATOM      3  N   UNL A   1      34.577  23.732  23.657  1.00  0.00    -0.356 N 
ATOM      4  C   UNL A   1      33.226  23.903  23.624  1.00  0.00     0.228 C 
ATOM      5  O   UNL A   1      32.740  23.933  22.485  1.00  0.00    -0.274 OA
ATOM      6  H   UNL A   1      34.966  23.398  22.816  1.00  0.00     0.163 HD
BRANCH   4   7
ATOM      7  C   UNL A   1      32.283  23.890  24.860  1.00  0.00     0.067 C 
ATOM      8  C   UNL A   1      30.801  23.798  24.352  1.00  0.00     0.020 C 
ATOM      9  C   UNL A   1      32.301  25.139  25.772  1.00  0.00     0.136 C 
ATOM     10  C   UNL A   1      30.331  25.091  23.660  1.00  0.00     0.023 C 
ATOM     11  N   UNL A   1      31.951  26.343  25.029  1.00  0.00    -0.341 N 
ATOM     12  C   UNL A   1      30.593  26.339  24.501  1.00  0.00     0.119 C 
BRANCH   7  13
ATOM     13  C   UNL A   1      32.621  22.644  25.735  1.00  0.00     0.021 C 
BRANCH  13  14
ATOM     14  C   UNL A   1      31.942  21.310  25.362  1.00  0.00     0.030 C 
BRANCH  14  15
ATOM     15  C   UNL A   1      32.874  20.149  25.004  1.00  0.00     0.159 C 
BRANCH  15  16
ATOM     16  O   UNL A   1      32.148  18.920  25.025  1.00  0.00    -0.385 OA
ATOM     17  C   UNL A   1      32.972  17.765  24.975  1.00  0.00     0.194 C 
ENDBRANCH  15  16
ENDBRANCH  14  15
ENDBRANCH  13  14
ENDBRANCH   7  13
BRANCH  11  18
ATOM     18  C   UNL A   1      32.851  27.409  25.000  1.00  0.00     0.225 C 
ATOM     19  O   UNL A   1      33.438  27.674  23.935  1.00  0.00    -0.275 OA
BRANCH  18  20
ATOM     20  C   UNL A   1      33.043  28.337  26.208  1.00  0.00     0.078 C 
ATOM     21  C   UNL A   1      34.405  28.620  26.871  1.00  0.00     0.013 C 
ATOM     22  C   UNL A   1      32.831  29.848  26.036  1.00  0.00     0.013 C 
ATOM     23  C   UNL A   1      34.018  30.103  26.975  1.00  0.00     0.002 C 
ENDBRANCH  18  20
ENDBRANCH  11  18
ENDBRANCH   4   7
ENDBRANCH   2   3
ENDBRANCH   1   2
BRANCH   1  24
ATOM     24  C   UNL A   1      37.716  22.803  25.515  1.00  0.00     0.023 C 
BRANCH  24  25
ATOM     25  C   UNL A   1      38.573  23.660  26.438  1.00  0.00     0.116 C 
BRANCH  25  26
ATOM     26  N   UNL A   1      40.006  23.566  26.179  1.00  0.00    -0.352 N 
ATOM     27  C   UNL A   1      41.014  24.423  26.565  1.00  0.00     0.251 C 
ATOM     28  H   UNL A   1      40.293  22.782  25.659  1.00  0.00     0.163 HD
ATOM     29  O   UNL A   1      42.174  24.231  26.211  1.00  0.00    -0.269 OA
BRANCH  27  30
ATOM     30  C   UNL A   1      40.672  25.610  27.373  1.00  0.00     0.039 A 
ATOM     31  C   UNL A   1      39.695  25.499  28.365  1.00  0.00     0.014 A 
ATOM     32  C   UNL A   1      41.401  26.791  27.219  1.00  0.00     0.014 A 
ATOM     33  C   UNL A   1      39.533  26.537  29.286  1.00  0.00     0.010 A 
ATOM     34  C   UNL A   1      41.298  27.782  28.187  1.00  0.00     0.010 A 
ATOM     35  C   UNL A   1      40.378  27.656  29.243  1.00  0.00    -0.014 A 
BRANCH  35  36
ATOM     36  C   UNL A   1      40.359  28.703  30.297  1.00  0.00     0.031 A 
ATOM     37  C   UNL A   1      41.232  28.550  31.510  1.00  0.00     0.074 A 
ATOM     38  C   UNL A   1      39.460  29.707  30.233  1.00  0.00     0.049 A 
ATOM     39  N   UNL A   1      41.224  29.230  32.626  1.00  0.00    -0.248 NA
ATOM     40  C   UNL A   1      42.210  27.452  31.480  1.00  0.00     0.031 C 
ATOM     41  C   UNL A   1      38.511  29.927  29.139  1.00  0.00     0.029 A 
ATOM     42  N   UNL A   1      39.174  30.711  31.125  1.00  0.00    -0.354 N 
ATOM     43  C   UNL A   1      42.160  28.614  33.447  1.00  0.00     0.074 A 
ATOM     44  C   UNL A   1      42.688  27.484  32.713  1.00  0.00     0.031 C 
ATOM     45  C   UNL A   1      37.750  30.997  29.425  1.00  0.00     0.029 A 
ATOM     46  C   UNL A   1      38.126  31.513  30.737  1.00  0.00     0.049 A 
ATOM     47  H   UNL A   1      39.673  30.844  31.963  1.00  0.00     0.167 HD
ATOM     48  C   UNL A   1      42.553  28.966  34.694  1.00  0.00     0.037 A 
ATOM     49  C   UNL A   1      37.519  32.533  31.375  1.00  0.00     0.037 A 
ATOM     50  C   UNL A   1      42.061  30.122  35.395  1.00  0.00     0.049 A 
ATOM     51  C   UNL A   1      38.011  32.949  32.733  1.00  0.00     0.074 A 
ATOM     52  C   UNL A   1      42.465  30.621  36.620  1.00  0.00     0.029 A 
ATOM     53  N   UNL A   1      41.057  30.960  34.930  1.00  0.00    -0.354 N 
ATOM     54  N   UNL A   1      38.951  32.402  33.467  1.00  0.00    -0.248 NA
ATOM     55  C   UNL A   1      37.370  34.118  33.350  1.00  0.00     0.031 C 
ATOM     56  C   UNL A   1      41.684  31.745  36.910  1.00  0.00     0.029 A 
ATOM     57  C   UNL A   1      40.818  31.967  35.850  1.00  0.00     0.049 A 
ATOM     58  H   UNL A   1      40.586  30.855  34.073  1.00  0.00     0.167 HD
ATOM     59  C   UNL A   1      39.028  33.171  34.622  1.00  0.00     0.074 A 
ATOM     60  C   UNL A   1      38.044  34.226  34.488  1.00  0.00     0.031 C 
ATOM     61  C   UNL A   1      39.843  33.018  35.694  1.00  0.00     0.037 A 
BRANCH  48  62
ATOM     62  C   UNL A   1      43.562  28.083  35.371  1.00  0.00     0.058 A 
ATOM     63  C   UNL A   1      44.942  28.315  35.258  1.00  0.00     0.135 A 
ATOM     64  C   UNL A   1      43.144  26.977  36.129  1.00  0.00     0.135 A 
ATOM     65  F   UNL A   1      45.396  29.350  34.533  1.00  0.00    -0.206 F 
ATOM     66  C   UNL A   1      45.873  27.453  35.827  1.00  0.00     0.059 A 
ATOM     67  C   UNL A   1      44.057  26.117  36.732  1.00  0.00     0.059 A 
ATOM     68  F   UNL A   1      41.836  26.711  36.272  1.00  0.00    -0.206 F 
ATOM     69  C   UNL A   1      45.420  26.350  36.552  1.00  0.00     0.060 A 
BRANCH  69  70
ATOM     70  S   UNL A   1      46.637  25.214  37.251  1.00  0.00     0.124 S 
ATOM     71  O   UNL A   1      45.973  24.805  38.485  1.00  0.00    -0.237 OA
ATOM     72  O   UNL A   1      46.741  24.187  36.219  1.00  0.00    -0.237 OA
ATOM     73  O   UNL A   1      47.821  26.050  37.421  1.00  0.00    -0.744 OA
ENDBRANCH  69  70
ENDBRANCH  48  62
BRANCH  49  74
ATOM     74  C   UNL A   1      36.389  33.238  30.716  1.00  0.00     0.058 A 
ATOM     75  C   UNL A   1      35.081  33.120  31.209  1.00  0.00     0.135 A 
ATOM     76  C   UNL A   1      36.601  34.093  29.622  1.00  0.00     0.135 A 
ATOM     77  F   UNL A   1      34.829  32.310  32.249  1.00  0.00    -0.206 F 
ATOM     78  C   UNL A   1      34.022  33.823  30.644  1.00  0.00     0.059 A 
ATOM     79  C   UNL A   1      35.562  34.822  29.052  1.00  0.00     0.059 A 
ATOM     80  F   UNL A   1      37.837  34.253  29.126  1.00  0.00    -0.206 F 
ATOM     81  C   UNL A   1      34.275  34.679  29.570  1.00  0.00     0.060 A 
BRANCH  81  82
ATOM     82  S   UNL A   1      32.911  35.658  28.903  1.00  0.00     0.124 S 
ATOM     83  O   UNL A   1      32.277  34.702  28.001  1.00  0.00    -0.237 OA
ATOM     84  O   UNL A   1      32.158  35.996  30.107  1.00  0.00    -0.237 OA
ATOM     85  O   UNL A   1      33.587  36.780  28.261  1.00  0.00    -0.744 OA
ENDBRANCH  81  82
ENDBRANCH  49  74
BRANCH  61  86
ATOM     86  C   UNL A   1      39.740  34.026  36.801  1.00  0.00     0.058 A 
ATOM     87  C   UNL A   1      38.918  33.808  37.917  1.00  0.00     0.135 A 
ATOM     88  C   UNL A   1      40.553  35.171  36.795  1.00  0.00     0.135 A 
ATOM     89  F   UNL A   1      38.117  32.732  37.966  1.00  0.00    -0.206 F 
ATOM     90  C   UNL A   1      38.907  34.691  38.992  1.00  0.00     0.059 A 
ATOM     91  C   UNL A   1      40.573  36.056  37.867  1.00  0.00     0.059 A 
ATOM     92  F   UNL A   1      41.363  35.419  35.753  1.00  0.00    -0.206 F 
ATOM     93  C   UNL A   1      39.745  35.809  38.961  1.00  0.00     0.060 A 
BRANCH  93  94
ATOM     94  S   UNL A   1      39.783  36.904  40.396  1.00  0.00     0.124 S 
ATOM     95  O   UNL A   1      40.990  36.452  41.078  1.00  0.00    -0.237 OA
ATOM     96  O   UNL A   1      39.859  38.226  39.780  1.00  0.00    -0.237 OA
ATOM     97  O   UNL A   1      38.527  36.611  41.080  1.00  0.00    -0.744 OA
ENDBRANCH  93  94
ENDBRANCH  61  86
ENDBRANCH  35  36
ENDBRANCH  27  30
ENDBRANCH  25  26
ENDBRANCH  24  25
ENDBRANCH   1  24
TORSDOF 20
ENDMDL
