MODEL 1
REMARK VINA RESULT:     -11.4      0.000      0.000
REMARK SMILES C[C@@H]1CC[C@@]1(SC1CCCCC1)C(=O)NCCCCNC(=O)c1ccc(-c2c3nc(c(-c4c(F)cc(S(=O)(=O)[O-])cc4F)c4ccc([nH]4)c(-c4c(F)cc(S(=O)(=O)[O-])cc4F)c4nc(c(-c5c(F)cc(S(=O)(=O)[O-])cc5F)c5ccc2[nH]5)C=C4)C=C3)cc1
REMARK SMILES IDX 18 1 17 2 16 3 15 4 13 5 14 6 5 8 1 9 2 10 3 11 4 12 6 13
REMARK SMILES IDX 7 14 8 15 12 16 9 17 11 18 10 19 19 20 20 21 21 22 22 24
REMARK SMILES IDX 23 25 24 26 88 27 25 28 87 29 26 30 27 31 28 32 81 33 29 34
REMARK SMILES IDX 86 35 80 36 82 37 30 38 85 39 79 40 78 41 31 43 65 44 44 45
REMARK SMILES IDX 64 46 45 47 48 48 63 49 83 50 46 51 47 52 62 54 84 55 49 56
REMARK SMILES IDX 32 57 33 58 42 59 34 60 35 61 41 62 43 63 36 64 37 65 38 66
REMARK SMILES IDX 39 67 40 68 66 69 67 70 76 71 68 72 69 73 75 74 77 75 70 76
REMARK SMILES IDX 71 77 72 78 73 79 74 80 50 81 51 82 60 83 52 84 53 85 59 86
REMARK SMILES IDX 61 87 54 88 55 89 56 90 57 91 58 92
REMARK H PARENT 15 7 20 23 82 42 48 53
REMARK Flexibility Score: inf
ROOT
ATOM      1  C   UNL A   1      31.343  32.169  26.637  1.00  0.00     0.023 C 
ENDROOT
BRANCH   1   2
ATOM      2  C   UNL A   1      31.485  30.808  25.952  1.00  0.00     0.023 C 
BRANCH   2   3
ATOM      3  C   UNL A   1      32.773  30.077  26.309  1.00  0.00     0.116 C 
BRANCH   3   4
ATOM      4  N   UNL A   1      33.508  29.703  25.121  1.00  0.00    -0.355 N 
ATOM      5  C   UNL A   1      33.415  28.587  24.323  1.00  0.00     0.236 C 
ATOM      6  O   UNL A   1      34.119  28.618  23.301  1.00  0.00    -0.273 OA
ATOM      7  H   UNL A   1      34.187  30.357  24.837  1.00  0.00     0.163 HD
BRANCH   5   8
ATOM      8  C   UNL A   1      32.505  27.356  24.706  1.00  0.00     0.097 C 
ATOM      9  C   UNL A   1      33.779  24.990  24.056  1.00  0.00     0.009 C 
ATOM     10  C   UNL A   1      33.424  26.082  25.049  1.00  0.00     0.012 C 
ATOM     11  C   UNL A   1      32.405  25.681  26.129  1.00  0.00     0.007 C 
ATOM     12  C   UNL A   1      31.908  27.129  26.131  1.00  0.00     0.028 C 
BRANCH   8  13
ATOM     13  S   UNL A   1      31.301  26.906  23.337  1.00  0.00    -0.141 SA
BRANCH  13  14
ATOM     14  C   UNL A   1      30.063  28.253  23.243  1.00  0.00     0.047 C 
ATOM     15  C   UNL A   1      30.436  29.328  22.219  1.00  0.00     0.014 C 
ATOM     16  C   UNL A   1      28.594  27.827  23.164  1.00  0.00     0.014 C 
ATOM     17  C   UNL A   1      29.465  30.507  22.264  1.00  0.00     0.001 C 
ATOM     18  C   UNL A   1      27.633  29.019  23.128  1.00  0.00     0.001 C 
ATOM     19  C   UNL A   1      28.028  30.039  22.064  1.00  0.00     0.000 C 
ENDBRANCH  13  14
ENDBRANCH   8  13
ENDBRANCH   5   8
ENDBRANCH   3   4
ENDBRANCH   2   3
ENDBRANCH   1   2
BRANCH   1  20
ATOM     20  C   UNL A   1      32.629  32.716  27.248  1.00  0.00     0.116 C 
BRANCH  20  21
ATOM     21  N   UNL A   1      32.516  34.115  27.626  1.00  0.00    -0.352 N 
ATOM     22  C   UNL A   1      33.198  34.794  28.605  1.00  0.00     0.251 C 
ATOM     23  H   UNL A   1      31.866  34.646  27.112  1.00  0.00     0.163 HD
ATOM     24  O   UNL A   1      32.858  35.937  28.905  1.00  0.00    -0.269 OA
BRANCH  22  25
ATOM     25  C   UNL A   1      34.319  34.137  29.306  1.00  0.00     0.039 A 
ATOM     26  C   UNL A   1      35.626  34.414  28.900  1.00  0.00     0.014 A 
ATOM     27  C   UNL A   1      34.083  33.251  30.362  1.00  0.00     0.014 A 
ATOM     28  C   UNL A   1      36.697  33.827  29.577  1.00  0.00     0.010 A 
ATOM     29  C   UNL A   1      35.152  32.735  31.087  1.00  0.00     0.010 A 
ATOM     30  C   UNL A   1      36.471  32.998  30.689  1.00  0.00    -0.014 A 
BRANCH  30  31
ATOM     31  C   UNL A   1      37.606  32.369  31.414  1.00  0.00     0.031 A 
ATOM     32  C   UNL A   1      38.010  32.885  32.772  1.00  0.00     0.074 A 
ATOM     33  C   UNL A   1      38.290  31.359  30.838  1.00  0.00     0.049 A 
ATOM     34  N   UNL A   1      38.976  32.478  33.554  1.00  0.00    -0.248 NA
ATOM     35  C   UNL A   1      37.247  34.022  33.313  1.00  0.00     0.031 C 
ATOM     36  C   UNL A   1      38.034  30.813  29.502  1.00  0.00     0.029 A 
ATOM     37  N   UNL A   1      39.346  30.614  31.300  1.00  0.00    -0.354 N 
ATOM     38  C   UNL A   1      38.951  33.319  34.661  1.00  0.00     0.074 A 
ATOM     39  C   UNL A   1      37.905  34.290  34.433  1.00  0.00     0.031 C 
ATOM     40  C   UNL A   1      38.890  29.805  29.266  1.00  0.00     0.029 A 
ATOM     41  C   UNL A   1      39.777  29.653  30.414  1.00  0.00     0.049 A 
ATOM     42  H   UNL A   1      39.756  30.753  32.184  1.00  0.00     0.167 HD
ATOM     43  C   UNL A   1      39.714  33.270  35.778  1.00  0.00     0.037 A 
ATOM     44  C   UNL A   1      40.777  28.755  30.517  1.00  0.00     0.037 A 
ATOM     45  C   UNL A   1      40.721  32.271  36.022  1.00  0.00     0.049 A 
ATOM     46  C   UNL A   1      41.586  28.706  31.788  1.00  0.00     0.074 A 
ATOM     47  C   UNL A   1      41.489  32.086  37.158  1.00  0.00     0.029 A 
ATOM     48  N   UNL A   1      41.099  31.290  35.118  1.00  0.00    -0.354 N 
ATOM     49  N   UNL A   1      41.485  29.454  32.862  1.00  0.00    -0.248 NA
ATOM     50  C   UNL A   1      42.631  27.677  31.870  1.00  0.00     0.031 C 
ATOM     51  C   UNL A   1      42.372  31.028  36.921  1.00  0.00     0.029 A 
ATOM     52  C   UNL A   1      42.105  30.511  35.664  1.00  0.00     0.049 A 
ATOM     53  H   UNL A   1      40.711  31.165  34.222  1.00  0.00     0.167 HD
ATOM     54  C   UNL A   1      42.421  28.955  33.762  1.00  0.00     0.074 A 
ATOM     55  C   UNL A   1      43.067  27.834  33.112  1.00  0.00     0.031 C 
ATOM     56  C   UNL A   1      42.722  29.383  35.013  1.00  0.00     0.037 A 
BRANCH  43  57
ATOM     57  C   UNL A   1      39.495  34.316  36.837  1.00  0.00     0.058 A 
ATOM     58  C   UNL A   1      38.710  34.070  37.974  1.00  0.00     0.135 A 
ATOM     59  C   UNL A   1      40.162  35.551  36.757  1.00  0.00     0.135 A 
ATOM     60  F   UNL A   1      38.034  32.916  38.092  1.00  0.00    -0.206 F 
ATOM     61  C   UNL A   1      38.592  35.009  38.993  1.00  0.00     0.059 A 
ATOM     62  C   UNL A   1      40.081  36.493  37.779  1.00  0.00     0.059 A 
ATOM     63  F   UNL A   1      40.920  35.842  35.688  1.00  0.00    -0.206 F 
ATOM     64  C   UNL A   1      39.291  36.212  38.892  1.00  0.00     0.060 A 
BRANCH  64  65
ATOM     65  S   UNL A   1      39.180  37.390  40.256  1.00  0.00     0.124 S 
ATOM     66  O   UNL A   1      38.157  38.309  39.764  1.00  0.00    -0.237 OA
ATOM     67  O   UNL A   1      38.783  36.537  41.371  1.00  0.00    -0.237 OA
ATOM     68  O   UNL A   1      40.529  37.942  40.341  1.00  0.00    -0.744 OA
ENDBRANCH  64  65
ENDBRANCH  43  57
BRANCH  44  69
ATOM     69  C   UNL A   1      41.075  27.819  29.397  1.00  0.00     0.058 A 
ATOM     70  C   UNL A   1      40.282  26.683  29.167  1.00  0.00     0.135 A 
ATOM     71  C   UNL A   1      42.191  28.011  28.567  1.00  0.00     0.135 A 
ATOM     72  F   UNL A   1      39.204  26.453  29.931  1.00  0.00    -0.206 F 
ATOM     73  C   UNL A   1      40.614  25.744  28.194  1.00  0.00     0.059 A 
ATOM     74  C   UNL A   1      42.524  27.105  27.566  1.00  0.00     0.059 A 
ATOM     75  F   UNL A   1      42.970  29.093  28.726  1.00  0.00    -0.206 F 
ATOM     76  C   UNL A   1      41.744  25.960  27.405  1.00  0.00     0.060 A 
BRANCH  76  77
ATOM     77  S   UNL A   1      42.178  24.731  26.156  1.00  0.00     0.124 S 
ATOM     78  O   UNL A   1      42.279  25.556  24.957  1.00  0.00    -0.237 OA
ATOM     79  O   UNL A   1      43.435  24.197  26.672  1.00  0.00    -0.237 OA
ATOM     80  O   UNL A   1      41.051  23.804  26.193  1.00  0.00    -0.744 OA
ENDBRANCH  76  77
ENDBRANCH  44  69
BRANCH  56  81
ATOM     81  C   UNL A   1      43.738  28.591  35.790  1.00  0.00     0.058 A 
ATOM     82  C   UNL A   1      45.113  28.870  35.727  1.00  0.00     0.135 A 
ATOM     83  C   UNL A   1      43.322  27.540  36.625  1.00  0.00     0.135 A 
ATOM     84  F   UNL A   1      45.565  29.864  34.947  1.00  0.00    -0.206 F 
ATOM     85  C   UNL A   1      46.042  28.102  36.421  1.00  0.00     0.059 A 
ATOM     86  C   UNL A   1      44.230  26.783  37.357  1.00  0.00     0.059 A 
ATOM     87  F   UNL A   1      42.019  27.241  36.740  1.00  0.00    -0.206 F 
ATOM     88  C   UNL A   1      45.591  27.056  37.229  1.00  0.00     0.060 A 
BRANCH  88  89
ATOM     89  S   UNL A   1      46.807  26.058  38.113  1.00  0.00     0.124 S 
ATOM     90  O   UNL A   1      46.807  26.692  39.427  1.00  0.00    -0.237 OA
ATOM     91  O   UNL A   1      46.221  24.723  38.052  1.00  0.00    -0.237 OA
ATOM     92  O   UNL A   1      48.027  26.237  37.330  1.00  0.00    -0.744 OA
ENDBRANCH  88  89
ENDBRANCH  56  81
ENDBRANCH  30  31
ENDBRANCH  22  25
ENDBRANCH  20  21
ENDBRANCH   1  20
TORSDOF 16
ENDMDL
MODEL 2
REMARK VINA RESULT:     -11.2      2.934      9.343
REMARK SMILES C[C@@H]1CC[C@@]1(SC1CCCCC1)C(=O)NCCCCNC(=O)c1ccc(-c2c3nc(c(-c4c(F)cc(S(=O)(=O)[O-])cc4F)c4ccc([nH]4)c(-c4c(F)cc(S(=O)(=O)[O-])cc4F)c4nc(c(-c5c(F)cc(S(=O)(=O)[O-])cc5F)c5ccc2[nH]5)C=C4)C=C3)cc1
REMARK SMILES IDX 18 1 17 2 16 3 15 4 13 5 14 6 5 8 1 9 2 10 3 11 4 12 6 13
REMARK SMILES IDX 7 14 8 15 12 16 9 17 11 18 10 19 19 20 20 21 21 22 22 24
REMARK SMILES IDX 23 25 24 26 88 27 25 28 87 29 26 30 27 31 28 32 81 33 29 34
REMARK SMILES IDX 86 35 80 36 82 37 30 38 85 39 79 40 78 41 31 43 65 44 44 45
REMARK SMILES IDX 64 46 45 47 48 48 63 49 83 50 46 51 47 52 62 54 84 55 49 56
REMARK SMILES IDX 32 57 33 58 42 59 34 60 35 61 41 62 43 63 36 64 37 65 38 66
REMARK SMILES IDX 39 67 40 68 66 69 67 70 76 71 68 72 69 73 75 74 77 75 70 76
REMARK SMILES IDX 71 77 72 78 73 79 74 80 50 81 51 82 60 83 52 84 53 85 59 86
REMARK SMILES IDX 61 87 54 88 55 89 56 90 57 91 58 92
REMARK H PARENT 15 7 20 23 82 42 48 53
REMARK Flexibility Score: inf
ROOT
ATOM      1  C   UNL A   1      39.141  22.897  26.401  1.00  0.00     0.023 C 
ENDROOT
BRANCH   1   2
ATOM      2  C   UNL A   1      38.061  23.980  26.436  1.00  0.00     0.023 C 
BRANCH   2   3
ATOM      3  C   UNL A   1      36.734  23.536  25.837  1.00  0.00     0.116 C 
BRANCH   3   4
ATOM      4  N   UNL A   1      35.882  22.937  26.840  1.00  0.00    -0.355 N 
ATOM      5  C   UNL A   1      34.511  22.892  26.942  1.00  0.00     0.236 C 
ATOM      6  O   UNL A   1      34.081  22.197  27.876  1.00  0.00    -0.273 OA
ATOM      7  H   UNL A   1      36.363  22.487  27.571  1.00  0.00     0.163 HD
BRANCH   5   8
ATOM      8  C   UNL A   1      33.571  23.694  25.961  1.00  0.00     0.097 C 
ATOM      9  C   UNL A   1      30.933  22.968  26.362  1.00  0.00     0.009 C 
ATOM     10  C   UNL A   1      32.118  23.880  26.624  1.00  0.00     0.012 C 
ATOM     11  C   UNL A   1      32.035  25.269  25.969  1.00  0.00     0.007 C 
ATOM     12  C   UNL A   1      33.561  25.252  25.847  1.00  0.00     0.028 C 
BRANCH   8  13
ATOM     13  S   UNL A   1      33.391  22.847  24.294  1.00  0.00    -0.141 SA
BRANCH  13  14
ATOM     14  C   UNL A   1      33.479  21.042  24.595  1.00  0.00     0.047 C 
ATOM     15  C   UNL A   1      32.426  20.259  23.807  1.00  0.00     0.014 C 
ATOM     16  C   UNL A   1      34.872  20.407  24.536  1.00  0.00     0.014 C 
ATOM     17  C   UNL A   1      32.428  18.779  24.186  1.00  0.00     0.001 C 
ATOM     18  C   UNL A   1      34.851  18.906  24.837  1.00  0.00     0.001 C 
ATOM     19  C   UNL A   1      33.812  18.169  23.997  1.00  0.00     0.000 C 
ENDBRANCH  13  14
ENDBRANCH   8  13
ENDBRANCH   5   8
ENDBRANCH   3   4
ENDBRANCH   2   3
ENDBRANCH   1   2
BRANCH   1  20
ATOM     20  C   UNL A   1      40.466  23.292  27.046  1.00  0.00     0.116 C 
BRANCH  20  21
ATOM     21  N   UNL A   1      41.399  23.874  26.094  1.00  0.00    -0.352 N 
ATOM     22  C   UNL A   1      41.896  25.152  26.057  1.00  0.00     0.251 C 
ATOM     23  H   UNL A   1      41.716  23.272  25.383  1.00  0.00     0.163 HD
ATOM     24  O   UNL A   1      42.546  25.527  25.083  1.00  0.00    -0.269 OA
BRANCH  22  25
ATOM     25  C   UNL A   1      41.626  26.076  27.178  1.00  0.00     0.039 A 
ATOM     26  C   UNL A   1      40.578  25.787  28.053  1.00  0.00     0.014 A 
ATOM     27  C   UNL A   1      42.404  27.222  27.365  1.00  0.00     0.014 A 
ATOM     28  C   UNL A   1      40.333  26.633  29.137  1.00  0.00     0.010 A 
ATOM     29  C   UNL A   1      42.212  28.015  28.491  1.00  0.00     0.010 A 
ATOM     30  C   UNL A   1      41.160  27.743  29.378  1.00  0.00    -0.014 A 
BRANCH  30  31
ATOM     31  C   UNL A   1      40.905  28.648  30.529  1.00  0.00     0.031 A 
ATOM     32  C   UNL A   1      41.718  28.509  31.791  1.00  0.00     0.074 A 
ATOM     33  C   UNL A   1      39.924  29.572  30.450  1.00  0.00     0.049 A 
ATOM     34  N   UNL A   1      41.638  29.193  32.903  1.00  0.00    -0.248 NA
ATOM     35  C   UNL A   1      42.737  27.446  31.820  1.00  0.00     0.031 C 
ATOM     36  C   UNL A   1      39.028  29.763  29.305  1.00  0.00     0.029 A 
ATOM     37  N   UNL A   1      39.510  30.519  31.352  1.00  0.00    -0.354 N 
ATOM     38  C   UNL A   1      42.574  28.631  33.764  1.00  0.00     0.074 A 
ATOM     39  C   UNL A   1      43.180  27.520  33.067  1.00  0.00     0.031 C 
ATOM     40  C   UNL A   1      38.192  30.781  29.565  1.00  0.00     0.029 A 
ATOM     41  C   UNL A   1      38.465  31.294  30.904  1.00  0.00     0.049 A 
ATOM     42  H   UNL A   1      39.924  30.636  32.238  1.00  0.00     0.167 HD
ATOM     43  C   UNL A   1      42.915  29.023  35.015  1.00  0.00     0.037 A 
ATOM     44  C   UNL A   1      37.802  32.301  31.506  1.00  0.00     0.037 A 
ATOM     45  C   UNL A   1      42.343  30.161  35.685  1.00  0.00     0.049 A 
ATOM     46  C   UNL A   1      38.229  32.734  32.885  1.00  0.00     0.074 A 
ATOM     47  C   UNL A   1      42.681  30.689  36.919  1.00  0.00     0.029 A 
ATOM     48  N   UNL A   1      41.317  30.945  35.181  1.00  0.00    -0.354 N 
ATOM     49  N   UNL A   1      39.180  32.246  33.647  1.00  0.00    -0.248 NA
ATOM     50  C   UNL A   1      37.508  33.868  33.478  1.00  0.00     0.031 C 
ATOM     51  C   UNL A   1      41.822  31.759  37.187  1.00  0.00     0.029 A 
ATOM     52  C   UNL A   1      40.996  31.940  36.090  1.00  0.00     0.049 A 
ATOM     53  H   UNL A   1      40.881  30.815  34.308  1.00  0.00     0.167 HD
ATOM     54  C   UNL A   1      39.199  33.043  34.788  1.00  0.00     0.074 A 
ATOM     55  C   UNL A   1      38.176  34.051  34.608  1.00  0.00     0.031 C 
ATOM     56  C   UNL A   1      39.990  32.951  35.886  1.00  0.00     0.037 A 
BRANCH  43  57
ATOM     57  C   UNL A   1      43.961  28.230  35.749  1.00  0.00     0.058 A 
ATOM     58  C   UNL A   1      43.626  27.155  36.586  1.00  0.00     0.135 A 
ATOM     59  C   UNL A   1      45.325  28.493  35.534  1.00  0.00     0.135 A 
ATOM     60  F   UNL A   1      42.339  26.873  36.844  1.00  0.00    -0.206 F 
ATOM     61  C   UNL A   1      44.605  26.368  37.185  1.00  0.00     0.059 A 
ATOM     62  C   UNL A   1      46.320  27.701  36.099  1.00  0.00     0.059 A 
ATOM     63  F   UNL A   1      45.701  29.515  34.748  1.00  0.00    -0.206 F 
ATOM     64  C   UNL A   1      45.949  26.641  36.925  1.00  0.00     0.060 A 
BRANCH  64  65
ATOM     65  S   UNL A   1      47.203  25.568  37.656  1.00  0.00     0.124 S 
ATOM     66  O   UNL A   1      46.529  24.273  37.630  1.00  0.00    -0.237 OA
ATOM     67  O   UNL A   1      48.320  25.720  36.729  1.00  0.00    -0.237 OA
ATOM     68  O   UNL A   1      47.410  26.140  38.983  1.00  0.00    -0.744 OA
ENDBRANCH  64  65
ENDBRANCH  43  57
BRANCH  44  69
ATOM     69  C   UNL A   1      36.670  32.983  30.819  1.00  0.00     0.058 A 
ATOM     70  C   UNL A   1      36.896  33.950  29.826  1.00  0.00     0.135 A 
ATOM     71  C   UNL A   1      35.338  32.721  31.179  1.00  0.00     0.135 A 
ATOM     72  F   UNL A   1      38.150  34.238  29.445  1.00  0.00    -0.206 F 
ATOM     73  C   UNL A   1      35.851  34.672  29.256  1.00  0.00     0.059 A 
ATOM     74  C   UNL A   1      34.275  33.405  30.598  1.00  0.00     0.059 A 
ATOM     75  F   UNL A   1      35.062  31.789  32.104  1.00  0.00    -0.206 F 
ATOM     76  C   UNL A   1      34.543  34.397  29.657  1.00  0.00     0.060 A 
BRANCH  76  77
ATOM     77  S   UNL A   1      33.194  35.348  28.925  1.00  0.00     0.124 S 
ATOM     78  O   UNL A   1      32.557  34.346  28.078  1.00  0.00    -0.237 OA
ATOM     79  O   UNL A   1      32.437  35.765  30.101  1.00  0.00    -0.237 OA
ATOM     80  O   UNL A   1      33.886  36.424  28.221  1.00  0.00    -0.744 OA
ENDBRANCH  76  77
ENDBRANCH  44  69
BRANCH  56  81
ATOM     81  C   UNL A   1      39.835  34.012  36.941  1.00  0.00     0.058 A 
ATOM     82  C   UNL A   1      39.022  33.831  38.072  1.00  0.00     0.135 A 
ATOM     83  C   UNL A   1      40.527  35.229  36.822  1.00  0.00     0.135 A 
ATOM     84  F   UNL A   1      38.340  32.687  38.237  1.00  0.00    -0.206 F 
ATOM     85  C   UNL A   1      38.858  34.838  39.018  1.00  0.00     0.059 A 
ATOM     86  C   UNL A   1      40.408  36.236  37.774  1.00  0.00     0.059 A 
ATOM     87  F   UNL A   1      41.333  35.451  35.772  1.00  0.00    -0.206 F 
ATOM     88  C   UNL A   1      39.551  36.039  38.856  1.00  0.00     0.060 A 
BRANCH  88  89
ATOM     89  S   UNL A   1      39.320  37.344  40.082  1.00  0.00     0.124 S 
ATOM     90  O   UNL A   1      38.438  38.262  39.369  1.00  0.00    -0.237 OA
ATOM     91  O   UNL A   1      38.718  36.623  41.198  1.00  0.00    -0.237 OA
ATOM     92  O   UNL A   1      40.676  37.833  40.317  1.00  0.00    -0.744 OA
ENDBRANCH  88  89
ENDBRANCH  56  81
ENDBRANCH  30  31
ENDBRANCH  22  25
ENDBRANCH  20  21
ENDBRANCH   1  20
TORSDOF 16
ENDMDL
MODEL 3
REMARK VINA RESULT:     -11.2      5.161     10.545
REMARK SMILES C[C@@H]1CC[C@@]1(SC1CCCCC1)C(=O)NCCCCNC(=O)c1ccc(-c2c3nc(c(-c4c(F)cc(S(=O)(=O)[O-])cc4F)c4ccc([nH]4)c(-c4c(F)cc(S(=O)(=O)[O-])cc4F)c4nc(c(-c5c(F)cc(S(=O)(=O)[O-])cc5F)c5ccc2[nH]5)C=C4)C=C3)cc1
REMARK SMILES IDX 18 1 17 2 16 3 15 4 13 5 14 6 5 8 1 9 2 10 3 11 4 12 6 13
REMARK SMILES IDX 7 14 8 15 12 16 9 17 11 18 10 19 19 20 20 21 21 22 22 24
REMARK SMILES IDX 23 25 24 26 88 27 25 28 87 29 26 30 27 31 28 32 81 33 29 34
REMARK SMILES IDX 86 35 80 36 82 37 30 38 85 39 79 40 78 41 31 43 65 44 44 45
REMARK SMILES IDX 64 46 45 47 48 48 63 49 83 50 46 51 47 52 62 54 84 55 49 56
REMARK SMILES IDX 32 57 33 58 42 59 34 60 35 61 41 62 43 63 36 64 37 65 38 66
REMARK SMILES IDX 39 67 40 68 66 69 67 70 76 71 68 72 69 73 75 74 77 75 70 76
REMARK SMILES IDX 71 77 72 78 73 79 74 80 50 81 51 82 60 83 52 84 53 85 59 86
REMARK SMILES IDX 61 87 54 88 55 89 56 90 57 91 58 92
REMARK H PARENT 15 7 20 23 82 42 48 53
REMARK Flexibility Score: inf
ROOT
ATOM      1  C   UNL A   1      33.149  27.518  25.986  1.00  0.00     0.023 C 
ENDROOT
BRANCH   1   2
ATOM      2  C   UNL A   1      33.531  26.285  25.164  1.00  0.00     0.023 C 
BRANCH   2   3
ATOM      3  C   UNL A   1      32.452  25.211  25.141  1.00  0.00     0.116 C 
BRANCH   3   4
ATOM      4  N   UNL A   1      32.734  24.165  26.100  1.00  0.00    -0.355 N 
ATOM      5  C   UNL A   1      33.141  22.865  25.915  1.00  0.00     0.236 C 
ATOM      6  O   UNL A   1      33.407  22.250  26.959  1.00  0.00    -0.273 OA
ATOM      7  H   UNL A   1      32.615  24.430  27.041  1.00  0.00     0.163 HD
BRANCH   5   8
ATOM      8  C   UNL A   1      33.226  22.209  24.482  1.00  0.00     0.097 C 
ATOM      9  C   UNL A   1      34.201  19.628  24.673  1.00  0.00     0.009 C 
ATOM     10  C   UNL A   1      33.049  20.615  24.599  1.00  0.00     0.012 C 
ATOM     11  C   UNL A   1      32.288  20.636  23.263  1.00  0.00     0.007 C 
ATOM     12  C   UNL A   1      32.021  22.127  23.492  1.00  0.00     0.028 C 
BRANCH   8  13
ATOM     13  S   UNL A   1      34.848  22.594  23.617  1.00  0.00    -0.141 SA
BRANCH  13  14
ATOM     14  C   UNL A   1      36.152  22.620  24.903  1.00  0.00     0.047 C 
ATOM     15  C   UNL A   1      37.315  21.677  24.585  1.00  0.00     0.014 C 
ATOM     16  C   UNL A   1      36.609  24.001  25.384  1.00  0.00     0.014 C 
ATOM     17  C   UNL A   1      38.315  21.610  25.739  1.00  0.00     0.001 C 
ATOM     18  C   UNL A   1      37.672  23.922  26.484  1.00  0.00     0.001 C 
ATOM     19  C   UNL A   1      38.825  23.000  26.100  1.00  0.00     0.000 C 
ENDBRANCH  13  14
ENDBRANCH   8  13
ENDBRANCH   5   8
ENDBRANCH   3   4
ENDBRANCH   2   3
ENDBRANCH   1   2
BRANCH   1  20
ATOM     20  C   UNL A   1      34.267  28.075  26.862  1.00  0.00     0.116 C 
BRANCH  20  21
ATOM     21  N   UNL A   1      33.972  29.408  27.362  1.00  0.00    -0.352 N 
ATOM     22  C   UNL A   1      34.774  30.241  28.101  1.00  0.00     0.251 C 
ATOM     23  H   UNL A   1      33.079  29.761  27.141  1.00  0.00     0.163 HD
ATOM     24  O   UNL A   1      34.306  31.269  28.585  1.00  0.00    -0.269 OA
BRANCH  22  25
ATOM     25  C   UNL A   1      36.189  29.882  28.329  1.00  0.00     0.039 A 
ATOM     26  C   UNL A   1      37.111  30.083  27.301  1.00  0.00     0.014 A 
ATOM     27  C   UNL A   1      36.604  29.351  29.554  1.00  0.00     0.014 A 
ATOM     28  C   UNL A   1      38.457  29.781  27.514  1.00  0.00     0.010 A 
ATOM     29  C   UNL A   1      37.957  29.131  29.791  1.00  0.00     0.010 A 
ATOM     30  C   UNL A   1      38.896  29.322  28.767  1.00  0.00    -0.014 A 
BRANCH  30  31
ATOM     31  C   UNL A   1      40.328  28.998  29.002  1.00  0.00     0.031 A 
ATOM     32  C   UNL A   1      40.870  27.650  28.599  1.00  0.00     0.074 A 
ATOM     33  C   UNL A   1      41.129  29.902  29.603  1.00  0.00     0.049 A 
ATOM     34  N   UNL A   1      42.082  27.176  28.730  1.00  0.00    -0.248 NA
ATOM     35  C   UNL A   1      39.923  26.698  27.994  1.00  0.00     0.031 C 
ATOM     36  C   UNL A   1      40.706  31.217  30.093  1.00  0.00     0.029 A 
ATOM     37  N   UNL A   1      42.465  29.851  29.910  1.00  0.00    -0.354 N 
ATOM     38  C   UNL A   1      42.037  25.873  28.248  1.00  0.00     0.074 A 
ATOM     39  C   UNL A   1      40.669  25.610  27.863  1.00  0.00     0.031 C 
ATOM     40  C   UNL A   1      41.768  31.855  30.614  1.00  0.00     0.029 A 
ATOM     41  C   UNL A   1      42.938  30.987  30.527  1.00  0.00     0.049 A 
ATOM     42  H   UNL A   1      43.035  29.074  29.706  1.00  0.00     0.167 HD
ATOM     43  C   UNL A   1      43.050  24.984  28.115  1.00  0.00     0.037 A 
ATOM     44  C   UNL A   1      44.172  31.290  30.974  1.00  0.00     0.037 A 
ATOM     45  C   UNL A   1      44.419  25.269  28.453  1.00  0.00     0.049 A 
ATOM     46  C   UNL A   1      45.284  30.292  30.779  1.00  0.00     0.074 A 
ATOM     47  C   UNL A   1      45.531  24.465  28.277  1.00  0.00     0.029 A 
ATOM     48  N   UNL A   1      44.864  26.446  29.036  1.00  0.00    -0.354 N 
ATOM     49  N   UNL A   1      45.238  29.098  30.237  1.00  0.00    -0.248 NA
ATOM     50  C   UNL A   1      46.622  30.690  31.238  1.00  0.00     0.031 C 
ATOM     51  C   UNL A   1      46.641  25.132  28.805  1.00  0.00     0.029 A 
ATOM     52  C   UNL A   1      46.231  26.379  29.246  1.00  0.00     0.049 A 
ATOM     53  H   UNL A   1      44.293  27.214  29.267  1.00  0.00     0.167 HD
ATOM     54  C   UNL A   1      46.546  28.624  30.249  1.00  0.00     0.074 A 
ATOM     55  C   UNL A   1      47.360  29.665  30.838  1.00  0.00     0.031 C 
ATOM     56  C   UNL A   1      47.032  27.435  29.812  1.00  0.00     0.037 A 
BRANCH  43  57
ATOM     57  C   UNL A   1      42.732  23.618  27.571  1.00  0.00     0.058 A 
ATOM     58  C   UNL A   1      42.821  23.324  26.202  1.00  0.00     0.135 A 
ATOM     59  C   UNL A   1      42.429  22.563  28.449  1.00  0.00     0.135 A 
ATOM     60  F   UNL A   1      43.086  24.298  25.317  1.00  0.00    -0.206 F 
ATOM     61  C   UNL A   1      42.619  22.035  25.721  1.00  0.00     0.059 A 
ATOM     62  C   UNL A   1      42.252  21.260  27.992  1.00  0.00     0.059 A 
ATOM     63  F   UNL A   1      42.324  22.790  29.768  1.00  0.00    -0.206 F 
ATOM     64  C   UNL A   1      42.347  21.007  26.625  1.00  0.00     0.060 A 
BRANCH  64  65
ATOM     65  S   UNL A   1      42.156  19.328  25.989  1.00  0.00     0.124 S 
ATOM     66  O   UNL A   1      43.032  19.357  24.822  1.00  0.00    -0.237 OA
ATOM     67  O   UNL A   1      42.620  18.518  27.111  1.00  0.00    -0.237 OA
ATOM     68  O   UNL A   1      40.728  19.234  25.699  1.00  0.00    -0.744 OA
ENDBRANCH  64  65
ENDBRANCH  43  57
BRANCH  44  69
ATOM     69  C   UNL A   1      44.439  32.595  31.642  1.00  0.00     0.058 A 
ATOM     70  C   UNL A   1      44.276  32.750  33.028  1.00  0.00     0.135 A 
ATOM     71  C   UNL A   1      44.810  33.728  30.900  1.00  0.00     0.135 A 
ATOM     72  F   UNL A   1      43.922  31.699  33.783  1.00  0.00    -0.206 F 
ATOM     73  C   UNL A   1      44.416  33.989  33.646  1.00  0.00     0.059 A 
ATOM     74  C   UNL A   1      44.990  34.969  31.501  1.00  0.00     0.059 A 
ATOM     75  F   UNL A   1      45.005  33.631  29.576  1.00  0.00    -0.206 F 
ATOM     76  C   UNL A   1      44.765  35.096  32.871  1.00  0.00     0.060 A 
BRANCH  76  77
ATOM     77  S   UNL A   1      44.929  36.703  33.677  1.00  0.00     0.124 S 
ATOM     78  O   UNL A   1      43.582  36.907  34.199  1.00  0.00    -0.237 OA
ATOM     79  O   UNL A   1      45.968  36.446  34.669  1.00  0.00    -0.237 OA
ATOM     80  O   UNL A   1      45.324  37.586  32.584  1.00  0.00    -0.744 OA
ENDBRANCH  76  77
ENDBRANCH  44  69
BRANCH  56  81
ATOM     81  C   UNL A   1      48.520  27.228  29.884  1.00  0.00     0.058 A 
ATOM     82  C   UNL A   1      49.151  26.713  31.028  1.00  0.00     0.135 A 
ATOM     83  C   UNL A   1      49.327  27.538  28.777  1.00  0.00     0.135 A 
ATOM     84  F   UNL A   1      48.428  26.398  32.114  1.00  0.00    -0.206 F 
ATOM     85  C   UNL A   1      50.533  26.566  31.091  1.00  0.00     0.059 A 
ATOM     86  C   UNL A   1      50.707  27.364  28.804  1.00  0.00     0.059 A 
ATOM     87  F   UNL A   1      48.777  28.015  27.649  1.00  0.00    -0.206 F 
ATOM     88  C   UNL A   1      51.303  26.900  29.975  1.00  0.00     0.060 A 
BRANCH  88  89
ATOM     89  S   UNL A   1      53.096  26.718  30.074  1.00  0.00     0.124 S 
ATOM     90  O   UNL A   1      53.508  28.071  30.430  1.00  0.00    -0.237 OA
ATOM     91  O   UNL A   1      53.252  25.712  31.117  1.00  0.00    -0.237 OA
ATOM     92  O   UNL A   1      53.467  26.283  28.730  1.00  0.00    -0.744 OA
ENDBRANCH  88  89
ENDBRANCH  56  81
ENDBRANCH  30  31
ENDBRANCH  22  25
ENDBRANCH  20  21
ENDBRANCH   1  20
TORSDOF 16
ENDMDL
