MODEL 1
REMARK VINA RESULT:     -11.6      0.000      0.000
REMARK SMILES [NH3+][C@]1(C(=O)NCCCCNC(=O)c2ccc(-c3c4nc(c(-c5c(F)cc(S(=O)(=O)[O-])cc5F)c5ccc([nH]5)c(-c5c(F)cc(S(=O)(=O)[O-])cc5F)c5nc(c(-c6c(F)cc(S(=O)(=O)[O-])cc6F)c6ccc3[nH]6)C=C5)C=C4)cc2)CC[C@@H]([NH+]2CCC(C(F)(F)F)CC2)C1
REMARK SMILES IDX 8 1 7 2 6 3 5 4 3 5 4 6 2 8 79 9 92 10 80 11 81 12 1 13
REMARK SMILES IDX 82 17 83 18 91 19 84 21 90 22 85 23 86 24 87 25 88 26 89 27
REMARK SMILES IDX 9 28 10 29 11 30 12 32 13 33 14 34 78 35 15 36 77 37 16 38
REMARK SMILES IDX 17 39 18 40 71 41 19 42 76 43 70 44 72 45 20 46 75 47 69 48
REMARK SMILES IDX 68 49 21 51 55 52 34 53 54 54 35 55 38 56 53 57 73 58 36 59
REMARK SMILES IDX 37 60 52 62 74 63 39 64 22 65 23 66 32 67 24 68 25 69 31 70
REMARK SMILES IDX 33 71 26 72 27 73 28 74 29 75 30 76 56 77 57 78 66 79 58 80
REMARK SMILES IDX 59 81 65 82 67 83 60 84 61 85 62 86 63 87 64 88 40 89 41 90
REMARK SMILES IDX 50 91 42 92 43 93 49 94 51 95 44 96 45 97 46 98 47 99 48 100
REMARK H PARENT 5 7 1 14 1 15 1 16 82 20 10 31 72 50 38 61
REMARK Flexibility Score: inf
ROOT
ATOM      1  C   UNL A   1      32.252  28.074  27.488  1.00  0.00     0.023 C 
ENDROOT
BRANCH   1   2
ATOM      2  C   UNL A   1      32.160  26.743  26.756  1.00  0.00     0.023 C 
BRANCH   2   3
ATOM      3  C   UNL A   1      31.288  26.727  25.493  1.00  0.00     0.116 C 
BRANCH   3   4
ATOM      4  N   UNL A   1      30.764  28.048  25.207  1.00  0.00    -0.351 N 
ATOM      5  C   UNL A   1      30.915  28.877  24.139  1.00  0.00     0.281 C 
ATOM      6  O   UNL A   1      30.330  29.968  24.221  1.00  0.00    -0.268 OA
ATOM      7  H   UNL A   1      30.190  28.413  25.919  1.00  0.00     0.163 HD
BRANCH   5   8
ATOM      8  C   UNL A   1      31.652  28.500  22.808  1.00  0.00     0.179 C 
ATOM      9  C   UNL A   1      33.161  28.385  23.123  1.00  0.00     0.085 C 
ATOM     10  C   UNL A   1      31.332  27.163  22.134  1.00  0.00     0.144 C 
ATOM     11  C   UNL A   1      33.739  27.464  22.060  1.00  0.00     0.072 C 
ATOM     12  C   UNL A   1      32.641  26.436  21.772  1.00  0.00     0.191 C 
BRANCH   8  13
ATOM     13  N   UNL A   1      31.411  29.596  21.839  1.00  0.00    -0.345 N 
ATOM     14  H   UNL A   1      30.435  29.581  21.545  1.00  0.00     0.345 HD
ATOM     15  H   UNL A   1      32.014  29.470  21.026  1.00  0.00     0.345 HD
ATOM     16  H   UNL A   1      31.620  30.491  22.282  1.00  0.00     0.345 HD
ENDBRANCH   8  13
BRANCH  12  17
ATOM     17  N   UNL A   1      32.811  25.103  22.412  1.00  0.00    -0.332 N 
ATOM     18  C   UNL A   1      33.881  25.040  23.416  1.00  0.00     0.263 C 
ATOM     19  C   UNL A   1      31.519  24.593  22.914  1.00  0.00     0.263 C 
ATOM     20  H   UNL A   1      33.132  24.474  21.677  1.00  0.00     0.348 HD
ATOM     21  C   UNL A   1      34.009  23.663  24.068  1.00  0.00     0.074 C 
ATOM     22  C   UNL A   1      31.619  23.216  23.569  1.00  0.00     0.074 C 
ATOM     23  C   UNL A   1      32.680  23.212  24.670  1.00  0.00     0.106 C 
BRANCH  23  24
ATOM     24  C   UNL A   1      32.798  21.843  25.312  1.00  0.00     0.392 C 
ATOM     25  F   UNL A   1      33.052  21.950  26.635  1.00  0.00    -0.171 F 
ATOM     26  F   UNL A   1      31.648  21.146  25.175  1.00  0.00    -0.171 F 
ATOM     27  F   UNL A   1      33.791  21.114  24.759  1.00  0.00    -0.171 F 
ENDBRANCH  23  24
ENDBRANCH  12  17
ENDBRANCH   5   8
ENDBRANCH   3   4
ENDBRANCH   2   3
ENDBRANCH   1   2
BRANCH   1  28
ATOM     28  C   UNL A   1      33.577  28.797  27.308  1.00  0.00     0.116 C 
BRANCH  28  29
ATOM     29  N   UNL A   1      33.579  30.168  27.808  1.00  0.00    -0.352 N 
ATOM     30  C   UNL A   1      34.640  30.852  28.359  1.00  0.00     0.251 C 
ATOM     31  H   UNL A   1      32.729  30.659  27.743  1.00  0.00     0.163 HD
ATOM     32  O   UNL A   1      34.499  31.988  28.795  1.00  0.00    -0.269 OA
BRANCH  30  33
ATOM     33  C   UNL A   1      35.934  30.151  28.465  1.00  0.00     0.039 A 
ATOM     34  C   UNL A   1      36.828  30.217  27.394  1.00  0.00     0.014 A 
ATOM     35  C   UNL A   1      36.309  29.562  29.675  1.00  0.00     0.014 A 
ATOM     36  C   UNL A   1      38.138  29.775  27.572  1.00  0.00     0.010 A 
ATOM     37  C   UNL A   1      37.633  29.198  29.874  1.00  0.00     0.010 A 
ATOM     38  C   UNL A   1      38.563  29.313  28.828  1.00  0.00    -0.014 A 
BRANCH  38  39
ATOM     39  C   UNL A   1      39.977  28.954  29.089  1.00  0.00     0.031 A 
ATOM     40  C   UNL A   1      40.915  29.987  29.646  1.00  0.00     0.074 A 
ATOM     41  C   UNL A   1      40.437  27.739  28.728  1.00  0.00     0.049 A 
ATOM     42  N   UNL A   1      42.208  29.923  29.816  1.00  0.00    -0.248 NA
ATOM     43  C   UNL A   1      40.321  31.279  30.027  1.00  0.00     0.031 C 
ATOM     44  C   UNL A   1      39.638  26.675  28.115  1.00  0.00     0.029 A 
ATOM     45  N   UNL A   1      41.696  27.200  28.808  1.00  0.00    -0.354 N 
ATOM     46  C   UNL A   1      42.588  31.173  30.286  1.00  0.00     0.074 A 
ATOM     47  C   UNL A   1      41.395  31.988  30.336  1.00  0.00     0.031 C 
ATOM     48  C   UNL A   1      40.422  25.605  27.895  1.00  0.00     0.029 A 
ATOM     49  C   UNL A   1      41.782  25.918  28.320  1.00  0.00     0.049 A 
ATOM     50  H   UNL A   1      42.468  27.687  29.179  1.00  0.00     0.167 HD
ATOM     51  C   UNL A   1      43.819  31.597  30.661  1.00  0.00     0.037 A 
ATOM     52  C   UNL A   1      42.840  25.090  28.225  1.00  0.00     0.037 A 
ATOM     53  C   UNL A   1      44.989  30.764  30.661  1.00  0.00     0.049 A 
ATOM     54  C   UNL A   1      44.182  25.559  28.713  1.00  0.00     0.074 A 
ATOM     55  C   UNL A   1      46.269  31.076  31.085  1.00  0.00     0.029 A 
ATOM     56  N   UNL A   1      45.020  29.445  30.228  1.00  0.00    -0.354 N 
ATOM     57  N   UNL A   1      44.515  26.730  29.200  1.00  0.00    -0.248 NA
ATOM     58  C   UNL A   1      45.290  24.596  28.645  1.00  0.00     0.031 C 
ATOM     59  C   UNL A   1      47.078  29.948  30.896  1.00  0.00     0.029 A 
ATOM     60  C   UNL A   1      46.294  28.929  30.377  1.00  0.00     0.049 A 
ATOM     61  H   UNL A   1      44.248  28.952  29.870  1.00  0.00     0.167 HD
ATOM     62  C   UNL A   1      45.865  26.639  29.517  1.00  0.00     0.074 A 
ATOM     63  C   UNL A   1      46.286  25.296  29.173  1.00  0.00     0.031 C 
ATOM     64  C   UNL A   1      46.684  27.582  30.045  1.00  0.00     0.037 A 
BRANCH  51  65
ATOM     65  C   UNL A   1      43.945  33.022  31.114  1.00  0.00     0.058 A 
ATOM     66  C   UNL A   1      43.844  33.372  32.470  1.00  0.00     0.135 A 
ATOM     67  C   UNL A   1      44.165  34.051  30.185  1.00  0.00     0.135 A 
ATOM     68  F   UNL A   1      43.613  32.427  33.395  1.00  0.00    -0.206 F 
ATOM     69  C   UNL A   1      43.920  34.695  32.887  1.00  0.00     0.059 A 
ATOM     70  C   UNL A   1      44.268  35.381  30.582  1.00  0.00     0.059 A 
ATOM     71  F   UNL A   1      44.266  33.771  28.876  1.00  0.00    -0.206 F 
ATOM     72  C   UNL A   1      44.124  35.695  31.934  1.00  0.00     0.060 A 
BRANCH  72  73
ATOM     73  S   UNL A   1      44.204  37.412  32.482  1.00  0.00     0.124 S 
ATOM     74  O   UNL A   1      43.108  37.459  33.445  1.00  0.00    -0.237 OA
ATOM     75  O   UNL A   1      45.547  37.503  33.047  1.00  0.00    -0.237 OA
ATOM     76  O   UNL A   1      43.993  38.169  31.252  1.00  0.00    -0.744 OA
ENDBRANCH  72  73
ENDBRANCH  51  65
BRANCH  52  77
ATOM     77  C   UNL A   1      42.663  23.718  27.683  1.00  0.00     0.058 A 
ATOM     78  C   UNL A   1      42.460  22.630  28.545  1.00  0.00     0.135 A 
ATOM     79  C   UNL A   1      42.672  23.469  26.303  1.00  0.00     0.135 A 
ATOM     80  F   UNL A   1      42.448  22.820  29.873  1.00  0.00    -0.206 F 
ATOM     81  C   UNL A   1      42.286  21.339  28.059  1.00  0.00     0.059 A 
ATOM     82  C   UNL A   1      42.482  22.189  25.792  1.00  0.00     0.059 A 
ATOM     83  F   UNL A   1      42.843  24.481  25.439  1.00  0.00    -0.206 F 
ATOM     84  C   UNL A   1      42.298  21.127  26.679  1.00  0.00     0.060 A 
BRANCH  84  85
ATOM     85  S   UNL A   1      42.018  19.457  26.052  1.00  0.00     0.124 S 
ATOM     86  O   UNL A   1      42.463  18.644  27.177  1.00  0.00    -0.237 OA
ATOM     87  O   UNL A   1      40.580  19.460  25.795  1.00  0.00    -0.237 OA
ATOM     88  O   UNL A   1      42.858  19.404  24.860  1.00  0.00    -0.744 OA
ENDBRANCH  84  85
ENDBRANCH  52  77
BRANCH  64  89
ATOM     89  C   UNL A   1      48.104  27.187  30.317  1.00  0.00     0.058 A 
ATOM     90  C   UNL A   1      49.107  27.350  29.351  1.00  0.00     0.135 A 
ATOM     91  C   UNL A   1      48.476  26.706  31.583  1.00  0.00     0.135 A 
ATOM     92  F   UNL A   1      48.797  27.802  28.125  1.00  0.00    -0.206 F 
ATOM     93  C   UNL A   1      50.434  27.040  29.625  1.00  0.00     0.059 A 
ATOM     94  C   UNL A   1      49.800  26.406  31.885  1.00  0.00     0.059 A 
ATOM     95  F   UNL A   1      47.552  26.540  32.541  1.00  0.00    -0.206 F 
ATOM     96  C   UNL A   1      50.771  26.571  30.898  1.00  0.00     0.060 A 
BRANCH  96  97
ATOM     97  S   UNL A   1      52.504  26.223  31.264  1.00  0.00     0.124 S 
ATOM     98  O   UNL A   1      53.099  26.262  29.932  1.00  0.00    -0.237 OA
ATOM     99  O   UNL A   1      52.868  27.321  32.153  1.00  0.00    -0.237 OA
ATOM    100  O   UNL A   1      52.456  24.906  31.893  1.00  0.00    -0.744 OA
ENDBRANCH  96  97
ENDBRANCH  64  89
ENDBRANCH  38  39
ENDBRANCH  30  33
ENDBRANCH  28  29
ENDBRANCH   1  28
TORSDOF 17
ENDMDL
MODEL 2
REMARK VINA RESULT:     -11.5      5.114     10.668
REMARK SMILES [NH3+][C@]1(C(=O)NCCCCNC(=O)c2ccc(-c3c4nc(c(-c5c(F)cc(S(=O)(=O)[O-])cc5F)c5ccc([nH]5)c(-c5c(F)cc(S(=O)(=O)[O-])cc5F)c5nc(c(-c6c(F)cc(S(=O)(=O)[O-])cc6F)c6ccc3[nH]6)C=C5)C=C4)cc2)CC[C@@H]([NH+]2CCC(C(F)(F)F)CC2)C1
REMARK SMILES IDX 8 1 7 2 6 3 5 4 3 5 4 6 2 8 79 9 92 10 80 11 81 12 1 13
REMARK SMILES IDX 82 17 83 18 91 19 84 21 90 22 85 23 86 24 87 25 88 26 89 27
REMARK SMILES IDX 9 28 10 29 11 30 12 32 13 33 14 34 78 35 15 36 77 37 16 38
REMARK SMILES IDX 17 39 18 40 71 41 19 42 76 43 70 44 72 45 20 46 75 47 69 48
REMARK SMILES IDX 68 49 21 51 55 52 34 53 54 54 35 55 38 56 53 57 73 58 36 59
REMARK SMILES IDX 37 60 52 62 74 63 39 64 22 65 23 66 32 67 24 68 25 69 31 70
REMARK SMILES IDX 33 71 26 72 27 73 28 74 29 75 30 76 56 77 57 78 66 79 58 80
REMARK SMILES IDX 59 81 65 82 67 83 60 84 61 85 62 86 63 87 64 88 40 89 41 90
REMARK SMILES IDX 50 91 42 92 43 93 49 94 51 95 44 96 45 97 46 98 47 99 48 100
REMARK H PARENT 5 7 1 14 1 15 1 16 82 20 10 31 72 50 38 61
REMARK Flexibility Score: inf
ROOT
ATOM      1  C   UNL A   1      37.412  23.160  25.732  1.00  0.00     0.023 C 
ENDROOT
BRANCH   1   2
ATOM      2  C   UNL A   1      36.460  23.930  24.828  1.00  0.00     0.023 C 
BRANCH   2   3
ATOM      3  C   UNL A   1      35.235  23.156  24.322  1.00  0.00     0.116 C 
BRANCH   3   4
ATOM      4  N   UNL A   1      35.465  21.726  24.378  1.00  0.00    -0.351 N 
ATOM      5  C   UNL A   1      34.839  20.728  25.057  1.00  0.00     0.281 C 
ATOM      6  O   UNL A   1      35.306  19.591  24.891  1.00  0.00    -0.268 OA
ATOM      7  H   UNL A   1      36.216  21.419  23.819  1.00  0.00     0.163 HD
BRANCH   5   8
ATOM      8  C   UNL A   1      33.532  20.903  25.906  1.00  0.00     0.179 C 
ATOM      9  C   UNL A   1      33.814  21.970  26.988  1.00  0.00     0.085 C 
ATOM     10  C   UNL A   1      32.266  21.424  25.221  1.00  0.00     0.144 C 
ATOM     11  C   UNL A   1      32.460  22.552  27.362  1.00  0.00     0.072 C 
ATOM     12  C   UNL A   1      31.647  22.557  26.064  1.00  0.00     0.191 C 
BRANCH   8  13
ATOM     13  N   UNL A   1      33.232  19.596  26.538  1.00  0.00    -0.345 N 
ATOM     14  H   UNL A   1      33.977  18.935  26.320  1.00  0.00     0.345 HD
ATOM     15  H   UNL A   1      32.346  19.240  26.181  1.00  0.00     0.345 HD
ATOM     16  H   UNL A   1      33.168  19.715  27.549  1.00  0.00     0.345 HD
ENDBRANCH   8  13
BRANCH  12  17
ATOM     17  N   UNL A   1      31.541  23.866  25.365  1.00  0.00    -0.332 N 
ATOM     18  C   UNL A   1      31.206  23.771  23.938  1.00  0.00     0.263 C 
ATOM     19  C   UNL A   1      30.655  24.787  26.105  1.00  0.00     0.263 C 
ATOM     20  H   UNL A   1      32.480  24.265  25.366  1.00  0.00     0.348 HD
ATOM     21  C   UNL A   1      31.083  25.136  23.260  1.00  0.00     0.074 C 
ATOM     22  C   UNL A   1      30.517  26.160  25.449  1.00  0.00     0.074 C 
ATOM     23  C   UNL A   1      30.079  26.026  23.991  1.00  0.00     0.106 C 
BRANCH  23  24
ATOM     24  C   UNL A   1      29.957  27.385  23.328  1.00  0.00     0.392 C 
ATOM     25  F   UNL A   1      28.665  27.772  23.253  1.00  0.00    -0.171 F 
ATOM     26  F   UNL A   1      30.623  28.326  24.034  1.00  0.00    -0.171 F 
ATOM     27  F   UNL A   1      30.460  27.378  22.075  1.00  0.00    -0.171 F 
ENDBRANCH  23  24
ENDBRANCH  12  17
ENDBRANCH   5   8
ENDBRANCH   3   4
ENDBRANCH   2   3
ENDBRANCH   1   2
BRANCH   1  28
ATOM     28  C   UNL A   1      38.337  24.037  26.560  1.00  0.00     0.116 C 
BRANCH  28  29
ATOM     29  N   UNL A   1      39.755  23.751  26.373  1.00  0.00    -0.352 N 
ATOM     30  C   UNL A   1      40.821  24.474  26.859  1.00  0.00     0.251 C 
ATOM     31  H   UNL A   1      39.974  22.952  25.841  1.00  0.00     0.163 HD
ATOM     32  O   UNL A   1      41.973  24.160  26.584  1.00  0.00    -0.269 OA
BRANCH  30  33
ATOM     33  C   UNL A   1      40.532  25.674  27.668  1.00  0.00     0.039 A 
ATOM     34  C   UNL A   1      39.462  25.642  28.564  1.00  0.00     0.014 A 
ATOM     35  C   UNL A   1      41.410  26.760  27.638  1.00  0.00     0.014 A 
ATOM     36  C   UNL A   1      39.329  26.665  29.502  1.00  0.00     0.010 A 
ATOM     37  C   UNL A   1      41.322  27.733  28.624  1.00  0.00     0.010 A 
ATOM     38  C   UNL A   1      40.288  27.688  29.573  1.00  0.00    -0.014 A 
BRANCH  38  39
ATOM     39  C   UNL A   1      40.250  28.720  30.635  1.00  0.00     0.031 A 
ATOM     40  C   UNL A   1      41.153  28.591  31.829  1.00  0.00     0.074 A 
ATOM     41  C   UNL A   1      39.336  29.709  30.576  1.00  0.00     0.049 A 
ATOM     42  N   UNL A   1      41.180  29.300  32.926  1.00  0.00    -0.248 NA
ATOM     43  C   UNL A   1      42.131  27.490  31.800  1.00  0.00     0.031 C 
ATOM     44  C   UNL A   1      38.359  29.901  29.500  1.00  0.00     0.029 A 
ATOM     45  N   UNL A   1      39.066  30.731  31.451  1.00  0.00    -0.354 N 
ATOM     46  C   UNL A   1      42.146  28.711  33.731  1.00  0.00     0.074 A 
ATOM     47  C   UNL A   1      42.654  27.563  33.014  1.00  0.00     0.031 C 
ATOM     48  C   UNL A   1      37.613  30.986  29.770  1.00  0.00     0.029 A 
ATOM     49  C   UNL A   1      38.035  31.546  31.049  1.00  0.00     0.049 A 
ATOM     50  H   UNL A   1      39.564  30.866  32.290  1.00  0.00     0.167 HD
ATOM     51  C   UNL A   1      42.584  29.105  34.950  1.00  0.00     0.037 A 
ATOM     52  C   UNL A   1      37.492  32.624  31.647  1.00  0.00     0.037 A 
ATOM     53  C   UNL A   1      42.114  30.279  35.632  1.00  0.00     0.049 A 
ATOM     54  C   UNL A   1      38.042  33.083  32.968  1.00  0.00     0.074 A 
ATOM     55  C   UNL A   1      42.540  30.804  36.839  1.00  0.00     0.029 A 
ATOM     56  N   UNL A   1      41.120  31.123  35.156  1.00  0.00    -0.354 N 
ATOM     57  N   UNL A   1      38.991  32.542  33.695  1.00  0.00    -0.248 NA
ATOM     58  C   UNL A   1      37.456  34.299  33.549  1.00  0.00     0.031 C 
ATOM     59  C   UNL A   1      41.793  31.959  37.101  1.00  0.00     0.029 A 
ATOM     60  C   UNL A   1      40.920  32.164  36.044  1.00  0.00     0.049 A 
ATOM     61  H   UNL A   1      40.630  30.997  34.312  1.00  0.00     0.167 HD
ATOM     62  C   UNL A   1      39.131  33.364  34.807  1.00  0.00     0.074 A 
ATOM     63  C   UNL A   1      38.175  34.441  34.655  1.00  0.00     0.031 C 
ATOM     64  C   UNL A   1      39.975  33.237  35.860  1.00  0.00     0.037 A 
BRANCH  51  65
ATOM     65  C   UNL A   1      43.636  28.259  35.607  1.00  0.00     0.058 A 
ATOM     66  C   UNL A   1      45.001  28.451  35.344  1.00  0.00     0.135 A 
ATOM     67  C   UNL A   1      43.276  27.243  36.507  1.00  0.00     0.135 A 
ATOM     68  F   UNL A   1      45.395  29.396  34.476  1.00  0.00    -0.206 F 
ATOM     69  C   UNL A   1      45.973  27.642  35.921  1.00  0.00     0.059 A 
ATOM     70  C   UNL A   1      44.234  26.436  37.114  1.00  0.00     0.059 A 
ATOM     71  F   UNL A   1      41.984  27.016  36.790  1.00  0.00    -0.206 F 
ATOM     72  C   UNL A   1      45.579  26.631  36.799  1.00  0.00     0.060 A 
BRANCH  72  73
ATOM     73  S   UNL A   1      46.846  25.574  37.530  1.00  0.00     0.124 S 
ATOM     74  O   UNL A   1      46.736  25.927  38.942  1.00  0.00    -0.237 OA
ATOM     75  O   UNL A   1      46.386  24.235  37.174  1.00  0.00    -0.237 OA
ATOM     76  O   UNL A   1      48.072  26.008  36.867  1.00  0.00    -0.744 OA
ENDBRANCH  72  73
ENDBRANCH  51  65
BRANCH  52  77
ATOM     77  C   UNL A   1      36.390  33.366  30.981  1.00  0.00     0.058 A 
ATOM     78  C   UNL A   1      35.076  33.278  31.461  1.00  0.00     0.135 A 
ATOM     79  C   UNL A   1      36.629  34.188  29.870  1.00  0.00     0.135 A 
ATOM     80  F   UNL A   1      34.800  32.500  32.520  1.00  0.00    -0.206 F 
ATOM     81  C   UNL A   1      34.031  33.969  30.856  1.00  0.00     0.059 A 
ATOM     82  C   UNL A   1      35.604  34.903  29.258  1.00  0.00     0.059 A 
ATOM     83  F   UNL A   1      37.874  34.319  29.385  1.00  0.00    -0.206 F 
ATOM     84  C   UNL A   1      34.305  34.779  29.754  1.00  0.00     0.060 A 
BRANCH  84  85
ATOM     85  S   UNL A   1      32.954  35.716  29.005  1.00  0.00     0.124 S 
ATOM     86  O   UNL A   1      33.674  36.810  28.367  1.00  0.00    -0.237 OA
ATOM     87  O   UNL A   1      32.357  34.732  28.105  1.00  0.00    -0.237 OA
ATOM     88  O   UNL A   1      32.129  36.083  30.152  1.00  0.00    -0.744 OA
ENDBRANCH  84  85
ENDBRANCH  52  77
BRANCH  64  89
ATOM     89  C   UNL A   1      39.930  34.304  36.912  1.00  0.00     0.058 A 
ATOM     90  C   UNL A   1      40.627  35.511  36.760  1.00  0.00     0.135 A 
ATOM     91  C   UNL A   1      39.123  34.144  38.050  1.00  0.00     0.135 A 
ATOM     92  F   UNL A   1      41.416  35.706  35.691  1.00  0.00    -0.206 F 
ATOM     93  C   UNL A   1      40.535  36.524  37.708  1.00  0.00     0.059 A 
ATOM     94  C   UNL A   1      39.002  35.150  39.002  1.00  0.00     0.059 A 
ATOM     95  F   UNL A   1      38.432  33.009  38.235  1.00  0.00    -0.206 F 
ATOM     96  C   UNL A   1      39.717  36.335  38.825  1.00  0.00     0.060 A 
BRANCH  96  97
ATOM     97  S   UNL A   1      39.560  37.675  40.024  1.00  0.00     0.124 S 
ATOM     98  O   UNL A   1      40.845  38.350  39.879  1.00  0.00    -0.237 OA
ATOM     99  O   UNL A   1      38.399  38.409  39.530  1.00  0.00    -0.237 OA
ATOM    100  O   UNL A   1      39.356  36.974  41.288  1.00  0.00    -0.744 OA
ENDBRANCH  96  97
ENDBRANCH  64  89
ENDBRANCH  38  39
ENDBRANCH  30  33
ENDBRANCH  28  29
ENDBRANCH   1  28
TORSDOF 17
ENDMDL
MODEL 3
REMARK VINA RESULT:     -11.5      3.463      9.334
REMARK SMILES [NH3+][C@]1(C(=O)NCCCCNC(=O)c2ccc(-c3c4nc(c(-c5c(F)cc(S(=O)(=O)[O-])cc5F)c5ccc([nH]5)c(-c5c(F)cc(S(=O)(=O)[O-])cc5F)c5nc(c(-c6c(F)cc(S(=O)(=O)[O-])cc6F)c6ccc3[nH]6)C=C5)C=C4)cc2)CC[C@@H]([NH+]2CCC(C(F)(F)F)CC2)C1
REMARK SMILES IDX 8 1 7 2 6 3 5 4 3 5 4 6 2 8 79 9 92 10 80 11 81 12 1 13
REMARK SMILES IDX 82 17 83 18 91 19 84 21 90 22 85 23 86 24 87 25 88 26 89 27
REMARK SMILES IDX 9 28 10 29 11 30 12 32 13 33 14 34 78 35 15 36 77 37 16 38
REMARK SMILES IDX 17 39 18 40 71 41 19 42 76 43 70 44 72 45 20 46 75 47 69 48
REMARK SMILES IDX 68 49 21 51 55 52 34 53 54 54 35 55 38 56 53 57 73 58 36 59
REMARK SMILES IDX 37 60 52 62 74 63 39 64 22 65 23 66 32 67 24 68 25 69 31 70
REMARK SMILES IDX 33 71 26 72 27 73 28 74 29 75 30 76 56 77 57 78 66 79 58 80
REMARK SMILES IDX 59 81 65 82 67 83 60 84 61 85 62 86 63 87 64 88 40 89 41 90
REMARK SMILES IDX 50 91 42 92 43 93 49 94 51 95 44 96 45 97 46 98 47 99 48 100
REMARK H PARENT 5 7 1 14 1 15 1 16 82 20 10 31 72 50 38 61
REMARK Flexibility Score: inf
ROOT
ATOM      1  C   UNL A   1      35.776  23.184  25.915  1.00  0.00     0.023 C 
ENDROOT
BRANCH   1   2
ATOM      2  C   UNL A   1      34.598  24.120  25.688  1.00  0.00     0.023 C 
BRANCH   2   3
ATOM      3  C   UNL A   1      34.583  24.874  24.351  1.00  0.00     0.116 C 
BRANCH   3   4
ATOM      4  N   UNL A   1      34.277  23.979  23.253  1.00  0.00    -0.351 N 
ATOM      5  C   UNL A   1      33.404  24.076  22.214  1.00  0.00     0.281 C 
ATOM      6  O   UNL A   1      33.378  23.104  21.444  1.00  0.00    -0.268 OA
ATOM      7  H   UNL A   1      34.799  23.144  23.260  1.00  0.00     0.163 HD
BRANCH   5   8
ATOM      8  C   UNL A   1      32.552  25.348  21.874  1.00  0.00     0.179 C 
ATOM      9  C   UNL A   1      31.283  25.313  22.756  1.00  0.00     0.085 C 
ATOM     10  C   UNL A   1      33.139  26.733  22.157  1.00  0.00     0.144 C 
ATOM     11  C   UNL A   1      30.821  26.757  22.877  1.00  0.00     0.072 C 
ATOM     12  C   UNL A   1      32.103  27.593  22.906  1.00  0.00     0.191 C 
BRANCH   8  13
ATOM     13  N   UNL A   1      32.183  25.266  20.440  1.00  0.00    -0.345 N 
ATOM     14  H   UNL A   1      32.701  25.971  19.916  1.00  0.00     0.345 HD
ATOM     15  H   UNL A   1      31.182  25.431  20.336  1.00  0.00     0.345 HD
ATOM     16  H   UNL A   1      32.414  24.339  20.083  1.00  0.00     0.345 HD
ENDBRANCH   8  13
BRANCH  12  17
ATOM     17  N   UNL A   1      32.541  28.069  24.247  1.00  0.00    -0.332 N 
ATOM     18  C   UNL A   1      33.995  28.211  24.399  1.00  0.00     0.263 C 
ATOM     19  C   UNL A   1      31.798  29.282  24.643  1.00  0.00     0.263 C 
ATOM     20  H   UNL A   1      32.302  27.326  24.904  1.00  0.00     0.348 HD
ATOM     21  C   UNL A   1      34.405  28.724  25.780  1.00  0.00     0.074 C 
ATOM     22  C   UNL A   1      32.188  29.813  26.021  1.00  0.00     0.074 C 
ATOM     23  C   UNL A   1      33.697  30.036  26.113  1.00  0.00     0.106 C 
BRANCH  23  24
ATOM     24  C   UNL A   1      34.094  30.546  27.486  1.00  0.00     0.392 C 
ATOM     25  F   UNL A   1      33.046  31.130  28.106  1.00  0.00    -0.171 F 
ATOM     26  F   UNL A   1      34.516  29.531  28.273  1.00  0.00    -0.171 F 
ATOM     27  F   UNL A   1      35.090  31.454  27.415  1.00  0.00    -0.171 F 
ENDBRANCH  23  24
ENDBRANCH  12  17
ENDBRANCH   5   8
ENDBRANCH   3   4
ENDBRANCH   2   3
ENDBRANCH   1   2
BRANCH   1  28
ATOM     28  C   UNL A   1      37.004  23.509  25.079  1.00  0.00     0.116 C 
BRANCH  28  29
ATOM     29  N   UNL A   1      38.142  22.631  25.327  1.00  0.00    -0.352 N 
ATOM     30  C   UNL A   1      39.259  22.910  26.082  1.00  0.00     0.251 C 
ATOM     31  H   UNL A   1      38.107  21.741  24.909  1.00  0.00     0.163 HD
ATOM     32  O   UNL A   1      40.178  22.103  26.169  1.00  0.00    -0.269 OA
BRANCH  30  33
ATOM     33  C   UNL A   1      39.343  24.232  26.731  1.00  0.00     0.039 A 
ATOM     34  C   UNL A   1      38.803  24.392  28.008  1.00  0.00     0.014 A 
ATOM     35  C   UNL A   1      40.083  25.255  26.132  1.00  0.00     0.014 A 
ATOM     36  C   UNL A   1      39.089  25.552  28.728  1.00  0.00     0.010 A 
ATOM     37  C   UNL A   1      40.432  26.369  26.881  1.00  0.00     0.010 A 
ATOM     38  C   UNL A   1      39.948  26.523  28.190  1.00  0.00    -0.014 A 
BRANCH  38  39
ATOM     39  C   UNL A   1      40.375  27.706  28.974  1.00  0.00     0.031 A 
ATOM     40  C   UNL A   1      41.686  27.677  29.709  1.00  0.00     0.074 A 
ATOM     41  C   UNL A   1      39.541  28.757  29.108  1.00  0.00     0.049 A 
ATOM     42  N   UNL A   1      42.177  28.542  30.555  1.00  0.00    -0.248 NA
ATOM     43  C   UNL A   1      42.538  26.497  29.490  1.00  0.00     0.031 C 
ATOM     44  C   UNL A   1      38.214  28.873  28.499  1.00  0.00     0.029 A 
ATOM     45  N   UNL A   1      39.679  29.923  29.819  1.00  0.00    -0.354 N 
ATOM     46  C   UNL A   1      43.375  27.994  30.998  1.00  0.00     0.074 A 
ATOM     47  C   UNL A   1      43.516  26.706  30.357  1.00  0.00     0.031 C 
ATOM     48  C   UNL A   1      37.671  30.053  28.844  1.00  0.00     0.029 A 
ATOM     49  C   UNL A   1      38.594  30.761  29.723  1.00  0.00     0.049 A 
ATOM     50  H   UNL A   1      40.481  30.138  30.349  1.00  0.00     0.167 HD
ATOM     51  C   UNL A   1      44.285  28.528  31.847  1.00  0.00     0.037 A 
ATOM     52  C   UNL A   1      38.371  31.966  30.284  1.00  0.00     0.037 A 
ATOM     53  C   UNL A   1      44.164  29.833  32.436  1.00  0.00     0.049 A 
ATOM     54  C   UNL A   1      39.427  32.568  31.168  1.00  0.00     0.074 A 
ATOM     55  C   UNL A   1      45.062  30.495  33.256  1.00  0.00     0.029 A 
ATOM     56  N   UNL A   1      43.083  30.684  32.255  1.00  0.00    -0.354 N 
ATOM     57  N   UNL A   1      40.576  32.058  31.538  1.00  0.00    -0.248 NA
ATOM     58  C   UNL A   1      39.161  33.910  31.704  1.00  0.00     0.031 C 
ATOM     59  C   UNL A   1      44.516  31.742  33.582  1.00  0.00     0.029 A 
ATOM     60  C   UNL A   1      43.291  31.865  32.945  1.00  0.00     0.049 A 
ATOM     61  H   UNL A   1      42.287  30.477  31.715  1.00  0.00     0.167 HD
ATOM     62  C   UNL A   1      41.181  33.024  32.333  1.00  0.00     0.074 A 
ATOM     63  C   UNL A   1      40.274  34.152  32.385  1.00  0.00     0.031 C 
ATOM     64  C   UNL A   1      42.380  32.982  32.965  1.00  0.00     0.037 A 
BRANCH  51  65
ATOM     65  C   UNL A   1      45.492  27.697  32.169  1.00  0.00     0.058 A 
ATOM     66  C   UNL A   1      45.499  26.802  33.251  1.00  0.00     0.135 A 
ATOM     67  C   UNL A   1      46.657  27.798  31.392  1.00  0.00     0.135 A 
ATOM     68  F   UNL A   1      44.417  26.685  34.037  1.00  0.00    -0.206 F 
ATOM     69  C   UNL A   1      46.630  26.062  33.575  1.00  0.00     0.059 A 
ATOM     70  C   UNL A   1      47.793  27.048  31.684  1.00  0.00     0.059 A 
ATOM     71  F   UNL A   1      46.704  28.640  30.349  1.00  0.00    -0.206 F 
ATOM     72  C   UNL A   1      47.776  26.198  32.790  1.00  0.00     0.060 A 
BRANCH  72  73
ATOM     73  S   UNL A   1      49.246  25.247  33.228  1.00  0.00     0.124 S 
ATOM     74  O   UNL A   1      48.656  24.120  33.945  1.00  0.00    -0.237 OA
ATOM     75  O   UNL A   1      49.822  24.935  31.923  1.00  0.00    -0.237 OA
ATOM     76  O   UNL A   1      50.019  26.177  34.045  1.00  0.00    -0.744 OA
ENDBRANCH  72  73
ENDBRANCH  51  65
BRANCH  52  77
ATOM     77  C   UNL A   1      37.111  32.698  29.992  1.00  0.00     0.058 A 
ATOM     78  C   UNL A   1      35.938  32.412  30.704  1.00  0.00     0.135 A 
ATOM     79  C   UNL A   1      37.059  33.704  29.016  1.00  0.00     0.135 A 
ATOM     80  F   UNL A   1      35.940  31.454  31.644  1.00  0.00    -0.206 F 
ATOM     81  C   UNL A   1      34.749  33.089  30.451  1.00  0.00     0.059 A 
ATOM     82  C   UNL A   1      35.886  34.407  28.757  1.00  0.00     0.059 A 
ATOM     83  F   UNL A   1      38.161  34.026  28.322  1.00  0.00    -0.206 F 
ATOM     84  C   UNL A   1      34.733  34.086  29.475  1.00  0.00     0.060 A 
BRANCH  84  85
ATOM     85  S   UNL A   1      33.201  34.998  29.188  1.00  0.00     0.124 S 
ATOM     86  O   UNL A   1      33.708  36.288  28.737  1.00  0.00    -0.237 OA
ATOM     87  O   UNL A   1      32.540  34.182  28.174  1.00  0.00    -0.237 OA
ATOM     88  O   UNL A   1      32.560  34.992  30.499  1.00  0.00    -0.744 OA
ENDBRANCH  84  85
ENDBRANCH  52  77
BRANCH  64  89
ATOM     89  C   UNL A   1      42.797  34.198  33.735  1.00  0.00     0.058 A 
ATOM     90  C   UNL A   1      42.445  34.368  35.081  1.00  0.00     0.135 A 
ATOM     91  C   UNL A   1      43.615  35.170  33.137  1.00  0.00     0.135 A 
ATOM     92  F   UNL A   1      41.658  33.468  35.693  1.00  0.00    -0.206 F 
ATOM     93  C   UNL A   1      42.882  35.468  35.811  1.00  0.00     0.059 A 
ATOM     94  C   UNL A   1      44.079  36.269  33.851  1.00  0.00     0.059 A 
ATOM     95  F   UNL A   1      43.983  35.046  31.852  1.00  0.00    -0.206 F 
ATOM     96  C   UNL A   1      43.703  36.412  35.187  1.00  0.00     0.060 A 
BRANCH  96  97
ATOM     97  S   UNL A   1      44.312  37.808  36.155  1.00  0.00     0.124 S 
ATOM     98  O   UNL A   1      43.554  37.660  37.393  1.00  0.00    -0.237 OA
ATOM     99  O   UNL A   1      45.741  37.529  36.250  1.00  0.00    -0.237 OA
ATOM    100  O   UNL A   1      43.960  38.964  35.336  1.00  0.00    -0.744 OA
ENDBRANCH  96  97
ENDBRANCH  64  89
ENDBRANCH  38  39
ENDBRANCH  30  33
ENDBRANCH  28  29
ENDBRANCH   1  28
TORSDOF 17
ENDMDL
