MODEL 1
REMARK VINA RESULT:     -11.1      0.000      0.000
REMARK SMILES CCSc1cccc(-c2ccc([C@@H](C)C(=O)NCCCCNC(=O)c3ccc(-c4c5nc(c(-c6c(F)cc(S(=O)(=O)[O-])cc6F)c6ccc([nH]6)c(-c6c(F)cc(S(=O)(=O)[O-])cc6F)c6nc(c(-c7c(F)cc(S(=O)(=O)[O-])cc7F)c7ccc4[nH]7)C=C6)C=C5)cc3)cc2)c1
REMARK SMILES IDX 19 1 18 2 17 3 15 4 16 5 13 7 14 8 12 9 9 10 10 11 92 12
REMARK SMILES IDX 11 13 91 14 8 15 4 16 5 17 93 18 6 19 7 20 3 21 2 22 1 23
REMARK SMILES IDX 20 24 21 25 22 26 23 27 24 29 25 30 26 31 90 32 27 33 89 34
REMARK SMILES IDX 28 35 29 36 30 37 83 38 31 39 88 40 82 41 84 42 32 43 87 44
REMARK SMILES IDX 81 45 80 46 33 48 67 49 46 50 66 51 47 52 50 53 65 54 85 55
REMARK SMILES IDX 48 56 49 57 64 59 86 60 51 61 34 62 35 63 44 64 36 65 37 66
REMARK SMILES IDX 43 67 45 68 38 69 39 70 40 71 41 72 42 73 68 74 69 75 78 76
REMARK SMILES IDX 70 77 71 78 77 79 79 80 72 81 73 82 74 83 75 84 76 85 52 86
REMARK SMILES IDX 53 87 62 88 54 89 55 90 61 91 63 92 56 93 57 94 58 95 59 96
REMARK SMILES IDX 60 97
REMARK H PARENT 17 6 22 28 84 47 50 58
REMARK Flexibility Score: inf
ROOT
ATOM      1  C   UNL A   1      36.084  21.442  25.640  1.00  0.00     0.023 C 
ENDROOT
BRANCH   1   2
ATOM      2  C   UNL A   1      35.400  20.432  24.719  1.00  0.00     0.116 C 
BRANCH   2   3
ATOM      3  N   UNL A   1      34.414  19.631  25.413  1.00  0.00    -0.356 N 
ATOM      4  C   UNL A   1      33.075  19.485  25.219  1.00  0.00     0.227 C 
ATOM      5  O   UNL A   1      32.474  18.749  26.012  1.00  0.00    -0.274 OA
ATOM      6  H   UNL A   1      34.776  19.098  26.157  1.00  0.00     0.163 HD
BRANCH   4   7
ATOM      7  C   UNL A   1      32.301  20.161  24.076  1.00  0.00     0.105 C 
ATOM      8  C   UNL A   1      32.412  19.431  22.736  1.00  0.00     0.023 C 
BRANCH   7   9
ATOM      9  C   UNL A   1      32.471  21.671  24.038  1.00  0.00    -0.036 A 
ATOM     10  C   UNL A   1      32.908  24.502  24.114  1.00  0.00    -0.018 A 
ATOM     11  C   UNL A   1      33.172  23.740  22.963  1.00  0.00     0.009 A 
ATOM     12  C   UNL A   1      32.393  23.808  25.221  1.00  0.00     0.009 A 
ATOM     13  C   UNL A   1      32.928  22.361  22.914  1.00  0.00     0.005 A 
ATOM     14  C   UNL A   1      32.198  22.420  25.192  1.00  0.00     0.005 A 
BRANCH  10  15
ATOM     15  C   UNL A   1      33.164  25.964  24.148  1.00  0.00    -0.017 A 
ATOM     16  C   UNL A   1      33.815  28.008  25.372  1.00  0.00     0.008 A 
ATOM     17  C   UNL A   1      33.650  28.752  24.203  1.00  0.00     0.015 A 
ATOM     18  C   UNL A   1      33.577  26.622  25.324  1.00  0.00     0.023 A 
ATOM     19  C   UNL A   1      33.257  28.129  23.021  1.00  0.00     0.002 A 
ATOM     20  C   UNL A   1      33.007  26.757  22.998  1.00  0.00     0.009 A 
BRANCH  16  21
ATOM     21  S   UNL A   1      34.279  28.687  26.964  1.00  0.00    -0.126 SA
BRANCH  21  22
ATOM     22  C   UNL A   1      33.403  30.284  27.068  1.00  0.00     0.071 C 
ATOM     23  C   UNL A   1      34.301  31.399  27.576  1.00  0.00     0.016 C 
ENDBRANCH  21  22
ENDBRANCH  16  21
ENDBRANCH  10  15
ENDBRANCH   7   9
ENDBRANCH   4   7
ENDBRANCH   2   3
ENDBRANCH   1   2
BRANCH   1  24
ATOM     24  C   UNL A   1      36.007  22.896  25.176  1.00  0.00     0.023 C 
BRANCH  24  25
ATOM     25  C   UNL A   1      37.297  23.699  25.315  1.00  0.00     0.116 C 
BRANCH  25  26
ATOM     26  N   UNL A   1      38.487  22.886  25.522  1.00  0.00    -0.352 N 
ATOM     27  C   UNL A   1      39.624  23.207  26.234  1.00  0.00     0.251 C 
ATOM     28  H   UNL A   1      38.479  21.995  25.103  1.00  0.00     0.163 HD
ATOM     29  O   UNL A   1      40.576  22.441  26.267  1.00  0.00    -0.269 OA
BRANCH  27  30
ATOM     30  C   UNL A   1      39.688  24.520  26.911  1.00  0.00     0.039 A 
ATOM     31  C   UNL A   1      39.063  24.671  28.150  1.00  0.00     0.014 A 
ATOM     32  C   UNL A   1      40.448  25.558  26.366  1.00  0.00     0.014 A 
ATOM     33  C   UNL A   1      39.285  25.831  28.895  1.00  0.00     0.010 A 
ATOM     34  C   UNL A   1      40.719  26.683  27.135  1.00  0.00     0.010 A 
ATOM     35  C   UNL A   1      40.160  26.819  28.416  1.00  0.00    -0.014 A 
BRANCH  35  36
ATOM     36  C   UNL A   1      40.552  27.984  29.249  1.00  0.00     0.031 A 
ATOM     37  C   UNL A   1      41.814  27.937  30.060  1.00  0.00     0.074 A 
ATOM     38  C   UNL A   1      39.712  29.033  29.360  1.00  0.00     0.049 A 
ATOM     39  N   UNL A   1      42.250  28.780  30.959  1.00  0.00    -0.248 NA
ATOM     40  C   UNL A   1      42.689  26.771  29.852  1.00  0.00     0.031 C 
ATOM     41  C   UNL A   1      38.433  29.174  28.661  1.00  0.00     0.029 A 
ATOM     42  N   UNL A   1      39.797  30.172  30.123  1.00  0.00    -0.354 N 
ATOM     43  C   UNL A   1      43.433  28.237  31.443  1.00  0.00     0.074 A 
ATOM     44  C   UNL A   1      43.630  26.975  30.764  1.00  0.00     0.031 C 
ATOM     45  C   UNL A   1      37.858  30.333  29.020  1.00  0.00     0.029 A 
ATOM     46  C   UNL A   1      38.705  30.999  30.004  1.00  0.00     0.049 A 
ATOM     47  H   UNL A   1      40.567  30.376  30.701  1.00  0.00     0.167 HD
ATOM     48  C   UNL A   1      44.286  28.755  32.359  1.00  0.00     0.037 A 
ATOM     49  C   UNL A   1      38.408  32.154  30.632  1.00  0.00     0.037 A 
ATOM     50  C   UNL A   1      44.104  30.028  33.003  1.00  0.00     0.049 A 
ATOM     51  C   UNL A   1      39.369  32.705  31.648  1.00  0.00     0.074 A 
ATOM     52  C   UNL A   1      44.955  30.678  33.879  1.00  0.00     0.029 A 
ATOM     53  N   UNL A   1      42.995  30.845  32.843  1.00  0.00    -0.354 N 
ATOM     54  N   UNL A   1      40.516  32.210  32.048  1.00  0.00    -0.248 NA
ATOM     55  C   UNL A   1      38.994  33.965  32.306  1.00  0.00     0.031 C 
ATOM     56  C   UNL A   1      44.345  31.873  34.275  1.00  0.00     0.029 A 
ATOM     57  C   UNL A   1      43.127  31.980  33.622  1.00  0.00     0.049 A 
ATOM     58  H   UNL A   1      42.226  30.645  32.261  1.00  0.00     0.167 HD
ATOM     59  C   UNL A   1      41.004  33.103  32.995  1.00  0.00     0.074 A 
ATOM     60  C   UNL A   1      40.036  34.174  33.099  1.00  0.00     0.031 C 
ATOM     61  C   UNL A   1      42.151  33.036  33.715  1.00  0.00     0.037 A 
BRANCH  48  62
ATOM     62  C   UNL A   1      45.499  27.942  32.710  1.00  0.00     0.058 A 
ATOM     63  C   UNL A   1      46.681  28.027  31.958  1.00  0.00     0.135 A 
ATOM     64  C   UNL A   1      45.489  27.086  33.823  1.00  0.00     0.135 A 
ATOM     65  F   UNL A   1      46.738  28.819  30.875  1.00  0.00    -0.206 F 
ATOM     66  C   UNL A   1      47.801  27.268  32.278  1.00  0.00     0.059 A 
ATOM     67  C   UNL A   1      46.606  26.336  34.175  1.00  0.00     0.059 A 
ATOM     68  F   UNL A   1      44.383  26.968  34.574  1.00  0.00    -0.206 F 
ATOM     69  C   UNL A   1      47.753  26.421  33.386  1.00  0.00     0.060 A 
BRANCH  69  70
ATOM     70  S   UNL A   1      49.213  25.437  33.785  1.00  0.00     0.124 S 
ATOM     71  O   UNL A   1      49.499  25.882  35.147  1.00  0.00    -0.237 OA
ATOM     72  O   UNL A   1      48.716  24.071  33.657  1.00  0.00    -0.237 OA
ATOM     73  O   UNL A   1      50.183  25.846  32.774  1.00  0.00    -0.744 OA
ENDBRANCH  69  70
ENDBRANCH  48  62
BRANCH  49  74
ATOM     74  C   UNL A   1      37.144  32.866  30.315  1.00  0.00     0.058 A 
ATOM     75  C   UNL A   1      36.004  32.694  31.113  1.00  0.00     0.135 A 
ATOM     76  C   UNL A   1      37.054  33.748  29.227  1.00  0.00     0.135 A 
ATOM     77  F   UNL A   1      36.040  31.856  32.161  1.00  0.00    -0.206 F 
ATOM     78  C   UNL A   1      34.815  33.361  30.840  1.00  0.00     0.059 A 
ATOM     79  C   UNL A   1      35.882  34.441  28.943  1.00  0.00     0.059 A 
ATOM     80  F   UNL A   1      38.123  33.958  28.442  1.00  0.00    -0.206 F 
ATOM     81  C   UNL A   1      34.764  34.235  29.752  1.00  0.00     0.060 A 
BRANCH  81  82
ATOM     82  S   UNL A   1      33.233  35.142  29.438  1.00  0.00     0.124 S 
ATOM     83  O   UNL A   1      32.634  35.174  30.767  1.00  0.00    -0.237 OA
ATOM     84  O   UNL A   1      33.728  36.417  28.930  1.00  0.00    -0.237 OA
ATOM     85  O   UNL A   1      32.548  34.308  28.455  1.00  0.00    -0.744 OA
ENDBRANCH  81  82
ENDBRANCH  49  74
BRANCH  61  86
ATOM     86  C   UNL A   1      42.429  34.154  34.678  1.00  0.00     0.058 A 
ATOM     87  C   UNL A   1      42.117  34.036  36.040  1.00  0.00     0.135 A 
ATOM     88  C   UNL A   1      43.082  35.321  34.249  1.00  0.00     0.135 A 
ATOM     89  F   UNL A   1      41.482  32.944  36.495  1.00  0.00    -0.206 F 
ATOM     90  C   UNL A   1      42.441  35.038  36.947  1.00  0.00     0.059 A 
ATOM     91  C   UNL A   1      43.433  36.327  35.143  1.00  0.00     0.059 A 
ATOM     92  F   UNL A   1      43.406  35.478  32.956  1.00  0.00    -0.206 F 
ATOM     93  C   UNL A   1      43.106  36.178  36.490  1.00  0.00     0.060 A 
BRANCH  93  94
ATOM     94  S   UNL A   1      43.581  37.443  37.688  1.00  0.00     0.124 S 
ATOM     95  O   UNL A   1      42.315  37.694  38.368  1.00  0.00    -0.237 OA
ATOM     96  O   UNL A   1      44.601  36.760  38.478  1.00  0.00    -0.237 OA
ATOM     97  O   UNL A   1      44.072  38.534  36.850  1.00  0.00    -0.744 OA
ENDBRANCH  93  94
ENDBRANCH  61  86
ENDBRANCH  35  36
ENDBRANCH  27  30
ENDBRANCH  25  26
ENDBRANCH  24  25
ENDBRANCH   1  24
TORSDOF 18
ENDMDL
MODEL 2
REMARK VINA RESULT:     -10.7      4.724     10.960
REMARK SMILES CCSc1cccc(-c2ccc([C@@H](C)C(=O)NCCCCNC(=O)c3ccc(-c4c5nc(c(-c6c(F)cc(S(=O)(=O)[O-])cc6F)c6ccc([nH]6)c(-c6c(F)cc(S(=O)(=O)[O-])cc6F)c6nc(c(-c7c(F)cc(S(=O)(=O)[O-])cc7F)c7ccc4[nH]7)C=C6)C=C5)cc3)cc2)c1
REMARK SMILES IDX 19 1 18 2 17 3 15 4 16 5 13 7 14 8 12 9 9 10 10 11 92 12
REMARK SMILES IDX 11 13 91 14 8 15 4 16 5 17 93 18 6 19 7 20 3 21 2 22 1 23
REMARK SMILES IDX 20 24 21 25 22 26 23 27 24 29 25 30 26 31 90 32 27 33 89 34
REMARK SMILES IDX 28 35 29 36 30 37 83 38 31 39 88 40 82 41 84 42 32 43 87 44
REMARK SMILES IDX 81 45 80 46 33 48 67 49 46 50 66 51 47 52 50 53 65 54 85 55
REMARK SMILES IDX 48 56 49 57 64 59 86 60 51 61 34 62 35 63 44 64 36 65 37 66
REMARK SMILES IDX 43 67 45 68 38 69 39 70 40 71 41 72 42 73 68 74 69 75 78 76
REMARK SMILES IDX 70 77 71 78 77 79 79 80 72 81 73 82 74 83 75 84 76 85 52 86
REMARK SMILES IDX 53 87 62 88 54 89 55 90 61 91 63 92 56 93 57 94 58 95 59 96
REMARK SMILES IDX 60 97
REMARK H PARENT 17 6 22 28 84 47 50 58
REMARK Flexibility Score: inf
ROOT
ATOM      1  C   UNL A   1      34.391  34.868  28.564  1.00  0.00     0.023 C 
ENDROOT
BRANCH   1   2
ATOM      2  C   UNL A   1      33.354  34.939  29.685  1.00  0.00     0.116 C 
BRANCH   2   3
ATOM      3  N   UNL A   1      33.855  35.623  30.858  1.00  0.00    -0.356 N 
ATOM      4  C   UNL A   1      34.703  35.218  31.843  1.00  0.00     0.227 C 
ATOM      5  O   UNL A   1      34.918  36.023  32.758  1.00  0.00    -0.274 OA
ATOM      6  H   UNL A   1      33.524  36.545  30.962  1.00  0.00     0.163 HD
BRANCH   4   7
ATOM      7  C   UNL A   1      35.401  33.849  31.856  1.00  0.00     0.105 C 
ATOM      8  C   UNL A   1      35.118  33.022  33.111  1.00  0.00     0.023 C 
BRANCH   7   9
ATOM      9  C   UNL A   1      36.848  33.902  31.394  1.00  0.00    -0.036 A 
ATOM     10  C   UNL A   1      39.516  34.080  30.365  1.00  0.00    -0.018 A 
ATOM     11  C   UNL A   1      39.149  34.677  31.582  1.00  0.00     0.009 A 
ATOM     12  C   UNL A   1      38.514  33.366  29.689  1.00  0.00     0.009 A 
ATOM     13  C   UNL A   1      37.853  34.564  32.103  1.00  0.00     0.005 A 
ATOM     14  C   UNL A   1      37.203  33.296  30.181  1.00  0.00     0.005 A 
BRANCH  10  15
ATOM     15  C   UNL A   1      40.896  34.202  29.830  1.00  0.00    -0.017 A 
ATOM     16  C   UNL A   1      43.223  33.388  29.670  1.00  0.00     0.008 A 
ATOM     17  C   UNL A   1      43.523  34.441  28.805  1.00  0.00     0.015 A 
ATOM     18  C   UNL A   1      41.909  33.280  30.163  1.00  0.00     0.023 A 
ATOM     19  C   UNL A   1      42.540  35.361  28.445  1.00  0.00     0.002 A 
ATOM     20  C   UNL A   1      41.249  35.247  28.960  1.00  0.00     0.009 A 
BRANCH  16  21
ATOM     21  S   UNL A   1      44.398  32.162  30.241  1.00  0.00    -0.126 SA
BRANCH  21  22
ATOM     22  C   UNL A   1      44.526  30.960  28.875  1.00  0.00     0.071 C 
ATOM     23  C   UNL A   1      43.164  30.508  28.379  1.00  0.00     0.016 C 
ENDBRANCH  21  22
ENDBRANCH  16  21
ENDBRANCH  10  15
ENDBRANCH   7   9
ENDBRANCH   4   7
ENDBRANCH   2   3
ENDBRANCH   1   2
BRANCH   1  24
ATOM     24  C   UNL A   1      34.464  33.527  27.835  1.00  0.00     0.023 C 
BRANCH  24  25
ATOM     25  C   UNL A   1      34.100  32.303  28.670  1.00  0.00     0.116 C 
BRANCH  25  26
ATOM     26  N   UNL A   1      33.894  31.090  27.891  1.00  0.00    -0.352 N 
ATOM     27  C   UNL A   1      34.738  30.006  27.765  1.00  0.00     0.251 C 
ATOM     28  H   UNL A   1      33.047  31.037  27.392  1.00  0.00     0.163 HD
ATOM     29  O   UNL A   1      34.456  29.080  27.019  1.00  0.00    -0.269 OA
BRANCH  27  30
ATOM     30  C   UNL A   1      36.014  30.013  28.511  1.00  0.00     0.039 A 
ATOM     31  C   UNL A   1      36.023  29.573  29.837  1.00  0.00     0.014 A 
ATOM     32  C   UNL A   1      37.206  30.355  27.867  1.00  0.00     0.014 A 
ATOM     33  C   UNL A   1      37.243  29.378  30.488  1.00  0.00     0.010 A 
ATOM     34  C   UNL A   1      38.419  30.100  28.494  1.00  0.00     0.010 A 
ATOM     35  C   UNL A   1      38.450  29.586  29.801  1.00  0.00    -0.014 A 
BRANCH  35  36
ATOM     36  C   UNL A   1      39.761  29.230  30.401  1.00  0.00     0.031 A 
ATOM     37  C   UNL A   1      40.306  30.034  31.545  1.00  0.00     0.074 A 
ATOM     38  C   UNL A   1      40.505  28.256  29.839  1.00  0.00     0.049 A 
ATOM     39  N   UNL A   1      41.487  29.980  32.102  1.00  0.00    -0.248 NA
ATOM     40  C   UNL A   1      39.413  31.054  32.120  1.00  0.00     0.031 C 
ATOM     41  C   UNL A   1      40.105  27.437  28.693  1.00  0.00     0.029 A 
ATOM     42  N   UNL A   1      41.766  27.806  30.141  1.00  0.00    -0.354 N 
ATOM     43  C   UNL A   1      41.491  30.973  33.074  1.00  0.00     0.074 A 
ATOM     44  C   UNL A   1      40.207  31.637  33.007  1.00  0.00     0.031 C 
ATOM     45  C   UNL A   1      41.095  26.580  28.395  1.00  0.00     0.029 A 
ATOM     46  C   UNL A   1      42.216  26.816  29.299  1.00  0.00     0.049 A 
ATOM     47  H   UNL A   1      42.298  28.158  30.890  1.00  0.00     0.167 HD
ATOM     48  C   UNL A   1      42.471  31.289  33.954  1.00  0.00     0.037 A 
ATOM     49  C   UNL A   1      43.404  26.183  29.248  1.00  0.00     0.037 A 
ATOM     50  C   UNL A   1      43.731  30.600  34.040  1.00  0.00     0.049 A 
ATOM     51  C   UNL A   1      44.478  26.555  30.232  1.00  0.00     0.074 A 
ATOM     52  C   UNL A   1      44.753  30.787  34.954  1.00  0.00     0.029 A 
ATOM     53  N   UNL A   1      44.142  29.590  33.182  1.00  0.00    -0.354 N 
ATOM     54  N   UNL A   1      44.442  27.453  31.187  1.00  0.00    -0.248 NA
ATOM     55  C   UNL A   1      45.756  25.836  30.128  1.00  0.00     0.031 C 
ATOM     56  C   UNL A   1      45.797  29.915  34.627  1.00  0.00     0.029 A 
ATOM     57  C   UNL A   1      45.412  29.163  33.529  1.00  0.00     0.049 A 
ATOM     58  H   UNL A   1      43.609  29.232  32.436  1.00  0.00     0.167 HD
ATOM     59  C   UNL A   1      45.686  27.400  31.804  1.00  0.00     0.074 A 
ATOM     60  C   UNL A   1      46.448  26.373  31.124  1.00  0.00     0.031 C 
ATOM     61  C   UNL A   1      46.155  28.140  32.838  1.00  0.00     0.037 A 
BRANCH  48  62
ATOM     62  C   UNL A   1      42.212  32.427  34.898  1.00  0.00     0.058 A 
ATOM     63  C   UNL A   1      41.781  32.204  36.214  1.00  0.00     0.135 A 
ATOM     64  C   UNL A   1      42.418  33.755  34.491  1.00  0.00     0.135 A 
ATOM     65  F   UNL A   1      41.553  30.954  36.649  1.00  0.00    -0.206 F 
ATOM     66  C   UNL A   1      41.532  33.258  37.086  1.00  0.00     0.059 A 
ATOM     67  C   UNL A   1      42.199  34.824  35.354  1.00  0.00     0.059 A 
ATOM     68  F   UNL A   1      42.829  34.023  33.241  1.00  0.00    -0.206 F 
ATOM     69  C   UNL A   1      41.740  34.566  36.645  1.00  0.00     0.060 A 
BRANCH  69  70
ATOM     70  S   UNL A   1      41.406  35.925  37.785  1.00  0.00     0.124 S 
ATOM     71  O   UNL A   1      40.212  36.518  37.188  1.00  0.00    -0.237 OA
ATOM     72  O   UNL A   1      41.202  35.231  39.052  1.00  0.00    -0.237 OA
ATOM     73  O   UNL A   1      42.617  36.738  37.706  1.00  0.00    -0.744 OA
ENDBRANCH  69  70
ENDBRANCH  48  62
BRANCH  49  74
ATOM     74  C   UNL A   1      43.640  25.130  28.227  1.00  0.00     0.058 A 
ATOM     75  C   UNL A   1      43.300  23.794  28.484  1.00  0.00     0.135 A 
ATOM     76  C   UNL A   1      44.187  25.437  26.971  1.00  0.00     0.135 A 
ATOM     77  F   UNL A   1      42.780  23.452  29.672  1.00  0.00    -0.206 F 
ATOM     78  C   UNL A   1      43.502  22.796  27.537  1.00  0.00     0.059 A 
ATOM     79  C   UNL A   1      44.382  24.459  26.000  1.00  0.00     0.059 A 
ATOM     80  F   UNL A   1      44.515  26.704  26.673  1.00  0.00    -0.206 F 
ATOM     81  C   UNL A   1      44.042  23.139  26.296  1.00  0.00     0.060 A 
BRANCH  81  82
ATOM     82  S   UNL A   1      44.248  21.846  25.051  1.00  0.00     0.124 S 
ATOM     83  O   UNL A   1      43.202  20.903  25.432  1.00  0.00    -0.237 OA
ATOM     84  O   UNL A   1      44.026  22.576  23.807  1.00  0.00    -0.237 OA
ATOM     85  O   UNL A   1      45.618  21.392  25.265  1.00  0.00    -0.744 OA
ENDBRANCH  81  82
ENDBRANCH  49  74
BRANCH  61  86
ATOM     86  C   UNL A   1      47.555  27.866  33.306  1.00  0.00     0.058 A 
ATOM     87  C   UNL A   1      47.822  26.878  34.265  1.00  0.00     0.135 A 
ATOM     88  C   UNL A   1      48.645  28.542  32.734  1.00  0.00     0.135 A 
ATOM     89  F   UNL A   1      46.813  26.213  34.848  1.00  0.00    -0.206 F 
ATOM     90  C   UNL A   1      49.124  26.570  34.646  1.00  0.00     0.059 A 
ATOM     91  C   UNL A   1      49.955  28.236  33.085  1.00  0.00     0.059 A 
ATOM     92  F   UNL A   1      48.440  29.491  31.808  1.00  0.00    -0.206 F 
ATOM     93  C   UNL A   1      50.185  27.250  34.044  1.00  0.00     0.060 A 
BRANCH  93  94
ATOM     94  S   UNL A   1      51.873  26.796  34.497  1.00  0.00     0.124 S 
ATOM     95  O   UNL A   1      52.226  25.871  33.424  1.00  0.00    -0.237 OA
ATOM     96  O   UNL A   1      52.561  28.083  34.477  1.00  0.00    -0.237 OA
ATOM     97  O   UNL A   1      51.718  26.195  35.819  1.00  0.00    -0.744 OA
ENDBRANCH  93  94
ENDBRANCH  61  86
ENDBRANCH  35  36
ENDBRANCH  27  30
ENDBRANCH  25  26
ENDBRANCH  24  25
ENDBRANCH   1  24
TORSDOF 18
ENDMDL
MODEL 3
REMARK VINA RESULT:     -10.6      2.775      3.400
REMARK SMILES CCSc1cccc(-c2ccc([C@@H](C)C(=O)NCCCCNC(=O)c3ccc(-c4c5nc(c(-c6c(F)cc(S(=O)(=O)[O-])cc6F)c6ccc([nH]6)c(-c6c(F)cc(S(=O)(=O)[O-])cc6F)c6nc(c(-c7c(F)cc(S(=O)(=O)[O-])cc7F)c7ccc4[nH]7)C=C6)C=C5)cc3)cc2)c1
REMARK SMILES IDX 19 1 18 2 17 3 15 4 16 5 13 7 14 8 12 9 9 10 10 11 92 12
REMARK SMILES IDX 11 13 91 14 8 15 4 16 5 17 93 18 6 19 7 20 3 21 2 22 1 23
REMARK SMILES IDX 20 24 21 25 22 26 23 27 24 29 25 30 26 31 90 32 27 33 89 34
REMARK SMILES IDX 28 35 29 36 30 37 83 38 31 39 88 40 82 41 84 42 32 43 87 44
REMARK SMILES IDX 81 45 80 46 33 48 67 49 46 50 66 51 47 52 50 53 65 54 85 55
REMARK SMILES IDX 48 56 49 57 64 59 86 60 51 61 34 62 35 63 44 64 36 65 37 66
REMARK SMILES IDX 43 67 45 68 38 69 39 70 40 71 41 72 42 73 68 74 69 75 78 76
REMARK SMILES IDX 70 77 71 78 77 79 79 80 72 81 73 82 74 83 75 84 76 85 52 86
REMARK SMILES IDX 53 87 62 88 54 89 55 90 61 91 63 92 56 93 57 94 58 95 59 96
REMARK SMILES IDX 60 97
REMARK H PARENT 17 6 22 28 84 47 50 58
REMARK Flexibility Score: inf
ROOT
ATOM      1  C   UNL A   1      35.702  21.460  25.852  1.00  0.00     0.023 C 
ENDROOT
BRANCH   1   2
ATOM      2  C   UNL A   1      35.238  20.398  24.856  1.00  0.00     0.116 C 
BRANCH   2   3
ATOM      3  N   UNL A   1      34.228  19.522  25.413  1.00  0.00    -0.356 N 
ATOM      4  C   UNL A   1      32.918  19.341  25.093  1.00  0.00     0.227 C 
ATOM      5  O   UNL A   1      32.282  18.537  25.786  1.00  0.00    -0.274 OA
ATOM      6  H   UNL A   1      34.547  18.957  26.154  1.00  0.00     0.163 HD
BRANCH   4   7
ATOM      7  C   UNL A   1      32.219  20.057  23.926  1.00  0.00     0.105 C 
ATOM      8  C   UNL A   1      32.388  19.354  22.578  1.00  0.00     0.023 C 
BRANCH   7   9
ATOM      9  C   UNL A   1      32.421  21.564  23.933  1.00  0.00    -0.036 A 
ATOM     10  C   UNL A   1      32.909  24.382  24.095  1.00  0.00    -0.018 A 
ATOM     11  C   UNL A   1      33.205  23.643  22.937  1.00  0.00     0.009 A 
ATOM     12  C   UNL A   1      32.335  23.674  25.162  1.00  0.00     0.009 A 
ATOM     13  C   UNL A   1      32.937  22.271  22.845  1.00  0.00     0.005 A 
ATOM     14  C   UNL A   1      32.115  22.292  25.091  1.00  0.00     0.005 A 
BRANCH  10  15
ATOM     15  C   UNL A   1      33.192  25.838  24.174  1.00  0.00    -0.017 A 
ATOM     16  C   UNL A   1      33.517  27.899  25.497  1.00  0.00     0.008 A 
ATOM     17  C   UNL A   1      33.732  28.613  24.317  1.00  0.00     0.015 A 
ATOM     18  C   UNL A   1      33.258  26.519  25.407  1.00  0.00     0.023 A 
ATOM     19  C   UNL A   1      33.688  27.967  23.084  1.00  0.00     0.002 A 
ATOM     20  C   UNL A   1      33.410  26.601  23.015  1.00  0.00     0.009 A 
BRANCH  16  21
ATOM     21  S   UNL A   1      33.509  28.611  27.141  1.00  0.00    -0.126 SA
BRANCH  21  22
ATOM     22  C   UNL A   1      35.177  29.317  27.357  1.00  0.00     0.071 C 
ATOM     23  C   UNL A   1      35.133  30.792  27.716  1.00  0.00     0.016 C 
ENDBRANCH  21  22
ENDBRANCH  16  21
ENDBRANCH  10  15
ENDBRANCH   7   9
ENDBRANCH   4   7
ENDBRANCH   2   3
ENDBRANCH   1   2
BRANCH   1  24
ATOM     24  C   UNL A   1      35.891  22.858  25.265  1.00  0.00     0.023 C 
BRANCH  24  25
ATOM     25  C   UNL A   1      37.334  23.348  25.183  1.00  0.00     0.116 C 
BRANCH  25  26
ATOM     26  N   UNL A   1      38.307  22.435  25.767  1.00  0.00    -0.352 N 
ATOM     27  C   UNL A   1      39.394  22.741  26.558  1.00  0.00     0.251 C 
ATOM     28  H   UNL A   1      38.173  21.479  25.572  1.00  0.00     0.163 HD
ATOM     29  O   UNL A   1      40.166  21.867  26.924  1.00  0.00    -0.269 OA
BRANCH  27  30
ATOM     30  C   UNL A   1      39.637  24.157  26.910  1.00  0.00     0.039 A 
ATOM     31  C   UNL A   1      39.415  24.573  28.225  1.00  0.00     0.014 A 
ATOM     32  C   UNL A   1      40.176  25.035  25.967  1.00  0.00     0.014 A 
ATOM     33  C   UNL A   1      39.832  25.845  28.622  1.00  0.00     0.010 A 
ATOM     34  C   UNL A   1      40.646  26.276  26.379  1.00  0.00     0.010 A 
ATOM     35  C   UNL A   1      40.501  26.683  27.716  1.00  0.00    -0.014 A 
BRANCH  35  36
ATOM     36  C   UNL A   1      41.106  27.970  28.143  1.00  0.00     0.031 A 
ATOM     37  C   UNL A   1      42.597  28.145  28.112  1.00  0.00     0.074 A 
ATOM     38  C   UNL A   1      40.319  28.932  28.663  1.00  0.00     0.049 A 
ATOM     39  N   UNL A   1      43.322  29.126  28.583  1.00  0.00    -0.248 NA
ATOM     40  C   UNL A   1      43.377  27.060  27.496  1.00  0.00     0.031 C 
ATOM     41  C   UNL A   1      38.862  28.860  28.792  1.00  0.00     0.029 A 
ATOM     42  N   UNL A   1      40.637  30.154  29.205  1.00  0.00    -0.354 N 
ATOM     43  C   UNL A   1      44.643  28.767  28.344  1.00  0.00     0.074 A 
ATOM     44  C   UNL A   1      44.621  27.462  27.719  1.00  0.00     0.031 C 
ATOM     45  C   UNL A   1      38.412  29.987  29.366  1.00  0.00     0.029 A 
ATOM     46  C   UNL A   1      39.549  30.845  29.684  1.00  0.00     0.049 A 
ATOM     47  H   UNL A   1      41.556  30.501  29.247  1.00  0.00     0.167 HD
ATOM     48  C   UNL A   1      45.769  29.471  28.608  1.00  0.00     0.037 A 
ATOM     49  C   UNL A   1      39.476  32.027  30.327  1.00  0.00     0.037 A 
ATOM     50  C   UNL A   1      45.782  30.784  29.195  1.00  0.00     0.049 A 
ATOM     51  C   UNL A   1      40.741  32.788  30.612  1.00  0.00     0.074 A 
ATOM     52  C   UNL A   1      46.865  31.614  29.421  1.00  0.00     0.029 A 
ATOM     53  N   UNL A   1      44.659  31.459  29.650  1.00  0.00    -0.354 N 
ATOM     54  N   UNL A   1      41.979  32.462  30.322  1.00  0.00    -0.248 NA
ATOM     55  C   UNL A   1      40.605  34.069  31.318  1.00  0.00     0.031 C 
ATOM     56  C   UNL A   1      46.401  32.778  30.045  1.00  0.00     0.029 A 
ATOM     57  C   UNL A   1      45.025  32.684  30.179  1.00  0.00     0.049 A 
ATOM     58  H   UNL A   1      43.737  31.115  29.604  1.00  0.00     0.167 HD
ATOM     59  C   UNL A   1      42.766  33.503  30.800  1.00  0.00     0.074 A 
ATOM     60  C   UNL A   1      41.866  34.474  31.386  1.00  0.00     0.031 C 
ATOM     61  C   UNL A   1      44.114  33.637  30.760  1.00  0.00     0.037 A 
BRANCH  48  62
ATOM     62  C   UNL A   1      47.081  28.833  28.253  1.00  0.00     0.058 A 
ATOM     63  C   UNL A   1      47.665  29.011  26.989  1.00  0.00     0.135 A 
ATOM     64  C   UNL A   1      47.774  28.054  29.192  1.00  0.00     0.135 A 
ATOM     65  F   UNL A   1      47.035  29.734  26.049  1.00  0.00    -0.206 F 
ATOM     66  C   UNL A   1      48.875  28.413  26.658  1.00  0.00     0.059 A 
ATOM     67  C   UNL A   1      48.999  27.466  28.890  1.00  0.00     0.059 A 
ATOM     68  F   UNL A   1      47.259  27.852  30.415  1.00  0.00    -0.206 F 
ATOM     69  C   UNL A   1      49.534  27.638  27.614  1.00  0.00     0.060 A 
BRANCH  69  70
ATOM     70  S   UNL A   1      51.101  26.863  27.167  1.00  0.00     0.124 S 
ATOM     71  O   UNL A   1      52.022  27.991  27.271  1.00  0.00    -0.237 OA
ATOM     72  O   UNL A   1      51.245  25.831  28.189  1.00  0.00    -0.237 OA
ATOM     73  O   UNL A   1      50.861  26.370  25.814  1.00  0.00    -0.744 OA
ENDBRANCH  69  70
ENDBRANCH  48  62
BRANCH  49  74
ATOM     74  C   UNL A   1      38.156  32.566  30.742  1.00  0.00     0.058 A 
ATOM     75  C   UNL A   1      37.685  32.380  32.050  1.00  0.00     0.135 A 
ATOM     76  C   UNL A   1      37.348  33.291  29.852  1.00  0.00     0.135 A 
ATOM     77  F   UNL A   1      38.419  31.687  32.934  1.00  0.00    -0.206 F 
ATOM     78  C   UNL A   1      36.457  32.886  32.461  1.00  0.00     0.059 A 
ATOM     79  C   UNL A   1      36.124  33.824  30.244  1.00  0.00     0.059 A 
ATOM     80  F   UNL A   1      37.762  33.508  28.594  1.00  0.00    -0.206 F 
ATOM     81  C   UNL A   1      35.683  33.609  31.551  1.00  0.00     0.060 A 
BRANCH  81  82
ATOM     82  S   UNL A   1      34.116  34.312  32.109  1.00  0.00     0.124 S 
ATOM     83  O   UNL A   1      33.572  33.218  32.906  1.00  0.00    -0.237 OA
ATOM     84  O   UNL A   1      34.552  35.489  32.854  1.00  0.00    -0.237 OA
ATOM     85  O   UNL A   1      33.414  34.596  30.861  1.00  0.00    -0.744 OA
ENDBRANCH  81  82
ENDBRANCH  49  74
BRANCH  61  86
ATOM     86  C   UNL A   1      44.703  34.881  31.361  1.00  0.00     0.058 A 
ATOM     87  C   UNL A   1      44.825  36.063  30.615  1.00  0.00     0.135 A 
ATOM     88  C   UNL A   1      45.077  34.913  32.714  1.00  0.00     0.135 A 
ATOM     89  F   UNL A   1      44.491  36.078  29.315  1.00  0.00    -0.206 F 
ATOM     90  C   UNL A   1      45.300  37.236  31.190  1.00  0.00     0.059 A 
ATOM     91  C   UNL A   1      45.536  36.081  33.314  1.00  0.00     0.059 A 
ATOM     92  F   UNL A   1      44.973  33.809  33.470  1.00  0.00    -0.206 F 
ATOM     93  C   UNL A   1      45.647  37.237  32.543  1.00  0.00     0.060 A 
BRANCH  93  94
ATOM     94  S   UNL A   1      46.199  38.783  33.295  1.00  0.00     0.124 S 
ATOM     95  O   UNL A   1      47.336  39.132  32.448  1.00  0.00    -0.237 OA
ATOM     96  O   UNL A   1      45.022  39.636  33.160  1.00  0.00    -0.237 OA
ATOM     97  O   UNL A   1      46.531  38.394  34.663  1.00  0.00    -0.744 OA
ENDBRANCH  93  94
ENDBRANCH  61  86
ENDBRANCH  35  36
ENDBRANCH  27  30
ENDBRANCH  25  26
ENDBRANCH  24  25
ENDBRANCH   1  24
TORSDOF 18
ENDMDL
