MODEL 1
REMARK VINA RESULT:     -11.6      0.000      0.000
REMARK SMILES O=C(CCC(=O)Nc1ccc(Br)c([N+](=O)[O-])c1)NCCCCNC(=O)c1ccc(-c2c3nc(c(-c4c(F)cc(S(=O)(=O)[O-])cc4F)c4ccc([nH]4)c(-c4c(F)cc(S(=O)(=O)[O-])cc4F)c4nc(c(-c5c(F)cc(S(=O)(=O)[O-])cc5F)c5ccc2[nH]5)C=C4)C=C3)cc1
REMARK SMILES IDX 20 1 19 2 18 3 1 4 2 5 3 7 4 8 5 9 6 10 7 11 8 13 9 14 17 15
REMARK SMILES IDX 10 16 13 17 11 18 12 19 14 20 15 21 16 22 21 23 22 24 23 25
REMARK SMILES IDX 24 26 25 28 26 29 27 30 91 31 28 32 90 33 29 34 30 35 31 36
REMARK SMILES IDX 84 37 32 38 89 39 83 40 85 41 33 42 88 43 82 44 81 45 34 47
REMARK SMILES IDX 68 48 47 49 67 50 48 51 51 52 66 53 86 54 49 55 50 56 65 58
REMARK SMILES IDX 87 59 52 60 35 61 36 62 45 63 37 64 38 65 44 66 46 67 39 68
REMARK SMILES IDX 40 69 41 70 42 71 43 72 69 73 70 74 79 75 71 76 72 77 78 78
REMARK SMILES IDX 80 79 73 80 74 81 75 82 76 83 77 84 53 85 54 86 63 87 55 88
REMARK SMILES IDX 56 89 62 90 64 91 57 92 58 93 59 94 60 95 61 96
REMARK H PARENT 18 6 7 12 23 27 85 46 51 57
REMARK Flexibility Score: inf
ROOT
ATOM      1  C   UNL A   1      37.625  21.855  25.240  1.00  0.00     0.023 C 
ENDROOT
BRANCH   1   2
ATOM      2  C   UNL A   1      36.342  21.035  25.293  1.00  0.00     0.116 C 
BRANCH   2   3
ATOM      3  N   UNL A   1      35.242  21.680  25.987  1.00  0.00    -0.356 N 
ATOM      4  O   UNL A   1      33.657  21.264  24.371  1.00  0.00    -0.275 OA
ATOM      5  C   UNL A   1      33.954  21.645  25.500  1.00  0.00     0.220 C 
ATOM      6  H   UNL A   1      35.422  22.156  26.829  1.00  0.00     0.163 HD
BRANCH   5   7
ATOM      7  C   UNL A   1      32.892  22.004  26.517  1.00  0.00     0.110 C 
BRANCH   7   8
ATOM      8  C   UNL A   1      31.641  22.606  25.877  1.00  0.00     0.110 C 
BRANCH   8   9
ATOM      9  C   UNL A   1      30.892  23.531  26.803  1.00  0.00     0.224 C 
ATOM     10  O   UNL A   1      29.958  23.077  27.473  1.00  0.00    -0.275 OA
ATOM     11  N   UNL A   1      31.143  24.862  26.936  1.00  0.00    -0.326 N 
ATOM     12  H   UNL A   1      30.743  25.237  27.753  1.00  0.00     0.169 HD
BRANCH  11  13
ATOM     13  C   UNL A   1      31.837  25.831  26.186  1.00  0.00     0.048 A 
ATOM     14  C   UNL A   1      33.202  25.836  25.926  1.00  0.00     0.028 A 
ATOM     15  C   UNL A   1      31.047  26.790  25.536  1.00  0.00     0.113 A 
ATOM     16  C   UNL A   1      33.749  26.668  24.941  1.00  0.00     0.025 A 
ATOM     17  C   UNL A   1      31.599  27.653  24.563  1.00  0.00     0.285 A 
ATOM     18  C   UNL A   1      32.950  27.561  24.225  1.00  0.00     0.095 A 
ATOM     19  Br  UNL A   1      33.803  28.464  22.790  1.00  0.00    -0.043 Br
BRANCH  17  20
ATOM     20  N   UNL A   1      30.693  28.601  23.918  1.00  0.00     0.064 N 
ATOM     21  O   UNL A   1      29.969  28.159  23.015  1.00  0.00    -0.258 OA
ATOM     22  O   UNL A   1      30.656  29.763  24.339  1.00  0.00    -0.258 OA
ENDBRANCH  17  20
ENDBRANCH  11  13
ENDBRANCH   8   9
ENDBRANCH   7   8
ENDBRANCH   5   7
ENDBRANCH   2   3
ENDBRANCH   1   2
BRANCH   1  23
ATOM     23  C   UNL A   1      37.445  23.370  25.364  1.00  0.00     0.023 C 
BRANCH  23  24
ATOM     24  C   UNL A   1      38.287  24.050  26.441  1.00  0.00     0.116 C 
BRANCH  24  25
ATOM     25  N   UNL A   1      39.717  23.850  26.256  1.00  0.00    -0.352 N 
ATOM     26  C   UNL A   1      40.779  24.599  26.704  1.00  0.00     0.251 C 
ATOM     27  H   UNL A   1      39.961  23.054  25.729  1.00  0.00     0.163 HD
ATOM     28  O   UNL A   1      41.912  24.358  26.287  1.00  0.00    -0.269 OA
BRANCH  26  29
ATOM     29  C   UNL A   1      40.570  25.719  27.652  1.00  0.00     0.039 A 
ATOM     30  C   UNL A   1      39.565  25.611  28.618  1.00  0.00     0.014 A 
ATOM     31  C   UNL A   1      41.353  26.874  27.595  1.00  0.00     0.014 A 
ATOM     32  C   UNL A   1      39.412  26.614  29.580  1.00  0.00     0.010 A 
ATOM     33  C   UNL A   1      41.257  27.833  28.604  1.00  0.00     0.010 A 
ATOM     34  C   UNL A   1      40.290  27.711  29.614  1.00  0.00    -0.014 A 
BRANCH  34  35
ATOM     35  C   UNL A   1      40.227  28.722  30.707  1.00  0.00     0.031 A 
ATOM     36  C   UNL A   1      41.113  28.595  31.919  1.00  0.00     0.074 A 
ATOM     37  C   UNL A   1      39.320  29.718  30.642  1.00  0.00     0.049 A 
ATOM     38  N   UNL A   1      41.150  29.338  32.996  1.00  0.00    -0.248 NA
ATOM     39  C   UNL A   1      42.064  27.473  31.933  1.00  0.00     0.031 C 
ATOM     40  C   UNL A   1      38.371  29.928  29.547  1.00  0.00     0.029 A 
ATOM     41  N   UNL A   1      39.038  30.738  31.519  1.00  0.00    -0.354 N 
ATOM     42  C   UNL A   1      42.113  28.766  33.820  1.00  0.00     0.074 A 
ATOM     43  C   UNL A   1      42.599  27.585  33.141  1.00  0.00     0.031 C 
ATOM     44  C   UNL A   1      37.634  31.021  29.803  1.00  0.00     0.029 A 
ATOM     45  C   UNL A   1      38.022  31.566  31.100  1.00  0.00     0.049 A 
ATOM     46  H   UNL A   1      39.520  30.865  32.369  1.00  0.00     0.167 HD
ATOM     47  C   UNL A   1      42.565  29.196  35.024  1.00  0.00     0.037 A 
ATOM     48  C   UNL A   1      37.457  32.636  31.695  1.00  0.00     0.037 A 
ATOM     49  C   UNL A   1      42.094  30.386  35.686  1.00  0.00     0.049 A 
ATOM     50  C   UNL A   1      37.968  33.085  33.038  1.00  0.00     0.074 A 
ATOM     51  C   UNL A   1      42.537  30.940  36.875  1.00  0.00     0.029 A 
ATOM     52  N   UNL A   1      41.070  31.201  35.224  1.00  0.00    -0.354 N 
ATOM     53  N   UNL A   1      38.929  32.572  33.769  1.00  0.00    -0.248 NA
ATOM     54  C   UNL A   1      37.322  34.263  33.635  1.00  0.00     0.031 C 
ATOM     55  C   UNL A   1      41.743  32.054  37.162  1.00  0.00     0.029 A 
ATOM     56  C   UNL A   1      40.847  32.234  36.120  1.00  0.00     0.049 A 
ATOM     57  H   UNL A   1      40.574  31.065  34.385  1.00  0.00     0.167 HD
ATOM     58  C   UNL A   1      39.024  33.383  34.896  1.00  0.00     0.074 A 
ATOM     59  C   UNL A   1      38.030  34.426  34.744  1.00  0.00     0.031 C 
ATOM     60  C   UNL A   1      39.860  33.274  35.957  1.00  0.00     0.037 A 
BRANCH  47  61
ATOM     61  C   UNL A   1      43.626  28.375  35.709  1.00  0.00     0.058 A 
ATOM     62  C   UNL A   1      44.994  28.589  35.479  1.00  0.00     0.135 A 
ATOM     63  C   UNL A   1      43.269  27.388  36.644  1.00  0.00     0.135 A 
ATOM     64  F   UNL A   1      45.394  29.511  34.587  1.00  0.00    -0.206 F 
ATOM     65  C   UNL A   1      45.969  27.836  36.124  1.00  0.00     0.059 A 
ATOM     66  C   UNL A   1      44.228  26.645  37.326  1.00  0.00     0.059 A 
ATOM     67  F   UNL A   1      41.976  27.141  36.905  1.00  0.00    -0.206 F 
ATOM     68  C   UNL A   1      45.576  26.865  37.047  1.00  0.00     0.060 A 
BRANCH  68  69
ATOM     69  S   UNL A   1      46.855  25.901  37.880  1.00  0.00     0.124 S 
ATOM     70  O   UNL A   1      46.333  24.545  37.740  1.00  0.00    -0.237 OA
ATOM     71  O   UNL A   1      48.042  26.208  37.090  1.00  0.00    -0.237 OA
ATOM     72  O   UNL A   1      46.854  26.435  39.239  1.00  0.00    -0.744 OA
ENDBRANCH  68  69
ENDBRANCH  47  61
BRANCH  48  73
ATOM     73  C   UNL A   1      36.356  33.372  31.015  1.00  0.00     0.058 A 
ATOM     74  C   UNL A   1      36.606  34.156  29.878  1.00  0.00     0.135 A 
ATOM     75  C   UNL A   1      35.034  33.306  31.482  1.00  0.00     0.135 A 
ATOM     76  F   UNL A   1      37.855  34.260  29.397  1.00  0.00    -0.206 F 
ATOM     77  C   UNL A   1      35.592  34.861  29.239  1.00  0.00     0.059 A 
ATOM     78  C   UNL A   1      33.997  33.978  30.842  1.00  0.00     0.059 A 
ATOM     79  F   UNL A   1      34.736  32.559  32.556  1.00  0.00    -0.206 F 
ATOM     80  C   UNL A   1      34.288  34.762  29.727  1.00  0.00     0.060 A 
BRANCH  80  81
ATOM     81  S   UNL A   1      32.971  35.645  28.862  1.00  0.00     0.124 S 
ATOM     82  O   UNL A   1      32.399  34.586  28.038  1.00  0.00    -0.237 OA
ATOM     83  O   UNL A   1      32.141  36.115  29.967  1.00  0.00    -0.237 OA
ATOM     84  O   UNL A   1      33.688  36.690  28.137  1.00  0.00    -0.744 OA
ENDBRANCH  80  81
ENDBRANCH  48  73
BRANCH  60  85
ATOM     85  C   UNL A   1      39.773  34.332  37.026  1.00  0.00     0.058 A 
ATOM     86  C   UNL A   1      39.016  34.145  38.194  1.00  0.00     0.135 A 
ATOM     87  C   UNL A   1      40.501  35.526  36.903  1.00  0.00     0.135 A 
ATOM     88  F   UNL A   1      38.294  33.026  38.361  1.00  0.00    -0.206 F 
ATOM     89  C   UNL A   1      38.964  35.117  39.189  1.00  0.00     0.059 A 
ATOM     90  C   UNL A   1      40.490  36.497  37.899  1.00  0.00     0.059 A 
ATOM     91  F   UNL A   1      41.250  35.752  35.811  1.00  0.00    -0.206 F 
ATOM     92  C   UNL A   1      39.708  36.289  39.034  1.00  0.00     0.060 A 
BRANCH  92  93
ATOM     93  S   UNL A   1      39.660  37.524  40.349  1.00  0.00     0.124 S 
ATOM     94  O   UNL A   1      38.941  36.809  41.398  1.00  0.00    -0.237 OA
ATOM     95  O   UNL A   1      41.078  37.764  40.603  1.00  0.00    -0.237 OA
ATOM     96  O   UNL A   1      38.940  38.640  39.743  1.00  0.00    -0.744 OA
ENDBRANCH  92  93
ENDBRANCH  60  85
ENDBRANCH  34  35
ENDBRANCH  26  29
ENDBRANCH  24  25
ENDBRANCH  23  24
ENDBRANCH   1  23
TORSDOF 18
ENDMDL
MODEL 2
REMARK VINA RESULT:     -11.5      4.186      6.607
REMARK SMILES O=C(CCC(=O)Nc1ccc(Br)c([N+](=O)[O-])c1)NCCCCNC(=O)c1ccc(-c2c3nc(c(-c4c(F)cc(S(=O)(=O)[O-])cc4F)c4ccc([nH]4)c(-c4c(F)cc(S(=O)(=O)[O-])cc4F)c4nc(c(-c5c(F)cc(S(=O)(=O)[O-])cc5F)c5ccc2[nH]5)C=C4)C=C3)cc1
REMARK SMILES IDX 20 1 19 2 18 3 1 4 2 5 3 7 4 8 5 9 6 10 7 11 8 13 9 14 17 15
REMARK SMILES IDX 10 16 13 17 11 18 12 19 14 20 15 21 16 22 21 23 22 24 23 25
REMARK SMILES IDX 24 26 25 28 26 29 27 30 91 31 28 32 90 33 29 34 30 35 31 36
REMARK SMILES IDX 84 37 32 38 89 39 83 40 85 41 33 42 88 43 82 44 81 45 34 47
REMARK SMILES IDX 68 48 47 49 67 50 48 51 51 52 66 53 86 54 49 55 50 56 65 58
REMARK SMILES IDX 87 59 52 60 35 61 36 62 45 63 37 64 38 65 44 66 46 67 39 68
REMARK SMILES IDX 40 69 41 70 42 71 43 72 69 73 70 74 79 75 71 76 72 77 78 78
REMARK SMILES IDX 80 79 73 80 74 81 75 82 76 83 77 84 53 85 54 86 63 87 55 88
REMARK SMILES IDX 56 89 62 90 64 91 57 92 58 93 59 94 60 95 61 96
REMARK H PARENT 18 6 7 12 23 27 85 46 51 57
REMARK Flexibility Score: inf
ROOT
ATOM      1  C   UNL A   1      40.587  20.902  27.026  1.00  0.00     0.023 C 
ENDROOT
BRANCH   1   2
ATOM      2  C   UNL A   1      41.406  19.719  27.526  1.00  0.00     0.116 C 
BRANCH   2   3
ATOM      3  N   UNL A   1      42.728  19.608  26.937  1.00  0.00    -0.356 N 
ATOM      4  O   UNL A   1      42.340  17.625  25.836  1.00  0.00    -0.275 OA
ATOM      5  C   UNL A   1      43.047  18.607  26.047  1.00  0.00     0.220 C 
ATOM      6  H   UNL A   1      43.416  20.268  27.181  1.00  0.00     0.163 HD
BRANCH   5   7
ATOM      7  C   UNL A   1      44.301  18.863  25.239  1.00  0.00     0.110 C 
BRANCH   7   8
ATOM      8  C   UNL A   1      44.556  20.351  25.001  1.00  0.00     0.110 C 
BRANCH   8   9
ATOM      9  C   UNL A   1      45.993  20.654  24.659  1.00  0.00     0.224 C 
ATOM     10  O   UNL A   1      46.734  19.726  24.314  1.00  0.00    -0.275 OA
ATOM     11  N   UNL A   1      46.563  21.888  24.736  1.00  0.00    -0.326 N 
ATOM     12  H   UNL A   1      47.411  21.940  24.237  1.00  0.00     0.169 HD
BRANCH  11  13
ATOM     13  C   UNL A   1      46.233  23.108  25.357  1.00  0.00     0.048 A 
ATOM     14  C   UNL A   1      45.647  23.252  26.609  1.00  0.00     0.028 A 
ATOM     15  C   UNL A   1      46.669  24.270  24.704  1.00  0.00     0.113 A 
ATOM     16  C   UNL A   1      45.624  24.492  27.260  1.00  0.00     0.025 A 
ATOM     17  C   UNL A   1      46.620  25.529  25.345  1.00  0.00     0.285 A 
ATOM     18  C   UNL A   1      46.140  25.637  26.650  1.00  0.00     0.095 A 
ATOM     19  Br  UNL A   1      46.222  27.187  27.742  1.00  0.00    -0.043 Br
BRANCH  17  20
ATOM     20  N   UNL A   1      47.122  26.679  24.597  1.00  0.00     0.064 N 
ATOM     21  O   UNL A   1      48.348  26.746  24.426  1.00  0.00    -0.258 OA
ATOM     22  O   UNL A   1      46.306  27.483  24.132  1.00  0.00    -0.258 OA
ENDBRANCH  17  20
ENDBRANCH  11  13
ENDBRANCH   8   9
ENDBRANCH   7   8
ENDBRANCH   5   7
ENDBRANCH   2   3
ENDBRANCH   1   2
BRANCH   1  23
ATOM     23  C   UNL A   1      40.857  22.235  27.726  1.00  0.00     0.023 C 
BRANCH  23  24
ATOM     24  C   UNL A   1      42.124  22.968  27.288  1.00  0.00     0.116 C 
BRANCH  24  25
ATOM     25  N   UNL A   1      41.908  23.839  26.143  1.00  0.00    -0.352 N 
ATOM     26  C   UNL A   1      41.528  25.161  26.099  1.00  0.00     0.251 C 
ATOM     27  H   UNL A   1      42.058  23.419  25.265  1.00  0.00     0.163 HD
ATOM     28  O   UNL A   1      41.226  25.670  25.019  1.00  0.00    -0.269 OA
BRANCH  26  29
ATOM     29  C   UNL A   1      41.439  25.966  27.339  1.00  0.00     0.039 A 
ATOM     30  C   UNL A   1      42.482  26.843  27.654  1.00  0.00     0.014 A 
ATOM     31  C   UNL A   1      40.340  25.863  28.195  1.00  0.00     0.014 A 
ATOM     32  C   UNL A   1      42.376  27.680  28.770  1.00  0.00     0.010 A 
ATOM     33  C   UNL A   1      40.197  26.755  29.257  1.00  0.00     0.010 A 
ATOM     34  C   UNL A   1      41.210  27.680  29.554  1.00  0.00    -0.014 A 
BRANCH  34  35
ATOM     35  C   UNL A   1      41.023  28.654  30.666  1.00  0.00     0.031 A 
ATOM     36  C   UNL A   1      41.861  28.559  31.915  1.00  0.00     0.074 A 
ATOM     37  C   UNL A   1      40.049  29.583  30.583  1.00  0.00     0.049 A 
ATOM     38  N   UNL A   1      41.795  29.273  33.010  1.00  0.00    -0.248 NA
ATOM     39  C   UNL A   1      42.891  27.509  31.946  1.00  0.00     0.031 C 
ATOM     40  C   UNL A   1      39.136  29.753  29.450  1.00  0.00     0.029 A 
ATOM     41  N   UNL A   1      39.654  30.555  31.470  1.00  0.00    -0.354 N 
ATOM     42  C   UNL A   1      42.761  28.751  33.864  1.00  0.00     0.074 A 
ATOM     43  C   UNL A   1      43.362  27.627  33.180  1.00  0.00     0.031 C 
ATOM     44  C   UNL A   1      38.310  30.782  29.699  1.00  0.00     0.029 A 
ATOM     45  C   UNL A   1      38.599  31.318  31.025  1.00  0.00     0.049 A 
ATOM     46  H   UNL A   1      40.087  30.694  32.345  1.00  0.00     0.167 HD
ATOM     47  C   UNL A   1      43.126  29.180  35.097  1.00  0.00     0.037 A 
ATOM     48  C   UNL A   1      37.931  32.328  31.618  1.00  0.00     0.037 A 
ATOM     49  C   UNL A   1      42.539  30.314  35.765  1.00  0.00     0.049 A 
ATOM     50  C   UNL A   1      38.347  32.776  32.993  1.00  0.00     0.074 A 
ATOM     51  C   UNL A   1      42.886  30.866  36.986  1.00  0.00     0.029 A 
ATOM     52  N   UNL A   1      41.479  31.064  35.276  1.00  0.00    -0.354 N 
ATOM     53  N   UNL A   1      39.309  32.315  33.756  1.00  0.00    -0.248 NA
ATOM     54  C   UNL A   1      37.589  33.888  33.588  1.00  0.00     0.031 C 
ATOM     55  C   UNL A   1      42.000  31.912  37.262  1.00  0.00     0.029 A 
ATOM     56  C   UNL A   1      41.141  32.054  36.185  1.00  0.00     0.049 A 
ATOM     57  H   UNL A   1      41.033  30.915  34.412  1.00  0.00     0.167 HD
ATOM     58  C   UNL A   1      39.294  33.100  34.904  1.00  0.00     0.074 A 
ATOM     59  C   UNL A   1      38.233  34.071  34.732  1.00  0.00     0.031 C 
ATOM     60  C   UNL A   1      40.088  33.023  36.000  1.00  0.00     0.037 A 
BRANCH  47  61
ATOM     61  C   UNL A   1      44.213  28.420  35.811  1.00  0.00     0.058 A 
ATOM     62  C   UNL A   1      43.924  27.371  36.698  1.00  0.00     0.135 A 
ATOM     63  C   UNL A   1      45.565  28.715  35.568  1.00  0.00     0.135 A 
ATOM     64  F   UNL A   1      42.650  27.052  36.977  1.00  0.00    -0.206 F 
ATOM     65  C   UNL A   1      44.933  26.664  37.345  1.00  0.00     0.059 A 
ATOM     66  C   UNL A   1      46.592  28.000  36.178  1.00  0.00     0.059 A 
ATOM     67  F   UNL A   1      45.901  29.706  34.727  1.00  0.00    -0.206 F 
ATOM     68  C   UNL A   1      46.265  26.986  37.078  1.00  0.00     0.060 A 
BRANCH  68  69
ATOM     69  S   UNL A   1      47.561  26.054  37.921  1.00  0.00     0.124 S 
ATOM     70  O   UNL A   1      48.614  26.043  36.910  1.00  0.00    -0.237 OA
ATOM     71  O   UNL A   1      47.822  26.877  39.097  1.00  0.00    -0.237 OA
ATOM     72  O   UNL A   1      46.935  24.763  38.188  1.00  0.00    -0.744 OA
ENDBRANCH  68  69
ENDBRANCH  47  61
BRANCH  48  73
ATOM     73  C   UNL A   1      36.809  33.000  30.905  1.00  0.00     0.058 A 
ATOM     74  C   UNL A   1      35.475  32.704  31.220  1.00  0.00     0.135 A 
ATOM     75  C   UNL A   1      37.046  33.951  29.900  1.00  0.00     0.135 A 
ATOM     76  F   UNL A   1      35.194  31.795  32.166  1.00  0.00    -0.206 F 
ATOM     77  C   UNL A   1      34.415  33.312  30.554  1.00  0.00     0.059 A 
ATOM     78  C   UNL A   1      36.003  34.594  29.241  1.00  0.00     0.059 A 
ATOM     79  F   UNL A   1      38.304  34.282  29.569  1.00  0.00    -0.206 F 
ATOM     80  C   UNL A   1      34.690  34.260  29.568  1.00  0.00     0.060 A 
BRANCH  80  81
ATOM     81  S   UNL A   1      33.307  35.077  28.743  1.00  0.00     0.124 S 
ATOM     82  O   UNL A   1      32.517  35.536  29.879  1.00  0.00    -0.237 OA
ATOM     83  O   UNL A   1      33.982  36.116  27.971  1.00  0.00    -0.237 OA
ATOM     84  O   UNL A   1      32.709  34.007  27.950  1.00  0.00    -0.744 OA
ENDBRANCH  80  81
ENDBRANCH  48  73
BRANCH  60  85
ATOM     85  C   UNL A   1      39.875  34.042  37.089  1.00  0.00     0.058 A 
ATOM     86  C   UNL A   1      40.392  35.344  36.999  1.00  0.00     0.135 A 
ATOM     87  C   UNL A   1      39.095  33.725  38.214  1.00  0.00     0.135 A 
ATOM     88  F   UNL A   1      41.151  35.700  35.950  1.00  0.00    -0.206 F 
ATOM     89  C   UNL A   1      40.166  36.287  37.997  1.00  0.00     0.059 A 
ATOM     90  C   UNL A   1      38.829  34.661  39.207  1.00  0.00     0.059 A 
ATOM     91  F   UNL A   1      38.566  32.498  38.346  1.00  0.00    -0.206 F 
ATOM     92  C   UNL A   1      39.379  35.937  39.097  1.00  0.00     0.060 A 
BRANCH  92  93
ATOM     93  S   UNL A   1      39.063  37.182  40.366  1.00  0.00     0.124 S 
ATOM     94  O   UNL A   1      38.135  36.476  41.244  1.00  0.00    -0.237 OA
ATOM     95  O   UNL A   1      40.397  37.417  40.910  1.00  0.00    -0.237 OA
ATOM     96  O   UNL A   1      38.492  38.295  39.616  1.00  0.00    -0.744 OA
ENDBRANCH  92  93
ENDBRANCH  60  85
ENDBRANCH  34  35
ENDBRANCH  26  29
ENDBRANCH  24  25
ENDBRANCH  23  24
ENDBRANCH   1  23
TORSDOF 18
ENDMDL
MODEL 3
REMARK VINA RESULT:     -11.4      1.566      8.577
REMARK SMILES O=C(CCC(=O)Nc1ccc(Br)c([N+](=O)[O-])c1)NCCCCNC(=O)c1ccc(-c2c3nc(c(-c4c(F)cc(S(=O)(=O)[O-])cc4F)c4ccc([nH]4)c(-c4c(F)cc(S(=O)(=O)[O-])cc4F)c4nc(c(-c5c(F)cc(S(=O)(=O)[O-])cc5F)c5ccc2[nH]5)C=C4)C=C3)cc1
REMARK SMILES IDX 20 1 19 2 18 3 1 4 2 5 3 7 4 8 5 9 6 10 7 11 8 13 9 14 17 15
REMARK SMILES IDX 10 16 13 17 11 18 12 19 14 20 15 21 16 22 21 23 22 24 23 25
REMARK SMILES IDX 24 26 25 28 26 29 27 30 91 31 28 32 90 33 29 34 30 35 31 36
REMARK SMILES IDX 84 37 32 38 89 39 83 40 85 41 33 42 88 43 82 44 81 45 34 47
REMARK SMILES IDX 68 48 47 49 67 50 48 51 51 52 66 53 86 54 49 55 50 56 65 58
REMARK SMILES IDX 87 59 52 60 35 61 36 62 45 63 37 64 38 65 44 66 46 67 39 68
REMARK SMILES IDX 40 69 41 70 42 71 43 72 69 73 70 74 79 75 71 76 72 77 78 78
REMARK SMILES IDX 80 79 73 80 74 81 75 82 76 83 77 84 53 85 54 86 63 87 55 88
REMARK SMILES IDX 56 89 62 90 64 91 57 92 58 93 59 94 60 95 61 96
REMARK H PARENT 18 6 7 12 23 27 85 46 51 57
REMARK Flexibility Score: inf
ROOT
ATOM      1  C   UNL A   1      40.972  22.322  27.529  1.00  0.00     0.023 C 
ENDROOT
BRANCH   1   2
ATOM      2  C   UNL A   1      39.999  21.564  26.635  1.00  0.00     0.116 C 
BRANCH   2   3
ATOM      3  N   UNL A   1      39.096  22.408  25.874  1.00  0.00    -0.356 N 
ATOM      4  O   UNL A   1      37.836  20.693  24.999  1.00  0.00    -0.275 OA
ATOM      5  C   UNL A   1      38.014  21.892  25.196  1.00  0.00     0.220 C 
ATOM      6  H   UNL A   1      39.262  23.377  25.841  1.00  0.00     0.163 HD
BRANCH   5   7
ATOM      7  C   UNL A   1      36.974  22.919  24.802  1.00  0.00     0.110 C 
BRANCH   7   8
ATOM      8  C   UNL A   1      35.885  22.341  23.899  1.00  0.00     0.110 C 
BRANCH   8   9
ATOM      9  C   UNL A   1      34.597  22.066  24.632  1.00  0.00     0.224 C 
ATOM     10  O   UNL A   1      34.283  20.893  24.867  1.00  0.00    -0.275 OA
ATOM     11  N   UNL A   1      33.713  23.021  25.030  1.00  0.00    -0.326 N 
ATOM     12  H   UNL A   1      33.079  22.686  25.704  1.00  0.00     0.169 HD
BRANCH  11  13
ATOM     13  C   UNL A   1      33.488  24.375  24.711  1.00  0.00     0.048 A 
ATOM     14  C   UNL A   1      33.849  25.467  25.491  1.00  0.00     0.028 A 
ATOM     15  C   UNL A   1      32.984  24.630  23.427  1.00  0.00     0.113 A 
ATOM     16  C   UNL A   1      33.849  26.765  24.965  1.00  0.00     0.025 A 
ATOM     17  C   UNL A   1      32.952  25.942  22.903  1.00  0.00     0.285 A 
ATOM     18  C   UNL A   1      33.432  27.013  23.657  1.00  0.00     0.095 A 
ATOM     19  Br  UNL A   1      33.687  28.788  23.033  1.00  0.00    -0.043 Br
BRANCH  17  20
ATOM     20  N   UNL A   1      32.434  26.107  21.547  1.00  0.00     0.064 N 
ATOM     21  O   UNL A   1      31.291  26.574  21.436  1.00  0.00    -0.258 OA
ATOM     22  O   UNL A   1      33.172  25.830  20.595  1.00  0.00    -0.258 OA
ENDBRANCH  17  20
ENDBRANCH  11  13
ENDBRANCH   8   9
ENDBRANCH   7   8
ENDBRANCH   5   7
ENDBRANCH   2   3
ENDBRANCH   1   2
BRANCH   1  23
ATOM     23  C   UNL A   1      42.448  22.213  27.139  1.00  0.00     0.023 C 
BRANCH  23  24
ATOM     24  C   UNL A   1      43.179  23.539  26.937  1.00  0.00     0.116 C 
BRANCH  24  25
ATOM     25  N   UNL A   1      42.586  24.362  25.894  1.00  0.00    -0.352 N 
ATOM     26  C   UNL A   1      41.878  25.538  25.993  1.00  0.00     0.251 C 
ATOM     27  H   UNL A   1      42.710  24.026  24.977  1.00  0.00     0.163 HD
ATOM     28  O   UNL A   1      41.305  25.985  25.000  1.00  0.00    -0.269 OA
BRANCH  26  29
ATOM     29  C   UNL A   1      41.766  26.248  27.288  1.00  0.00     0.039 A 
ATOM     30  C   UNL A   1      42.643  27.302  27.562  1.00  0.00     0.014 A 
ATOM     31  C   UNL A   1      40.805  25.885  28.234  1.00  0.00     0.014 A 
ATOM     32  C   UNL A   1      42.494  28.045  28.737  1.00  0.00     0.010 A 
ATOM     33  C   UNL A   1      40.603  26.678  29.364  1.00  0.00     0.010 A 
ATOM     34  C   UNL A   1      41.440  27.773  29.626  1.00  0.00    -0.014 A 
BRANCH  34  35
ATOM     35  C   UNL A   1      41.186  28.635  30.814  1.00  0.00     0.031 A 
ATOM     36  C   UNL A   1      40.079  29.657  30.796  1.00  0.00     0.074 A 
ATOM     37  C   UNL A   1      41.998  28.546  31.888  1.00  0.00     0.049 A 
ATOM     38  N   UNL A   1      39.753  30.538  31.708  1.00  0.00    -0.248 NA
ATOM     39  C   UNL A   1      39.246  29.713  29.585  1.00  0.00     0.031 C 
ATOM     40  C   UNL A   1      43.135  27.632  32.016  1.00  0.00     0.029 A 
ATOM     41  N   UNL A   1      42.001  29.240  33.074  1.00  0.00    -0.354 N 
ATOM     42  C   UNL A   1      38.691  31.261  31.177  1.00  0.00     0.074 A 
ATOM     43  C   UNL A   1      38.461  30.751  29.842  1.00  0.00     0.031 C 
ATOM     44  C   UNL A   1      43.705  27.801  33.220  1.00  0.00     0.029 A 
ATOM     45  C   UNL A   1      43.008  28.866  33.934  1.00  0.00     0.049 A 
ATOM     46  H   UNL A   1      41.342  29.941  33.289  1.00  0.00     0.167 HD
ATOM     47  C   UNL A   1      37.961  32.247  31.754  1.00  0.00     0.037 A 
ATOM     48  C   UNL A   1      43.342  29.332  35.154  1.00  0.00     0.037 A 
ATOM     49  C   UNL A   1      38.179  32.736  33.092  1.00  0.00     0.049 A 
ATOM     50  C   UNL A   1      42.524  30.437  35.768  1.00  0.00     0.074 A 
ATOM     51  C   UNL A   1      37.451  33.685  33.788  1.00  0.00     0.029 A 
ATOM     52  N   UNL A   1      39.204  32.325  33.932  1.00  0.00    -0.354 N 
ATOM     53  N   UNL A   1      41.478  31.060  35.278  1.00  0.00    -0.248 NA
ATOM     54  C   UNL A   1      42.927  30.900  37.104  1.00  0.00     0.031 C 
ATOM     55  C   UNL A   1      38.069  33.890  35.026  1.00  0.00     0.029 A 
ATOM     56  C   UNL A   1      39.144  33.023  35.128  1.00  0.00     0.049 A 
ATOM     57  H   UNL A   1      39.874  31.639  33.712  1.00  0.00     0.167 HD
ATOM     58  C   UNL A   1      41.080  31.963  36.258  1.00  0.00     0.074 A 
ATOM     59  C   UNL A   1      41.990  31.798  37.372  1.00  0.00     0.031 C 
ATOM     60  C   UNL A   1      40.051  32.846  36.236  1.00  0.00     0.037 A 
BRANCH  47  61
ATOM     61  C   UNL A   1      36.854  32.867  30.942  1.00  0.00     0.058 A 
ATOM     62  C   UNL A   1      35.519  32.452  31.069  1.00  0.00     0.135 A 
ATOM     63  C   UNL A   1      37.127  33.924  30.057  1.00  0.00     0.135 A 
ATOM     64  F   UNL A   1      35.201  31.439  31.891  1.00  0.00    -0.206 F 
ATOM     65  C   UNL A   1      34.499  33.038  30.326  1.00  0.00     0.059 A 
ATOM     66  C   UNL A   1      36.119  34.547  29.328  1.00  0.00     0.059 A 
ATOM     67  F   UNL A   1      38.385  34.364  29.897  1.00  0.00    -0.206 F 
ATOM     68  C   UNL A   1      34.809  34.086  29.458  1.00  0.00     0.060 A 
BRANCH  68  69
ATOM     69  S   UNL A   1      33.473  34.839  28.506  1.00  0.00     0.124 S 
ATOM     70  O   UNL A   1      34.204  35.807  27.694  1.00  0.00    -0.237 OA
ATOM     71  O   UNL A   1      32.921  33.697  27.785  1.00  0.00    -0.237 OA
ATOM     72  O   UNL A   1      32.603  35.410  29.530  1.00  0.00    -0.744 OA
ENDBRANCH  68  69
ENDBRANCH  47  61
BRANCH  48  73
ATOM     73  C   UNL A   1      44.494  28.741  35.888  1.00  0.00     0.058 A 
ATOM     74  C   UNL A   1      45.789  29.257  35.733  1.00  0.00     0.135 A 
ATOM     75  C   UNL A   1      44.327  27.654  36.760  1.00  0.00     0.135 A 
ATOM     76  F   UNL A   1      46.004  30.291  34.904  1.00  0.00    -0.206 F 
ATOM     77  C   UNL A   1      46.880  28.709  36.401  1.00  0.00     0.059 A 
ATOM     78  C   UNL A   1      45.396  27.106  37.462  1.00  0.00     0.059 A 
ATOM     79  F   UNL A   1      43.107  27.130  36.957  1.00  0.00    -0.206 F 
ATOM     80  C   UNL A   1      46.672  27.634  37.267  1.00  0.00     0.060 A 
BRANCH  80  81
ATOM     81  S   UNL A   1      48.087  26.960  38.163  1.00  0.00     0.124 S 
ATOM     82  O   UNL A   1      49.204  27.565  37.448  1.00  0.00    -0.237 OA
ATOM     83  O   UNL A   1      47.853  27.451  39.518  1.00  0.00    -0.237 OA
ATOM     84  O   UNL A   1      47.935  25.518  37.993  1.00  0.00    -0.744 OA
ENDBRANCH  80  81
ENDBRANCH  48  73
BRANCH  60  85
ATOM     85  C   UNL A   1      39.822  33.680  37.469  1.00  0.00     0.058 A 
ATOM     86  C   UNL A   1      40.456  34.919  37.656  1.00  0.00     0.135 A 
ATOM     87  C   UNL A   1      38.911  33.257  38.452  1.00  0.00     0.135 A 
ATOM     88  F   UNL A   1      41.341  35.369  36.753  1.00  0.00    -0.206 F 
ATOM     89  C   UNL A   1      40.216  35.695  38.786  1.00  0.00     0.059 A 
ATOM     90  C   UNL A   1      38.631  34.032  39.573  1.00  0.00     0.059 A 
ATOM     91  F   UNL A   1      38.268  32.086  38.318  1.00  0.00    -0.206 F 
ATOM     92  C   UNL A   1      39.298  35.245  39.737  1.00  0.00     0.060 A 
BRANCH  92  93
ATOM     93  S   UNL A   1      38.968  36.280  41.180  1.00  0.00     0.124 S 
ATOM     94  O   UNL A   1      40.244  36.215  41.885  1.00  0.00    -0.237 OA
ATOM     95  O   UNL A   1      38.644  37.567  40.572  1.00  0.00    -0.237 OA
ATOM     96  O   UNL A   1      37.854  35.604  41.836  1.00  0.00    -0.744 OA
ENDBRANCH  92  93
ENDBRANCH  60  85
ENDBRANCH  34  35
ENDBRANCH  26  29
ENDBRANCH  24  25
ENDBRANCH  23  24
ENDBRANCH   1  23
TORSDOF 18
ENDMDL
