MODEL 1
REMARK VINA RESULT:     -11.5      0.000      0.000
REMARK SMILES C[C@H](C(=O)NCCCCNC(=O)c1ccc(-c2c3nc(c(-c4c(F)cc(S(=O)(=O)[O-])cc4F)c4ccc([nH]4)c(-c4c(F)cc(S(=O)(=O)[O-])cc4F)c4nc(c(-c5c(F)cc(S(=O)(=O)[O-])cc5F)c5ccc2[nH]5)C=C4)C=C3)cc1)[C@@H](C)C(=O)[C@H]1CC[C@H](C)CC1
REMARK SMILES IDX 7 1 6 2 5 3 3 4 4 5 2 7 1 8 79 9 80 10 81 11 82 12 83 13
REMARK SMILES IDX 87 14 86 15 85 16 88 17 84 18 89 19 8 20 9 21 10 22 11 23
REMARK SMILES IDX 12 25 13 26 14 27 78 28 15 29 77 30 16 31 17 32 18 33 71 34
REMARK SMILES IDX 19 35 76 36 70 37 72 38 20 39 75 40 69 41 68 42 21 44 55 45
REMARK SMILES IDX 34 46 54 47 35 48 38 49 53 50 73 51 36 52 37 53 52 55 74 56
REMARK SMILES IDX 39 57 22 58 23 59 32 60 24 61 25 62 31 63 33 64 26 65 27 66
REMARK SMILES IDX 28 67 29 68 30 69 56 70 57 71 66 72 58 73 59 74 65 75 67 76
REMARK SMILES IDX 60 77 61 78 62 79 63 80 64 81 40 82 41 83 50 84 42 85 43 86
REMARK SMILES IDX 49 87 51 88 44 89 45 90 46 91 47 92 48 93
REMARK H PARENT 5 6 10 24 72 43 38 54
REMARK Flexibility Score: inf
ROOT
ATOM      1  C   UNL A   1      31.808  27.552  25.700  1.00  0.00     0.023 C 
ENDROOT
BRANCH   1   2
ATOM      2  C   UNL A   1      30.555  26.689  25.613  1.00  0.00     0.116 C 
BRANCH   2   3
ATOM      3  N   UNL A   1      30.607  25.564  26.522  1.00  0.00    -0.356 N 
ATOM      4  C   UNL A   1      31.336  24.417  26.467  1.00  0.00     0.223 C 
ATOM      5  O   UNL A   1      31.251  23.627  27.411  1.00  0.00    -0.275 OA
ATOM      6  H   UNL A   1      30.019  25.642  27.308  1.00  0.00     0.163 HD
BRANCH   4   7
ATOM      7  C   UNL A   1      32.170  24.060  25.239  1.00  0.00     0.085 C 
ATOM      8  C   UNL A   1      33.586  23.670  25.696  1.00  0.00     0.019 C 
BRANCH   7   9
ATOM      9  C   UNL A   1      31.484  23.191  24.124  1.00  0.00     0.065 C 
ATOM     10  C   UNL A   1      30.474  23.987  23.312  1.00  0.00     0.017 C 
BRANCH   9  11
ATOM     11  C   UNL A   1      32.375  22.131  23.437  1.00  0.00     0.139 C 
ATOM     12  O   UNL A   1      33.049  22.511  22.463  1.00  0.00    -0.299 OA
BRANCH  11  13
ATOM     13  C   UNL A   1      32.548  20.650  23.858  1.00  0.00     0.056 C 
ATOM     14  C   UNL A   1      33.811  16.400  23.672  1.00  0.00     0.007 C 
ATOM     15  C   UNL A   1      33.694  17.908  23.476  1.00  0.00    -0.014 C 
ATOM     16  C   UNL A   1      33.859  18.664  24.797  1.00  0.00     0.004 C 
ATOM     17  C   UNL A   1      32.351  18.283  22.852  1.00  0.00     0.004 C 
ATOM     18  C   UNL A   1      33.821  20.177  24.558  1.00  0.00     0.012 C 
ATOM     19  C   UNL A   1      32.259  19.787  22.606  1.00  0.00     0.012 C 
ENDBRANCH  11  13
ENDBRANCH   9  11
ENDBRANCH   7   9
ENDBRANCH   4   7
ENDBRANCH   2   3
ENDBRANCH   1   2
BRANCH   1  20
ATOM     20  C   UNL A   1      32.231  27.902  27.128  1.00  0.00     0.023 C 
BRANCH  20  21
ATOM     21  C   UNL A   1      33.603  28.560  27.258  1.00  0.00     0.116 C 
BRANCH  21  22
ATOM     22  N   UNL A   1      33.526  29.948  27.691  1.00  0.00    -0.352 N 
ATOM     23  C   UNL A   1      34.485  30.715  28.312  1.00  0.00     0.251 C 
ATOM     24  H   UNL A   1      32.670  30.401  27.514  1.00  0.00     0.163 HD
ATOM     25  O   UNL A   1      34.204  31.830  28.732  1.00  0.00    -0.269 OA
BRANCH  23  26
ATOM     26  C   UNL A   1      35.843  30.162  28.494  1.00  0.00     0.039 A 
ATOM     27  C   UNL A   1      36.731  30.182  27.415  1.00  0.00     0.014 A 
ATOM     28  C   UNL A   1      36.249  29.669  29.736  1.00  0.00     0.014 A 
ATOM     29  C   UNL A   1      38.054  29.776  27.607  1.00  0.00     0.010 A 
ATOM     30  C   UNL A   1      37.583  29.335  29.943  1.00  0.00     0.010 A 
ATOM     31  C   UNL A   1      38.501  29.388  28.881  1.00  0.00    -0.014 A 
BRANCH  31  32
ATOM     32  C   UNL A   1      39.926  29.050  29.129  1.00  0.00     0.031 A 
ATOM     33  C   UNL A   1      40.866  30.091  29.671  1.00  0.00     0.074 A 
ATOM     34  C   UNL A   1      40.389  27.829  28.795  1.00  0.00     0.049 A 
ATOM     35  N   UNL A   1      42.154  30.010  29.883  1.00  0.00    -0.248 NA
ATOM     36  C   UNL A   1      40.288  31.406  29.991  1.00  0.00     0.031 C 
ATOM     37  C   UNL A   1      39.589  26.752  28.206  1.00  0.00     0.029 A 
ATOM     38  N   UNL A   1      41.648  27.290  28.889  1.00  0.00    -0.354 N 
ATOM     39  C   UNL A   1      42.543  31.263  30.340  1.00  0.00     0.074 A 
ATOM     40  C   UNL A   1      41.365  32.101  30.329  1.00  0.00     0.031 C 
ATOM     41  C   UNL A   1      40.371  25.679  28.008  1.00  0.00     0.029 A 
ATOM     42  C   UNL A   1      41.734  25.999  28.421  1.00  0.00     0.049 A 
ATOM     43  H   UNL A   1      42.418  27.781  29.256  1.00  0.00     0.167 HD
ATOM     44  C   UNL A   1      43.768  31.671  30.751  1.00  0.00     0.037 A 
ATOM     45  C   UNL A   1      42.792  25.170  28.326  1.00  0.00     0.037 A 
ATOM     46  C   UNL A   1      44.930  30.823  30.789  1.00  0.00     0.049 A 
ATOM     47  C   UNL A   1      44.138  25.641  28.807  1.00  0.00     0.074 A 
ATOM     48  C   UNL A   1      46.197  31.122  31.257  1.00  0.00     0.029 A 
ATOM     49  N   UNL A   1      44.969  29.511  30.339  1.00  0.00    -0.354 N 
ATOM     50  N   UNL A   1      44.472  26.807  29.306  1.00  0.00    -0.248 NA
ATOM     51  C   UNL A   1      45.248  24.682  28.721  1.00  0.00     0.031 C 
ATOM     52  C   UNL A   1      47.014  30.005  31.052  1.00  0.00     0.029 A 
ATOM     53  C   UNL A   1      46.244  28.994  30.501  1.00  0.00     0.049 A 
ATOM     54  H   UNL A   1      44.204  29.021  29.962  1.00  0.00     0.167 HD
ATOM     55  C   UNL A   1      45.824  26.714  29.615  1.00  0.00     0.074 A 
ATOM     56  C   UNL A   1      46.243  25.374  29.260  1.00  0.00     0.031 C 
ATOM     57  C   UNL A   1      46.644  27.654  30.148  1.00  0.00     0.037 A 
BRANCH  44  58
ATOM     58  C   UNL A   1      43.911  33.100  31.202  1.00  0.00     0.058 A 
ATOM     59  C   UNL A   1      44.227  34.130  30.301  1.00  0.00     0.135 A 
ATOM     60  C   UNL A   1      43.693  33.449  32.545  1.00  0.00     0.135 A 
ATOM     61  F   UNL A   1      44.461  33.850  29.009  1.00  0.00    -0.206 F 
ATOM     62  C   UNL A   1      44.348  35.450  30.719  1.00  0.00     0.059 A 
ATOM     63  C   UNL A   1      43.782  34.769  32.980  1.00  0.00     0.059 A 
ATOM     64  F   UNL A   1      43.390  32.505  33.449  1.00  0.00    -0.206 F 
ATOM     65  C   UNL A   1      44.124  35.760  32.062  1.00  0.00     0.060 A 
BRANCH  65  66
ATOM     66  S   UNL A   1      44.275  37.481  32.586  1.00  0.00     0.124 S 
ATOM     67  O   UNL A   1      45.668  37.530  33.022  1.00  0.00    -0.237 OA
ATOM     68  O   UNL A   1      43.971  38.209  31.358  1.00  0.00    -0.237 OA
ATOM     69  O   UNL A   1      43.281  37.603  33.647  1.00  0.00    -0.744 OA
ENDBRANCH  65  66
ENDBRANCH  44  58
BRANCH  45  70
ATOM     70  C   UNL A   1      42.613  23.801  27.772  1.00  0.00     0.058 A 
ATOM     71  C   UNL A   1      42.549  22.684  28.619  1.00  0.00     0.135 A 
ATOM     72  C   UNL A   1      42.480  23.583  26.393  1.00  0.00     0.135 A 
ATOM     73  F   UNL A   1      42.679  22.839  29.945  1.00  0.00    -0.206 F 
ATOM     74  C   UNL A   1      42.373  21.398  28.118  1.00  0.00     0.059 A 
ATOM     75  C   UNL A   1      42.277  22.311  25.869  1.00  0.00     0.059 A 
ATOM     76  F   UNL A   1      42.516  24.621  25.542  1.00  0.00    -0.206 F 
ATOM     77  C   UNL A   1      42.234  21.223  26.740  1.00  0.00     0.060 A 
BRANCH  77  78
ATOM     78  S   UNL A   1      41.945  19.556  26.104  1.00  0.00     0.124 S 
ATOM     79  O   UNL A   1      42.865  19.509  24.975  1.00  0.00    -0.237 OA
ATOM     80  O   UNL A   1      42.298  18.726  27.252  1.00  0.00    -0.237 OA
ATOM     81  O   UNL A   1      40.525  19.569  25.763  1.00  0.00    -0.744 OA
ENDBRANCH  77  78
ENDBRANCH  45  70
BRANCH  57  82
ATOM     82  C   UNL A   1      48.072  27.261  30.410  1.00  0.00     0.058 A 
ATOM     83  C   UNL A   1      49.096  27.545  29.493  1.00  0.00     0.135 A 
ATOM     84  C   UNL A   1      48.426  26.643  31.620  1.00  0.00     0.135 A 
ATOM     85  F   UNL A   1      48.810  28.130  28.320  1.00  0.00    -0.206 F 
ATOM     86  C   UNL A   1      50.421  27.211  29.758  1.00  0.00     0.059 A 
ATOM     87  C   UNL A   1      49.747  26.324  31.917  1.00  0.00     0.059 A 
ATOM     88  F   UNL A   1      47.486  26.358  32.535  1.00  0.00    -0.206 F 
ATOM     89  C   UNL A   1      50.736  26.602  30.975  1.00  0.00     0.060 A 
BRANCH  89  90
ATOM     90  S   UNL A   1      52.463  26.206  31.323  1.00  0.00     0.124 S 
ATOM     91  O   UNL A   1      53.039  26.202  29.982  1.00  0.00    -0.237 OA
ATOM     92  O   UNL A   1      52.871  27.313  32.185  1.00  0.00    -0.237 OA
ATOM     93  O   UNL A   1      52.388  24.904  31.978  1.00  0.00    -0.744 OA
ENDBRANCH  89  90
ENDBRANCH  57  82
ENDBRANCH  31  32
ENDBRANCH  23  26
ENDBRANCH  21  22
ENDBRANCH  20  21
ENDBRANCH   1  20
TORSDOF 17
ENDMDL
MODEL 2
REMARK VINA RESULT:     -11.2      1.256      2.327
REMARK SMILES C[C@H](C(=O)NCCCCNC(=O)c1ccc(-c2c3nc(c(-c4c(F)cc(S(=O)(=O)[O-])cc4F)c4ccc([nH]4)c(-c4c(F)cc(S(=O)(=O)[O-])cc4F)c4nc(c(-c5c(F)cc(S(=O)(=O)[O-])cc5F)c5ccc2[nH]5)C=C4)C=C3)cc1)[C@@H](C)C(=O)[C@H]1CC[C@H](C)CC1
REMARK SMILES IDX 7 1 6 2 5 3 3 4 4 5 2 7 1 8 79 9 80 10 81 11 82 12 83 13
REMARK SMILES IDX 87 14 86 15 85 16 88 17 84 18 89 19 8 20 9 21 10 22 11 23
REMARK SMILES IDX 12 25 13 26 14 27 78 28 15 29 77 30 16 31 17 32 18 33 71 34
REMARK SMILES IDX 19 35 76 36 70 37 72 38 20 39 75 40 69 41 68 42 21 44 55 45
REMARK SMILES IDX 34 46 54 47 35 48 38 49 53 50 73 51 36 52 37 53 52 55 74 56
REMARK SMILES IDX 39 57 22 58 23 59 32 60 24 61 25 62 31 63 33 64 26 65 27 66
REMARK SMILES IDX 28 67 29 68 30 69 56 70 57 71 66 72 58 73 59 74 65 75 67 76
REMARK SMILES IDX 60 77 61 78 62 79 63 80 64 81 40 82 41 83 50 84 42 85 43 86
REMARK SMILES IDX 49 87 51 88 44 89 45 90 46 91 47 92 48 93
REMARK H PARENT 5 6 10 24 72 43 38 54
REMARK Flexibility Score: inf
ROOT
ATOM      1  C   UNL A   1      31.515  27.530  25.892  1.00  0.00     0.023 C 
ENDROOT
BRANCH   1   2
ATOM      2  C   UNL A   1      32.267  26.815  24.777  1.00  0.00     0.116 C 
BRANCH   2   3
ATOM      3  N   UNL A   1      31.377  26.068  23.913  1.00  0.00    -0.356 N 
ATOM      4  C   UNL A   1      31.088  24.739  23.881  1.00  0.00     0.223 C 
ATOM      5  O   UNL A   1      30.235  24.348  23.081  1.00  0.00    -0.275 OA
ATOM      6  H   UNL A   1      30.905  26.609  23.242  1.00  0.00     0.163 HD
BRANCH   4   7
ATOM      7  C   UNL A   1      31.854  23.734  24.739  1.00  0.00     0.085 C 
ATOM      8  C   UNL A   1      30.871  23.065  25.716  1.00  0.00     0.019 C 
BRANCH   7   9
ATOM      9  C   UNL A   1      32.918  22.830  24.021  1.00  0.00     0.065 C 
ATOM     10  C   UNL A   1      32.275  21.719  23.205  1.00  0.00     0.017 C 
BRANCH   9  11
ATOM     11  C   UNL A   1      34.185  23.546  23.499  1.00  0.00     0.139 C 
ATOM     12  O   UNL A   1      34.013  24.472  22.687  1.00  0.00    -0.299 OA
BRANCH  11  13
ATOM     13  C   UNL A   1      35.651  23.257  23.912  1.00  0.00     0.056 C 
ATOM     14  C   UNL A   1      39.135  22.377  26.516  1.00  0.00     0.007 C 
ATOM     15  C   UNL A   1      37.731  22.513  25.937  1.00  0.00    -0.014 C 
ATOM     16  C   UNL A   1      37.583  21.740  24.624  1.00  0.00     0.004 C 
ATOM     17  C   UNL A   1      37.370  23.978  25.695  1.00  0.00     0.004 C 
ATOM     18  C   UNL A   1      36.143  21.824  24.110  1.00  0.00     0.012 C 
ATOM     19  C   UNL A   1      35.944  24.114  25.168  1.00  0.00     0.012 C 
ENDBRANCH  11  13
ENDBRANCH   9  11
ENDBRANCH   7   9
ENDBRANCH   4   7
ENDBRANCH   2   3
ENDBRANCH   1   2
BRANCH   1  20
ATOM     20  C   UNL A   1      32.302  27.656  27.198  1.00  0.00     0.023 C 
BRANCH  20  21
ATOM     21  C   UNL A   1      33.637  28.390  27.086  1.00  0.00     0.116 C 
BRANCH  21  22
ATOM     22  N   UNL A   1      33.547  29.792  27.471  1.00  0.00    -0.352 N 
ATOM     23  C   UNL A   1      34.488  30.580  28.093  1.00  0.00     0.251 C 
ATOM     24  H   UNL A   1      32.695  30.236  27.258  1.00  0.00     0.163 HD
ATOM     25  O   UNL A   1      34.195  31.707  28.469  1.00  0.00    -0.269 OA
BRANCH  23  26
ATOM     26  C   UNL A   1      35.842  30.035  28.327  1.00  0.00     0.039 A 
ATOM     27  C   UNL A   1      36.782  30.092  27.295  1.00  0.00     0.014 A 
ATOM     28  C   UNL A   1      36.191  29.515  29.576  1.00  0.00     0.014 A 
ATOM     29  C   UNL A   1      38.097  29.694  27.541  1.00  0.00     0.010 A 
ATOM     30  C   UNL A   1      37.518  29.189  29.839  1.00  0.00     0.010 A 
ATOM     31  C   UNL A   1      38.486  29.279  28.826  1.00  0.00    -0.014 A 
BRANCH  31  32
ATOM     32  C   UNL A   1      39.901  28.948  29.136  1.00  0.00     0.031 A 
ATOM     33  C   UNL A   1      40.798  29.981  29.761  1.00  0.00     0.074 A 
ATOM     34  C   UNL A   1      40.396  27.744  28.785  1.00  0.00     0.049 A 
ATOM     35  N   UNL A   1      42.075  29.906  30.035  1.00  0.00    -0.248 NA
ATOM     36  C   UNL A   1      40.188  31.277  30.094  1.00  0.00     0.031 C 
ATOM     37  C   UNL A   1      39.641  26.679  28.120  1.00  0.00     0.029 A 
ATOM     38  N   UNL A   1      41.656  27.217  28.925  1.00  0.00    -0.354 N 
ATOM     39  C   UNL A   1      42.423  31.148  30.554  1.00  0.00     0.074 A 
ATOM     40  C   UNL A   1      41.236  31.972  30.510  1.00  0.00     0.031 C 
ATOM     41  C   UNL A   1      40.446  25.622  27.926  1.00  0.00     0.029 A 
ATOM     42  C   UNL A   1      41.782  25.944  28.419  1.00  0.00     0.049 A 
ATOM     43  H   UNL A   1      42.399  27.704  29.348  1.00  0.00     0.167 HD
ATOM     44  C   UNL A   1      43.620  31.556  31.041  1.00  0.00     0.037 A 
ATOM     45  C   UNL A   1      42.854  25.131  28.351  1.00  0.00     0.037 A 
ATOM     46  C   UNL A   1      44.790  30.720  31.110  1.00  0.00     0.049 A 
ATOM     47  C   UNL A   1      44.168  25.600  28.916  1.00  0.00     0.074 A 
ATOM     48  C   UNL A   1      46.027  31.017  31.653  1.00  0.00     0.029 A 
ATOM     49  N   UNL A   1      44.869  29.425  30.619  1.00  0.00    -0.354 N 
ATOM     50  N   UNL A   1      44.461  26.752  29.471  1.00  0.00    -0.248 NA
ATOM     51  C   UNL A   1      45.293  24.657  28.855  1.00  0.00     0.031 C 
ATOM     52  C   UNL A   1      46.868  29.917  31.453  1.00  0.00     0.029 A 
ATOM     53  C   UNL A   1      46.140  28.916  30.829  1.00  0.00     0.049 A 
ATOM     54  H   UNL A   1      44.131  28.939  30.186  1.00  0.00     0.167 HD
ATOM     55  C   UNL A   1      45.797  26.664  29.847  1.00  0.00     0.074 A 
ATOM     56  C   UNL A   1      46.250  25.341  29.468  1.00  0.00     0.031 C 
ATOM     57  C   UNL A   1      46.576  27.594  30.452  1.00  0.00     0.037 A 
BRANCH  44  58
ATOM     58  C   UNL A   1      43.722  32.969  31.547  1.00  0.00     0.058 A 
ATOM     59  C   UNL A   1      44.031  34.038  30.691  1.00  0.00     0.135 A 
ATOM     60  C   UNL A   1      43.469  33.263  32.896  1.00  0.00     0.135 A 
ATOM     61  F   UNL A   1      44.296  33.812  29.395  1.00  0.00    -0.206 F 
ATOM     62  C   UNL A   1      44.114  35.345  31.159  1.00  0.00     0.059 A 
ATOM     63  C   UNL A   1      43.519  34.568  33.382  1.00  0.00     0.059 A 
ATOM     64  F   UNL A   1      43.170  32.280  33.760  1.00  0.00    -0.206 F 
ATOM     65  C   UNL A   1      43.855  35.600  32.508  1.00  0.00     0.060 A 
BRANCH  65  66
ATOM     66  S   UNL A   1      43.957  37.303  33.097  1.00  0.00     0.124 S 
ATOM     67  O   UNL A   1      45.241  37.294  33.791  1.00  0.00    -0.237 OA
ATOM     68  O   UNL A   1      43.915  38.067  31.854  1.00  0.00    -0.237 OA
ATOM     69  O   UNL A   1      42.783  37.438  33.952  1.00  0.00    -0.744 OA
ENDBRANCH  65  66
ENDBRANCH  44  58
BRANCH  45  70
ATOM     70  C   UNL A   1      42.722  23.780  27.743  1.00  0.00     0.058 A 
ATOM     71  C   UNL A   1      42.875  23.593  26.361  1.00  0.00     0.135 A 
ATOM     72  C   UNL A   1      42.461  22.648  28.530  1.00  0.00     0.135 A 
ATOM     73  F   UNL A   1      43.118  24.645  25.565  1.00  0.00    -0.206 F 
ATOM     74  C   UNL A   1      42.764  22.335  25.778  1.00  0.00     0.059 A 
ATOM     75  C   UNL A   1      42.370  21.375  27.975  1.00  0.00     0.059 A 
ATOM     76  F   UNL A   1      42.323  22.771  29.860  1.00  0.00    -0.206 F 
ATOM     77  C   UNL A   1      42.514  21.231  26.595  1.00  0.00     0.060 A 
BRANCH  77  78
ATOM     78  S   UNL A   1      42.431  19.593  25.836  1.00  0.00     0.124 S 
ATOM     79  O   UNL A   1      43.379  19.730  24.738  1.00  0.00    -0.237 OA
ATOM     80  O   UNL A   1      42.845  18.725  26.934  1.00  0.00    -0.237 OA
ATOM     81  O   UNL A   1      41.028  19.474  25.450  1.00  0.00    -0.744 OA
ENDBRANCH  77  78
ENDBRANCH  45  70
BRANCH  57  82
ATOM     82  C   UNL A   1      47.994  27.208  30.773  1.00  0.00     0.058 A 
ATOM     83  C   UNL A   1      48.317  26.483  31.931  1.00  0.00     0.135 A 
ATOM     84  C   UNL A   1      49.032  27.520  29.881  1.00  0.00     0.135 A 
ATOM     85  F   UNL A   1      47.362  26.165  32.818  1.00  0.00    -0.206 F 
ATOM     86  C   UNL A   1      49.626  26.099  32.203  1.00  0.00     0.059 A 
ATOM     87  C   UNL A   1      50.344  27.123  30.120  1.00  0.00     0.059 A 
ATOM     88  F   UNL A   1      48.774  28.204  28.754  1.00  0.00    -0.206 F 
ATOM     89  C   UNL A   1      50.632  26.421  31.290  1.00  0.00     0.060 A 
BRANCH  89  90
ATOM     90  S   UNL A   1      52.321  25.885  31.636  1.00  0.00     0.124 S 
ATOM     91  O   UNL A   1      52.960  26.070  30.337  1.00  0.00    -0.237 OA
ATOM     92  O   UNL A   1      52.737  26.813  32.685  1.00  0.00    -0.237 OA
ATOM     93  O   UNL A   1      52.157  24.499  32.063  1.00  0.00    -0.744 OA
ENDBRANCH  89  90
ENDBRANCH  57  82
ENDBRANCH  31  32
ENDBRANCH  23  26
ENDBRANCH  21  22
ENDBRANCH  20  21
ENDBRANCH   1  20
TORSDOF 17
ENDMDL
MODEL 3
REMARK VINA RESULT:     -11.2      3.800      6.815
REMARK SMILES C[C@H](C(=O)NCCCCNC(=O)c1ccc(-c2c3nc(c(-c4c(F)cc(S(=O)(=O)[O-])cc4F)c4ccc([nH]4)c(-c4c(F)cc(S(=O)(=O)[O-])cc4F)c4nc(c(-c5c(F)cc(S(=O)(=O)[O-])cc5F)c5ccc2[nH]5)C=C4)C=C3)cc1)[C@@H](C)C(=O)[C@H]1CC[C@H](C)CC1
REMARK SMILES IDX 7 1 6 2 5 3 3 4 4 5 2 7 1 8 79 9 80 10 81 11 82 12 83 13
REMARK SMILES IDX 87 14 86 15 85 16 88 17 84 18 89 19 8 20 9 21 10 22 11 23
REMARK SMILES IDX 12 25 13 26 14 27 78 28 15 29 77 30 16 31 17 32 18 33 71 34
REMARK SMILES IDX 19 35 76 36 70 37 72 38 20 39 75 40 69 41 68 42 21 44 55 45
REMARK SMILES IDX 34 46 54 47 35 48 38 49 53 50 73 51 36 52 37 53 52 55 74 56
REMARK SMILES IDX 39 57 22 58 23 59 32 60 24 61 25 62 31 63 33 64 26 65 27 66
REMARK SMILES IDX 28 67 29 68 30 69 56 70 57 71 66 72 58 73 59 74 65 75 67 76
REMARK SMILES IDX 60 77 61 78 62 79 63 80 64 81 40 82 41 83 50 84 42 85 43 86
REMARK SMILES IDX 49 87 51 88 44 89 45 90 46 91 47 92 48 93
REMARK H PARENT 5 6 10 24 72 43 38 54
REMARK Flexibility Score: inf
ROOT
ATOM      1  C   UNL A   1      36.105  33.235  29.878  1.00  0.00     0.023 C 
ENDROOT
BRANCH   1   2
ATOM      2  C   UNL A   1      36.744  32.730  31.166  1.00  0.00     0.116 C 
BRANCH   2   3
ATOM      3  N   UNL A   1      36.569  33.661  32.260  1.00  0.00    -0.356 N 
ATOM      4  C   UNL A   1      37.440  34.067  33.222  1.00  0.00     0.223 C 
ATOM      5  O   UNL A   1      37.067  34.931  34.019  1.00  0.00    -0.275 OA
ATOM      6  H   UNL A   1      35.674  34.066  32.317  1.00  0.00     0.163 HD
BRANCH   4   7
ATOM      7  C   UNL A   1      38.813  33.416  33.381  1.00  0.00     0.085 C 
ATOM      8  C   UNL A   1      39.873  34.521  33.529  1.00  0.00     0.019 C 
BRANCH   7   9
ATOM      9  C   UNL A   1      38.915  32.159  34.318  1.00  0.00     0.065 C 
ATOM     10  C   UNL A   1      38.236  32.384  35.660  1.00  0.00     0.017 C 
BRANCH   9  11
ATOM     11  C   UNL A   1      38.834  30.779  33.625  1.00  0.00     0.139 C 
ATOM     12  O   UNL A   1      37.700  30.290  33.480  1.00  0.00    -0.299 OA
BRANCH  11  13
ATOM     13  C   UNL A   1      40.017  29.957  33.054  1.00  0.00     0.056 C 
ATOM     14  C   UNL A   1      43.615  27.361  32.975  1.00  0.00     0.007 C 
ATOM     15  C   UNL A   1      42.326  28.074  33.370  1.00  0.00    -0.014 C 
ATOM     16  C   UNL A   1      41.196  27.791  32.376  1.00  0.00     0.004 C 
ATOM     17  C   UNL A   1      42.534  29.584  33.469  1.00  0.00     0.004 C 
ATOM     18  C   UNL A   1      39.893  28.449  32.841  1.00  0.00     0.012 C 
ATOM     19  C   UNL A   1      41.257  30.288  33.919  1.00  0.00     0.012 C 
ENDBRANCH  11  13
ENDBRANCH   9  11
ENDBRANCH   7   9
ENDBRANCH   4   7
ENDBRANCH   2   3
ENDBRANCH   1   2
BRANCH   1  20
ATOM     20  C   UNL A   1      34.683  32.722  29.641  1.00  0.00     0.023 C 
BRANCH  20  21
ATOM     21  C   UNL A   1      34.321  32.457  28.180  1.00  0.00     0.116 C 
BRANCH  21  22
ATOM     22  N   UNL A   1      33.725  31.145  27.974  1.00  0.00    -0.352 N 
ATOM     23  C   UNL A   1      34.337  29.913  27.932  1.00  0.00     0.251 C 
ATOM     24  H   UNL A   1      32.748  31.137  27.848  1.00  0.00     0.163 HD
ATOM     25  O   UNL A   1      33.699  28.919  27.611  1.00  0.00    -0.269 OA
BRANCH  23  26
ATOM     26  C   UNL A   1      35.778  29.815  28.247  1.00  0.00     0.039 A 
ATOM     27  C   UNL A   1      36.165  29.471  29.545  1.00  0.00     0.014 A 
ATOM     28  C   UNL A   1      36.737  30.016  27.251  1.00  0.00     0.014 A 
ATOM     29  C   UNL A   1      37.516  29.255  29.824  1.00  0.00     0.010 A 
ATOM     30  C   UNL A   1      38.073  29.728  27.514  1.00  0.00     0.010 A 
ATOM     31  C   UNL A   1      38.476  29.341  28.802  1.00  0.00    -0.014 A 
BRANCH  31  32
ATOM     32  C   UNL A   1      39.904  29.017  29.054  1.00  0.00     0.031 A 
ATOM     33  C   UNL A   1      40.833  30.069  29.594  1.00  0.00     0.074 A 
ATOM     34  C   UNL A   1      40.378  27.799  28.725  1.00  0.00     0.049 A 
ATOM     35  N   UNL A   1      42.121  29.999  29.809  1.00  0.00    -0.248 NA
ATOM     36  C   UNL A   1      40.242  31.379  29.909  1.00  0.00     0.031 C 
ATOM     37  C   UNL A   1      39.589  26.713  28.137  1.00  0.00     0.029 A 
ATOM     38  N   UNL A   1      41.642  27.272  28.822  1.00  0.00    -0.354 N 
ATOM     39  C   UNL A   1      42.498  31.258  30.263  1.00  0.00     0.074 A 
ATOM     40  C   UNL A   1      41.312  32.085  30.247  1.00  0.00     0.031 C 
ATOM     41  C   UNL A   1      40.382  25.646  27.944  1.00  0.00     0.029 A 
ATOM     42  C   UNL A   1      41.741  25.981  28.358  1.00  0.00     0.049 A 
ATOM     43  H   UNL A   1      42.407  27.772  29.190  1.00  0.00     0.167 HD
ATOM     44  C   UNL A   1      43.718  31.679  30.675  1.00  0.00     0.037 A 
ATOM     45  C   UNL A   1      42.807  25.161  28.268  1.00  0.00     0.037 A 
ATOM     46  C   UNL A   1      44.888  30.842  30.717  1.00  0.00     0.049 A 
ATOM     47  C   UNL A   1      44.147  25.646  28.750  1.00  0.00     0.074 A 
ATOM     48  C   UNL A   1      46.151  31.154  31.187  1.00  0.00     0.029 A 
ATOM     49  N   UNL A   1      44.939  29.529  30.272  1.00  0.00    -0.354 N 
ATOM     50  N   UNL A   1      44.470  26.816  29.246  1.00  0.00    -0.248 NA
ATOM     51  C   UNL A   1      45.267  24.697  28.669  1.00  0.00     0.031 C 
ATOM     52  C   UNL A   1      46.979  30.044  30.987  1.00  0.00     0.029 A 
ATOM     53  C   UNL A   1      46.219  29.024  30.438  1.00  0.00     0.049 A 
ATOM     54  H   UNL A   1      44.180  29.030  29.894  1.00  0.00     0.167 HD
ATOM     55  C   UNL A   1      45.822  26.738  29.559  1.00  0.00     0.074 A 
ATOM     56  C   UNL A   1      46.254  25.400  29.208  1.00  0.00     0.031 C 
ATOM     57  C   UNL A   1      46.632  27.687  30.090  1.00  0.00     0.037 A 
BRANCH  44  58
ATOM     58  C   UNL A   1      43.847  33.110  31.122  1.00  0.00     0.058 A 
ATOM     59  C   UNL A   1      43.838  33.462  32.481  1.00  0.00     0.135 A 
ATOM     60  C   UNL A   1      44.021  34.137  30.181  1.00  0.00     0.135 A 
ATOM     61  F   UNL A   1      43.659  32.521  33.422  1.00  0.00    -0.206 F 
ATOM     62  C   UNL A   1      43.968  34.784  32.891  1.00  0.00     0.059 A 
ATOM     63  C   UNL A   1      44.182  35.465  30.571  1.00  0.00     0.059 A 
ATOM     64  F   UNL A   1      44.037  33.858  28.868  1.00  0.00    -0.206 F 
ATOM     65  C   UNL A   1      44.140  35.779  31.927  1.00  0.00     0.060 A 
BRANCH  65  66
ATOM     66  S   UNL A   1      44.319  37.489  32.477  1.00  0.00     0.124 S 
ATOM     67  O   UNL A   1      45.671  37.478  33.028  1.00  0.00    -0.237 OA
ATOM     68  O   UNL A   1      44.149  38.237  31.235  1.00  0.00    -0.237 OA
ATOM     69  O   UNL A   1      43.246  37.647  33.453  1.00  0.00    -0.744 OA
ENDBRANCH  65  66
ENDBRANCH  44  58
BRANCH  45  70
ATOM     70  C   UNL A   1      42.642  23.789  27.719  1.00  0.00     0.058 A 
ATOM     71  C   UNL A   1      42.724  23.550  26.338  1.00  0.00     0.135 A 
ATOM     72  C   UNL A   1      42.420  22.688  28.559  1.00  0.00     0.135 A 
ATOM     73  F   UNL A   1      42.927  24.572  25.492  1.00  0.00    -0.206 F 
ATOM     74  C   UNL A   1      42.581  22.272  25.809  1.00  0.00     0.059 A 
ATOM     75  C   UNL A   1      42.299  21.396  28.057  1.00  0.00     0.059 A 
ATOM     76  F   UNL A   1      42.350  22.861  29.889  1.00  0.00    -0.206 F 
ATOM     77  C   UNL A   1      42.373  21.200  26.678  1.00  0.00     0.060 A 
BRANCH  77  78
ATOM     78  S   UNL A   1      42.248  19.535  25.986  1.00  0.00     0.124 S 
ATOM     79  O   UNL A   1      43.136  19.629  24.834  1.00  0.00    -0.237 OA
ATOM     80  O   UNL A   1      42.721  18.708  27.092  1.00  0.00    -0.237 OA
ATOM     81  O   UNL A   1      40.826  19.405  25.681  1.00  0.00    -0.744 OA
ENDBRANCH  77  78
ENDBRANCH  45  70
BRANCH  57  82
ATOM     82  C   UNL A   1      48.064  27.308  30.355  1.00  0.00     0.058 A 
ATOM     83  C   UNL A   1      49.083  27.577  29.430  1.00  0.00     0.135 A 
ATOM     84  C   UNL A   1      48.425  26.719  31.578  1.00  0.00     0.135 A 
ATOM     85  F   UNL A   1      48.789  28.134  28.244  1.00  0.00    -0.206 F 
ATOM     86  C   UNL A   1      50.410  27.256  29.698  1.00  0.00     0.059 A 
ATOM     87  C   UNL A   1      49.749  26.414  31.878  1.00  0.00     0.059 A 
ATOM     88  F   UNL A   1      47.489  26.450  32.503  1.00  0.00    -0.206 F 
ATOM     89  C   UNL A   1      50.733  26.677  30.926  1.00  0.00     0.060 A 
BRANCH  89  90
ATOM     90  S   UNL A   1      52.463  26.299  31.278  1.00  0.00     0.124 S 
ATOM     91  O   UNL A   1      52.840  27.419  32.135  1.00  0.00    -0.237 OA
ATOM     92  O   UNL A   1      52.373  24.999  31.937  1.00  0.00    -0.237 OA
ATOM     93  O   UNL A   1      53.083  26.284  29.957  1.00  0.00    -0.744 OA
ENDBRANCH  89  90
ENDBRANCH  57  82
ENDBRANCH  31  32
ENDBRANCH  23  26
ENDBRANCH  21  22
ENDBRANCH  20  21
ENDBRANCH   1  20
TORSDOF 17
ENDMDL
