MODEL 1
REMARK VINA RESULT:     -12.7      0.000      0.000
REMARK SMILES CN(C)C(=O)C[NH+]1CC[NH+]([C@@H](C(=O)NCCCCNC(=O)c2ccc(-c3c4nc(c(-c5c(F)cc(S(=O)(=O)[O-])cc5F)c5ccc([nH]5)c(-c5c(F)cc(S(=O)(=O)[O-])cc5F)c5nc(c(-c6c(F)cc(S(=O)(=O)[O-])cc6F)c6ccc3[nH]6)C=C5)C=C4)cc2)c2c[nH]c3ccc(Cl)cc23)CC1
REMARK SMILES IDX 16 1 15 2 14 3 12 4 13 5 11 7 10 8 7 9 8 10 99 11 9 13 98 14
REMARK SMILES IDX 6 16 4 17 1 18 2 19 3 20 5 21 88 22 89 23 97 24 90 25 91 26
REMARK SMILES IDX 96 27 92 29 94 30 93 31 95 32 17 33 18 34 19 35 20 36 21 38
REMARK SMILES IDX 22 39 23 40 87 41 24 42 86 43 25 44 26 45 27 46 80 47 28 48
REMARK SMILES IDX 85 49 79 50 81 51 29 52 84 53 78 54 77 55 30 57 64 58 43 59
REMARK SMILES IDX 63 60 44 61 47 62 62 63 82 64 45 65 46 66 61 68 83 69 48 70
REMARK SMILES IDX 31 71 32 72 41 73 33 74 34 75 40 76 42 77 35 78 36 79 37 80
REMARK SMILES IDX 38 81 39 82 65 83 66 84 75 85 67 86 68 87 74 88 76 89 69 90
REMARK SMILES IDX 70 91 71 92 72 93 73 94 49 95 50 96 59 97 51 98 52 99 58 100
REMARK SMILES IDX 60 101 53 102 54 103 55 104 56 105 57 106
REMARK H PARENT 14 6 7 12 10 15 90 28 19 37 81 56 47 67
REMARK Flexibility Score: inf
ROOT
ATOM      1  C   UNL A   1      36.812  23.356  24.478  1.00  0.00     0.023 C 
ENDROOT
BRANCH   1   2
ATOM      2  C   UNL A   1      35.437  24.099  24.433  1.00  0.00     0.116 C 
BRANCH   2   3
ATOM      3  N   UNL A   1      34.667  24.063  23.169  1.00  0.00    -0.351 N 
ATOM      4  C   UNL A   1      33.363  24.231  22.725  1.00  0.00     0.283 C 
ATOM      5  O   UNL A   1      33.269  24.312  21.491  1.00  0.00    -0.268 OA
ATOM      6  H   UNL A   1      35.262  23.858  22.412  1.00  0.00     0.163 HD
BRANCH   4   7
ATOM      7  C   UNL A   1      32.100  24.393  23.642  1.00  0.00     0.308 C 
BRANCH   7   8
ATOM      8  N   UNL A   1      31.860  25.721  24.311  1.00  0.00    -0.312 N 
ATOM      9  N   UNL A   1      30.829  28.035  22.633  1.00  0.00    -0.318 N 
ATOM     10  C   UNL A   1      32.258  27.713  22.738  1.00  0.00     0.325 C 
ATOM     11  C   UNL A   1      30.017  26.899  23.056  1.00  0.00     0.325 C 
ATOM     12  H   UNL A   1      30.660  28.200  21.641  1.00  0.00     0.348 HD
ATOM     13  C   UNL A   1      32.622  26.943  24.021  1.00  0.00     0.325 C 
ATOM     14  C   UNL A   1      30.479  26.146  24.334  1.00  0.00     0.325 C 
ATOM     15  H   UNL A   1      32.248  25.378  25.190  1.00  0.00     0.349 HD
BRANCH   9  16
ATOM     16  C   UNL A   1      30.402  29.327  23.208  1.00  0.00     0.364 C 
BRANCH  16  17
ATOM     17  C   UNL A   1      29.444  30.137  22.324  1.00  0.00     0.277 C 
ATOM     18  C   UNL A   1      28.478  32.281  21.727  1.00  0.00     0.146 C 
ATOM     19  N   UNL A   1      29.003  31.388  22.747  1.00  0.00    -0.344 N 
ATOM     20  C   UNL A   1      29.014  31.894  24.112  1.00  0.00     0.146 C 
ATOM     21  O   UNL A   1      29.138  29.707  21.204  1.00  0.00    -0.268 OA
ENDBRANCH  16  17
ENDBRANCH   9  16
ENDBRANCH   7   8
BRANCH   7  22
ATOM     22  C   UNL A   1      31.808  23.233  24.653  1.00  0.00     0.044 A 
ATOM     23  C   UNL A   1      31.738  23.443  26.031  1.00  0.00     0.094 A 
ATOM     24  C   UNL A   1      32.240  21.851  24.617  1.00  0.00     0.011 A 
ATOM     25  N   UNL A   1      32.877  22.835  26.505  1.00  0.00    -0.361 N 
ATOM     26  C   UNL A   1      33.123  21.741  25.704  1.00  0.00     0.046 A 
ATOM     27  C   UNL A   1      32.128  20.737  23.761  1.00  0.00     0.031 A 
ATOM     28  H   UNL A   1      33.417  23.129  27.275  1.00  0.00     0.166 HD
ATOM     29  C   UNL A   1      34.107  20.752  25.796  1.00  0.00     0.028 A 
ATOM     30  C   UNL A   1      32.975  19.637  23.976  1.00  0.00     0.041 A 
ATOM     31  C   UNL A   1      34.012  19.688  24.904  1.00  0.00     0.022 A 
ATOM     32  Cl  UNL A   1      32.738  18.180  23.087  1.00  0.00    -0.084 Cl
ENDBRANCH   7  22
ENDBRANCH   4   7
ENDBRANCH   2   3
ENDBRANCH   1   2
BRANCH   1  33
ATOM     33  C   UNL A   1      37.401  23.048  25.860  1.00  0.00     0.023 C 
BRANCH  33  34
ATOM     34  C   UNL A   1      38.272  24.157  26.412  1.00  0.00     0.116 C 
BRANCH  34  35
ATOM     35  N   UNL A   1      39.694  23.930  26.161  1.00  0.00    -0.352 N 
ATOM     36  C   UNL A   1      40.764  24.670  26.610  1.00  0.00     0.251 C 
ATOM     37  H   UNL A   1      39.914  23.150  25.600  1.00  0.00     0.163 HD
ATOM     38  O   UNL A   1      41.899  24.436  26.182  1.00  0.00    -0.269 OA
BRANCH  36  39
ATOM     39  C   UNL A   1      40.537  25.769  27.573  1.00  0.00     0.039 A 
ATOM     40  C   UNL A   1      39.599  25.615  28.597  1.00  0.00     0.014 A 
ATOM     41  C   UNL A   1      41.303  26.934  27.493  1.00  0.00     0.014 A 
ATOM     42  C   UNL A   1      39.488  26.600  29.583  1.00  0.00     0.010 A 
ATOM     43  C   UNL A   1      41.273  27.851  28.532  1.00  0.00     0.010 A 
ATOM     44  C   UNL A   1      40.355  27.704  29.581  1.00  0.00    -0.014 A 
BRANCH  44  45
ATOM     45  C   UNL A   1      40.316  28.745  30.636  1.00  0.00     0.031 A 
ATOM     46  C   UNL A   1      41.203  28.601  31.845  1.00  0.00     0.074 A 
ATOM     47  C   UNL A   1      39.416  29.745  30.557  1.00  0.00     0.049 A 
ATOM     48  N   UNL A   1      41.229  29.311  32.941  1.00  0.00    -0.248 NA
ATOM     49  C   UNL A   1      42.160  27.479  31.838  1.00  0.00     0.031 C 
ATOM     50  C   UNL A   1      38.462  29.944  29.462  1.00  0.00     0.029 A 
ATOM     51  N   UNL A   1      39.139  30.773  31.423  1.00  0.00    -0.354 N 
ATOM     52  C   UNL A   1      42.172  28.703  33.762  1.00  0.00     0.074 A 
ATOM     53  C   UNL A   1      42.657  27.535  33.064  1.00  0.00     0.031 C 
ATOM     54  C   UNL A   1      37.722  31.036  29.713  1.00  0.00     0.029 A 
ATOM     55  C   UNL A   1      38.114  31.589  31.005  1.00  0.00     0.049 A 
ATOM     56  H   UNL A   1      39.629  30.913  32.266  1.00  0.00     0.167 HD
ATOM     57  C   UNL A   1      42.613  29.101  34.978  1.00  0.00     0.037 A 
ATOM     58  C   UNL A   1      37.547  32.654  31.605  1.00  0.00     0.037 A 
ATOM     59  C   UNL A   1      42.157  30.296  35.634  1.00  0.00     0.049 A 
ATOM     60  C   UNL A   1      38.072  33.089  32.948  1.00  0.00     0.074 A 
ATOM     61  C   UNL A   1      42.602  30.848  36.821  1.00  0.00     0.029 A 
ATOM     62  N   UNL A   1      41.150  31.123  35.157  1.00  0.00    -0.354 N 
ATOM     63  N   UNL A   1      39.028  32.555  33.670  1.00  0.00    -0.248 NA
ATOM     64  C   UNL A   1      37.445  34.270  33.557  1.00  0.00     0.031 C 
ATOM     65  C   UNL A   1      41.828  31.981  37.089  1.00  0.00     0.029 A 
ATOM     66  C   UNL A   1      40.940  32.166  36.041  1.00  0.00     0.049 A 
ATOM     67  H   UNL A   1      40.659  30.988  34.314  1.00  0.00     0.167 HD
ATOM     68  C   UNL A   1      39.136  33.351  34.806  1.00  0.00     0.074 A 
ATOM     69  C   UNL A   1      38.158  34.409  34.667  1.00  0.00     0.031 C 
ATOM     70  C   UNL A   1      39.967  33.217  35.869  1.00  0.00     0.037 A 
BRANCH  57  71
ATOM     71  C   UNL A   1      43.641  28.248  35.671  1.00  0.00     0.058 A 
ATOM     72  C   UNL A   1      45.018  28.437  35.471  1.00  0.00     0.135 A 
ATOM     73  C   UNL A   1      43.244  27.255  36.581  1.00  0.00     0.135 A 
ATOM     74  F   UNL A   1      45.456  29.359  34.599  1.00  0.00    -0.206 F 
ATOM     75  C   UNL A   1      45.964  27.656  36.129  1.00  0.00     0.059 A 
ATOM     76  C   UNL A   1      44.173  26.483  37.274  1.00  0.00     0.059 A 
ATOM     77  F   UNL A   1      41.941  27.026  36.808  1.00  0.00    -0.206 F 
ATOM     78  C   UNL A   1      45.531  26.683  37.032  1.00  0.00     0.060 A 
BRANCH  78  79
ATOM     79  S   UNL A   1      46.773  25.696  37.892  1.00  0.00     0.124 S 
ATOM     80  O   UNL A   1      47.041  24.648  36.912  1.00  0.00    -0.237 OA
ATOM     81  O   UNL A   1      47.849  26.661  38.097  1.00  0.00    -0.237 OA
ATOM     82  O   UNL A   1      46.084  25.261  39.103  1.00  0.00    -0.744 OA
ENDBRANCH  78  79
ENDBRANCH  57  71
BRANCH  58  83
ATOM     83  C   UNL A   1      36.436  33.388  30.940  1.00  0.00     0.058 A 
ATOM     84  C   UNL A   1      35.121  33.297  31.421  1.00  0.00     0.135 A 
ATOM     85  C   UNL A   1      36.662  34.197  29.814  1.00  0.00     0.135 A 
ATOM     86  F   UNL A   1      34.851  32.536  32.492  1.00  0.00    -0.206 F 
ATOM     87  C   UNL A   1      34.066  33.957  30.798  1.00  0.00     0.059 A 
ATOM     88  C   UNL A   1      35.628  34.890  29.190  1.00  0.00     0.059 A 
ATOM     89  F   UNL A   1      37.903  34.336  29.324  1.00  0.00    -0.206 F 
ATOM     90  C   UNL A   1      34.331  34.752  29.680  1.00  0.00     0.060 A 
BRANCH  90  91
ATOM     91  S   UNL A   1      32.958  35.625  28.897  1.00  0.00     0.124 S 
ATOM     92  O   UNL A   1      32.183  36.054  30.056  1.00  0.00    -0.237 OA
ATOM     93  O   UNL A   1      33.647  36.683  28.163  1.00  0.00    -0.237 OA
ATOM     94  O   UNL A   1      32.337  34.598  28.066  1.00  0.00    -0.744 OA
ENDBRANCH  90  91
ENDBRANCH  58  83
BRANCH  70  95
ATOM     95  C   UNL A   1      39.881  34.256  36.951  1.00  0.00     0.058 A 
ATOM     96  C   UNL A   1      40.544  35.487  36.844  1.00  0.00     0.135 A 
ATOM     97  C   UNL A   1      39.059  34.045  38.071  1.00  0.00     0.135 A 
ATOM     98  F   UNL A   1      41.347  35.733  35.797  1.00  0.00    -0.206 F 
ATOM     99  C   UNL A   1      40.407  36.470  37.818  1.00  0.00     0.059 A 
ATOM    100  C   UNL A   1      38.884  35.025  39.041  1.00  0.00     0.059 A 
ATOM    101  F   UNL A   1      38.394  32.887  38.213  1.00  0.00    -0.206 F 
ATOM    102  C   UNL A   1      39.568  36.233  38.908  1.00  0.00     0.060 A 
BRANCH 102 103
ATOM    103  S   UNL A   1      39.355  37.540  40.134  1.00  0.00     0.124 S 
ATOM    104  O   UNL A   1      40.667  38.177  40.116  1.00  0.00    -0.237 OA
ATOM    105  O   UNL A   1      38.262  38.322  39.567  1.00  0.00    -0.237 OA
ATOM    106  O   UNL A   1      39.028  36.810  41.356  1.00  0.00    -0.744 OA
ENDBRANCH 102 103
ENDBRANCH  70  95
ENDBRANCH  44  45
ENDBRANCH  36  39
ENDBRANCH  34  35
ENDBRANCH  33  34
ENDBRANCH   1  33
TORSDOF 18
ENDMDL
MODEL 2
REMARK VINA RESULT:     -12.5      1.912      4.647
REMARK SMILES CN(C)C(=O)C[NH+]1CC[NH+]([C@@H](C(=O)NCCCCNC(=O)c2ccc(-c3c4nc(c(-c5c(F)cc(S(=O)(=O)[O-])cc5F)c5ccc([nH]5)c(-c5c(F)cc(S(=O)(=O)[O-])cc5F)c5nc(c(-c6c(F)cc(S(=O)(=O)[O-])cc6F)c6ccc3[nH]6)C=C5)C=C4)cc2)c2c[nH]c3ccc(Cl)cc23)CC1
REMARK SMILES IDX 16 1 15 2 14 3 12 4 13 5 11 7 10 8 7 9 8 10 99 11 9 13 98 14
REMARK SMILES IDX 6 16 4 17 1 18 2 19 3 20 5 21 88 22 89 23 97 24 90 25 91 26
REMARK SMILES IDX 96 27 92 29 94 30 93 31 95 32 17 33 18 34 19 35 20 36 21 38
REMARK SMILES IDX 22 39 23 40 87 41 24 42 86 43 25 44 26 45 27 46 80 47 28 48
REMARK SMILES IDX 85 49 79 50 81 51 29 52 84 53 78 54 77 55 30 57 64 58 43 59
REMARK SMILES IDX 63 60 44 61 47 62 62 63 82 64 45 65 46 66 61 68 83 69 48 70
REMARK SMILES IDX 31 71 32 72 41 73 33 74 34 75 40 76 42 77 35 78 36 79 37 80
REMARK SMILES IDX 38 81 39 82 65 83 66 84 75 85 67 86 68 87 74 88 76 89 69 90
REMARK SMILES IDX 70 91 71 92 72 93 73 94 49 95 50 96 59 97 51 98 52 99 58 100
REMARK SMILES IDX 60 101 53 102 54 103 55 104 56 105 57 106
REMARK H PARENT 14 6 7 12 10 15 90 28 19 37 81 56 47 67
REMARK Flexibility Score: inf
ROOT
ATOM      1  C   UNL A   1      36.343  23.887  25.261  1.00  0.00     0.023 C 
ENDROOT
BRANCH   1   2
ATOM      2  C   UNL A   1      35.557  23.296  24.046  1.00  0.00     0.116 C 
BRANCH   2   3
ATOM      3  N   UNL A   1      34.365  24.029  23.564  1.00  0.00    -0.351 N 
ATOM      4  C   UNL A   1      33.205  24.602  24.068  1.00  0.00     0.283 C 
ATOM      5  O   UNL A   1      32.608  25.312  23.245  1.00  0.00    -0.268 OA
ATOM      6  H   UNL A   1      34.407  24.146  22.587  1.00  0.00     0.163 HD
BRANCH   4   7
ATOM      7  C   UNL A   1      32.690  24.472  25.544  1.00  0.00     0.308 C 
BRANCH   7   8
ATOM      8  N   UNL A   1      32.014  23.192  25.963  1.00  0.00    -0.312 N 
ATOM      9  N   UNL A   1      33.498  20.567  25.582  1.00  0.00    -0.318 N 
ATOM     10  C   UNL A   1      32.703  21.185  24.512  1.00  0.00     0.325 C 
ATOM     11  C   UNL A   1      33.810  21.547  26.617  1.00  0.00     0.325 C 
ATOM     12  H   UNL A   1      34.370  20.278  25.139  1.00  0.00     0.348 HD
ATOM     13  C   UNL A   1      31.604  22.131  25.032  1.00  0.00     0.325 C 
ATOM     14  C   UNL A   1      32.659  22.496  27.052  1.00  0.00     0.325 C 
ATOM     15  H   UNL A   1      31.152  23.689  26.183  1.00  0.00     0.349 HD
BRANCH   9  16
ATOM     16  C   UNL A   1      33.008  19.275  26.103  1.00  0.00     0.364 C 
BRANCH  16  17
ATOM     17  C   UNL A   1      32.882  18.165  25.052  1.00  0.00     0.277 C 
ATOM     18  C   UNL A   1      33.858  16.253  23.920  1.00  0.00     0.146 C 
ATOM     19  N   UNL A   1      34.027  17.552  24.552  1.00  0.00    -0.344 N 
ATOM     20  C   UNL A   1      35.383  18.082  24.597  1.00  0.00     0.146 C 
ATOM     21  O   UNL A   1      31.759  17.766  24.720  1.00  0.00    -0.268 OA
ENDBRANCH  16  17
ENDBRANCH   9  16
ENDBRANCH   7   8
BRANCH   7  22
ATOM     22  C   UNL A   1      31.908  25.696  26.130  1.00  0.00     0.044 A 
ATOM     23  C   UNL A   1      30.530  25.848  25.969  1.00  0.00     0.094 A 
ATOM     24  C   UNL A   1      32.317  27.080  26.241  1.00  0.00     0.011 A 
ATOM     25  N   UNL A   1      30.425  26.899  25.088  1.00  0.00    -0.361 N 
ATOM     26  C   UNL A   1      31.471  27.759  25.348  1.00  0.00     0.046 A 
ATOM     27  C   UNL A   1      33.349  27.826  26.845  1.00  0.00     0.031 A 
ATOM     28  H   UNL A   1      29.732  27.015  24.399  1.00  0.00     0.166 HD
ATOM     29  C   UNL A   1      31.782  29.003  24.791  1.00  0.00     0.028 A 
ATOM     30  C   UNL A   1      33.539  29.158  26.442  1.00  0.00     0.041 A 
ATOM     31  C   UNL A   1      32.842  29.699  25.364  1.00  0.00     0.022 A 
ATOM     32  Cl  UNL A   1      34.651  30.165  27.291  1.00  0.00    -0.084 Cl
ENDBRANCH   7  22
ENDBRANCH   4   7
ENDBRANCH   2   3
ENDBRANCH   1   2
BRANCH   1  33
ATOM     33  C   UNL A   1      37.627  23.164  25.687  1.00  0.00     0.023 C 
BRANCH  33  34
ATOM     34  C   UNL A   1      38.538  24.004  26.559  1.00  0.00     0.116 C 
BRANCH  34  35
ATOM     35  N   UNL A   1      39.931  23.960  26.120  1.00  0.00    -0.352 N 
ATOM     36  C   UNL A   1      40.944  24.841  26.421  1.00  0.00     0.251 C 
ATOM     37  H   UNL A   1      40.175  23.205  25.535  1.00  0.00     0.163 HD
ATOM     38  O   UNL A   1      42.034  24.748  25.846  1.00  0.00    -0.269 OA
BRANCH  36  39
ATOM     39  C   UNL A   1      40.705  25.917  27.405  1.00  0.00     0.039 A 
ATOM     40  C   UNL A   1      39.729  25.755  28.393  1.00  0.00     0.014 A 
ATOM     41  C   UNL A   1      41.494  27.070  27.383  1.00  0.00     0.014 A 
ATOM     42  C   UNL A   1      39.603  26.716  29.400  1.00  0.00     0.010 A 
ATOM     43  C   UNL A   1      41.446  27.959  28.446  1.00  0.00     0.010 A 
ATOM     44  C   UNL A   1      40.490  27.802  29.457  1.00  0.00    -0.014 A 
BRANCH  44  45
ATOM     45  C   UNL A   1      40.433  28.816  30.538  1.00  0.00     0.031 A 
ATOM     46  C   UNL A   1      41.331  28.662  31.738  1.00  0.00     0.074 A 
ATOM     47  C   UNL A   1      39.510  29.796  30.490  1.00  0.00     0.049 A 
ATOM     48  N   UNL A   1      41.348  29.345  32.852  1.00  0.00    -0.248 NA
ATOM     49  C   UNL A   1      42.314  27.564  31.697  1.00  0.00     0.031 C 
ATOM     50  C   UNL A   1      38.544  30.000  29.406  1.00  0.00     0.029 A 
ATOM     51  N   UNL A   1      39.215  30.795  31.383  1.00  0.00    -0.354 N 
ATOM     52  C   UNL A   1      42.311  28.739  33.651  1.00  0.00     0.074 A 
ATOM     53  C   UNL A   1      42.818  27.601  32.921  1.00  0.00     0.031 C 
ATOM     54  C   UNL A   1      37.781  31.068  29.689  1.00  0.00     0.029 A 
ATOM     55  C   UNL A   1      38.168  31.597  30.992  1.00  0.00     0.049 A 
ATOM     56  H   UNL A   1      39.707  30.925  32.226  1.00  0.00     0.167 HD
ATOM     57  C   UNL A   1      42.751  29.117  34.874  1.00  0.00     0.037 A 
ATOM     58  C   UNL A   1      37.581  32.633  31.621  1.00  0.00     0.037 A 
ATOM     59  C   UNL A   1      42.271  30.284  35.562  1.00  0.00     0.049 A 
ATOM     60  C   UNL A   1      38.104  33.047  32.972  1.00  0.00     0.074 A 
ATOM     61  C   UNL A   1      42.711  30.817  36.760  1.00  0.00     0.029 A 
ATOM     62  N   UNL A   1      41.243  31.099  35.112  1.00  0.00    -0.354 N 
ATOM     63  N   UNL A   1      39.078  32.518  33.674  1.00  0.00    -0.248 NA
ATOM     64  C   UNL A   1      37.454  34.198  33.614  1.00  0.00     0.031 C 
ATOM     65  C   UNL A   1      41.913  31.925  37.061  1.00  0.00     0.029 A 
ATOM     66  C   UNL A   1      41.014  32.115  36.024  1.00  0.00     0.049 A 
ATOM     67  H   UNL A   1      40.749  30.974  34.269  1.00  0.00     0.167 HD
ATOM     68  C   UNL A   1      39.175  33.287  34.829  1.00  0.00     0.074 A 
ATOM     69  C   UNL A   1      38.171  34.326  34.723  1.00  0.00     0.031 C 
ATOM     70  C   UNL A   1      40.015  33.147  35.884  1.00  0.00     0.037 A 
BRANCH  57  71
ATOM     71  C   UNL A   1      43.802  28.272  35.539  1.00  0.00     0.058 A 
ATOM     72  C   UNL A   1      45.173  28.484  35.320  1.00  0.00     0.135 A 
ATOM     73  C   UNL A   1      43.436  27.260  36.443  1.00  0.00     0.135 A 
ATOM     74  F   UNL A   1      45.583  29.424  34.453  1.00  0.00    -0.206 F 
ATOM     75  C   UNL A   1      46.141  27.710  35.952  1.00  0.00     0.059 A 
ATOM     76  C   UNL A   1      44.388  26.495  37.111  1.00  0.00     0.059 A 
ATOM     77  F   UNL A   1      42.140  27.009  36.687  1.00  0.00    -0.206 F 
ATOM     78  C   UNL A   1      45.738  26.719  36.849  1.00  0.00     0.060 A 
BRANCH  78  79
ATOM     79  S   UNL A   1      47.009  25.741  37.676  1.00  0.00     0.124 S 
ATOM     80  O   UNL A   1      46.237  24.590  38.136  1.00  0.00    -0.237 OA
ATOM     81  O   UNL A   1      47.952  25.478  36.594  1.00  0.00    -0.237 OA
ATOM     82  O   UNL A   1      47.495  26.630  38.727  1.00  0.00    -0.744 OA
ENDBRANCH  78  79
ENDBRANCH  57  71
BRANCH  58  83
ATOM     83  C   UNL A   1      36.449  33.358  30.982  1.00  0.00     0.058 A 
ATOM     84  C   UNL A   1      36.659  34.189  29.871  1.00  0.00     0.135 A 
ATOM     85  C   UNL A   1      35.135  33.236  31.463  1.00  0.00     0.135 A 
ATOM     86  F   UNL A   1      37.895  34.343  29.375  1.00  0.00    -0.206 F 
ATOM     87  C   UNL A   1      35.617  34.893  29.276  1.00  0.00     0.059 A 
ATOM     88  C   UNL A   1      34.070  33.907  30.867  1.00  0.00     0.059 A 
ATOM     89  F   UNL A   1      34.874  32.438  32.510  1.00  0.00    -0.206 F 
ATOM     90  C   UNL A   1      34.324  34.745  29.783  1.00  0.00     0.060 A 
BRANCH  90  91
ATOM     91  S   UNL A   1      32.975  35.643  28.985  1.00  0.00     0.124 S 
ATOM     92  O   UNL A   1      32.423  34.620  28.103  1.00  0.00    -0.237 OA
ATOM     93  O   UNL A   1      32.142  36.020  30.124  1.00  0.00    -0.237 OA
ATOM     94  O   UNL A   1      33.655  36.750  28.321  1.00  0.00    -0.744 OA
ENDBRANCH  90  91
ENDBRANCH  58  83
BRANCH  70  95
ATOM     95  C   UNL A   1      39.912  34.156  36.992  1.00  0.00     0.058 A 
ATOM     96  C   UNL A   1      40.452  35.444  36.867  1.00  0.00     0.135 A 
ATOM     97  C   UNL A   1      39.195  33.853  38.161  1.00  0.00     0.135 A 
ATOM     98  F   UNL A   1      41.154  35.780  35.772  1.00  0.00    -0.206 F 
ATOM     99  C   UNL A   1      40.297  36.395  37.869  1.00  0.00     0.059 A 
ATOM    100  C   UNL A   1      39.000  34.798  39.162  1.00  0.00     0.059 A 
ATOM    101  F   UNL A   1      38.649  32.637  38.323  1.00  0.00    -0.206 F 
ATOM    102  C   UNL A   1      39.562  36.065  39.009  1.00  0.00     0.060 A 
BRANCH 102 103
ATOM    103  S   UNL A   1      39.319  37.328  40.275  1.00  0.00     0.124 S 
ATOM    104  O   UNL A   1      40.694  37.645  40.643  1.00  0.00    -0.237 OA
ATOM    105  O   UNL A   1      38.601  38.366  39.544  1.00  0.00    -0.237 OA
ATOM    106  O   UNL A   1      38.538  36.637  41.298  1.00  0.00    -0.744 OA
ENDBRANCH 102 103
ENDBRANCH  70  95
ENDBRANCH  44  45
ENDBRANCH  36  39
ENDBRANCH  34  35
ENDBRANCH  33  34
ENDBRANCH   1  33
TORSDOF 18
ENDMDL
MODEL 3
REMARK VINA RESULT:     -12.1      6.537     12.144
REMARK SMILES CN(C)C(=O)C[NH+]1CC[NH+]([C@@H](C(=O)NCCCCNC(=O)c2ccc(-c3c4nc(c(-c5c(F)cc(S(=O)(=O)[O-])cc5F)c5ccc([nH]5)c(-c5c(F)cc(S(=O)(=O)[O-])cc5F)c5nc(c(-c6c(F)cc(S(=O)(=O)[O-])cc6F)c6ccc3[nH]6)C=C5)C=C4)cc2)c2c[nH]c3ccc(Cl)cc23)CC1
REMARK SMILES IDX 16 1 15 2 14 3 12 4 13 5 11 7 10 8 7 9 8 10 99 11 9 13 98 14
REMARK SMILES IDX 6 16 4 17 1 18 2 19 3 20 5 21 88 22 89 23 97 24 90 25 91 26
REMARK SMILES IDX 96 27 92 29 94 30 93 31 95 32 17 33 18 34 19 35 20 36 21 38
REMARK SMILES IDX 22 39 23 40 87 41 24 42 86 43 25 44 26 45 27 46 80 47 28 48
REMARK SMILES IDX 85 49 79 50 81 51 29 52 84 53 78 54 77 55 30 57 64 58 43 59
REMARK SMILES IDX 63 60 44 61 47 62 62 63 82 64 45 65 46 66 61 68 83 69 48 70
REMARK SMILES IDX 31 71 32 72 41 73 33 74 34 75 40 76 42 77 35 78 36 79 37 80
REMARK SMILES IDX 38 81 39 82 65 83 66 84 75 85 67 86 68 87 74 88 76 89 69 90
REMARK SMILES IDX 70 91 71 92 72 93 73 94 49 95 50 96 59 97 51 98 52 99 58 100
REMARK SMILES IDX 60 101 53 102 54 103 55 104 56 105 57 106
REMARK H PARENT 14 6 7 12 10 15 90 28 19 37 81 56 47 67
REMARK Flexibility Score: inf
ROOT
ATOM      1  C   UNL A   1      33.113  28.817  27.106  1.00  0.00     0.023 C 
ENDROOT
BRANCH   1   2
ATOM      2  C   UNL A   1      32.897  27.396  26.493  1.00  0.00     0.116 C 
BRANCH   2   3
ATOM      3  N   UNL A   1      31.562  26.771  26.636  1.00  0.00    -0.351 N 
ATOM      4  C   UNL A   1      30.811  25.749  26.070  1.00  0.00     0.283 C 
ATOM      5  O   UNL A   1      29.788  25.475  26.715  1.00  0.00    -0.268 OA
ATOM      6  H   UNL A   1      31.051  27.215  27.350  1.00  0.00     0.163 HD
BRANCH   4   7
ATOM      7  C   UNL A   1      31.203  24.928  24.793  1.00  0.00     0.308 C 
BRANCH   7   8
ATOM      8  N   UNL A   1      32.461  24.098  24.826  1.00  0.00    -0.312 N 
ATOM      9  N   UNL A   1      32.475  21.533  26.455  1.00  0.00    -0.318 N 
ATOM     10  C   UNL A   1      32.766  22.845  27.048  1.00  0.00     0.325 C 
ATOM     11  C   UNL A   1      31.793  21.692  25.174  1.00  0.00     0.325 C 
ATOM     12  H   UNL A   1      31.835  21.077  27.105  1.00  0.00     0.348 HD
ATOM     13  C   UNL A   1      33.276  23.881  26.029  1.00  0.00     0.325 C 
ATOM     14  C   UNL A   1      32.340  22.791  24.222  1.00  0.00     0.325 C 
ATOM     15  H   UNL A   1      32.970  24.804  24.294  1.00  0.00     0.349 HD
BRANCH   9  16
ATOM     16  C   UNL A   1      33.586  20.561  26.429  1.00  0.00     0.364 C 
BRANCH  16  17
ATOM     17  C   UNL A   1      33.769  19.831  25.092  1.00  0.00     0.277 C 
ATOM     18  C   UNL A   1      32.949  18.217  23.475  1.00  0.00     0.146 C 
ATOM     19  N   UNL A   1      33.099  18.633  24.861  1.00  0.00    -0.344 N 
ATOM     20  C   UNL A   1      32.533  17.748  25.870  1.00  0.00     0.146 C 
ATOM     21  O   UNL A   1      34.445  20.357  24.198  1.00  0.00    -0.268 OA
ENDBRANCH  16  17
ENDBRANCH   9  16
ENDBRANCH   7   8
BRANCH   7  22
ATOM     22  C   UNL A   1      31.097  25.668  23.416  1.00  0.00     0.044 A 
ATOM     23  C   UNL A   1      32.146  25.689  22.497  1.00  0.00     0.094 A 
ATOM     24  C   UNL A   1      30.433  26.913  23.091  1.00  0.00     0.011 A 
ATOM     25  N   UNL A   1      32.585  26.991  22.544  1.00  0.00    -0.361 N 
ATOM     26  C   UNL A   1      31.485  27.789  22.776  1.00  0.00     0.046 A 
ATOM     27  C   UNL A   1      29.135  27.458  23.151  1.00  0.00     0.031 A 
ATOM     28  H   UNL A   1      33.515  27.298  22.433  1.00  0.00     0.166 HD
ATOM     29  C   UNL A   1      31.371  29.180  22.841  1.00  0.00     0.028 A 
ATOM     30  C   UNL A   1      28.983  28.847  23.004  1.00  0.00     0.041 A 
ATOM     31  C   UNL A   1      30.084  29.699  22.958  1.00  0.00     0.022 A 
ATOM     32  Cl  UNL A   1      27.407  29.533  22.870  1.00  0.00    -0.084 Cl
ENDBRANCH   7  22
ENDBRANCH   4   7
ENDBRANCH   2   3
ENDBRANCH   1   2
BRANCH   1  33
ATOM     33  C   UNL A   1      34.426  29.535  26.772  1.00  0.00     0.023 C 
BRANCH  33  34
ATOM     34  C   UNL A   1      35.522  29.307  27.793  1.00  0.00     0.116 C 
BRANCH  34  35
ATOM     35  N   UNL A   1      35.297  30.048  29.032  1.00  0.00    -0.352 N 
ATOM     36  C   UNL A   1      36.224  30.413  29.982  1.00  0.00     0.251 C 
ATOM     37  H   UNL A   1      34.367  30.320  29.209  1.00  0.00     0.163 HD
ATOM     38  O   UNL A   1      35.849  30.906  31.052  1.00  0.00    -0.269 OA
BRANCH  36  39
ATOM     39  C   UNL A   1      37.660  30.175  29.729  1.00  0.00     0.039 A 
ATOM     40  C   UNL A   1      38.503  29.815  30.784  1.00  0.00     0.014 A 
ATOM     41  C   UNL A   1      38.161  30.253  28.427  1.00  0.00     0.014 A 
ATOM     42  C   UNL A   1      39.828  29.458  30.515  1.00  0.00     0.010 A 
ATOM     43  C   UNL A   1      39.437  29.788  28.150  1.00  0.00     0.010 A 
ATOM     44  C   UNL A   1      40.291  29.401  29.191  1.00  0.00    -0.014 A 
BRANCH  44  45
ATOM     45  C   UNL A   1      41.670  28.974  28.851  1.00  0.00     0.031 A 
ATOM     46  C   UNL A   1      42.769  30.003  28.807  1.00  0.00     0.074 A 
ATOM     47  C   UNL A   1      41.904  27.699  28.481  1.00  0.00     0.049 A 
ATOM     48  N   UNL A   1      44.004  29.877  28.400  1.00  0.00    -0.248 NA
ATOM     49  C   UNL A   1      42.419  31.370  29.235  1.00  0.00     0.031 C 
ATOM     50  C   UNL A   1      40.899  26.634  28.424  1.00  0.00     0.029 A 
ATOM     51  N   UNL A   1      43.057  27.085  28.062  1.00  0.00    -0.354 N 
ATOM     52  C   UNL A   1      44.562  31.147  28.491  1.00  0.00     0.074 A 
ATOM     53  C   UNL A   1      43.519  32.042  28.936  1.00  0.00     0.031 C 
ATOM     54  C   UNL A   1      41.484  25.496  28.016  1.00  0.00     0.029 A 
ATOM     55  C   UNL A   1      42.891  25.758  27.737  1.00  0.00     0.049 A 
ATOM     56  H   UNL A   1      43.923  27.550  27.999  1.00  0.00     0.167 HD
ATOM     57  C   UNL A   1      45.839  31.526  28.250  1.00  0.00     0.037 A 
ATOM     58  C   UNL A   1      43.774  24.862  27.256  1.00  0.00     0.037 A 
ATOM     59  C   UNL A   1      46.876  30.611  27.859  1.00  0.00     0.049 A 
ATOM     60  C   UNL A   1      45.194  25.304  27.018  1.00  0.00     0.074 A 
ATOM     61  C   UNL A   1      48.224  30.865  27.681  1.00  0.00     0.029 A 
ATOM     62  N   UNL A   1      46.680  29.265  27.585  1.00  0.00    -0.354 N 
ATOM     63  N   UNL A   1      45.728  26.489  27.195  1.00  0.00    -0.248 NA
ATOM     64  C   UNL A   1      46.132  24.290  26.517  1.00  0.00     0.031 C 
ATOM     65  C   UNL A   1      48.834  29.684  27.248  1.00  0.00     0.029 A 
ATOM     66  C   UNL A   1      47.878  28.681  27.211  1.00  0.00     0.049 A 
ATOM     67  H   UNL A   1      45.817  28.795  27.648  1.00  0.00     0.167 HD
ATOM     68  C   UNL A   1      47.069  26.357  26.854  1.00  0.00     0.074 A 
ATOM     69  C   UNL A   1      47.268  24.974  26.474  1.00  0.00     0.031 C 
ATOM     70  C   UNL A   1      48.049  27.295  26.852  1.00  0.00     0.037 A 
BRANCH  57  71
ATOM     71  C   UNL A   1      46.187  32.981  28.410  1.00  0.00     0.058 A 
ATOM     72  C   UNL A   1      46.101  33.886  27.340  1.00  0.00     0.135 A 
ATOM     73  C   UNL A   1      46.571  33.487  29.663  1.00  0.00     0.135 A 
ATOM     74  F   UNL A   1      45.757  33.457  26.116  1.00  0.00    -0.206 F 
ATOM     75  C   UNL A   1      46.407  35.234  27.499  1.00  0.00     0.059 A 
ATOM     76  C   UNL A   1      46.851  34.838  29.853  1.00  0.00     0.059 A 
ATOM     77  F   UNL A   1      46.675  32.667  30.721  1.00  0.00    -0.206 F 
ATOM     78  C   UNL A   1      46.778  35.701  28.762  1.00  0.00     0.060 A 
BRANCH  78  79
ATOM     79  S   UNL A   1      47.150  37.457  28.954  1.00  0.00     0.124 S 
ATOM     80  O   UNL A   1      46.012  38.071  28.276  1.00  0.00    -0.237 OA
ATOM     81  O   UNL A   1      47.180  37.611  30.405  1.00  0.00    -0.237 OA
ATOM     82  O   UNL A   1      48.436  37.609  28.282  1.00  0.00    -0.744 OA
ENDBRANCH  78  79
ENDBRANCH  57  71
BRANCH  58  83
ATOM     83  C   UNL A   1      43.350  23.461  26.982  1.00  0.00     0.058 A 
ATOM     84  C   UNL A   1      43.186  23.000  25.667  1.00  0.00     0.135 A 
ATOM     85  C   UNL A   1      43.101  22.554  28.025  1.00  0.00     0.135 A 
ATOM     86  F   UNL A   1      43.408  23.828  24.635  1.00  0.00    -0.206 F 
ATOM     87  C   UNL A   1      42.767  21.702  25.393  1.00  0.00     0.059 A 
ATOM     88  C   UNL A   1      42.709  21.241  27.777  1.00  0.00     0.059 A 
ATOM     89  F   UNL A   1      43.262  22.935  29.301  1.00  0.00    -0.206 F 
ATOM     90  C   UNL A   1      42.530  20.829  26.457  1.00  0.00     0.060 A 
BRANCH  90  91
ATOM     91  S   UNL A   1      42.012  19.138  26.088  1.00  0.00     0.124 S 
ATOM     92  O   UNL A   1      42.800  18.844  24.896  1.00  0.00    -0.237 OA
ATOM     93  O   UNL A   1      42.403  18.427  27.302  1.00  0.00    -0.237 OA
ATOM     94  O   UNL A   1      40.573  19.265  25.880  1.00  0.00    -0.744 OA
ENDBRANCH  90  91
ENDBRANCH  58  83
BRANCH  70  95
ATOM     95  C   UNL A   1      49.431  26.854  26.459  1.00  0.00     0.058 A 
ATOM     96  C   UNL A   1      50.283  26.210  27.368  1.00  0.00     0.135 A 
ATOM     97  C   UNL A   1      49.873  27.008  25.135  1.00  0.00     0.135 A 
ATOM     98  F   UNL A   1      49.909  26.046  28.647  1.00  0.00    -0.206 F 
ATOM     99  C   UNL A   1      51.535  25.745  26.981  1.00  0.00     0.059 A 
ATOM    100  C   UNL A   1      51.108  26.523  24.719  1.00  0.00     0.059 A 
ATOM    101  F   UNL A   1      49.089  27.608  24.225  1.00  0.00    -0.206 F 
ATOM    102  C   UNL A   1      51.935  25.899  25.652  1.00  0.00     0.060 A 
BRANCH 102 103
ATOM    103  S   UNL A   1      53.538  25.239  25.152  1.00  0.00     0.124 S 
ATOM    104  O   UNL A   1      53.339  23.807  25.340  1.00  0.00    -0.237 OA
ATOM    105  O   UNL A   1      53.640  25.689  23.767  1.00  0.00    -0.237 OA
ATOM    106  O   UNL A   1      54.471  25.872  26.080  1.00  0.00    -0.744 OA
ENDBRANCH 102 103
ENDBRANCH  70  95
ENDBRANCH  44  45
ENDBRANCH  36  39
ENDBRANCH  34  35
ENDBRANCH  33  34
ENDBRANCH   1  33
TORSDOF 18
ENDMDL
