MODEL 1
REMARK VINA RESULT:     -11.5      0.000      0.000
REMARK SMILES C[C@@H](CC(=O)NCCCCNC(=O)c1ccc(-c2c3nc(c(-c4c(F)cc(S(=O)(=O)[O-])cc4F)c4ccc([nH]4)c(-c4c(F)cc(S(=O)(=O)[O-])cc4F)c4nc(c(-c5c(F)cc(S(=O)(=O)[O-])cc5F)c5ccc2[nH]5)C=C4)C=C3)cc1)CC(=O)NC(=O)NC[C@]1(C)CCCO1
REMARK SMILES IDX 7 1 6 2 4 3 5 4 3 6 2 7 1 8 80 9 81 10 82 11 83 12 84 13
REMARK SMILES IDX 85 15 86 16 87 18 88 19 90 20 93 21 89 22 91 23 92 24 8 25
REMARK SMILES IDX 9 26 10 27 11 28 12 29 13 31 14 32 15 33 79 34 16 35 78 36
REMARK SMILES IDX 17 37 18 38 19 39 72 40 20 41 77 42 71 43 73 44 21 45 76 46
REMARK SMILES IDX 70 47 69 48 22 50 56 51 35 52 55 53 36 54 39 55 54 56 74 57
REMARK SMILES IDX 37 58 38 59 53 61 75 62 40 63 23 64 24 65 33 66 25 67 26 68
REMARK SMILES IDX 32 69 34 70 27 71 28 72 29 73 30 74 31 75 57 76 58 77 67 78
REMARK SMILES IDX 59 79 60 80 66 81 68 82 61 83 62 84 63 85 64 86 65 87 41 88
REMARK SMILES IDX 42 89 51 90 43 91 44 92 50 93 52 94 45 95 46 96 47 97 48 98
REMARK SMILES IDX 49 99
REMARK H PARENT 6 5 83 14 86 17 11 30 73 49 39 60
REMARK Flexibility Score: inf
ROOT
ATOM      1  C   UNL A   1      34.319  30.301  27.367  1.00  0.00     0.116 C 
ENDROOT
BRANCH   1   2
ATOM      2  N   UNL A   1      33.162  29.365  27.681  1.00  0.00    -0.356 N 
ATOM      3  C   UNL A   1      32.125  28.601  27.189  1.00  0.00     0.220 C 
ATOM      4  O   UNL A   1      31.709  27.771  28.016  1.00  0.00    -0.275 OA
ATOM      5  H   UNL A   1      33.147  29.259  28.660  1.00  0.00     0.163 HD
BRANCH   3   6
ATOM      6  C   UNL A   1      31.402  28.566  25.784  1.00  0.00     0.103 C 
BRANCH   6   7
ATOM      7  C   UNL A   1      31.539  27.343  24.773  1.00  0.00     0.004 C 
ATOM      8  C   UNL A   1      30.529  27.222  23.588  1.00  0.00     0.009 C 
BRANCH   7   9
ATOM      9  C   UNL A   1      31.821  25.973  25.399  1.00  0.00     0.104 C 
BRANCH   9  10
ATOM     10  C   UNL A   1      30.610  25.162  25.865  1.00  0.00     0.228 C 
ATOM     11  O   UNL A   1      29.742  25.670  26.578  1.00  0.00    -0.275 OA
ATOM     12  N   UNL A   1      30.453  23.874  25.432  1.00  0.00    -0.278 N 
ATOM     13  C   UNL A   1      30.986  23.513  24.253  1.00  0.00     0.321 C 
ATOM     14  H   UNL A   1      29.956  23.221  25.975  1.00  0.00     0.174 HD
ATOM     15  O   UNL A   1      30.419  23.821  23.209  1.00  0.00    -0.248 OA
ATOM     16  N   UNL A   1      32.213  22.917  24.261  1.00  0.00    -0.335 N 
ATOM     17  H   UNL A   1      32.726  23.048  23.432  1.00  0.00     0.165 HD
BRANCH  16  18
ATOM     18  C   UNL A   1      32.902  22.125  25.263  1.00  0.00     0.152 C 
BRANCH  18  19
ATOM     19  C   UNL A   1      34.356  22.373  25.876  1.00  0.00     0.083 C 
ATOM     20  C   UNL A   1      35.104  23.725  26.093  1.00  0.00     0.039 C 
ATOM     21  O   UNL A   1      35.302  21.547  25.167  1.00  0.00    -0.373 OA
ATOM     22  C   UNL A   1      34.179  21.819  27.319  1.00  0.00     0.044 C 
ATOM     23  C   UNL A   1      36.548  23.473  25.683  1.00  0.00     0.031 C 
ATOM     24  C   UNL A   1      36.624  21.978  25.514  1.00  0.00     0.161 C 
ENDBRANCH  18  19
ENDBRANCH  16  18
ENDBRANCH   9  10
ENDBRANCH   7   9
ENDBRANCH   6   7
ENDBRANCH   3   6
ENDBRANCH   1   2
BRANCH   1  25
ATOM     25  C   UNL A   1      34.243  31.731  27.963  1.00  0.00     0.023 C 
BRANCH  25  26
ATOM     26  C   UNL A   1      35.517  32.541  28.006  1.00  0.00     0.023 C 
BRANCH  26  27
ATOM     27  C   UNL A   1      36.146  32.601  29.382  1.00  0.00     0.116 C 
BRANCH  27  28
ATOM     28  N   UNL A   1      35.761  31.494  30.263  1.00  0.00    -0.352 N 
ATOM     29  C   UNL A   1      36.511  30.389  30.660  1.00  0.00     0.251 C 
ATOM     30  H   UNL A   1      34.845  31.537  30.623  1.00  0.00     0.163 HD
ATOM     31  O   UNL A   1      36.046  29.503  31.315  1.00  0.00    -0.269 OA
BRANCH  29  32
ATOM     32  C   UNL A   1      37.920  30.348  30.195  1.00  0.00     0.039 A 
ATOM     33  C   UNL A   1      38.952  30.315  31.132  1.00  0.00     0.014 A 
ATOM     34  C   UNL A   1      38.169  30.147  28.839  1.00  0.00     0.014 A 
ATOM     35  C   UNL A   1      40.235  29.963  30.709  1.00  0.00     0.010 A 
ATOM     36  C   UNL A   1      39.398  29.642  28.457  1.00  0.00     0.010 A 
ATOM     37  C   UNL A   1      40.452  29.566  29.379  1.00  0.00    -0.014 A 
BRANCH  37  38
ATOM     38  C   UNL A   1      41.783  29.120  28.895  1.00  0.00     0.031 A 
ATOM     39  C   UNL A   1      42.898  30.130  28.813  1.00  0.00     0.074 A 
ATOM     40  C   UNL A   1      41.963  27.857  28.459  1.00  0.00     0.049 A 
ATOM     41  N   UNL A   1      44.099  30.000  28.317  1.00  0.00    -0.248 NA
ATOM     42  C   UNL A   1      42.600  31.490  29.300  1.00  0.00     0.031 C 
ATOM     43  C   UNL A   1      40.936  26.812  28.415  1.00  0.00     0.029 A 
ATOM     44  N   UNL A   1      43.082  27.235  27.962  1.00  0.00    -0.354 N 
ATOM     45  C   UNL A   1      44.676  31.262  28.402  1.00  0.00     0.074 A 
ATOM     46  C   UNL A   1      43.667  32.163  28.903  1.00  0.00     0.031 C 
ATOM     47  C   UNL A   1      41.484  25.671  27.966  1.00  0.00     0.029 A 
ATOM     48  C   UNL A   1      42.888  25.909  27.652  1.00  0.00     0.049 A 
ATOM     49  H   UNL A   1      43.943  27.696  27.840  1.00  0.00     0.167 HD
ATOM     50  C   UNL A   1      45.951  31.628  28.139  1.00  0.00     0.037 A 
ATOM     51  C   UNL A   1      43.753  24.992  27.176  1.00  0.00     0.037 A 
ATOM     52  C   UNL A   1      46.964  30.705  27.710  1.00  0.00     0.049 A 
ATOM     53  C   UNL A   1      45.179  25.411  26.929  1.00  0.00     0.074 A 
ATOM     54  C   UNL A   1      48.306  30.942  27.485  1.00  0.00     0.029 A 
ATOM     55  N   UNL A   1      46.741  29.359  27.455  1.00  0.00    -0.354 N 
ATOM     56  N   UNL A   1      45.730  26.593  27.081  1.00  0.00    -0.248 NA
ATOM     57  C   UNL A   1      46.106  24.373  26.456  1.00  0.00     0.031 C 
ATOM     58  C   UNL A   1      48.889  29.745  27.057  1.00  0.00     0.029 A 
ATOM     59  C   UNL A   1      47.920  28.753  27.063  1.00  0.00     0.049 A 
ATOM     60  H   UNL A   1      45.872  28.903  27.541  1.00  0.00     0.167 HD
ATOM     61  C   UNL A   1      47.071  26.434  26.752  1.00  0.00     0.074 A 
ATOM     62  C   UNL A   1      47.251  25.040  26.404  1.00  0.00     0.031 C 
ATOM     63  C   UNL A   1      48.066  27.356  26.736  1.00  0.00     0.037 A 
BRANCH  50  64
ATOM     64  C   UNL A   1      46.313  33.075  28.339  1.00  0.00     0.058 A 
ATOM     65  C   UNL A   1      46.760  33.560  29.581  1.00  0.00     0.135 A 
ATOM     66  C   UNL A   1      46.208  33.990  27.280  1.00  0.00     0.135 A 
ATOM     67  F   UNL A   1      46.855  32.735  30.635  1.00  0.00    -0.206 F 
ATOM     68  C   UNL A   1      47.050  34.906  29.776  1.00  0.00     0.059 A 
ATOM     69  C   UNL A   1      46.529  35.335  27.443  1.00  0.00     0.059 A 
ATOM     70  F   UNL A   1      45.781  33.584  26.075  1.00  0.00    -0.206 F 
ATOM     71  C   UNL A   1      46.931  35.786  28.699  1.00  0.00     0.060 A 
BRANCH  71  72
ATOM     72  S   UNL A   1      47.316  37.529  28.968  1.00  0.00     0.124 S 
ATOM     73  O   UNL A   1      46.008  38.149  28.775  1.00  0.00    -0.237 OA
ATOM     74  O   UNL A   1      47.820  37.528  30.338  1.00  0.00    -0.237 OA
ATOM     75  O   UNL A   1      48.306  37.821  27.939  1.00  0.00    -0.744 OA
ENDBRANCH  71  72
ENDBRANCH  50  64
BRANCH  51  76
ATOM     76  C   UNL A   1      43.313  23.588  26.949  1.00  0.00     0.058 A 
ATOM     77  C   UNL A   1      43.029  23.122  25.656  1.00  0.00     0.135 A 
ATOM     78  C   UNL A   1      43.181  22.679  28.011  1.00  0.00     0.135 A 
ATOM     79  F   UNL A   1      43.136  23.951  24.606  1.00  0.00    -0.206 F 
ATOM     80  C   UNL A   1      42.611  21.815  25.424  1.00  0.00     0.059 A 
ATOM     81  C   UNL A   1      42.788  21.359  27.802  1.00  0.00     0.059 A 
ATOM     82  F   UNL A   1      43.458  23.067  29.266  1.00  0.00    -0.206 F 
ATOM     83  C   UNL A   1      42.495  20.940  26.505  1.00  0.00     0.060 A 
BRANCH  83  84
ATOM     84  S   UNL A   1      41.991  19.233  26.187  1.00  0.00     0.124 S 
ATOM     85  O   UNL A   1      42.340  18.585  27.444  1.00  0.00    -0.237 OA
ATOM     86  O   UNL A   1      40.564  19.380  25.918  1.00  0.00    -0.237 OA
ATOM     87  O   UNL A   1      42.802  18.854  25.034  1.00  0.00    -0.744 OA
ENDBRANCH  83  84
ENDBRANCH  51  76
BRANCH  63  88
ATOM     88  C   UNL A   1      49.442  26.880  26.366  1.00  0.00     0.058 A 
ATOM     89  C   UNL A   1      50.281  26.256  27.301  1.00  0.00     0.135 A 
ATOM     90  C   UNL A   1      49.896  26.991  25.042  1.00  0.00     0.135 A 
ATOM     91  F   UNL A   1      49.892  26.129  28.580  1.00  0.00    -0.206 F 
ATOM     92  C   UNL A   1      51.536  25.779  26.942  1.00  0.00     0.059 A 
ATOM     93  C   UNL A   1      51.134  26.495  24.654  1.00  0.00     0.059 A 
ATOM     94  F   UNL A   1      49.123  27.568  24.108  1.00  0.00    -0.206 F 
ATOM     95  C   UNL A   1      51.952  25.900  25.613  1.00  0.00     0.060 A 
BRANCH  95  96
ATOM     96  S   UNL A   1      53.568  25.242  25.152  1.00  0.00     0.124 S 
ATOM     97  O   UNL A   1      53.362  23.809  25.328  1.00  0.00    -0.237 OA
ATOM     98  O   UNL A   1      53.709  25.700  23.774  1.00  0.00    -0.237 OA
ATOM     99  O   UNL A   1      54.474  25.869  26.110  1.00  0.00    -0.744 OA
ENDBRANCH  95  96
ENDBRANCH  63  88
ENDBRANCH  37  38
ENDBRANCH  29  32
ENDBRANCH  27  28
ENDBRANCH  26  27
ENDBRANCH  25  26
ENDBRANCH   1  25
TORSDOF 19
ENDMDL
MODEL 2
REMARK VINA RESULT:     -10.5      6.435     11.742
REMARK SMILES C[C@@H](CC(=O)NCCCCNC(=O)c1ccc(-c2c3nc(c(-c4c(F)cc(S(=O)(=O)[O-])cc4F)c4ccc([nH]4)c(-c4c(F)cc(S(=O)(=O)[O-])cc4F)c4nc(c(-c5c(F)cc(S(=O)(=O)[O-])cc5F)c5ccc2[nH]5)C=C4)C=C3)cc1)CC(=O)NC(=O)NC[C@]1(C)CCCO1
REMARK SMILES IDX 7 1 6 2 4 3 5 4 3 6 2 7 1 8 80 9 81 10 82 11 83 12 84 13
REMARK SMILES IDX 85 15 86 16 87 18 88 19 90 20 93 21 89 22 91 23 92 24 8 25
REMARK SMILES IDX 9 26 10 27 11 28 12 29 13 31 14 32 15 33 79 34 16 35 78 36
REMARK SMILES IDX 17 37 18 38 19 39 72 40 20 41 77 42 71 43 73 44 21 45 76 46
REMARK SMILES IDX 70 47 69 48 22 50 56 51 35 52 55 53 36 54 39 55 54 56 74 57
REMARK SMILES IDX 37 58 38 59 53 61 75 62 40 63 23 64 24 65 33 66 25 67 26 68
REMARK SMILES IDX 32 69 34 70 27 71 28 72 29 73 30 74 31 75 57 76 58 77 67 78
REMARK SMILES IDX 59 79 60 80 66 81 68 82 61 83 62 84 63 85 64 86 65 87 41 88
REMARK SMILES IDX 42 89 51 90 43 91 44 92 50 93 52 94 45 95 46 96 47 97 48 98
REMARK SMILES IDX 49 99
REMARK H PARENT 6 5 83 14 86 17 11 30 73 49 39 60
REMARK Flexibility Score: inf
ROOT
ATOM      1  C   UNL A   1      38.837  23.698  26.853  1.00  0.00     0.116 C 
ENDROOT
BRANCH   1   2
ATOM      2  N   UNL A   1      38.121  22.990  25.713  1.00  0.00    -0.356 N 
ATOM      3  C   UNL A   1      36.996  22.920  24.919  1.00  0.00     0.220 C 
ATOM      4  O   UNL A   1      37.180  22.250  23.888  1.00  0.00    -0.275 OA
ATOM      5  H   UNL A   1      38.720  22.268  25.412  1.00  0.00     0.163 HD
BRANCH   3   6
ATOM      6  C   UNL A   1      35.552  23.549  25.059  1.00  0.00     0.103 C 
BRANCH   6   7
ATOM      7  C   UNL A   1      34.226  22.763  24.662  1.00  0.00     0.004 C 
ATOM      8  C   UNL A   1      33.513  23.110  23.317  1.00  0.00     0.009 C 
BRANCH   7   9
ATOM      9  C   UNL A   1      33.206  22.542  25.784  1.00  0.00     0.104 C 
BRANCH   9  10
ATOM     10  C   UNL A   1      31.879  21.886  25.397  1.00  0.00     0.228 C 
ATOM     11  O   UNL A   1      31.819  20.685  25.128  1.00  0.00    -0.275 OA
ATOM     12  N   UNL A   1      30.730  22.629  25.412  1.00  0.00    -0.278 N 
ATOM     13  C   UNL A   1      30.647  23.685  26.237  1.00  0.00     0.321 C 
ATOM     14  H   UNL A   1      29.974  22.391  24.828  1.00  0.00     0.174 HD
ATOM     15  O   UNL A   1      30.424  23.509  27.431  1.00  0.00    -0.248 OA
ATOM     16  N   UNL A   1      30.938  24.917  25.731  1.00  0.00    -0.335 N 
ATOM     17  H   UNL A   1      31.266  25.558  26.401  1.00  0.00     0.165 HD
BRANCH  16  18
ATOM     18  C   UNL A   1      30.856  25.460  24.387  1.00  0.00     0.152 C 
BRANCH  18  19
ATOM     19  C   UNL A   1      31.556  26.778  23.819  1.00  0.00     0.083 C 
ATOM     20  C   UNL A   1      33.034  27.248  23.993  1.00  0.00     0.039 C 
ATOM     21  O   UNL A   1      30.767  27.922  24.203  1.00  0.00    -0.373 OA
ATOM     22  C   UNL A   1      31.422  26.560  22.285  1.00  0.00     0.044 C 
ATOM     23  C   UNL A   1      32.968  28.747  24.247  1.00  0.00     0.031 C 
ATOM     24  C   UNL A   1      31.536  29.105  23.949  1.00  0.00     0.161 C 
ENDBRANCH  18  19
ENDBRANCH  16  18
ENDBRANCH   9  10
ENDBRANCH   7   9
ENDBRANCH   6   7
ENDBRANCH   3   6
ENDBRANCH   1   2
BRANCH   1  25
ATOM     25  C   UNL A   1      40.179  24.397  26.508  1.00  0.00     0.023 C 
BRANCH  25  26
ATOM     26  C   UNL A   1      40.214  25.907  26.553  1.00  0.00     0.023 C 
BRANCH  26  27
ATOM     27  C   UNL A   1      41.379  26.503  25.791  1.00  0.00     0.116 C 
BRANCH  27  28
ATOM     28  N   UNL A   1      42.558  25.635  25.729  1.00  0.00    -0.352 N 
ATOM     29  C   UNL A   1      43.634  25.554  26.610  1.00  0.00     0.251 C 
ATOM     30  H   UNL A   1      42.596  25.024  24.956  1.00  0.00     0.163 HD
ATOM     31  O   UNL A   1      44.586  24.861  26.396  1.00  0.00    -0.269 OA
BRANCH  29  32
ATOM     32  C   UNL A   1      43.557  26.406  27.823  1.00  0.00     0.039 A 
ATOM     33  C   UNL A   1      43.940  27.745  27.746  1.00  0.00     0.014 A 
ATOM     34  C   UNL A   1      42.921  25.900  28.954  1.00  0.00     0.014 A 
ATOM     35  C   UNL A   1      43.576  28.610  28.781  1.00  0.00     0.010 A 
ATOM     36  C   UNL A   1      42.424  26.788  29.890  1.00  0.00     0.010 A 
ATOM     37  C   UNL A   1      42.764  28.148  29.830  1.00  0.00    -0.014 A 
BRANCH  37  38
ATOM     38  C   UNL A   1      42.295  29.042  30.918  1.00  0.00     0.031 A 
ATOM     39  C   UNL A   1      43.074  29.080  32.208  1.00  0.00     0.074 A 
ATOM     40  C   UNL A   1      41.148  29.738  30.785  1.00  0.00     0.049 A 
ATOM     41  N   UNL A   1      42.793  29.690  33.328  1.00  0.00    -0.248 NA
ATOM     42  C   UNL A   1      44.307  28.273  32.264  1.00  0.00     0.031 C 
ATOM     43  C   UNL A   1      40.266  29.717  29.614  1.00  0.00     0.029 A 
ATOM     44  N   UNL A   1      40.522  30.601  31.649  1.00  0.00    -0.354 N 
ATOM     45  C   UNL A   1      43.790  29.311  34.219  1.00  0.00     0.074 A 
ATOM     46  C   UNL A   1      44.624  28.345  33.546  1.00  0.00     0.031 C 
ATOM     47  C   UNL A   1      39.243  30.565  29.815  1.00  0.00     0.029 A 
ATOM     48  C   UNL A   1      39.371  31.159  31.140  1.00  0.00     0.049 A 
ATOM     49  H   UNL A   1      40.864  30.803  32.550  1.00  0.00     0.167 HD
ATOM     50  C   UNL A   1      44.024  29.767  35.471  1.00  0.00     0.037 A 
ATOM     51  C   UNL A   1      38.525  32.055  31.686  1.00  0.00     0.037 A 
ATOM     52  C   UNL A   1      43.227  30.782  36.101  1.00  0.00     0.049 A 
ATOM     53  C   UNL A   1      38.827  32.581  33.064  1.00  0.00     0.074 A 
ATOM     54  C   UNL A   1      43.410  31.378  37.334  1.00  0.00     0.029 A 
ATOM     55  N   UNL A   1      42.099  31.359  35.534  1.00  0.00    -0.354 N 
ATOM     56  N   UNL A   1      39.815  32.265  33.870  1.00  0.00    -0.248 NA
ATOM     57  C   UNL A   1      37.909  33.593  33.607  1.00  0.00     0.031 C 
ATOM     58  C   UNL A   1      42.369  32.292  37.529  1.00  0.00     0.029 A 
ATOM     59  C   UNL A   1      41.568  32.299  36.397  1.00  0.00     0.049 A 
ATOM     60  H   UNL A   1      41.733  31.133  34.648  1.00  0.00     0.167 HD
ATOM     61  C   UNL A   1      39.654  33.059  35.000  1.00  0.00     0.074 A 
ATOM     62  C   UNL A   1      38.481  33.877  34.768  1.00  0.00     0.031 C 
ATOM     63  C   UNL A   1      40.405  33.108  36.128  1.00  0.00     0.037 A 
BRANCH  50  64
ATOM     64  C   UNL A   1      45.199  29.189  36.211  1.00  0.00     0.058 A 
ATOM     65  C   UNL A   1      45.063  28.074  37.057  1.00  0.00     0.135 A 
ATOM     66  C   UNL A   1      46.476  29.757  36.079  1.00  0.00     0.135 A 
ATOM     67  F   UNL A   1      43.861  27.506  37.241  1.00  0.00    -0.206 F 
ATOM     68  C   UNL A   1      46.141  27.569  37.776  1.00  0.00     0.059 A 
ATOM     69  C   UNL A   1      47.576  29.244  36.762  1.00  0.00     0.059 A 
ATOM     70  F   UNL A   1      46.663  30.826  35.291  1.00  0.00    -0.206 F 
ATOM     71  C   UNL A   1      47.395  28.162  37.621  1.00  0.00     0.060 A 
BRANCH  71  72
ATOM     72  S   UNL A   1      48.783  27.491  38.558  1.00  0.00     0.124 S 
ATOM     73  O   UNL A   1      48.138  27.129  39.816  1.00  0.00    -0.237 OA
ATOM     74  O   UNL A   1      49.213  26.374  37.722  1.00  0.00    -0.237 OA
ATOM     75  O   UNL A   1      49.716  28.610  38.632  1.00  0.00    -0.744 OA
ENDBRANCH  71  72
ENDBRANCH  50  64
BRANCH  51  76
ATOM     76  C   UNL A   1      37.348  32.544  30.915  1.00  0.00     0.058 A 
ATOM     77  C   UNL A   1      37.484  33.571  29.968  1.00  0.00     0.135 A 
ATOM     78  C   UNL A   1      36.072  31.989  31.093  1.00  0.00     0.135 A 
ATOM     79  F   UNL A   1      38.683  34.138  29.762  1.00  0.00    -0.206 F 
ATOM     80  C   UNL A   1      36.396  34.046  29.242  1.00  0.00     0.059 A 
ATOM     81  C   UNL A   1      34.972  32.430  30.360  1.00  0.00     0.059 A 
ATOM     82  F   UNL A   1      35.889  30.991  31.972  1.00  0.00    -0.206 F 
ATOM     83  C   UNL A   1      35.143  33.467  29.445  1.00  0.00     0.060 A 
BRANCH  83  84
ATOM     84  S   UNL A   1      33.746  34.064  28.465  1.00  0.00     0.124 S 
ATOM     85  O   UNL A   1      33.313  32.843  27.797  1.00  0.00    -0.237 OA
ATOM     86  O   UNL A   1      32.849  34.582  29.494  1.00  0.00    -0.237 OA
ATOM     87  O   UNL A   1      34.349  35.076  27.604  1.00  0.00    -0.744 OA
ENDBRANCH  83  84
ENDBRANCH  51  76
BRANCH  63  88
ATOM     88  C   UNL A   1      40.004  34.101  37.181  1.00  0.00     0.058 A 
ATOM     89  C   UNL A   1      39.162  33.747  38.245  1.00  0.00     0.135 A 
ATOM     90  C   UNL A   1      40.526  35.405  37.158  1.00  0.00     0.135 A 
ATOM     91  F   UNL A   1      38.635  32.514  38.310  1.00  0.00    -0.206 F 
ATOM     92  C   UNL A   1      38.830  34.660  39.240  1.00  0.00     0.059 A 
ATOM     93  C   UNL A   1      40.232  36.324  38.158  1.00  0.00     0.059 A 
ATOM     94  F   UNL A   1      41.348  35.786  36.168  1.00  0.00    -0.206 F 
ATOM     95  C   UNL A   1      39.374  35.946  39.188  1.00  0.00     0.060 A 
BRANCH  95  96
ATOM     96  S   UNL A   1      38.965  37.108  40.507  1.00  0.00     0.124 S 
ATOM     97  O   UNL A   1      38.240  38.140  39.773  1.00  0.00    -0.237 OA
ATOM     98  O   UNL A   1      38.163  36.287  41.408  1.00  0.00    -0.237 OA
ATOM     99  O   UNL A   1      40.271  37.506  41.025  1.00  0.00    -0.744 OA
ENDBRANCH  95  96
ENDBRANCH  63  88
ENDBRANCH  37  38
ENDBRANCH  29  32
ENDBRANCH  27  28
ENDBRANCH  26  27
ENDBRANCH  25  26
ENDBRANCH   1  25
TORSDOF 19
ENDMDL
MODEL 3
REMARK VINA RESULT:     -10.5      6.512      8.798
REMARK SMILES C[C@@H](CC(=O)NCCCCNC(=O)c1ccc(-c2c3nc(c(-c4c(F)cc(S(=O)(=O)[O-])cc4F)c4ccc([nH]4)c(-c4c(F)cc(S(=O)(=O)[O-])cc4F)c4nc(c(-c5c(F)cc(S(=O)(=O)[O-])cc5F)c5ccc2[nH]5)C=C4)C=C3)cc1)CC(=O)NC(=O)NC[C@]1(C)CCCO1
REMARK SMILES IDX 7 1 6 2 4 3 5 4 3 6 2 7 1 8 80 9 81 10 82 11 83 12 84 13
REMARK SMILES IDX 85 15 86 16 87 18 88 19 90 20 93 21 89 22 91 23 92 24 8 25
REMARK SMILES IDX 9 26 10 27 11 28 12 29 13 31 14 32 15 33 79 34 16 35 78 36
REMARK SMILES IDX 17 37 18 38 19 39 72 40 20 41 77 42 71 43 73 44 21 45 76 46
REMARK SMILES IDX 70 47 69 48 22 50 56 51 35 52 55 53 36 54 39 55 54 56 74 57
REMARK SMILES IDX 37 58 38 59 53 61 75 62 40 63 23 64 24 65 33 66 25 67 26 68
REMARK SMILES IDX 32 69 34 70 27 71 28 72 29 73 30 74 31 75 57 76 58 77 67 78
REMARK SMILES IDX 59 79 60 80 66 81 68 82 61 83 62 84 63 85 64 86 65 87 41 88
REMARK SMILES IDX 42 89 51 90 43 91 44 92 50 93 52 94 45 95 46 96 47 97 48 98
REMARK SMILES IDX 49 99
REMARK H PARENT 6 5 83 14 86 17 11 30 73 49 39 60
REMARK Flexibility Score: inf
ROOT
ATOM      1  C   UNL A   1      33.624  32.294  27.636  1.00  0.00     0.116 C 
ENDROOT
BRANCH   1   2
ATOM      2  N   UNL A   1      34.620  31.161  27.824  1.00  0.00    -0.356 N 
ATOM      3  C   UNL A   1      34.908  29.828  27.623  1.00  0.00     0.220 C 
ATOM      4  O   UNL A   1      36.117  29.575  27.759  1.00  0.00    -0.275 OA
ATOM      5  H   UNL A   1      35.395  31.546  28.295  1.00  0.00     0.163 HD
BRANCH   3   6
ATOM      6  C   UNL A   1      34.005  28.591  27.229  1.00  0.00     0.103 C 
BRANCH   6   7
ATOM      7  C   UNL A   1      33.401  28.394  25.769  1.00  0.00     0.004 C 
ATOM      8  C   UNL A   1      32.607  29.568  25.113  1.00  0.00     0.009 C 
BRANCH   7   9
ATOM      9  C   UNL A   1      32.721  27.049  25.492  1.00  0.00     0.104 C 
BRANCH   9  10
ATOM     10  C   UNL A   1      31.306  26.859  26.042  1.00  0.00     0.228 C 
ATOM     11  O   UNL A   1      31.027  27.181  27.199  1.00  0.00    -0.275 OA
ATOM     12  N   UNL A   1      30.319  26.388  25.220  1.00  0.00    -0.278 N 
ATOM     13  C   UNL A   1      30.414  26.605  23.898  1.00  0.00     0.321 C 
ATOM     14  H   UNL A   1      29.551  25.899  25.591  1.00  0.00     0.174 HD
ATOM     15  O   UNL A   1      30.124  27.706  23.439  1.00  0.00    -0.248 OA
ATOM     16  N   UNL A   1      30.950  25.618  23.124  1.00  0.00    -0.335 N 
ATOM     17  H   UNL A   1      31.373  25.943  22.297  1.00  0.00     0.165 HD
BRANCH  16  18
ATOM     18  C   UNL A   1      31.014  24.178  23.292  1.00  0.00     0.152 C 
BRANCH  18  19
ATOM     19  C   UNL A   1      32.311  23.276  23.528  1.00  0.00     0.083 C 
ATOM     20  C   UNL A   1      32.567  21.802  23.084  1.00  0.00     0.039 C 
ATOM     21  O   UNL A   1      32.631  23.290  24.934  1.00  0.00    -0.373 OA
ATOM     22  C   UNL A   1      33.392  24.082  22.753  1.00  0.00     0.044 C 
ATOM     23  C   UNL A   1      33.259  21.127  24.260  1.00  0.00     0.031 C 
ATOM     24  C   UNL A   1      33.601  22.265  25.185  1.00  0.00     0.161 C 
ENDBRANCH  18  19
ENDBRANCH  16  18
ENDBRANCH   9  10
ENDBRANCH   7   9
ENDBRANCH   6   7
ENDBRANCH   3   6
ENDBRANCH   1   2
BRANCH   1  25
ATOM     25  C   UNL A   1      33.907  33.610  28.409  1.00  0.00     0.023 C 
BRANCH  25  26
ATOM     26  C   UNL A   1      32.781  34.611  28.523  1.00  0.00     0.023 C 
BRANCH  26  27
ATOM     27  C   UNL A   1      33.212  35.933  29.124  1.00  0.00     0.116 C 
BRANCH  27  28
ATOM     28  N   UNL A   1      32.579  36.239  30.410  1.00  0.00    -0.352 N 
ATOM     29  C   UNL A   1      32.888  35.749  31.677  1.00  0.00     0.251 C 
ATOM     30  H   UNL A   1      31.831  36.879  30.373  1.00  0.00     0.163 HD
ATOM     31  O   UNL A   1      32.231  36.011  32.642  1.00  0.00    -0.269 OA
BRANCH  29  32
ATOM     32  C   UNL A   1      34.063  34.847  31.765  1.00  0.00     0.039 A 
ATOM     33  C   UNL A   1      35.314  35.308  31.354  1.00  0.00     0.014 A 
ATOM     34  C   UNL A   1      33.925  33.635  32.436  1.00  0.00     0.014 A 
ATOM     35  C   UNL A   1      36.452  34.588  31.724  1.00  0.00     0.010 A 
ATOM     36  C   UNL A   1      35.057  33.020  32.937  1.00  0.00     0.010 A 
ATOM     37  C   UNL A   1      36.333  33.472  32.569  1.00  0.00    -0.014 A 
BRANCH  37  38
ATOM     38  C   UNL A   1      37.516  32.712  33.045  1.00  0.00     0.031 A 
ATOM     39  C   UNL A   1      38.157  33.114  34.349  1.00  0.00     0.074 A 
ATOM     40  C   UNL A   1      38.055  31.738  32.284  1.00  0.00     0.049 A 
ATOM     41  N   UNL A   1      39.256  32.677  34.902  1.00  0.00    -0.248 NA
ATOM     42  C   UNL A   1      37.503  34.200  35.104  1.00  0.00     0.031 C 
ATOM     43  C   UNL A   1      37.571  31.315  30.967  1.00  0.00     0.029 A 
ATOM     44  N   UNL A   1      39.139  30.926  32.509  1.00  0.00    -0.354 N 
ATOM     45  C   UNL A   1      39.436  33.456  36.039  1.00  0.00     0.074 A 
ATOM     46  C   UNL A   1      38.394  34.454  36.047  1.00  0.00     0.031 C 
ATOM     47  C   UNL A   1      38.322  30.293  30.526  1.00  0.00     0.029 A 
ATOM     48  C   UNL A   1      39.365  30.012  31.506  1.00  0.00     0.049 A 
ATOM     49  H   UNL A   1      39.701  30.991  33.315  1.00  0.00     0.167 HD
ATOM     50  C   UNL A   1      40.356  33.318  37.021  1.00  0.00     0.037 A 
ATOM     51  C   UNL A   1      40.306  29.053  31.400  1.00  0.00     0.037 A 
ATOM     52  C   UNL A   1      41.343  32.275  37.036  1.00  0.00     0.049 A 
ATOM     53  C   UNL A   1      41.295  28.889  32.524  1.00  0.00     0.074 A 
ATOM     54  C   UNL A   1      42.277  31.988  38.012  1.00  0.00     0.029 A 
ATOM     55  N   UNL A   1      41.508  31.337  36.027  1.00  0.00    -0.354 N 
ATOM     56  N   UNL A   1      41.410  29.589  33.629  1.00  0.00    -0.248 NA
ATOM     57  C   UNL A   1      42.275  27.802  32.396  1.00  0.00     0.031 C 
ATOM     58  C   UNL A   1      43.035  30.897  37.575  1.00  0.00     0.029 A 
ATOM     59  C   UNL A   1      42.539  30.475  36.350  1.00  0.00     0.049 A 
ATOM     60  H   UNL A   1      40.970  31.292  35.203  1.00  0.00     0.167 HD
ATOM     61  C   UNL A   1      42.455  29.010  34.341  1.00  0.00     0.074 A 
ATOM     62  C   UNL A   1      42.929  27.895  33.546  1.00  0.00     0.031 C 
ATOM     63  C   UNL A   1      42.977  29.365  35.541  1.00  0.00     0.037 A 
BRANCH  50  64
ATOM     64  C   UNL A   1      40.308  34.302  38.159  1.00  0.00     0.058 A 
ATOM     65  C   UNL A   1      39.438  34.127  39.250  1.00  0.00     0.135 A 
ATOM     66  C   UNL A   1      41.138  35.433  38.160  1.00  0.00     0.135 A 
ATOM     67  F   UNL A   1      38.604  33.076  39.290  1.00  0.00    -0.206 F 
ATOM     68  C   UNL A   1      39.362  35.060  40.278  1.00  0.00     0.059 A 
ATOM     69  C   UNL A   1      41.105  36.362  39.198  1.00  0.00     0.059 A 
ATOM     70  F   UNL A   1      41.983  35.654  37.142  1.00  0.00    -0.206 F 
ATOM     71  C   UNL A   1      40.201  36.175  40.243  1.00  0.00     0.060 A 
BRANCH  71  72
ATOM     72  S   UNL A   1      40.094  37.374  41.587  1.00  0.00     0.124 S 
ATOM     73  O   UNL A   1      41.465  37.871  41.644  1.00  0.00    -0.237 OA
ATOM     74  O   UNL A   1      39.098  38.317  41.086  1.00  0.00    -0.237 OA
ATOM     75  O   UNL A   1      39.672  36.568  42.728  1.00  0.00    -0.744 OA
ENDBRANCH  71  72
ENDBRANCH  50  64
BRANCH  51  76
ATOM     76  C   UNL A   1      40.328  28.148  30.218  1.00  0.00     0.058 A 
ATOM     77  C   UNL A   1      41.259  28.336  29.184  1.00  0.00     0.135 A 
ATOM     78  C   UNL A   1      39.435  27.071  30.100  1.00  0.00     0.135 A 
ATOM     79  F   UNL A   1      42.132  29.353  29.245  1.00  0.00    -0.206 F 
ATOM     80  C   UNL A   1      41.291  27.504  28.068  1.00  0.00     0.059 A 
ATOM     81  C   UNL A   1      39.464  26.210  29.006  1.00  0.00     0.059 A 
ATOM     82  F   UNL A   1      38.536  26.834  31.069  1.00  0.00    -0.206 F 
ATOM     83  C   UNL A   1      40.390  26.442  27.989  1.00  0.00     0.060 A 
BRANCH  83  84
ATOM     84  S   UNL A   1      40.470  25.344  26.556  1.00  0.00     0.124 S 
ATOM     85  O   UNL A   1      40.850  26.271  25.497  1.00  0.00    -0.237 OA
ATOM     86  O   UNL A   1      41.492  24.384  26.962  1.00  0.00    -0.237 OA
ATOM     87  O   UNL A   1      39.116  24.807  26.468  1.00  0.00    -0.744 OA
ENDBRANCH  83  84
ENDBRANCH  51  76
BRANCH  63  88
ATOM     88  C   UNL A   1      44.095  28.521  36.084  1.00  0.00     0.058 A 
ATOM     89  C   UNL A   1      45.439  28.883  35.916  1.00  0.00     0.135 A 
ATOM     90  C   UNL A   1      43.809  27.372  36.839  1.00  0.00     0.135 A 
ATOM     91  F   UNL A   1      45.763  29.971  35.199  1.00  0.00    -0.206 F 
ATOM     92  C   UNL A   1      46.467  28.120  36.459  1.00  0.00     0.059 A 
ATOM     93  C   UNL A   1      44.819  26.612  37.416  1.00  0.00     0.059 A 
ATOM     94  F   UNL A   1      42.537  26.993  37.040  1.00  0.00    -0.206 F 
ATOM     95  C   UNL A   1      46.145  26.987  37.211  1.00  0.00     0.060 A 
BRANCH  95  96
ATOM     96  S   UNL A   1      47.488  26.028  37.941  1.00  0.00     0.124 S 
ATOM     97  O   UNL A   1      48.629  26.466  37.145  1.00  0.00    -0.237 OA
ATOM     98  O   UNL A   1      47.472  26.477  39.330  1.00  0.00    -0.237 OA
ATOM     99  O   UNL A   1      47.069  24.645  37.731  1.00  0.00    -0.744 OA
ENDBRANCH  95  96
ENDBRANCH  63  88
ENDBRANCH  37  38
ENDBRANCH  29  32
ENDBRANCH  27  28
ENDBRANCH  26  27
ENDBRANCH  25  26
ENDBRANCH   1  25
TORSDOF 19
ENDMDL
