MODEL 1
REMARK VINA RESULT:     -10.9      0.000      0.000
REMARK SMILES CCOc1ncnc(N[C@@H]2C=C[C@H](C(=O)NCCCCNC(=O)c3ccc(-c4c5nc(c(-c6c(F)cc(S(=O)(=O)[O-])cc6F)c6ccc([nH]6)c(-c6c(F)cc(S(=O)(=O)[O-])cc6F)c6nc(c(-c7c(F)cc(S(=O)(=O)[O-])cc7F)c7ccc4[nH]7)C=C6)C=C5)cc3)C2)c1C
REMARK SMILES IDX 18 1 17 2 16 3 14 4 15 5 13 7 10 8 11 9 90 10 12 11 9 12
REMARK SMILES IDX 8 14 4 15 5 16 91 17 6 18 92 19 7 20 3 21 2 22 1 23 19 24
REMARK SMILES IDX 20 25 21 26 22 27 23 29 24 30 25 31 89 32 26 33 88 34 27 35
REMARK SMILES IDX 28 36 29 37 82 38 30 39 87 40 81 41 83 42 31 43 86 44 80 45
REMARK SMILES IDX 79 46 32 48 66 49 45 50 65 51 46 52 49 53 64 54 84 55 47 56
REMARK SMILES IDX 48 57 63 59 85 60 50 61 33 62 34 63 43 64 35 65 36 66 42 67
REMARK SMILES IDX 44 68 37 69 38 70 39 71 40 72 41 73 67 74 68 75 77 76 69 77
REMARK SMILES IDX 70 78 76 79 78 80 71 81 72 82 73 83 74 84 75 85 51 86 52 87
REMARK SMILES IDX 61 88 53 89 54 90 60 91 62 92 55 93 56 94 57 95 58 96 59 97
REMARK H PARENT 16 6 9 13 21 28 83 47 49 58
REMARK Flexibility Score: inf
ROOT
ATOM      1  C   UNL A   1      32.025  29.494  25.099  1.00  0.00     0.023 C 
ENDROOT
BRANCH   1   2
ATOM      2  C   UNL A   1      31.086  28.837  24.090  1.00  0.00     0.116 C 
BRANCH   2   3
ATOM      3  N   UNL A   1      31.821  27.985  23.180  1.00  0.00    -0.356 N 
ATOM      4  C   UNL A   1      31.727  26.634  23.002  1.00  0.00     0.227 C 
ATOM      5  O   UNL A   1      32.666  26.080  22.430  1.00  0.00    -0.274 OA
ATOM      6  H   UNL A   1      32.479  28.443  22.608  1.00  0.00     0.163 HD
BRANCH   4   7
ATOM      7  C   UNL A   1      30.531  25.881  23.600  1.00  0.00     0.103 C 
ATOM      8  C   UNL A   1      30.624  24.838  25.835  1.00  0.00     0.104 C 
ATOM      9  C   UNL A   1      30.736  23.822  24.758  1.00  0.00    -0.006 C 
ATOM     10  C   UNL A   1      30.347  26.157  25.107  1.00  0.00     0.046 C 
ATOM     11  C   UNL A   1      30.678  24.381  23.545  1.00  0.00    -0.016 C 
BRANCH   8  12
ATOM     12  N   UNL A   1      31.778  24.859  26.706  1.00  0.00    -0.363 N 
ATOM     13  H   UNL A   1      31.907  25.669  27.252  1.00  0.00     0.162 HD
BRANCH  12  14
ATOM     14  C   UNL A   1      32.720  23.854  26.849  1.00  0.00     0.136 A 
ATOM     15  C   UNL A   1      34.852  22.959  26.455  1.00  0.00     0.221 A 
ATOM     16  N   UNL A   1      34.592  21.856  27.167  1.00  0.00    -0.201 NA
ATOM     17  C   UNL A   1      33.950  23.983  26.218  1.00  0.00     0.054 A 
ATOM     18  C   UNL A   1      33.358  21.808  27.669  1.00  0.00     0.228 A 
ATOM     19  C   UNL A   1      34.303  25.170  25.381  1.00  0.00     0.054 C 
ATOM     20  N   UNL A   1      32.425  22.766  27.573  1.00  0.00    -0.219 NA
BRANCH  15  21
ATOM     21  O   UNL A   1      36.090  23.016  25.860  1.00  0.00    -0.478 OA
BRANCH  21  22
ATOM     22  C   UNL A   1      36.217  22.007  24.856  1.00  0.00     0.228 C 
ATOM     23  C   UNL A   1      36.509  22.692  23.529  1.00  0.00     0.049 C 
ENDBRANCH  21  22
ENDBRANCH  15  21
ENDBRANCH  12  14
ENDBRANCH   8  12
ENDBRANCH   4   7
ENDBRANCH   2   3
ENDBRANCH   1   2
BRANCH   1  24
ATOM     24  C   UNL A   1      33.334  28.737  25.338  1.00  0.00     0.023 C 
BRANCH  24  25
ATOM     25  C   UNL A   1      33.832  28.746  26.779  1.00  0.00     0.116 C 
BRANCH  25  26
ATOM     26  N   UNL A   1      33.661  30.039  27.424  1.00  0.00    -0.352 N 
ATOM     27  C   UNL A   1      34.530  30.711  28.250  1.00  0.00     0.251 C 
ATOM     28  H   UNL A   1      32.806  30.494  27.244  1.00  0.00     0.163 HD
ATOM     29  O   UNL A   1      34.164  31.728  28.832  1.00  0.00    -0.269 OA
BRANCH  27  30
ATOM     30  C   UNL A   1      35.893  30.180  28.457  1.00  0.00     0.039 A 
ATOM     31  C   UNL A   1      36.792  30.186  27.389  1.00  0.00     0.014 A 
ATOM     32  C   UNL A   1      36.288  29.707  29.712  1.00  0.00     0.014 A 
ATOM     33  C   UNL A   1      38.113  29.782  27.597  1.00  0.00     0.010 A 
ATOM     34  C   UNL A   1      37.621  29.372  29.933  1.00  0.00     0.010 A 
ATOM     35  C   UNL A   1      38.547  29.409  28.880  1.00  0.00    -0.014 A 
BRANCH  35  36
ATOM     36  C   UNL A   1      39.965  29.059  29.145  1.00  0.00     0.031 A 
ATOM     37  C   UNL A   1      40.908  30.097  29.688  1.00  0.00     0.074 A 
ATOM     38  C   UNL A   1      40.423  27.833  28.821  1.00  0.00     0.049 A 
ATOM     39  N   UNL A   1      42.198  30.016  29.894  1.00  0.00    -0.248 NA
ATOM     40  C   UNL A   1      40.329  31.410  30.013  1.00  0.00     0.031 C 
ATOM     41  C   UNL A   1      39.619  26.758  28.236  1.00  0.00     0.029 A 
ATOM     42  N   UNL A   1      41.681  27.292  28.919  1.00  0.00    -0.354 N 
ATOM     43  C   UNL A   1      42.587  31.267  30.357  1.00  0.00     0.074 A 
ATOM     44  C   UNL A   1      41.405  32.104  30.348  1.00  0.00     0.031 C 
ATOM     45  C   UNL A   1      40.400  25.683  28.037  1.00  0.00     0.029 A 
ATOM     46  C   UNL A   1      41.764  26.003  28.445  1.00  0.00     0.049 A 
ATOM     47  H   UNL A   1      42.449  27.780  29.292  1.00  0.00     0.167 HD
ATOM     48  C   UNL A   1      43.808  31.675  30.775  1.00  0.00     0.037 A 
ATOM     49  C   UNL A   1      42.822  25.176  28.341  1.00  0.00     0.037 A 
ATOM     50  C   UNL A   1      44.975  30.831  30.798  1.00  0.00     0.049 A 
ATOM     51  C   UNL A   1      44.169  25.644  28.819  1.00  0.00     0.074 A 
ATOM     52  C   UNL A   1      46.249  31.134  31.247  1.00  0.00     0.029 A 
ATOM     53  N   UNL A   1      45.012  29.518  30.349  1.00  0.00    -0.354 N 
ATOM     54  N   UNL A   1      44.508  26.812  29.312  1.00  0.00    -0.248 NA
ATOM     55  C   UNL A   1      45.276  24.682  28.737  1.00  0.00     0.031 C 
ATOM     56  C   UNL A   1      47.064  30.015  31.036  1.00  0.00     0.029 A 
ATOM     57  C   UNL A   1      46.288  29.001  30.497  1.00  0.00     0.049 A 
ATOM     58  H   UNL A   1      44.242  29.027  29.978  1.00  0.00     0.167 HD
ATOM     59  C   UNL A   1      45.861  26.719  29.620  1.00  0.00     0.074 A 
ATOM     60  C   UNL A   1      46.276  25.375  29.268  1.00  0.00     0.031 C 
ATOM     61  C   UNL A   1      46.684  27.659  30.146  1.00  0.00     0.037 A 
BRANCH  48  62
ATOM     62  C   UNL A   1      43.937  33.098  31.245  1.00  0.00     0.058 A 
ATOM     63  C   UNL A   1      43.813  33.438  32.603  1.00  0.00     0.135 A 
ATOM     64  C   UNL A   1      44.185  34.135  30.332  1.00  0.00     0.135 A 
ATOM     65  F   UNL A   1      43.562  32.488  33.517  1.00  0.00    -0.206 F 
ATOM     66  C   UNL A   1      43.886  34.759  33.032  1.00  0.00     0.059 A 
ATOM     67  C   UNL A   1      44.291  35.462  30.743  1.00  0.00     0.059 A 
ATOM     68  F   UNL A   1      44.315  33.868  29.023  1.00  0.00    -0.206 F 
ATOM     69  C   UNL A   1      44.117  35.765  32.093  1.00  0.00     0.060 A 
BRANCH  69  70
ATOM     70  S   UNL A   1      44.183  37.478  32.662  1.00  0.00     0.124 S 
ATOM     71  O   UNL A   1      44.030  38.205  31.406  1.00  0.00    -0.237 OA
ATOM     72  O   UNL A   1      43.047  37.549  33.576  1.00  0.00    -0.237 OA
ATOM     73  O   UNL A   1      45.496  37.578  33.289  1.00  0.00    -0.744 OA
ENDBRANCH  69  70
ENDBRANCH  48  62
BRANCH  49  74
ATOM     74  C   UNL A   1      42.637  23.812  27.780  1.00  0.00     0.058 A 
ATOM     75  C   UNL A   1      42.471  22.704  28.621  1.00  0.00     0.135 A 
ATOM     76  C   UNL A   1      42.581  23.597  26.394  1.00  0.00     0.135 A 
ATOM     77  F   UNL A   1      42.523  22.858  29.953  1.00  0.00    -0.206 F 
ATOM     78  C   UNL A   1      42.260  21.426  28.110  1.00  0.00     0.059 A 
ATOM     79  C   UNL A   1      42.349  22.334  25.859  1.00  0.00     0.059 A 
ATOM     80  F   UNL A   1      42.717  24.630  25.547  1.00  0.00    -0.206 F 
ATOM     81  C   UNL A   1      42.195  21.253  26.726  1.00  0.00     0.060 A 
BRANCH  81  82
ATOM     82  S   UNL A   1      41.850  19.603  26.076  1.00  0.00     0.124 S 
ATOM     83  O   UNL A   1      42.241  18.757  27.197  1.00  0.00    -0.237 OA
ATOM     84  O   UNL A   1      40.418  19.677  25.799  1.00  0.00    -0.237 OA
ATOM     85  O   UNL A   1      42.704  19.523  24.895  1.00  0.00    -0.744 OA
ENDBRANCH  81  82
ENDBRANCH  49  74
BRANCH  61  86
ATOM     86  C   UNL A   1      48.111  27.263  30.407  1.00  0.00     0.058 A 
ATOM     87  C   UNL A   1      49.106  27.402  29.427  1.00  0.00     0.135 A 
ATOM     88  C   UNL A   1      48.497  26.790  31.671  1.00  0.00     0.135 A 
ATOM     89  F   UNL A   1      48.789  27.842  28.199  1.00  0.00    -0.206 F 
ATOM     90  C   UNL A   1      50.431  27.068  29.686  1.00  0.00     0.059 A 
ATOM     91  C   UNL A   1      49.820  26.474  31.961  1.00  0.00     0.059 A 
ATOM     92  F   UNL A   1      47.584  26.647  32.647  1.00  0.00    -0.206 F 
ATOM     93  C   UNL A   1      50.779  26.607  30.958  1.00  0.00     0.060 A 
BRANCH  93  94
ATOM     94  S   UNL A   1      52.509  26.214  31.295  1.00  0.00     0.124 S 
ATOM     95  O   UNL A   1      53.072  26.186  29.948  1.00  0.00    -0.237 OA
ATOM     96  O   UNL A   1      52.928  27.333  32.133  1.00  0.00    -0.237 OA
ATOM     97  O   UNL A   1      52.438  24.923  31.973  1.00  0.00    -0.744 OA
ENDBRANCH  93  94
ENDBRANCH  61  86
ENDBRANCH  35  36
ENDBRANCH  27  30
ENDBRANCH  25  26
ENDBRANCH  24  25
ENDBRANCH   1  24
TORSDOF 18
ENDMDL
MODEL 2
REMARK VINA RESULT:     -10.9      2.561      3.463
REMARK SMILES CCOc1ncnc(N[C@@H]2C=C[C@H](C(=O)NCCCCNC(=O)c3ccc(-c4c5nc(c(-c6c(F)cc(S(=O)(=O)[O-])cc6F)c6ccc([nH]6)c(-c6c(F)cc(S(=O)(=O)[O-])cc6F)c6nc(c(-c7c(F)cc(S(=O)(=O)[O-])cc7F)c7ccc4[nH]7)C=C6)C=C5)cc3)C2)c1C
REMARK SMILES IDX 18 1 17 2 16 3 14 4 15 5 13 7 10 8 11 9 90 10 12 11 9 12
REMARK SMILES IDX 8 14 4 15 5 16 91 17 6 18 92 19 7 20 3 21 2 22 1 23 19 24
REMARK SMILES IDX 20 25 21 26 22 27 23 29 24 30 25 31 89 32 26 33 88 34 27 35
REMARK SMILES IDX 28 36 29 37 82 38 30 39 87 40 81 41 83 42 31 43 86 44 80 45
REMARK SMILES IDX 79 46 32 48 66 49 45 50 65 51 46 52 49 53 64 54 84 55 47 56
REMARK SMILES IDX 48 57 63 59 85 60 50 61 33 62 34 63 43 64 35 65 36 66 42 67
REMARK SMILES IDX 44 68 37 69 38 70 39 71 40 72 41 73 67 74 68 75 77 76 69 77
REMARK SMILES IDX 70 78 76 79 78 80 71 81 72 82 73 83 74 84 75 85 51 86 52 87
REMARK SMILES IDX 61 88 53 89 54 90 60 91 62 92 55 93 56 94 57 95 58 96 59 97
REMARK H PARENT 16 6 9 13 21 28 83 47 49 58
REMARK Flexibility Score: inf
ROOT
ATOM      1  C   UNL A   1      32.912  30.616  27.055  1.00  0.00     0.023 C 
ENDROOT
BRANCH   1   2
ATOM      2  C   UNL A   1      31.848  30.492  25.967  1.00  0.00     0.116 C 
BRANCH   2   3
ATOM      3  N   UNL A   1      32.363  29.773  24.821  1.00  0.00    -0.356 N 
ATOM      4  C   UNL A   1      32.028  28.530  24.365  1.00  0.00     0.227 C 
ATOM      5  O   UNL A   1      32.817  27.989  23.590  1.00  0.00    -0.274 OA
ATOM      6  H   UNL A   1      33.050  30.246  24.297  1.00  0.00     0.163 HD
BRANCH   4   7
ATOM      7  C   UNL A   1      30.763  27.849  24.907  1.00  0.00     0.103 C 
ATOM      8  C   UNL A   1      30.608  25.401  25.178  1.00  0.00     0.104 C 
ATOM      9  C   UNL A   1      29.858  25.862  23.982  1.00  0.00    -0.006 C 
ATOM     10  C   UNL A   1      31.081  26.685  25.868  1.00  0.00     0.046 C 
ATOM     11  C   UNL A   1      29.932  27.189  23.835  1.00  0.00    -0.016 C 
BRANCH   8  12
ATOM     12  N   UNL A   1      31.664  24.468  24.852  1.00  0.00    -0.363 N 
ATOM     13  H   UNL A   1      31.802  24.271  23.896  1.00  0.00     0.162 HD
BRANCH  12  14
ATOM     14  C   UNL A   1      32.499  23.824  25.749  1.00  0.00     0.136 A 
ATOM     15  C   UNL A   1      34.636  23.209  26.496  1.00  0.00     0.221 A 
ATOM     16  N   UNL A   1      34.149  22.561  27.561  1.00  0.00    -0.201 NA
ATOM     17  C   UNL A   1      33.870  23.829  25.524  1.00  0.00     0.054 A 
ATOM     18  C   UNL A   1      32.818  22.562  27.639  1.00  0.00     0.228 A 
ATOM     19  C   UNL A   1      34.487  24.504  24.341  1.00  0.00     0.054 C 
ATOM     20  N   UNL A   1      31.974  23.190  26.806  1.00  0.00    -0.219 NA
BRANCH  15  21
ATOM     21  O   UNL A   1      36.001  23.171  26.339  1.00  0.00    -0.478 OA
BRANCH  21  22
ATOM     22  C   UNL A   1      36.405  21.959  25.696  1.00  0.00     0.228 C 
ATOM     23  C   UNL A   1      37.353  22.317  24.562  1.00  0.00     0.049 C 
ENDBRANCH  21  22
ENDBRANCH  15  21
ENDBRANCH  12  14
ENDBRANCH   8  12
ENDBRANCH   4   7
ENDBRANCH   2   3
ENDBRANCH   1   2
BRANCH   1  24
ATOM     24  C   UNL A   1      33.707  29.335  27.318  1.00  0.00     0.023 C 
BRANCH  24  25
ATOM     25  C   UNL A   1      35.137  29.549  27.800  1.00  0.00     0.116 C 
BRANCH  25  26
ATOM     26  N   UNL A   1      35.207  30.350  29.013  1.00  0.00    -0.352 N 
ATOM     27  C   UNL A   1      36.262  30.515  29.877  1.00  0.00     0.251 C 
ATOM     28  H   UNL A   1      34.384  30.839  29.247  1.00  0.00     0.163 HD
ATOM     29  O   UNL A   1      36.101  31.109  30.939  1.00  0.00    -0.269 OA
BRANCH  27  30
ATOM     30  C   UNL A   1      37.580  29.944  29.531  1.00  0.00     0.039 A 
ATOM     31  C   UNL A   1      37.983  29.929  28.194  1.00  0.00     0.014 A 
ATOM     32  C   UNL A   1      38.426  29.454  30.530  1.00  0.00     0.014 A 
ATOM     33  C   UNL A   1      39.266  29.486  27.866  1.00  0.00     0.010 A 
ATOM     34  C   UNL A   1      39.727  29.079  30.209  1.00  0.00     0.010 A 
ATOM     35  C   UNL A   1      40.161  29.093  28.874  1.00  0.00    -0.014 A 
BRANCH  35  36
ATOM     36  C   UNL A   1      41.558  28.702  28.559  1.00  0.00     0.031 A 
ATOM     37  C   UNL A   1      42.642  29.743  28.518  1.00  0.00     0.074 A 
ATOM     38  C   UNL A   1      41.836  27.424  28.231  1.00  0.00     0.049 A 
ATOM     39  N   UNL A   1      43.897  29.618  28.170  1.00  0.00    -0.248 NA
ATOM     40  C   UNL A   1      42.255  31.114  28.887  1.00  0.00     0.031 C 
ATOM     41  C   UNL A   1      40.860  26.333  28.180  1.00  0.00     0.029 A 
ATOM     42  N   UNL A   1      43.016  26.832  27.857  1.00  0.00    -0.354 N 
ATOM     43  C   UNL A   1      44.445  30.891  28.264  1.00  0.00     0.074 A 
ATOM     44  C   UNL A   1      43.372  31.784  28.648  1.00  0.00     0.031 C 
ATOM     45  C   UNL A   1      41.483  25.203  27.809  1.00  0.00     0.029 A 
ATOM     46  C   UNL A   1      42.891  25.494  27.559  1.00  0.00     0.049 A 
ATOM     47  H   UNL A   1      43.870  27.318  27.806  1.00  0.00     0.167 HD
ATOM     48  C   UNL A   1      45.729  31.279  28.073  1.00  0.00     0.037 A 
ATOM     49  C   UNL A   1      43.805  24.606  27.125  1.00  0.00     0.037 A 
ATOM     50  C   UNL A   1      46.795  30.382  27.708  1.00  0.00     0.049 A 
ATOM     51  C   UNL A   1      45.227  25.052  26.927  1.00  0.00     0.074 A 
ATOM     52  C   UNL A   1      48.139  30.666  27.536  1.00  0.00     0.029 A 
ATOM     53  N   UNL A   1      46.638  29.026  27.455  1.00  0.00    -0.354 N 
ATOM     54  N   UNL A   1      45.743  26.250  27.079  1.00  0.00    -0.248 NA
ATOM     55  C   UNL A   1      46.195  24.029  26.509  1.00  0.00     0.031 C 
ATOM     56  C   UNL A   1      48.787  29.488  27.145  1.00  0.00     0.029 A 
ATOM     57  C   UNL A   1      47.856  28.462  27.116  1.00  0.00     0.049 A 
ATOM     58  H   UNL A   1      45.784  28.537  27.508  1.00  0.00     0.167 HD
ATOM     59  C   UNL A   1      47.099  26.120  26.797  1.00  0.00     0.074 A 
ATOM     60  C   UNL A   1      47.325  24.725  26.477  1.00  0.00     0.031 C 
ATOM     61  C   UNL A   1      48.066  27.070  26.804  1.00  0.00     0.037 A 
BRANCH  48  62
ATOM     62  C   UNL A   1      46.044  32.737  28.260  1.00  0.00     0.058 A 
ATOM     63  C   UNL A   1      45.949  33.652  27.197  1.00  0.00     0.135 A 
ATOM     64  C   UNL A   1      46.445  33.230  29.511  1.00  0.00     0.135 A 
ATOM     65  F   UNL A   1      45.583  33.233  25.975  1.00  0.00    -0.206 F 
ATOM     66  C   UNL A   1      46.285  34.992  27.358  1.00  0.00     0.059 A 
ATOM     67  C   UNL A   1      46.758  34.574  29.702  1.00  0.00     0.059 A 
ATOM     68  F   UNL A   1      46.550  32.402  30.562  1.00  0.00    -0.206 F 
ATOM     69  C   UNL A   1      46.696  35.442  28.612  1.00  0.00     0.060 A 
BRANCH  69  70
ATOM     70  S   UNL A   1      47.153  37.179  28.799  1.00  0.00     0.124 S 
ATOM     71  O   UNL A   1      47.492  37.238  30.218  1.00  0.00    -0.237 OA
ATOM     72  O   UNL A   1      48.275  37.310  27.875  1.00  0.00    -0.237 OA
ATOM     73  O   UNL A   1      45.941  37.893  28.413  1.00  0.00    -0.744 OA
ENDBRANCH  69  70
ENDBRANCH  48  62
BRANCH  49  74
ATOM     74  C   UNL A   1      43.400  23.198  26.872  1.00  0.00     0.058 A 
ATOM     75  C   UNL A   1      43.326  22.692  25.567  1.00  0.00     0.135 A 
ATOM     76  C   UNL A   1      43.120  22.320  27.931  1.00  0.00     0.135 A 
ATOM     77  F   UNL A   1      43.577  23.495  24.522  1.00  0.00    -0.206 F 
ATOM     78  C   UNL A   1      42.983  21.367  25.317  1.00  0.00     0.059 A 
ATOM     79  C   UNL A   1      42.799  20.985  27.708  1.00  0.00     0.059 A 
ATOM     80  F   UNL A   1      43.196  22.751  29.200  1.00  0.00    -0.206 F 
ATOM     81  C   UNL A   1      42.727  20.519  26.396  1.00  0.00     0.060 A 
BRANCH  81  82
ATOM     82  S   UNL A   1      42.354  18.783  26.063  1.00  0.00     0.124 S 
ATOM     83  O   UNL A   1      42.633  18.168  27.354  1.00  0.00    -0.237 OA
ATOM     84  O   UNL A   1      40.948  18.842  25.672  1.00  0.00    -0.237 OA
ATOM     85  O   UNL A   1      43.280  18.442  24.987  1.00  0.00    -0.744 OA
ENDBRANCH  81  82
ENDBRANCH  49  74
BRANCH  61  86
ATOM     86  C   UNL A   1      49.469  26.630  26.487  1.00  0.00     0.058 A 
ATOM     87  C   UNL A   1      50.280  26.000  27.444  1.00  0.00     0.135 A 
ATOM     88  C   UNL A   1      49.988  26.792  25.192  1.00  0.00     0.135 A 
ATOM     89  F   UNL A   1      49.835  25.828  28.698  1.00  0.00    -0.206 F 
ATOM     90  C   UNL A   1      51.563  25.563  27.132  1.00  0.00     0.059 A 
ATOM     91  C   UNL A   1      51.258  26.340  24.851  1.00  0.00     0.059 A 
ATOM     92  F   UNL A   1      49.249  27.381  24.236  1.00  0.00    -0.206 F 
ATOM     93  C   UNL A   1      52.043  25.736  25.832  1.00  0.00     0.060 A 
BRANCH  93  94
ATOM     94  S   UNL A   1      53.695  25.129  25.430  1.00  0.00     0.124 S 
ATOM     95  O   UNL A   1      54.498  25.737  26.486  1.00  0.00    -0.237 OA
ATOM     96  O   UNL A   1      53.528  23.681  25.516  1.00  0.00    -0.237 OA
ATOM     97  O   UNL A   1      53.929  25.647  24.085  1.00  0.00    -0.744 OA
ENDBRANCH  93  94
ENDBRANCH  61  86
ENDBRANCH  35  36
ENDBRANCH  27  30
ENDBRANCH  25  26
ENDBRANCH  24  25
ENDBRANCH   1  24
TORSDOF 18
ENDMDL
MODEL 3
REMARK VINA RESULT:     -10.9      5.127     10.059
REMARK SMILES CCOc1ncnc(N[C@@H]2C=C[C@H](C(=O)NCCCCNC(=O)c3ccc(-c4c5nc(c(-c6c(F)cc(S(=O)(=O)[O-])cc6F)c6ccc([nH]6)c(-c6c(F)cc(S(=O)(=O)[O-])cc6F)c6nc(c(-c7c(F)cc(S(=O)(=O)[O-])cc7F)c7ccc4[nH]7)C=C6)C=C5)cc3)C2)c1C
REMARK SMILES IDX 18 1 17 2 16 3 14 4 15 5 13 7 10 8 11 9 90 10 12 11 9 12
REMARK SMILES IDX 8 14 4 15 5 16 91 17 6 18 92 19 7 20 3 21 2 22 1 23 19 24
REMARK SMILES IDX 20 25 21 26 22 27 23 29 24 30 25 31 89 32 26 33 88 34 27 35
REMARK SMILES IDX 28 36 29 37 82 38 30 39 87 40 81 41 83 42 31 43 86 44 80 45
REMARK SMILES IDX 79 46 32 48 66 49 45 50 65 51 46 52 49 53 64 54 84 55 47 56
REMARK SMILES IDX 48 57 63 59 85 60 50 61 33 62 34 63 43 64 35 65 36 66 42 67
REMARK SMILES IDX 44 68 37 69 38 70 39 71 40 72 41 73 67 74 68 75 77 76 69 77
REMARK SMILES IDX 70 78 76 79 78 80 71 81 72 82 73 83 74 84 75 85 51 86 52 87
REMARK SMILES IDX 61 88 53 89 54 90 60 91 62 92 55 93 56 94 57 95 58 96 59 97
REMARK H PARENT 16 6 9 13 21 28 83 47 49 58
REMARK Flexibility Score: inf
ROOT
ATOM      1  C   UNL A   1      40.405  22.181  27.574  1.00  0.00     0.023 C 
ENDROOT
BRANCH   1   2
ATOM      2  C   UNL A   1      39.411  22.734  26.555  1.00  0.00     0.116 C 
BRANCH   2   3
ATOM      3  N   UNL A   1      38.528  21.691  26.077  1.00  0.00    -0.356 N 
ATOM      4  C   UNL A   1      37.383  21.806  25.342  1.00  0.00     0.227 C 
ATOM      5  O   UNL A   1      36.624  20.836  25.338  1.00  0.00    -0.274 OA
ATOM      6  H   UNL A   1      38.790  20.772  26.314  1.00  0.00     0.163 HD
BRANCH   4   7
ATOM      7  C   UNL A   1      37.062  23.142  24.657  1.00  0.00     0.103 C 
ATOM      8  C   UNL A   1      34.751  23.981  24.441  1.00  0.00     0.104 C 
ATOM      9  C   UNL A   1      35.251  23.432  23.155  1.00  0.00    -0.006 C 
ATOM     10  C   UNL A   1      35.957  23.933  25.386  1.00  0.00     0.046 C 
ATOM     11  C   UNL A   1      36.505  22.983  23.265  1.00  0.00    -0.016 C 
BRANCH   8  12
ATOM     12  N   UNL A   1      33.577  23.292  24.926  1.00  0.00    -0.363 N 
ATOM     13  H   UNL A   1      33.062  23.738  25.637  1.00  0.00     0.162 HD
BRANCH  12  14
ATOM     14  C   UNL A   1      33.103  22.066  24.489  1.00  0.00     0.136 A 
ATOM     15  C   UNL A   1      32.587  19.807  24.858  1.00  0.00     0.221 A 
ATOM     16  N   UNL A   1      32.131  19.640  23.611  1.00  0.00    -0.201 NA
ATOM     17  C   UNL A   1      33.126  20.981  25.357  1.00  0.00     0.054 A 
ATOM     18  C   UNL A   1      32.221  20.728  22.846  1.00  0.00     0.228 A 
ATOM     19  C   UNL A   1      33.648  21.082  26.754  1.00  0.00     0.054 C 
ATOM     20  N   UNL A   1      32.651  21.938  23.234  1.00  0.00    -0.219 NA
BRANCH  15  21
ATOM     21  O   UNL A   1      32.579  18.690  25.659  1.00  0.00    -0.478 OA
BRANCH  21  22
ATOM     22  C   UNL A   1      32.491  17.501  24.869  1.00  0.00     0.228 C 
ATOM     23  C   UNL A   1      32.751  16.309  25.778  1.00  0.00     0.049 C 
ENDBRANCH  21  22
ENDBRANCH  15  21
ENDBRANCH  12  14
ENDBRANCH   8  12
ENDBRANCH   4   7
ENDBRANCH   2   3
ENDBRANCH   1   2
BRANCH   1  24
ATOM     24  C   UNL A   1      41.844  22.071  27.065  1.00  0.00     0.023 C 
BRANCH  24  25
ATOM     25  C   UNL A   1      42.644  23.369  27.101  1.00  0.00     0.116 C 
BRANCH  25  26
ATOM     26  N   UNL A   1      42.344  24.245  25.978  1.00  0.00    -0.352 N 
ATOM     27  C   UNL A   1      41.861  25.531  25.995  1.00  0.00     0.251 C 
ATOM     28  H   UNL A   1      42.508  23.863  25.085  1.00  0.00     0.163 HD
ATOM     29  O   UNL A   1      41.520  26.074  24.948  1.00  0.00    -0.269 OA
BRANCH  27  30
ATOM     30  C   UNL A   1      41.727  26.240  27.284  1.00  0.00     0.039 A 
ATOM     31  C   UNL A   1      42.678  27.201  27.632  1.00  0.00     0.014 A 
ATOM     32  C   UNL A   1      40.646  25.976  28.130  1.00  0.00     0.014 A 
ATOM     33  C   UNL A   1      42.507  27.949  28.799  1.00  0.00     0.010 A 
ATOM     34  C   UNL A   1      40.440  26.770  29.254  1.00  0.00     0.010 A 
ATOM     35  C   UNL A   1      41.367  27.766  29.599  1.00  0.00    -0.014 A 
BRANCH  35  36
ATOM     36  C   UNL A   1      41.118  28.608  30.796  1.00  0.00     0.031 A 
ATOM     37  C   UNL A   1      40.024  29.640  30.777  1.00  0.00     0.074 A 
ATOM     38  C   UNL A   1      41.928  28.501  31.868  1.00  0.00     0.049 A 
ATOM     39  N   UNL A   1      39.715  30.535  31.681  1.00  0.00    -0.248 NA
ATOM     40  C   UNL A   1      39.188  29.694  29.568  1.00  0.00     0.031 C 
ATOM     41  C   UNL A   1      43.058  27.577  31.985  1.00  0.00     0.029 A 
ATOM     42  N   UNL A   1      41.938  29.190  33.055  1.00  0.00    -0.354 N 
ATOM     43  C   UNL A   1      38.661  31.265  31.146  1.00  0.00     0.074 A 
ATOM     44  C   UNL A   1      38.422  30.745  29.816  1.00  0.00     0.031 C 
ATOM     45  C   UNL A   1      43.644  27.748  33.182  1.00  0.00     0.029 A 
ATOM     46  C   UNL A   1      42.957  28.816  33.901  1.00  0.00     0.049 A 
ATOM     47  H   UNL A   1      41.279  29.885  33.280  1.00  0.00     0.167 HD
ATOM     48  C   UNL A   1      37.942  32.260  31.718  1.00  0.00     0.037 A 
ATOM     49  C   UNL A   1      43.305  29.288  35.113  1.00  0.00     0.037 A 
ATOM     50  C   UNL A   1      38.174  32.760  33.048  1.00  0.00     0.049 A 
ATOM     51  C   UNL A   1      42.489  30.387  35.736  1.00  0.00     0.074 A 
ATOM     52  C   UNL A   1      37.472  33.733  33.738  1.00  0.00     0.029 A 
ATOM     53  N   UNL A   1      39.190  32.328  33.890  1.00  0.00    -0.354 N 
ATOM     54  N   UNL A   1      41.456  31.027  35.240  1.00  0.00    -0.248 NA
ATOM     55  C   UNL A   1      42.877  30.823  37.084  1.00  0.00     0.031 C 
ATOM     56  C   UNL A   1      38.086  33.914  34.983  1.00  0.00     0.029 A 
ATOM     57  C   UNL A   1      39.142  33.023  35.087  1.00  0.00     0.049 A 
ATOM     58  H   UNL A   1      39.849  31.630  33.668  1.00  0.00     0.167 HD
ATOM     59  C   UNL A   1      41.056  31.925  36.224  1.00  0.00     0.074 A 
ATOM     60  C   UNL A   1      41.952  31.737  37.347  1.00  0.00     0.031 C 
ATOM     61  C   UNL A   1      40.039  32.821  36.198  1.00  0.00     0.037 A 
BRANCH  48  62
ATOM     62  C   UNL A   1      36.834  32.867  30.901  1.00  0.00     0.058 A 
ATOM     63  C   UNL A   1      37.083  33.887  29.968  1.00  0.00     0.135 A 
ATOM     64  C   UNL A   1      35.509  32.428  31.051  1.00  0.00     0.135 A 
ATOM     65  F   UNL A   1      38.329  34.354  29.794  1.00  0.00    -0.206 F 
ATOM     66  C   UNL A   1      36.053  34.481  29.246  1.00  0.00     0.059 A 
ATOM     67  C   UNL A   1      34.466  32.988  30.317  1.00  0.00     0.059 A 
ATOM     68  F   UNL A   1      35.213  31.454  31.926  1.00  0.00    -0.206 F 
ATOM     69  C   UNL A   1      34.746  34.030  29.433  1.00  0.00     0.060 A 
BRANCH  69  70
ATOM     70  S   UNL A   1      33.417  34.828  28.508  1.00  0.00     0.124 S 
ATOM     71  O   UNL A   1      34.167  35.748  27.660  1.00  0.00    -0.237 OA
ATOM     72  O   UNL A   1      32.792  33.701  27.822  1.00  0.00    -0.237 OA
ATOM     73  O   UNL A   1      32.606  35.452  29.549  1.00  0.00    -0.744 OA
ENDBRANCH  69  70
ENDBRANCH  48  62
BRANCH  49  74
ATOM     74  C   UNL A   1      44.472  28.700  35.823  1.00  0.00     0.058 A 
ATOM     75  C   UNL A   1      45.762  29.215  35.639  1.00  0.00     0.135 A 
ATOM     76  C   UNL A   1      44.313  27.641  36.731  1.00  0.00     0.135 A 
ATOM     77  F   UNL A   1      45.965  30.223  34.777  1.00  0.00    -0.206 F 
ATOM     78  C   UNL A   1      46.858  28.699  36.325  1.00  0.00     0.059 A 
ATOM     79  C   UNL A   1      45.388  27.123  37.446  1.00  0.00     0.059 A 
ATOM     80  F   UNL A   1      43.094  27.125  36.956  1.00  0.00    -0.206 F 
ATOM     81  C   UNL A   1      46.659  27.656  37.231  1.00  0.00     0.060 A 
BRANCH  81  82
ATOM     82  S   UNL A   1      48.076  27.042  38.168  1.00  0.00     0.124 S 
ATOM     83  O   UNL A   1      47.461  26.006  38.988  1.00  0.00    -0.237 OA
ATOM     84  O   UNL A   1      48.965  26.576  37.109  1.00  0.00    -0.237 OA
ATOM     85  O   UNL A   1      48.539  28.225  38.888  1.00  0.00    -0.744 OA
ENDBRANCH  81  82
ENDBRANCH  49  74
BRANCH  61  86
ATOM     86  C   UNL A   1      39.816  33.650  37.433  1.00  0.00     0.058 A 
ATOM     87  C   UNL A   1      40.491  34.863  37.640  1.00  0.00     0.135 A 
ATOM     88  C   UNL A   1      38.874  33.251  38.395  1.00  0.00     0.135 A 
ATOM     89  F   UNL A   1      41.407  35.287  36.754  1.00  0.00    -0.206 F 
ATOM     90  C   UNL A   1      40.252  35.643  38.766  1.00  0.00     0.059 A 
ATOM     91  C   UNL A   1      38.602  34.027  39.516  1.00  0.00     0.059 A 
ATOM     92  F   UNL A   1      38.195  32.103  38.240  1.00  0.00    -0.206 F 
ATOM     93  C   UNL A   1      39.304  35.217  39.699  1.00  0.00     0.060 A 
BRANCH  93  94
ATOM     94  S   UNL A   1      38.975  36.257  41.138  1.00  0.00     0.124 S 
ATOM     95  O   UNL A   1      40.255  36.207  41.837  1.00  0.00    -0.237 OA
ATOM     96  O   UNL A   1      38.637  37.540  40.528  1.00  0.00    -0.237 OA
ATOM     97  O   UNL A   1      37.868  35.576  41.803  1.00  0.00    -0.744 OA
ENDBRANCH  93  94
ENDBRANCH  61  86
ENDBRANCH  35  36
ENDBRANCH  27  30
ENDBRANCH  25  26
ENDBRANCH  24  25
ENDBRANCH   1  24
TORSDOF 18
ENDMDL
