MODEL 1
REMARK VINA RESULT:     -11.7      0.000      0.000
REMARK SMILES NC(=O)COc1ccc(/C=C2\SC(=S)N(CCC(=O)NCCCCNC(=O)c3ccc(-c4c5nc(c(-c6c(F)cc(S(=O)(=O)[O-])cc6F)c6ccc([nH]6)c(-c6c(F)cc(S(=O)(=O)[O-])cc6F)c6nc(c(-c7c(F)cc(S(=O)(=O)[O-])cc7F)c7ccc4[nH]7)C=C6)C=C5)cc3)C2=O)cc1
REMARK SMILES IDX 21 1 20 2 18 3 19 4 17 6 16 7 15 8 10 9 11 10 12 11 94 12
REMARK SMILES IDX 13 13 95 14 14 15 9 16 6 17 7 18 97 19 8 20 96 21 5 22 4 23
REMARK SMILES IDX 2 24 1 25 3 28 22 29 23 30 24 31 25 32 26 33 27 35 28 36
REMARK SMILES IDX 29 37 93 38 30 39 92 40 31 41 32 42 33 43 86 44 34 45 91 46
REMARK SMILES IDX 85 47 87 48 35 49 90 50 84 51 83 52 36 54 70 55 49 56 69 57
REMARK SMILES IDX 50 58 53 59 68 60 88 61 51 62 52 63 67 65 89 66 54 67 37 68
REMARK SMILES IDX 38 69 47 70 39 71 40 72 46 73 48 74 41 75 42 76 43 77 44 78
REMARK SMILES IDX 45 79 71 80 72 81 81 82 73 83 74 84 80 85 82 86 75 87 76 88
REMARK SMILES IDX 77 89 78 90 79 91 55 92 56 93 65 94 57 95 58 96 64 97 66 98
REMARK SMILES IDX 59 99 60 100 61 101 62 102 63 103
REMARK H PARENT 20 5 1 26 1 27 25 34 87 53 53 64
REMARK Flexibility Score: inf
ROOT
ATOM      1  C   UNL A   1      32.084  29.576  26.352  1.00  0.00     0.116 C 
ENDROOT
BRANCH   1   2
ATOM      2  N   UNL A   1      31.157  29.803  25.262  1.00  0.00    -0.356 N 
ATOM      3  C   UNL A   1      31.244  29.414  23.959  1.00  0.00     0.221 C 
ATOM      4  O   UNL A   1      30.435  29.865  23.149  1.00  0.00    -0.275 OA
ATOM      5  H   UNL A   1      30.347  30.312  25.497  1.00  0.00     0.163 HD
BRANCH   3   6
ATOM      6  C   UNL A   1      32.283  28.400  23.531  1.00  0.00     0.122 C 
BRANCH   6   7
ATOM      7  C   UNL A   1      31.831  27.522  22.358  1.00  0.00     0.137 C 
BRANCH   7   8
ATOM      8  N   UNL A   1      31.642  26.103  22.700  1.00  0.00    -0.292 N 
ATOM      9  C   UNL A   1      33.252  22.903  22.993  1.00  0.00     0.029 C 
ATOM     10  C   UNL A   1      32.310  23.852  22.913  1.00  0.00     0.081 C 
ATOM     11  S   UNL A   1      30.747  23.859  23.620  1.00  0.00    -0.054 SA
ATOM     12  C   UNL A   1      32.598  25.180  22.305  1.00  0.00     0.266 C 
ATOM     13  C   UNL A   1      30.535  25.586  23.346  1.00  0.00     0.148 C 
ATOM     14  O   UNL A   1      33.579  25.406  21.610  1.00  0.00    -0.268 OA
ATOM     15  S   UNL A   1      29.161  26.391  23.846  1.00  0.00    -0.052 S 
BRANCH   9  16
ATOM     16  C   UNL A   1      33.134  21.648  23.737  1.00  0.00    -0.024 A 
ATOM     17  C   UNL A   1      32.862  19.253  25.175  1.00  0.00     0.120 A 
ATOM     18  C   UNL A   1      32.408  19.339  23.865  1.00  0.00     0.047 A 
ATOM     19  C   UNL A   1      33.492  20.355  25.754  1.00  0.00     0.047 A 
ATOM     20  C   UNL A   1      32.516  20.537  23.157  1.00  0.00     0.012 A 
ATOM     21  C   UNL A   1      33.632  21.547  25.036  1.00  0.00     0.012 A 
BRANCH  17  22
ATOM     22  O   UNL A   1      32.715  18.033  25.775  1.00  0.00    -0.484 OA
BRANCH  22  23
ATOM     23  C   UNL A   1      32.273  16.988  24.909  1.00  0.00     0.329 C 
BRANCH  23  24
ATOM     24  C   UNL A   1      32.922  15.637  25.202  1.00  0.00     0.255 C 
ATOM     25  N   UNL A   1      32.051  14.633  25.517  1.00  0.00    -0.367 N 
ATOM     26  H   UNL A   1      32.391  13.731  25.719  1.00  0.00     0.159 HD
ATOM     27  H   UNL A   1      31.082  14.810  25.541  1.00  0.00     0.159 HD
ATOM     28  O   UNL A   1      34.132  15.441  25.179  1.00  0.00    -0.271 OA
ENDBRANCH  23  24
ENDBRANCH  22  23
ENDBRANCH  17  22
ENDBRANCH   9  16
ENDBRANCH   7   8
ENDBRANCH   6   7
ENDBRANCH   3   6
ENDBRANCH   1   2
BRANCH   1  29
ATOM     29  C   UNL A   1      32.554  30.907  26.920  1.00  0.00     0.023 C 
BRANCH  29  30
ATOM     30  C   UNL A   1      33.866  30.859  27.683  1.00  0.00     0.023 C 
BRANCH  30  31
ATOM     31  C   UNL A   1      34.350  32.212  28.170  1.00  0.00     0.116 C 
BRANCH  31  32
ATOM     32  N   UNL A   1      34.016  32.493  29.564  1.00  0.00    -0.352 N 
ATOM     33  C   UNL A   1      34.750  32.301  30.713  1.00  0.00     0.251 C 
ATOM     34  H   UNL A   1      33.123  32.885  29.704  1.00  0.00     0.163 HD
ATOM     35  O   UNL A   1      34.245  32.530  31.809  1.00  0.00    -0.269 OA
BRANCH  33  36
ATOM     36  C   UNL A   1      36.121  31.767  30.620  1.00  0.00     0.039 A 
ATOM     37  C   UNL A   1      36.565  30.805  31.535  1.00  0.00     0.014 A 
ATOM     38  C   UNL A   1      36.957  32.203  29.595  1.00  0.00     0.014 A 
ATOM     39  C   UNL A   1      37.811  30.205  31.359  1.00  0.00     0.010 A 
ATOM     40  C   UNL A   1      38.138  31.530  29.351  1.00  0.00     0.010 A 
ATOM     41  C   UNL A   1      38.588  30.550  30.249  1.00  0.00    -0.014 A 
BRANCH  41  42
ATOM     42  C   UNL A   1      39.981  30.095  30.080  1.00  0.00     0.031 A 
ATOM     43  C   UNL A   1      41.046  31.141  30.241  1.00  0.00     0.074 A 
ATOM     44  C   UNL A   1      40.266  28.848  29.670  1.00  0.00     0.049 A 
ATOM     45  N   UNL A   1      42.276  31.147  29.814  1.00  0.00    -0.248 NA
ATOM     46  C   UNL A   1      40.630  32.389  30.910  1.00  0.00     0.031 C 
ATOM     47  C   UNL A   1      39.301  27.762  29.499  1.00  0.00     0.029 A 
ATOM     48  N   UNL A   1      41.462  28.297  29.289  1.00  0.00    -0.354 N 
ATOM     49  C   UNL A   1      42.756  32.419  30.101  1.00  0.00     0.074 A 
ATOM     50  C   UNL A   1      41.673  33.170  30.690  1.00  0.00     0.031 C 
ATOM     51  C   UNL A   1      39.945  26.672  29.046  1.00  0.00     0.029 A 
ATOM     52  C   UNL A   1      41.353  27.003  28.839  1.00  0.00     0.049 A 
ATOM     53  H   UNL A   1      42.317  28.783  29.333  1.00  0.00     0.167 HD
ATOM     54  C   UNL A   1      44.001  32.906  29.898  1.00  0.00     0.037 A 
ATOM     55  C   UNL A   1      42.289  26.200  28.296  1.00  0.00     0.037 A 
ATOM     56  C   UNL A   1      45.071  32.107  29.373  1.00  0.00     0.049 A 
ATOM     57  C   UNL A   1      43.683  26.751  28.115  1.00  0.00     0.074 A 
ATOM     58  C   UNL A   1      46.389  32.459  29.158  1.00  0.00     0.029 A 
ATOM     59  N   UNL A   1      44.941  30.774  29.005  1.00  0.00    -0.354 N 
ATOM     60  N   UNL A   1      44.133  27.957  28.374  1.00  0.00    -0.248 NA
ATOM     61  C   UNL A   1      44.694  25.838  27.567  1.00  0.00     0.031 C 
ATOM     62  C   UNL A   1      47.052  31.344  28.638  1.00  0.00     0.029 A 
ATOM     63  C   UNL A   1      46.158  30.285  28.570  1.00  0.00     0.049 A 
ATOM     64  H   UNL A   1      44.106  30.255  29.046  1.00  0.00     0.167 HD
ATOM     65  C   UNL A   1      45.487  27.938  28.057  1.00  0.00     0.074 A 
ATOM     66  C   UNL A   1      45.781  26.598  27.587  1.00  0.00     0.031 C 
ATOM     67  C   UNL A   1      46.407  28.929  28.147  1.00  0.00     0.037 A 
BRANCH  54  68
ATOM     68  C   UNL A   1      44.247  34.348  30.246  1.00  0.00     0.058 A 
ATOM     69  C   UNL A   1      44.816  34.728  31.472  1.00  0.00     0.135 A 
ATOM     70  C   UNL A   1      43.886  35.365  29.349  1.00  0.00     0.135 A 
ATOM     71  F   UNL A   1      45.153  33.798  32.379  1.00  0.00    -0.206 F 
ATOM     72  C   UNL A   1      44.980  36.066  31.815  1.00  0.00     0.059 A 
ATOM     73  C   UNL A   1      44.072  36.710  29.657  1.00  0.00     0.059 A 
ATOM     74  F   UNL A   1      43.328  35.061  28.167  1.00  0.00    -0.206 F 
ATOM     75  C   UNL A   1      44.602  37.050  30.900  1.00  0.00     0.060 A 
BRANCH  75  76
ATOM     76  S   UNL A   1      44.817  38.782  31.361  1.00  0.00     0.124 S 
ATOM     77  O   UNL A   1      43.770  39.424  30.574  1.00  0.00    -0.237 OA
ATOM     78  O   UNL A   1      44.596  38.750  32.804  1.00  0.00    -0.237 OA
ATOM     79  O   UNL A   1      46.185  39.077  30.946  1.00  0.00    -0.744 OA
ENDBRANCH  75  76
ENDBRANCH  54  68
BRANCH  55  80
ATOM     80  C   UNL A   1      41.952  24.805  27.902  1.00  0.00     0.058 A 
ATOM     81  C   UNL A   1      41.231  24.548  26.726  1.00  0.00     0.135 A 
ATOM     82  C   UNL A   1      42.346  23.703  28.678  1.00  0.00     0.135 A 
ATOM     83  F   UNL A   1      40.828  25.566  25.952  1.00  0.00    -0.206 F 
ATOM     84  C   UNL A   1      40.897  23.253  26.342  1.00  0.00     0.059 A 
ATOM     85  C   UNL A   1      42.044  22.397  28.302  1.00  0.00     0.059 A 
ATOM     86  F   UNL A   1      43.051  23.891  29.805  1.00  0.00    -0.206 F 
ATOM     87  C   UNL A   1      41.309  22.182  27.137  1.00  0.00     0.060 A 
BRANCH  87  88
ATOM     88  S   UNL A   1      40.900  20.504  26.607  1.00  0.00     0.124 S 
ATOM     89  O   UNL A   1      42.028  20.188  25.736  1.00  0.00    -0.237 OA
ATOM     90  O   UNL A   1      40.854  19.785  27.877  1.00  0.00    -0.237 OA
ATOM     91  O   UNL A   1      39.613  20.667  25.939  1.00  0.00    -0.744 OA
ENDBRANCH  87  88
ENDBRANCH  55  80
BRANCH  67  92
ATOM     92  C   UNL A   1      47.827  28.589  27.799  1.00  0.00     0.058 A 
ATOM     93  C   UNL A   1      48.285  28.594  26.475  1.00  0.00     0.135 A 
ATOM     94  C   UNL A   1      48.761  28.359  28.823  1.00  0.00     0.135 A 
ATOM     95  F   UNL A   1      47.429  28.806  25.464  1.00  0.00    -0.206 F 
ATOM     96  C   UNL A   1      49.624  28.373  26.174  1.00  0.00     0.059 A 
ATOM     97  C   UNL A   1      50.108  28.161  28.547  1.00  0.00     0.059 A 
ATOM     98  F   UNL A   1      48.370  28.358  30.107  1.00  0.00    -0.206 F 
ATOM     99  C   UNL A   1      50.529  28.166  27.218  1.00  0.00     0.060 A 
BRANCH  99 100
ATOM    100  S   UNL A   1      52.275  27.950  26.818  1.00  0.00     0.124 S 
ATOM    101  O   UNL A   1      52.422  26.501  26.920  1.00  0.00    -0.237 OA
ATOM    102  O   UNL A   1      52.358  28.503  25.470  1.00  0.00    -0.237 OA
ATOM    103  O   UNL A   1      52.958  28.725  27.849  1.00  0.00    -0.744 OA
ENDBRANCH  99 100
ENDBRANCH  67  92
ENDBRANCH  41  42
ENDBRANCH  33  36
ENDBRANCH  31  32
ENDBRANCH  30  31
ENDBRANCH  29  30
ENDBRANCH   1  29
TORSDOF 20
ENDMDL
MODEL 2
REMARK VINA RESULT:     -11.5      5.448      9.702
REMARK SMILES NC(=O)COc1ccc(/C=C2\SC(=S)N(CCC(=O)NCCCCNC(=O)c3ccc(-c4c5nc(c(-c6c(F)cc(S(=O)(=O)[O-])cc6F)c6ccc([nH]6)c(-c6c(F)cc(S(=O)(=O)[O-])cc6F)c6nc(c(-c7c(F)cc(S(=O)(=O)[O-])cc7F)c7ccc4[nH]7)C=C6)C=C5)cc3)C2=O)cc1
REMARK SMILES IDX 21 1 20 2 18 3 19 4 17 6 16 7 15 8 10 9 11 10 12 11 94 12
REMARK SMILES IDX 13 13 95 14 14 15 9 16 6 17 7 18 97 19 8 20 96 21 5 22 4 23
REMARK SMILES IDX 2 24 1 25 3 28 22 29 23 30 24 31 25 32 26 33 27 35 28 36
REMARK SMILES IDX 29 37 93 38 30 39 92 40 31 41 32 42 33 43 86 44 34 45 91 46
REMARK SMILES IDX 85 47 87 48 35 49 90 50 84 51 83 52 36 54 70 55 49 56 69 57
REMARK SMILES IDX 50 58 53 59 68 60 88 61 51 62 52 63 67 65 89 66 54 67 37 68
REMARK SMILES IDX 38 69 47 70 39 71 40 72 46 73 48 74 41 75 42 76 43 77 44 78
REMARK SMILES IDX 45 79 71 80 72 81 81 82 73 83 74 84 80 85 82 86 75 87 76 88
REMARK SMILES IDX 77 89 78 90 79 91 55 92 56 93 65 94 57 95 58 96 64 97 66 98
REMARK SMILES IDX 59 99 60 100 61 101 62 102 63 103
REMARK H PARENT 20 5 1 26 1 27 25 34 87 53 53 64
REMARK Flexibility Score: inf
ROOT
ATOM      1  C   UNL A   1      31.465  29.196  25.323  1.00  0.00     0.116 C 
ENDROOT
BRANCH   1   2
ATOM      2  N   UNL A   1      31.705  28.836  23.940  1.00  0.00    -0.356 N 
ATOM      3  C   UNL A   1      31.555  27.631  23.323  1.00  0.00     0.221 C 
ATOM      4  O   UNL A   1      31.988  27.491  22.179  1.00  0.00    -0.275 OA
ATOM      5  H   UNL A   1      32.023  29.568  23.363  1.00  0.00     0.163 HD
BRANCH   3   6
ATOM      6  C   UNL A   1      30.818  26.504  24.013  1.00  0.00     0.122 C 
BRANCH   6   7
ATOM      7  C   UNL A   1      31.009  25.143  23.333  1.00  0.00     0.137 C 
BRANCH   7   8
ATOM      8  N   UNL A   1      32.084  24.321  23.910  1.00  0.00    -0.292 N 
ATOM      9  C   UNL A   1      35.554  23.416  23.668  1.00  0.00     0.029 C 
ATOM     10  C   UNL A   1      34.259  23.414  24.009  1.00  0.00     0.081 C 
ATOM     11  S   UNL A   1      33.546  22.865  25.469  1.00  0.00    -0.054 SA
ATOM     12  C   UNL A   1      33.237  24.101  23.172  1.00  0.00     0.266 C 
ATOM     13  C   UNL A   1      32.020  23.680  25.133  1.00  0.00     0.148 C 
ATOM     14  O   UNL A   1      33.438  24.461  22.020  1.00  0.00    -0.268 OA
ATOM     15  S   UNL A   1      30.745  23.635  26.210  1.00  0.00    -0.052 S 
BRANCH   9  16
ATOM     16  C   UNL A   1      36.656  22.945  24.509  1.00  0.00    -0.024 A 
ATOM     17  C   UNL A   1      38.800  22.063  26.091  1.00  0.00     0.120 A 
ATOM     18  C   UNL A   1      38.322  23.361  26.220  1.00  0.00     0.047 A 
ATOM     19  C   UNL A   1      38.177  21.190  25.198  1.00  0.00     0.047 A 
ATOM     20  C   UNL A   1      37.275  23.811  25.414  1.00  0.00     0.012 A 
ATOM     21  C   UNL A   1      37.105  21.628  24.414  1.00  0.00     0.012 A 
BRANCH  17  22
ATOM     22  O   UNL A   1      39.823  21.722  26.932  1.00  0.00    -0.484 OA
BRANCH  22  23
ATOM     23  C   UNL A   1      40.946  21.115  26.294  1.00  0.00     0.329 C 
BRANCH  23  24
ATOM     24  C   UNL A   1      41.982  20.568  27.274  1.00  0.00     0.255 C 
ATOM     25  N   UNL A   1      42.960  21.451  27.634  1.00  0.00    -0.367 N 
ATOM     26  H   UNL A   1      43.666  21.175  28.262  1.00  0.00     0.159 HD
ATOM     27  H   UNL A   1      42.959  22.365  27.267  1.00  0.00     0.159 HD
ATOM     28  O   UNL A   1      41.972  19.422  27.710  1.00  0.00    -0.271 OA
ENDBRANCH  23  24
ENDBRANCH  22  23
ENDBRANCH  17  22
ENDBRANCH   9  16
ENDBRANCH   7   8
ENDBRANCH   6   7
ENDBRANCH   3   6
ENDBRANCH   1   2
BRANCH   1  29
ATOM     29  C   UNL A   1      32.771  29.601  25.988  1.00  0.00     0.023 C 
BRANCH  29  30
ATOM     30  C   UNL A   1      32.627  30.477  27.220  1.00  0.00     0.023 C 
BRANCH  30  31
ATOM     31  C   UNL A   1      33.634  31.610  27.297  1.00  0.00     0.116 C 
BRANCH  31  32
ATOM     32  N   UNL A   1      33.076  32.865  27.796  1.00  0.00    -0.352 N 
ATOM     33  C   UNL A   1      33.531  33.715  28.780  1.00  0.00     0.251 C 
ATOM     34  H   UNL A   1      32.241  33.148  27.358  1.00  0.00     0.163 HD
ATOM     35  O   UNL A   1      32.860  34.689  29.108  1.00  0.00    -0.269 OA
BRANCH  33  36
ATOM     36  C   UNL A   1      34.799  33.417  29.470  1.00  0.00     0.039 A 
ATOM     37  C   UNL A   1      35.967  34.107  29.126  1.00  0.00     0.014 A 
ATOM     38  C   UNL A   1      34.818  32.467  30.488  1.00  0.00     0.014 A 
ATOM     39  C   UNL A   1      37.128  33.921  29.874  1.00  0.00     0.010 A 
ATOM     40  C   UNL A   1      35.930  32.366  31.302  1.00  0.00     0.010 A 
ATOM     41  C   UNL A   1      37.102  33.066  30.980  1.00  0.00    -0.014 A 
BRANCH  41  42
ATOM     42  C   UNL A   1      38.319  32.681  31.718  1.00  0.00     0.031 A 
ATOM     43  C   UNL A   1      39.182  31.634  31.075  1.00  0.00     0.074 A 
ATOM     44  C   UNL A   1      38.565  33.142  32.956  1.00  0.00     0.049 A 
ATOM     45  N   UNL A   1      40.076  30.851  31.608  1.00  0.00    -0.248 NA
ATOM     46  C   UNL A   1      38.938  31.387  29.640  1.00  0.00     0.031 C 
ATOM     47  C   UNL A   1      37.791  34.168  33.655  1.00  0.00     0.029 A 
ATOM     48  N   UNL A   1      39.528  32.773  33.859  1.00  0.00    -0.354 N 
ATOM     49  C   UNL A   1      40.447  29.976  30.594  1.00  0.00     0.074 A 
ATOM     50  C   UNL A   1      39.648  30.291  29.434  1.00  0.00     0.031 C 
ATOM     51  C   UNL A   1      38.312  34.346  34.883  1.00  0.00     0.029 A 
ATOM     52  C   UNL A   1      39.414  33.407  35.073  1.00  0.00     0.049 A 
ATOM     53  H   UNL A   1      40.233  32.117  33.657  1.00  0.00     0.167 HD
ATOM     54  C   UNL A   1      41.384  29.003  30.634  1.00  0.00     0.037 A 
ATOM     55  C   UNL A   1      40.111  33.216  36.211  1.00  0.00     0.037 A 
ATOM     56  C   UNL A   1      42.207  28.764  31.786  1.00  0.00     0.049 A 
ATOM     57  C   UNL A   1      41.181  32.151  36.221  1.00  0.00     0.074 A 
ATOM     58  C   UNL A   1      43.223  27.843  31.947  1.00  0.00     0.029 A 
ATOM     59  N   UNL A   1      42.117  29.483  32.971  1.00  0.00    -0.354 N 
ATOM     60  N   UNL A   1      41.522  31.315  35.267  1.00  0.00    -0.248 NA
ATOM     61  C   UNL A   1      41.957  31.999  37.458  1.00  0.00     0.031 C 
ATOM     62  C   UNL A   1      43.734  27.989  33.240  1.00  0.00     0.029 A 
ATOM     63  C   UNL A   1      43.065  29.031  33.869  1.00  0.00     0.049 A 
ATOM     64  H   UNL A   1      41.473  30.205  33.147  1.00  0.00     0.167 HD
ATOM     65  C   UNL A   1      42.577  30.565  35.774  1.00  0.00     0.074 A 
ATOM     66  C   UNL A   1      42.817  31.047  37.121  1.00  0.00     0.031 C 
ATOM     67  C   UNL A   1      43.289  29.571  35.187  1.00  0.00     0.037 A 
BRANCH  54  68
ATOM     68  C   UNL A   1      41.552  28.150  29.407  1.00  0.00     0.058 A 
ATOM     69  C   UNL A   1      40.688  27.079  29.125  1.00  0.00     0.135 A 
ATOM     70  C   UNL A   1      42.607  28.392  28.514  1.00  0.00     0.135 A 
ATOM     71  F   UNL A   1      39.679  26.785  29.960  1.00  0.00    -0.206 F 
ATOM     72  C   UNL A   1      40.888  26.254  28.024  1.00  0.00     0.059 A 
ATOM     73  C   UNL A   1      42.806  27.599  27.387  1.00  0.00     0.059 A 
ATOM     74  F   UNL A   1      43.470  29.395  28.740  1.00  0.00    -0.206 F 
ATOM     75  C   UNL A   1      41.952  26.521  27.162  1.00  0.00     0.060 A 
BRANCH  75  76
ATOM     76  S   UNL A   1      42.201  25.437  25.740  1.00  0.00     0.124 S 
ATOM     77  O   UNL A   1      40.942  25.606  25.023  1.00  0.00    -0.237 OA
ATOM     78  O   UNL A   1      43.378  26.022  25.104  1.00  0.00    -0.237 OA
ATOM     79  O   UNL A   1      42.407  24.125  26.346  1.00  0.00    -0.744 OA
ENDBRANCH  75  76
ENDBRANCH  54  68
BRANCH  55  80
ATOM     80  C   UNL A   1      39.835  34.047  37.414  1.00  0.00     0.058 A 
ATOM     81  C   UNL A   1      38.916  33.619  38.384  1.00  0.00     0.135 A 
ATOM     82  C   UNL A   1      40.485  35.273  37.629  1.00  0.00     0.135 A 
ATOM     83  F   UNL A   1      38.265  32.457  38.224  1.00  0.00    -0.206 F 
ATOM     84  C   UNL A   1      38.635  34.383  39.513  1.00  0.00     0.059 A 
ATOM     85  C   UNL A   1      40.239  36.044  38.762  1.00  0.00     0.059 A 
ATOM     86  F   UNL A   1      41.386  35.722  36.741  1.00  0.00    -0.206 F 
ATOM     87  C   UNL A   1      39.303  35.595  39.694  1.00  0.00     0.060 A 
BRANCH  87  88
ATOM     88  S   UNL A   1      38.958  36.560  41.182  1.00  0.00     0.124 S 
ATOM     89  O   UNL A   1      40.264  36.576  41.831  1.00  0.00    -0.237 OA
ATOM     90  O   UNL A   1      38.506  37.831  40.625  1.00  0.00    -0.237 OA
ATOM     91  O   UNL A   1      37.927  35.777  41.858  1.00  0.00    -0.744 OA
ENDBRANCH  87  88
ENDBRANCH  55  80
BRANCH  67  92
ATOM     92  C   UNL A   1      44.434  28.987  35.962  1.00  0.00     0.058 A 
ATOM     93  C   UNL A   1      45.722  29.536  35.903  1.00  0.00     0.135 A 
ATOM     94  C   UNL A   1      44.204  27.927  36.855  1.00  0.00     0.135 A 
ATOM     95  F   UNL A   1      45.988  30.548  35.063  1.00  0.00    -0.206 F 
ATOM     96  C   UNL A   1      46.750  29.048  36.700  1.00  0.00     0.059 A 
ATOM     97  C   UNL A   1      45.211  27.440  37.679  1.00  0.00     0.059 A 
ATOM     98  F   UNL A   1      42.983  27.379  36.954  1.00  0.00    -0.206 F 
ATOM     99  C   UNL A   1      46.483  28.005  37.591  1.00  0.00     0.060 A 
BRANCH  99 100
ATOM    100  S   UNL A   1      47.809  27.427  38.668  1.00  0.00     0.124 S 
ATOM    101  O   UNL A   1      48.471  28.681  39.017  1.00  0.00    -0.237 OA
ATOM    102  O   UNL A   1      47.074  26.776  39.748  1.00  0.00    -0.237 OA
ATOM    103  O   UNL A   1      48.577  26.529  37.811  1.00  0.00    -0.744 OA
ENDBRANCH  99 100
ENDBRANCH  67  92
ENDBRANCH  41  42
ENDBRANCH  33  36
ENDBRANCH  31  32
ENDBRANCH  30  31
ENDBRANCH  29  30
ENDBRANCH   1  29
TORSDOF 20
ENDMDL
MODEL 3
REMARK VINA RESULT:     -11.3      4.062      5.118
REMARK SMILES NC(=O)COc1ccc(/C=C2\SC(=S)N(CCC(=O)NCCCCNC(=O)c3ccc(-c4c5nc(c(-c6c(F)cc(S(=O)(=O)[O-])cc6F)c6ccc([nH]6)c(-c6c(F)cc(S(=O)(=O)[O-])cc6F)c6nc(c(-c7c(F)cc(S(=O)(=O)[O-])cc7F)c7ccc4[nH]7)C=C6)C=C5)cc3)C2=O)cc1
REMARK SMILES IDX 21 1 20 2 18 3 19 4 17 6 16 7 15 8 10 9 11 10 12 11 94 12
REMARK SMILES IDX 13 13 95 14 14 15 9 16 6 17 7 18 97 19 8 20 96 21 5 22 4 23
REMARK SMILES IDX 2 24 1 25 3 28 22 29 23 30 24 31 25 32 26 33 27 35 28 36
REMARK SMILES IDX 29 37 93 38 30 39 92 40 31 41 32 42 33 43 86 44 34 45 91 46
REMARK SMILES IDX 85 47 87 48 35 49 90 50 84 51 83 52 36 54 70 55 49 56 69 57
REMARK SMILES IDX 50 58 53 59 68 60 88 61 51 62 52 63 67 65 89 66 54 67 37 68
REMARK SMILES IDX 38 69 47 70 39 71 40 72 46 73 48 74 41 75 42 76 43 77 44 78
REMARK SMILES IDX 45 79 71 80 72 81 81 82 73 83 74 84 80 85 82 86 75 87 76 88
REMARK SMILES IDX 77 89 78 90 79 91 55 92 56 93 65 94 57 95 58 96 64 97 66 98
REMARK SMILES IDX 59 99 60 100 61 101 62 102 63 103
REMARK H PARENT 20 5 1 26 1 27 25 34 87 53 53 64
REMARK Flexibility Score: inf
ROOT
ATOM      1  C   UNL A   1      31.474  29.696  25.008  1.00  0.00     0.116 C 
ENDROOT
BRANCH   1   2
ATOM      2  N   UNL A   1      30.837  29.482  23.724  1.00  0.00    -0.356 N 
ATOM      3  C   UNL A   1      30.190  28.378  23.254  1.00  0.00     0.221 C 
ATOM      4  O   UNL A   1      29.877  28.334  22.065  1.00  0.00    -0.275 OA
ATOM      5  H   UNL A   1      30.878  30.243  23.101  1.00  0.00     0.163 HD
BRANCH   3   6
ATOM      6  C   UNL A   1      29.814  27.253  24.194  1.00  0.00     0.122 C 
BRANCH   6   7
ATOM      7  C   UNL A   1      30.164  25.863  23.652  1.00  0.00     0.137 C 
BRANCH   7   8
ATOM      8  N   UNL A   1      31.585  25.502  23.777  1.00  0.00    -0.292 N 
ATOM      9  C   UNL A   1      34.072  24.019  25.906  1.00  0.00     0.029 C 
ATOM     10  C   UNL A   1      33.491  24.698  24.908  1.00  0.00     0.081 C 
ATOM     11  S   UNL A   1      34.061  24.926  23.306  1.00  0.00    -0.054 SA
ATOM     12  C   UNL A   1      32.103  25.219  25.031  1.00  0.00     0.266 C 
ATOM     13  C   UNL A   1      32.490  25.478  22.732  1.00  0.00     0.148 C 
ATOM     14  O   UNL A   1      31.509  25.315  26.097  1.00  0.00    -0.268 OA
ATOM     15  S   UNL A   1      32.231  25.878  21.132  1.00  0.00    -0.052 S 
BRANCH   9  16
ATOM     16  C   UNL A   1      35.345  23.302  25.819  1.00  0.00    -0.024 A 
ATOM     17  C   UNL A   1      37.782  21.913  25.699  1.00  0.00     0.120 A 
ATOM     18  C   UNL A   1      36.580  21.231  25.559  1.00  0.00     0.047 A 
ATOM     19  C   UNL A   1      37.767  23.299  25.859  1.00  0.00     0.047 A 
ATOM     20  C   UNL A   1      35.366  21.915  25.646  1.00  0.00     0.012 A 
ATOM     21  C   UNL A   1      36.554  23.992  25.913  1.00  0.00     0.012 A 
BRANCH  17  22
ATOM     22  O   UNL A   1      38.912  21.151  25.591  1.00  0.00    -0.484 OA
BRANCH  22  23
ATOM     23  C   UNL A   1      40.042  21.649  26.306  1.00  0.00     0.329 C 
BRANCH  23  24
ATOM     24  C   UNL A   1      41.019  20.558  26.739  1.00  0.00     0.255 C 
ATOM     25  N   UNL A   1      42.031  20.304  25.857  1.00  0.00    -0.367 N 
ATOM     26  H   UNL A   1      42.702  19.614  26.063  1.00  0.00     0.159 HD
ATOM     27  H   UNL A   1      42.090  20.811  25.015  1.00  0.00     0.159 HD
ATOM     28  O   UNL A   1      40.920  19.930  27.787  1.00  0.00    -0.271 OA
ENDBRANCH  23  24
ENDBRANCH  22  23
ENDBRANCH  17  22
ENDBRANCH   9  16
ENDBRANCH   7   8
ENDBRANCH   6   7
ENDBRANCH   3   6
ENDBRANCH   1   2
BRANCH   1  29
ATOM     29  C   UNL A   1      32.913  29.206  24.961  1.00  0.00     0.023 C 
BRANCH  29  30
ATOM     30  C   UNL A   1      33.402  28.511  26.220  1.00  0.00     0.023 C 
BRANCH  30  31
ATOM     31  C   UNL A   1      34.566  29.207  26.901  1.00  0.00     0.116 C 
BRANCH  31  32
ATOM     32  N   UNL A   1      34.240  30.532  27.421  1.00  0.00    -0.352 N 
ATOM     33  C   UNL A   1      34.882  31.303  28.365  1.00  0.00     0.251 C 
ATOM     34  H   UNL A   1      33.431  30.940  27.034  1.00  0.00     0.163 HD
ATOM     35  O   UNL A   1      34.389  32.369  28.725  1.00  0.00    -0.269 OA
BRANCH  33  36
ATOM     36  C   UNL A   1      36.131  30.815  28.975  1.00  0.00     0.039 A 
ATOM     37  C   UNL A   1      36.124  29.658  29.764  1.00  0.00     0.014 A 
ATOM     38  C   UNL A   1      37.323  31.494  28.733  1.00  0.00     0.014 A 
ATOM     39  C   UNL A   1      37.327  29.125  30.223  1.00  0.00     0.010 A 
ATOM     40  C   UNL A   1      38.522  30.907  29.087  1.00  0.00     0.010 A 
ATOM     41  C   UNL A   1      38.531  29.738  29.862  1.00  0.00    -0.014 A 
BRANCH  41  42
ATOM     42  C   UNL A   1      39.830  29.344  30.440  1.00  0.00     0.031 A 
ATOM     43  C   UNL A   1      40.278  30.112  31.650  1.00  0.00     0.074 A 
ATOM     44  C   UNL A   1      40.624  28.445  29.834  1.00  0.00     0.049 A 
ATOM     45  N   UNL A   1      41.473  30.254  32.148  1.00  0.00    -0.248 NA
ATOM     46  C   UNL A   1      39.234  30.891  32.344  1.00  0.00     0.031 C 
ATOM     47  C   UNL A   1      40.269  27.642  28.664  1.00  0.00     0.029 A 
ATOM     48  N   UNL A   1      41.917  28.084  30.110  1.00  0.00    -0.354 N 
ATOM     49  C   UNL A   1      41.335  31.191  33.166  1.00  0.00     0.074 A 
ATOM     50  C   UNL A   1      39.956  31.617  33.181  1.00  0.00     0.031 C 
ATOM     51  C   UNL A   1      41.324  26.881  28.322  1.00  0.00     0.029 A 
ATOM     52  C   UNL A   1      42.441  27.188  29.211  1.00  0.00     0.049 A 
ATOM     53  H   UNL A   1      42.422  28.435  30.880  1.00  0.00     0.167 HD
ATOM     54  C   UNL A   1      42.281  31.641  34.019  1.00  0.00     0.037 A 
ATOM     55  C   UNL A   1      43.695  26.702  29.112  1.00  0.00     0.037 A 
ATOM     56  C   UNL A   1      43.628  31.142  34.018  1.00  0.00     0.049 A 
ATOM     57  C   UNL A   1      44.727  27.189  30.099  1.00  0.00     0.074 A 
ATOM     58  C   UNL A   1      44.674  31.477  34.854  1.00  0.00     0.029 A 
ATOM     59  N   UNL A   1      44.099  30.173  33.142  1.00  0.00    -0.354 N 
ATOM     60  N   UNL A   1      44.600  28.083  31.052  1.00  0.00    -0.248 NA
ATOM     61  C   UNL A   1      46.071  26.606  30.000  1.00  0.00     0.031 C 
ATOM     62  C   UNL A   1      45.789  30.725  34.469  1.00  0.00     0.029 A 
ATOM     63  C   UNL A   1      45.423  29.891  33.422  1.00  0.00     0.049 A 
ATOM     64  H   UNL A   1      43.571  29.750  32.429  1.00  0.00     0.167 HD
ATOM     65  C   UNL A   1      45.834  28.143  31.691  1.00  0.00     0.074 A 
ATOM     66  C   UNL A   1      46.695  27.192  31.012  1.00  0.00     0.031 C 
ATOM     67  C   UNL A   1      46.227  28.906  32.740  1.00  0.00     0.037 A 
BRANCH  54  68
ATOM     68  C   UNL A   1      41.882  32.708  34.999  1.00  0.00     0.058 A 
ATOM     69  C   UNL A   1      41.996  34.075  34.695  1.00  0.00     0.135 A 
ATOM     70  C   UNL A   1      41.401  32.360  36.271  1.00  0.00     0.135 A 
ATOM     71  F   UNL A   1      42.476  34.465  33.504  1.00  0.00    -0.206 F 
ATOM     72  C   UNL A   1      41.687  35.057  35.630  1.00  0.00     0.059 A 
ATOM     73  C   UNL A   1      41.054  33.327  37.211  1.00  0.00     0.059 A 
ATOM     74  F   UNL A   1      41.282  31.069  36.621  1.00  0.00    -0.206 F 
ATOM     75  C   UNL A   1      41.219  34.672  36.886  1.00  0.00     0.060 A 
BRANCH  75  76
ATOM     76  S   UNL A   1      40.827  35.959  38.091  1.00  0.00     0.124 S 
ATOM     77  O   UNL A   1      42.132  36.581  38.285  1.00  0.00    -0.237 OA
ATOM     78  O   UNL A   1      39.840  36.763  37.377  1.00  0.00    -0.237 OA
ATOM     79  O   UNL A   1      40.312  35.209  39.233  1.00  0.00    -0.744 OA
ENDBRANCH  75  76
ENDBRANCH  54  68
BRANCH  55  80
ATOM     80  C   UNL A   1      44.037  25.704  28.063  1.00  0.00     0.058 A 
ATOM     81  C   UNL A   1      43.951  24.329  28.328  1.00  0.00     0.135 A 
ATOM     82  C   UNL A   1      44.445  26.095  26.777  1.00  0.00     0.135 A 
ATOM     83  F   UNL A   1      43.571  23.903  29.542  1.00  0.00    -0.206 F 
ATOM     84  C   UNL A   1      44.275  23.377  27.366  1.00  0.00     0.059 A 
ATOM     85  C   UNL A   1      44.751  25.161  25.790  1.00  0.00     0.059 A 
ATOM     86  F   UNL A   1      44.529  27.398  26.464  1.00  0.00    -0.206 F 
ATOM     87  C   UNL A   1      44.673  23.803  26.098  1.00  0.00     0.060 A 
BRANCH  87  88
ATOM     88  S   UNL A   1      45.054  22.557  24.846  1.00  0.00     0.124 S 
ATOM     89  O   UNL A   1      45.877  21.621  25.604  1.00  0.00    -0.237 OA
ATOM     90  O   UNL A   1      43.725  22.081  24.473  1.00  0.00    -0.237 OA
ATOM     91  O   UNL A   1      45.751  23.320  23.815  1.00  0.00    -0.744 OA
ENDBRANCH  87  88
ENDBRANCH  55  80
BRANCH  67  92
ATOM     92  C   UNL A   1      47.617  28.699  33.266  1.00  0.00     0.058 A 
ATOM     93  C   UNL A   1      48.699  29.469  32.820  1.00  0.00     0.135 A 
ATOM     94  C   UNL A   1      47.839  27.783  34.309  1.00  0.00     0.135 A 
ATOM     95  F   UNL A   1      48.533  30.354  31.824  1.00  0.00    -0.206 F 
ATOM     96  C   UNL A   1      49.961  29.335  33.384  1.00  0.00     0.059 A 
ATOM     97  C   UNL A   1      49.087  27.651  34.904  1.00  0.00     0.059 A 
ATOM     98  F   UNL A   1      46.830  27.034  34.777  1.00  0.00    -0.206 F 
ATOM     99  C   UNL A   1      50.143  28.429  34.432  1.00  0.00     0.060 A 
BRANCH  99 100
ATOM    100  S   UNL A   1      51.771  28.314  35.202  1.00  0.00     0.124 S 
ATOM    101  O   UNL A   1      51.804  26.913  35.610  1.00  0.00    -0.237 OA
ATOM    102  O   UNL A   1      52.662  28.676  34.105  1.00  0.00    -0.237 OA
ATOM    103  O   UNL A   1      51.701  29.284  36.290  1.00  0.00    -0.744 OA
ENDBRANCH  99 100
ENDBRANCH  67  92
ENDBRANCH  41  42
ENDBRANCH  33  36
ENDBRANCH  31  32
ENDBRANCH  30  31
ENDBRANCH  29  30
ENDBRANCH   1  29
TORSDOF 20
ENDMDL
