MODEL 1
REMARK VINA RESULT:     -13.4      0.000      0.000
REMARK SMILES Cc1nc2cc(S(=O)(=O)N3CCC(C(=O)NCCCCNC(=O)c4ccc(-c5c6nc(c(-c7c(F)cc(S(=O)(=O)[O-])cc7F)c7ccc([nH]7)c(-c7c(F)cc(S(=O)(=O)[O-])cc7F)c7nc(c(-c8c(F)cc(S(=O)(=O)[O-])cc8F)c8ccc5[nH]8)C=C7)C=C6)cc4)CC3)ccc2n1C1CCCC1
REMARK SMILES IDX 18 1 17 2 16 3 14 4 15 5 13 7 10 8 11 9 91 10 12 11 90 12
REMARK SMILES IDX 7 13 8 14 9 15 6 16 1 17 2 18 3 19 95 20 4 21 94 22 5 23
REMARK SMILES IDX 93 24 92 25 96 26 97 27 100 28 98 29 99 30 19 31 20 32 21 33
REMARK SMILES IDX 22 34 23 36 24 37 25 38 89 39 26 40 88 41 27 42 28 43 29 44
REMARK SMILES IDX 82 45 30 46 87 47 81 48 83 49 31 50 86 51 80 52 79 53 32 55
REMARK SMILES IDX 66 56 45 57 65 58 46 59 49 60 64 61 84 62 47 63 48 64 63 66
REMARK SMILES IDX 85 67 50 68 33 69 34 70 43 71 35 72 36 73 42 74 44 75 37 76
REMARK SMILES IDX 38 77 39 78 40 79 41 80 67 81 68 82 77 83 69 84 70 85 76 86
REMARK SMILES IDX 78 87 71 88 72 89 73 90 74 91 75 92 51 93 52 94 61 95 53 96
REMARK SMILES IDX 54 97 60 98 62 99 55 100 56 101 57 102 58 103 59 104
REMARK H PARENT 16 6 21 35 83 54 49 65
REMARK Flexibility Score: inf
ROOT
ATOM      1  C   UNL A   1      40.496  21.441  27.002  1.00  0.00     0.023 C 
ENDROOT
BRANCH   1   2
ATOM      2  C   UNL A   1      39.165  22.101  26.667  1.00  0.00     0.116 C 
BRANCH   2   3
ATOM      3  N   UNL A   1      38.762  21.854  25.289  1.00  0.00    -0.356 N 
ATOM      4  C   UNL A   1      37.524  21.888  24.718  1.00  0.00     0.223 C 
ATOM      5  O   UNL A   1      37.419  21.686  23.508  1.00  0.00    -0.275 OA
ATOM      6  H   UNL A   1      39.497  21.627  24.675  1.00  0.00     0.163 HD
BRANCH   4   7
ATOM      7  C   UNL A   1      36.299  22.208  25.557  1.00  0.00     0.081 C 
ATOM      8  N   UNL A   1      33.444  22.729  25.687  1.00  0.00    -0.198 NA
ATOM      9  C   UNL A   1      34.372  23.886  25.729  1.00  0.00     0.103 C 
ATOM     10  C   UNL A   1      33.930  21.367  26.002  1.00  0.00     0.103 C 
ATOM     11  C   UNL A   1      35.760  23.592  25.211  1.00  0.00     0.030 C 
ATOM     12  C   UNL A   1      35.302  21.059  25.454  1.00  0.00     0.030 C 
BRANCH   8  13
ATOM     13  S   UNL A   1      31.874  23.074  26.322  1.00  0.00     0.243 S 
ATOM     14  O   UNL A   1      32.037  23.397  27.728  1.00  0.00    -0.207 OA
ATOM     15  O   UNL A   1      30.977  22.037  25.877  1.00  0.00    -0.207 OA
BRANCH  13  16
ATOM     16  C   UNL A   1      31.350  24.582  25.522  1.00  0.00     0.085 A 
ATOM     17  C   UNL A   1      30.962  30.516  24.944  1.00  0.00     0.088 C 
ATOM     18  C   UNL A   1      30.976  29.033  24.937  1.00  0.00     0.106 A 
ATOM     19  N   UNL A   1      31.589  28.286  25.836  1.00  0.00    -0.233 NA
ATOM     20  N   UNL A   1      30.336  28.253  23.997  1.00  0.00    -0.325 N 
ATOM     21  C   UNL A   1      31.340  26.986  25.484  1.00  0.00     0.090 A 
ATOM     22  C   UNL A   1      30.560  26.937  24.334  1.00  0.00     0.068 A 
ATOM     23  C   UNL A   1      31.747  25.794  26.103  1.00  0.00     0.052 A 
ATOM     24  C   UNL A   1      30.154  25.741  23.751  1.00  0.00     0.030 A 
ATOM     25  C   UNL A   1      30.571  24.570  24.362  1.00  0.00     0.024 A 
BRANCH  20  26
ATOM     26  C   UNL A   1      29.555  28.710  22.863  1.00  0.00     0.089 C 
ATOM     27  C   UNL A   1      28.185  29.293  23.227  1.00  0.00     0.025 C 
ATOM     28  C   UNL A   1      30.229  29.813  22.038  1.00  0.00     0.025 C 
ATOM     29  C   UNL A   1      27.792  30.118  22.011  1.00  0.00     0.002 C 
ATOM     30  C   UNL A   1      29.094  30.565  21.350  1.00  0.00     0.002 C 
ENDBRANCH  20  26
ENDBRANCH  13  16
ENDBRANCH   8  13
ENDBRANCH   4   7
ENDBRANCH   2   3
ENDBRANCH   1   2
BRANCH   1  31
ATOM     31  C   UNL A   1      40.716  20.097  26.307  1.00  0.00     0.023 C 
BRANCH  31  32
ATOM     32  C   UNL A   1      42.119  19.519  26.499  1.00  0.00     0.116 C 
BRANCH  32  33
ATOM     33  N   UNL A   1      43.006  19.744  25.378  1.00  0.00    -0.352 N 
ATOM     34  C   UNL A   1      43.866  20.749  25.034  1.00  0.00     0.251 C 
ATOM     35  H   UNL A   1      42.986  19.013  24.719  1.00  0.00     0.163 HD
ATOM     36  O   UNL A   1      44.615  20.518  24.082  1.00  0.00    -0.269 OA
BRANCH  34  37
ATOM     37  C   UNL A   1      43.884  22.095  25.662  1.00  0.00     0.039 A 
ATOM     38  C   UNL A   1      44.622  22.454  26.791  1.00  0.00     0.014 A 
ATOM     39  C   UNL A   1      43.006  23.040  25.100  1.00  0.00     0.014 A 
ATOM     40  C   UNL A   1      44.379  23.658  27.432  1.00  0.00     0.010 A 
ATOM     41  C   UNL A   1      42.784  24.262  25.718  1.00  0.00     0.010 A 
ATOM     42  C   UNL A   1      43.423  24.535  26.921  1.00  0.00    -0.014 A 
BRANCH  42  43
ATOM     43  C   UNL A   1      43.240  25.813  27.601  1.00  0.00     0.031 A 
ATOM     44  C   UNL A   1      44.333  26.788  27.305  1.00  0.00     0.074 A 
ATOM     45  C   UNL A   1      42.133  26.098  28.319  1.00  0.00     0.049 A 
ATOM     46  N   UNL A   1      45.171  27.326  28.131  1.00  0.00    -0.248 NA
ATOM     47  C   UNL A   1      44.653  27.051  25.888  1.00  0.00     0.031 C 
ATOM     48  C   UNL A   1      40.920  25.285  28.459  1.00  0.00     0.029 A 
ATOM     49  N   UNL A   1      41.806  27.229  29.005  1.00  0.00    -0.354 N 
ATOM     50  C   UNL A   1      45.962  28.182  27.365  1.00  0.00     0.074 A 
ATOM     51  C   UNL A   1      45.727  27.834  25.990  1.00  0.00     0.031 C 
ATOM     52  C   UNL A   1      39.918  26.047  28.954  1.00  0.00     0.029 A 
ATOM     53  C   UNL A   1      40.446  27.354  29.300  1.00  0.00     0.049 A 
ATOM     54  H   UNL A   1      42.472  27.903  29.269  1.00  0.00     0.167 HD
ATOM     55  C   UNL A   1      46.557  29.276  27.911  1.00  0.00     0.037 A 
ATOM     56  C   UNL A   1      39.809  28.479  29.728  1.00  0.00     0.037 A 
ATOM     57  C   UNL A   1      46.646  29.161  29.341  1.00  0.00     0.049 A 
ATOM     58  C   UNL A   1      40.861  29.371  30.288  1.00  0.00     0.074 A 
ATOM     59  C   UNL A   1      47.296  28.307  30.208  1.00  0.00     0.029 A 
ATOM     60  N   UNL A   1      45.685  29.801  30.081  1.00  0.00    -0.354 N 
ATOM     61  N   UNL A   1      41.565  29.085  31.351  1.00  0.00    -0.248 NA
ATOM     62  C   UNL A   1      41.455  30.342  29.382  1.00  0.00     0.031 C 
ATOM     63  C   UNL A   1      46.391  28.130  31.294  1.00  0.00     0.029 A 
ATOM     64  C   UNL A   1      45.279  28.944  31.070  1.00  0.00     0.049 A 
ATOM     65  H   UNL A   1      45.346  30.713  29.929  1.00  0.00     0.167 HD
ATOM     66  C   UNL A   1      42.852  29.503  31.043  1.00  0.00     0.074 A 
ATOM     67  C   UNL A   1      42.710  30.314  29.834  1.00  0.00     0.031 C 
ATOM     68  C   UNL A   1      43.942  28.926  31.624  1.00  0.00     0.037 A 
BRANCH  55  69
ATOM     69  C   UNL A   1      46.686  30.604  27.203  1.00  0.00     0.058 A 
ATOM     70  C   UNL A   1      47.947  31.230  27.123  1.00  0.00     0.135 A 
ATOM     71  C   UNL A   1      45.581  31.417  26.863  1.00  0.00     0.135 A 
ATOM     72  F   UNL A   1      49.065  30.559  27.444  1.00  0.00    -0.206 F 
ATOM     73  C   UNL A   1      48.092  32.577  26.788  1.00  0.00     0.059 A 
ATOM     74  C   UNL A   1      45.707  32.746  26.477  1.00  0.00     0.059 A 
ATOM     75  F   UNL A   1      44.317  30.992  26.982  1.00  0.00    -0.206 F 
ATOM     76  C   UNL A   1      46.963  33.329  26.475  1.00  0.00     0.060 A 
BRANCH  76  77
ATOM     77  S   UNL A   1      47.141  35.082  26.111  1.00  0.00     0.124 S 
ATOM     78  O   UNL A   1      45.902  35.362  25.395  1.00  0.00    -0.237 OA
ATOM     79  O   UNL A   1      47.252  35.655  27.448  1.00  0.00    -0.237 OA
ATOM     80  O   UNL A   1      48.360  35.137  25.310  1.00  0.00    -0.744 OA
ENDBRANCH  76  77
ENDBRANCH  55  69
BRANCH  56  81
ATOM     81  C   UNL A   1      38.485  29.009  29.275  1.00  0.00     0.058 A 
ATOM     82  C   UNL A   1      37.462  29.305  30.199  1.00  0.00     0.135 A 
ATOM     83  C   UNL A   1      38.298  29.520  27.974  1.00  0.00     0.135 A 
ATOM     84  F   UNL A   1      37.557  28.880  31.468  1.00  0.00    -0.206 F 
ATOM     85  C   UNL A   1      36.356  30.104  29.869  1.00  0.00     0.059 A 
ATOM     86  C   UNL A   1      37.202  30.310  27.621  1.00  0.00     0.059 A 
ATOM     87  F   UNL A   1      39.226  29.345  27.022  1.00  0.00    -0.206 F 
ATOM     88  C   UNL A   1      36.248  30.623  28.580  1.00  0.00     0.060 A 
BRANCH  88  89
ATOM     89  S   UNL A   1      34.922  31.794  28.194  1.00  0.00     0.124 S 
ATOM     90  O   UNL A   1      35.643  32.849  27.490  1.00  0.00    -0.237 OA
ATOM     91  O   UNL A   1      34.023  30.983  27.380  1.00  0.00    -0.237 OA
ATOM     92  O   UNL A   1      34.403  32.166  29.508  1.00  0.00    -0.744 OA
ENDBRANCH  88  89
ENDBRANCH  56  81
BRANCH  68  93
ATOM     93  C   UNL A   1      43.749  28.037  32.826  1.00  0.00     0.058 A 
ATOM     94  C   UNL A   1      43.480  28.496  34.128  1.00  0.00     0.135 A 
ATOM     95  C   UNL A   1      43.594  26.664  32.581  1.00  0.00     0.135 A 
ATOM     96  F   UNL A   1      43.531  29.803  34.421  1.00  0.00    -0.206 F 
ATOM     97  C   UNL A   1      43.064  27.623  35.137  1.00  0.00     0.059 A 
ATOM     98  C   UNL A   1      43.152  25.784  33.562  1.00  0.00     0.059 A 
ATOM     99  F   UNL A   1      43.789  26.178  31.344  1.00  0.00    -0.206 F 
ATOM    100  C   UNL A   1      42.883  26.270  34.839  1.00  0.00     0.060 A 
BRANCH 100 101
ATOM    101  S   UNL A   1      42.208  25.164  36.097  1.00  0.00     0.124 S 
ATOM    102  O   UNL A   1      42.472  23.847  35.526  1.00  0.00    -0.237 OA
ATOM    103  O   UNL A   1      42.994  25.512  37.278  1.00  0.00    -0.237 OA
ATOM    104  O   UNL A   1      40.798  25.541  36.167  1.00  0.00    -0.744 OA
ENDBRANCH 100 101
ENDBRANCH  68  93
ENDBRANCH  42  43
ENDBRANCH  34  37
ENDBRANCH  32  33
ENDBRANCH  31  32
ENDBRANCH   1  31
TORSDOF 17
ENDMDL
MODEL 2
REMARK VINA RESULT:     -13.1      1.941      2.747
REMARK SMILES Cc1nc2cc(S(=O)(=O)N3CCC(C(=O)NCCCCNC(=O)c4ccc(-c5c6nc(c(-c7c(F)cc(S(=O)(=O)[O-])cc7F)c7ccc([nH]7)c(-c7c(F)cc(S(=O)(=O)[O-])cc7F)c7nc(c(-c8c(F)cc(S(=O)(=O)[O-])cc8F)c8ccc5[nH]8)C=C7)C=C6)cc4)CC3)ccc2n1C1CCCC1
REMARK SMILES IDX 18 1 17 2 16 3 14 4 15 5 13 7 10 8 11 9 91 10 12 11 90 12
REMARK SMILES IDX 7 13 8 14 9 15 6 16 1 17 2 18 3 19 95 20 4 21 94 22 5 23
REMARK SMILES IDX 93 24 92 25 96 26 97 27 100 28 98 29 99 30 19 31 20 32 21 33
REMARK SMILES IDX 22 34 23 36 24 37 25 38 89 39 26 40 88 41 27 42 28 43 29 44
REMARK SMILES IDX 82 45 30 46 87 47 81 48 83 49 31 50 86 51 80 52 79 53 32 55
REMARK SMILES IDX 66 56 45 57 65 58 46 59 49 60 64 61 84 62 47 63 48 64 63 66
REMARK SMILES IDX 85 67 50 68 33 69 34 70 43 71 35 72 36 73 42 74 44 75 37 76
REMARK SMILES IDX 38 77 39 78 40 79 41 80 67 81 68 82 77 83 69 84 70 85 76 86
REMARK SMILES IDX 78 87 71 88 72 89 73 90 74 91 75 92 51 93 52 94 61 95 53 96
REMARK SMILES IDX 54 97 60 98 62 99 55 100 56 101 57 102 58 103 59 104
REMARK H PARENT 16 6 21 35 83 54 49 65
REMARK Flexibility Score: inf
ROOT
ATOM      1  C   UNL A   1      40.398  20.147  26.279  1.00  0.00     0.023 C 
ENDROOT
BRANCH   1   2
ATOM      2  C   UNL A   1      39.171  20.882  25.758  1.00  0.00     0.116 C 
BRANCH   2   3
ATOM      3  N   UNL A   1      39.113  22.259  26.231  1.00  0.00    -0.356 N 
ATOM      4  C   UNL A   1      38.117  23.184  26.119  1.00  0.00     0.223 C 
ATOM      5  O   UNL A   1      38.268  24.289  26.640  1.00  0.00    -0.275 OA
ATOM      6  H   UNL A   1      39.918  22.569  26.705  1.00  0.00     0.163 HD
BRANCH   4   7
ATOM      7  C   UNL A   1      36.827  22.840  25.394  1.00  0.00     0.081 C 
ATOM      8  N   UNL A   1      34.593  23.710  23.753  1.00  0.00    -0.198 NA
ATOM      9  C   UNL A   1      34.378  23.566  25.214  1.00  0.00     0.103 C 
ATOM     10  C   UNL A   1      35.737  23.037  23.095  1.00  0.00     0.103 C 
ATOM     11  C   UNL A   1      35.646  23.562  26.035  1.00  0.00     0.030 C 
ATOM     12  C   UNL A   1      37.014  23.064  23.897  1.00  0.00     0.030 C 
BRANCH   8  13
ATOM     13  S   UNL A   1      33.134  23.670  22.828  1.00  0.00     0.243 S 
ATOM     14  O   UNL A   1      32.244  22.714  23.462  1.00  0.00    -0.207 OA
ATOM     15  O   UNL A   1      33.493  23.570  21.435  1.00  0.00    -0.207 OA
BRANCH  13  16
ATOM     16  C   UNL A   1      32.380  25.274  23.047  1.00  0.00     0.085 A 
ATOM     17  C   UNL A   1      31.561  30.505  25.816  1.00  0.00     0.088 C 
ATOM     18  C   UNL A   1      31.655  29.263  25.009  1.00  0.00     0.106 A 
ATOM     19  N   UNL A   1      32.473  28.262  25.270  1.00  0.00    -0.233 NA
ATOM     20  N   UNL A   1      30.885  28.999  23.896  1.00  0.00    -0.325 N 
ATOM     21  C   UNL A   1      32.231  27.314  24.312  1.00  0.00     0.090 A 
ATOM     22  C   UNL A   1      31.244  27.751  23.436  1.00  0.00     0.068 A 
ATOM     23  C   UNL A   1      32.817  26.052  24.129  1.00  0.00     0.052 A 
ATOM     24  C   UNL A   1      30.797  26.987  22.364  1.00  0.00     0.030 A 
ATOM     25  C   UNL A   1      31.389  25.748  22.184  1.00  0.00     0.024 A 
BRANCH  20  26
ATOM     26  C   UNL A   1      29.871  29.854  23.307  1.00  0.00     0.089 C 
ATOM     27  C   UNL A   1      30.035  30.091  21.801  1.00  0.00     0.025 C 
ATOM     28  C   UNL A   1      28.440  29.326  23.454  1.00  0.00     0.025 C 
ATOM     29  C   UNL A   1      28.663  30.563  21.344  1.00  0.00     0.002 C 
ATOM     30  C   UNL A   1      27.650  29.953  22.310  1.00  0.00     0.002 C 
ENDBRANCH  20  26
ENDBRANCH  13  16
ENDBRANCH   8  13
ENDBRANCH   4   7
ENDBRANCH   2   3
ENDBRANCH   1   2
BRANCH   1  31
ATOM     31  C   UNL A   1      41.079  20.836  27.462  1.00  0.00     0.023 C 
BRANCH  31  32
ATOM     32  C   UNL A   1      42.508  21.301  27.173  1.00  0.00     0.116 C 
BRANCH  32  33
ATOM     33  N   UNL A   1      42.699  21.816  25.835  1.00  0.00    -0.352 N 
ATOM     34  C   UNL A   1      42.997  23.049  25.325  1.00  0.00     0.251 C 
ATOM     35  H   UNL A   1      42.590  21.129  25.138  1.00  0.00     0.163 HD
ATOM     36  O   UNL A   1      43.273  23.086  24.124  1.00  0.00    -0.269 OA
BRANCH  34  37
ATOM     37  C   UNL A   1      42.919  24.320  26.091  1.00  0.00     0.039 A 
ATOM     38  C   UNL A   1      43.695  24.645  27.204  1.00  0.00     0.014 A 
ATOM     39  C   UNL A   1      41.908  25.212  25.687  1.00  0.00     0.014 A 
ATOM     40  C   UNL A   1      43.374  25.744  27.984  1.00  0.00     0.010 A 
ATOM     41  C   UNL A   1      41.604  26.333  26.446  1.00  0.00     0.010 A 
ATOM     42  C   UNL A   1      42.296  26.555  27.630  1.00  0.00    -0.014 A 
BRANCH  42  43
ATOM     43  C   UNL A   1      42.030  27.731  28.451  1.00  0.00     0.031 A 
ATOM     44  C   UNL A   1      43.154  28.714  28.437  1.00  0.00     0.074 A 
ATOM     45  C   UNL A   1      40.839  27.936  29.054  1.00  0.00     0.049 A 
ATOM     46  N   UNL A   1      43.879  29.117  29.430  1.00  0.00    -0.248 NA
ATOM     47  C   UNL A   1      43.655  29.164  27.123  1.00  0.00     0.031 C 
ATOM     48  C   UNL A   1      39.616  27.137  28.923  1.00  0.00     0.029 A 
ATOM     49  N   UNL A   1      40.429  28.968  29.843  1.00  0.00    -0.354 N 
ATOM     50  C   UNL A   1      44.765  30.053  28.899  1.00  0.00     0.074 A 
ATOM     51  C   UNL A   1      44.709  29.904  27.470  1.00  0.00     0.031 C 
ATOM     52  C   UNL A   1      38.561  27.843  29.388  1.00  0.00     0.029 A 
ATOM     53  C   UNL A   1      39.043  29.079  29.977  1.00  0.00     0.049 A 
ATOM     54  H   UNL A   1      41.057  29.586  30.282  1.00  0.00     0.167 HD
ATOM     55  C   UNL A   1      45.286  31.050  29.664  1.00  0.00     0.037 A 
ATOM     56  C   UNL A   1      38.358  30.146  30.472  1.00  0.00     0.037 A 
ATOM     57  C   UNL A   1      45.189  30.737  31.063  1.00  0.00     0.049 A 
ATOM     58  C   UNL A   1      39.330  30.931  31.281  1.00  0.00     0.074 A 
ATOM     59  C   UNL A   1      45.719  29.759  31.879  1.00  0.00     0.029 A 
ATOM     60  N   UNL A   1      44.141  31.288  31.756  1.00  0.00    -0.354 N 
ATOM     61  N   UNL A   1      39.890  30.487  32.375  1.00  0.00    -0.248 NA
ATOM     62  C   UNL A   1      40.038  32.006  30.603  1.00  0.00     0.031 C 
ATOM     63  C   UNL A   1      44.681  29.452  32.804  1.00  0.00     0.029 A 
ATOM     64  C   UNL A   1      43.608  30.311  32.555  1.00  0.00     0.049 A 
ATOM     65  H   UNL A   1      43.826  32.219  31.690  1.00  0.00     0.167 HD
ATOM     66  C   UNL A   1      41.207  30.918  32.296  1.00  0.00     0.074 A 
ATOM     67  C   UNL A   1      41.224  31.890  31.204  1.00  0.00     0.031 C 
ATOM     68  C   UNL A   1      42.211  30.244  32.926  1.00  0.00     0.037 A 
BRANCH  55  69
ATOM     69  C   UNL A   1      45.509  32.460  29.170  1.00  0.00     0.058 A 
ATOM     70  C   UNL A   1      44.449  33.158  28.555  1.00  0.00     0.135 A 
ATOM     71  C   UNL A   1      46.790  33.036  29.011  1.00  0.00     0.135 A 
ATOM     72  F   UNL A   1      43.193  32.689  28.622  1.00  0.00    -0.206 F 
ATOM     73  C   UNL A   1      44.655  34.307  27.791  1.00  0.00     0.059 A 
ATOM     74  C   UNL A   1      47.011  34.209  28.298  1.00  0.00     0.059 A 
ATOM     75  F   UNL A   1      47.902  32.440  29.456  1.00  0.00    -0.206 F 
ATOM     76  C   UNL A   1      45.943  34.820  27.663  1.00  0.00     0.060 A 
BRANCH  76  77
ATOM     77  S   UNL A   1      46.221  36.262  26.622  1.00  0.00     0.124 S 
ATOM     78  O   UNL A   1      47.495  36.753  27.132  1.00  0.00    -0.237 OA
ATOM     79  O   UNL A   1      46.250  35.667  25.290  1.00  0.00    -0.237 OA
ATOM     80  O   UNL A   1      45.062  37.105  26.900  1.00  0.00    -0.744 OA
ENDBRANCH  76  77
ENDBRANCH  55  69
BRANCH  56  81
ATOM     81  C   UNL A   1      37.105  30.761  29.932  1.00  0.00     0.058 A 
ATOM     82  C   UNL A   1      36.131  31.310  30.791  1.00  0.00     0.135 A 
ATOM     83  C   UNL A   1      36.972  31.094  28.568  1.00  0.00     0.135 A 
ATOM     84  F   UNL A   1      36.182  31.068  32.110  1.00  0.00    -0.206 F 
ATOM     85  C   UNL A   1      35.128  32.180  30.336  1.00  0.00     0.059 A 
ATOM     86  C   UNL A   1      35.978  31.951  28.091  1.00  0.00     0.059 A 
ATOM     87  F   UNL A   1      37.866  30.671  27.663  1.00  0.00    -0.206 F 
ATOM     88  C   UNL A   1      35.075  32.514  28.984  1.00  0.00     0.060 A 
BRANCH  88  89
ATOM     89  S   UNL A   1      33.898  33.767  28.415  1.00  0.00     0.124 S 
ATOM     90  O   UNL A   1      33.464  34.369  29.671  1.00  0.00    -0.237 OA
ATOM     91  O   UNL A   1      34.732  34.606  27.561  1.00  0.00    -0.237 OA
ATOM     92  O   UNL A   1      32.881  32.987  27.714  1.00  0.00    -0.744 OA
ENDBRANCH  88  89
ENDBRANCH  56  81
BRANCH  68  93
ATOM     93  C   UNL A   1      41.862  29.202  33.957  1.00  0.00     0.058 A 
ATOM     94  C   UNL A   1      41.536  27.865  33.666  1.00  0.00     0.135 A 
ATOM     95  C   UNL A   1      42.110  29.529  35.299  1.00  0.00     0.135 A 
ATOM     96  F   UNL A   1      41.360  27.458  32.402  1.00  0.00    -0.206 F 
ATOM     97  C   UNL A   1      41.471  26.895  34.672  1.00  0.00     0.059 A 
ATOM     98  C   UNL A   1      42.081  28.574  36.309  1.00  0.00     0.059 A 
ATOM     99  F   UNL A   1      42.475  30.779  35.627  1.00  0.00    -0.206 F 
ATOM    100  C   UNL A   1      41.766  27.256  35.989  1.00  0.00     0.060 A 
BRANCH 100 101
ATOM    101  S   UNL A   1      41.826  25.982  37.269  1.00  0.00     0.124 S 
ATOM    102  O   UNL A   1      42.849  26.498  38.172  1.00  0.00    -0.237 OA
ATOM    103  O   UNL A   1      40.460  25.991  37.787  1.00  0.00    -0.237 OA
ATOM    104  O   UNL A   1      42.194  24.774  36.534  1.00  0.00    -0.744 OA
ENDBRANCH 100 101
ENDBRANCH  68  93
ENDBRANCH  42  43
ENDBRANCH  34  37
ENDBRANCH  32  33
ENDBRANCH  31  32
ENDBRANCH   1  31
TORSDOF 17
ENDMDL
MODEL 3
REMARK VINA RESULT:     -12.8      2.386      9.658
REMARK SMILES Cc1nc2cc(S(=O)(=O)N3CCC(C(=O)NCCCCNC(=O)c4ccc(-c5c6nc(c(-c7c(F)cc(S(=O)(=O)[O-])cc7F)c7ccc([nH]7)c(-c7c(F)cc(S(=O)(=O)[O-])cc7F)c7nc(c(-c8c(F)cc(S(=O)(=O)[O-])cc8F)c8ccc5[nH]8)C=C7)C=C6)cc4)CC3)ccc2n1C1CCCC1
REMARK SMILES IDX 18 1 17 2 16 3 14 4 15 5 13 7 10 8 11 9 91 10 12 11 90 12
REMARK SMILES IDX 7 13 8 14 9 15 6 16 1 17 2 18 3 19 95 20 4 21 94 22 5 23
REMARK SMILES IDX 93 24 92 25 96 26 97 27 100 28 98 29 99 30 19 31 20 32 21 33
REMARK SMILES IDX 22 34 23 36 24 37 25 38 89 39 26 40 88 41 27 42 28 43 29 44
REMARK SMILES IDX 82 45 30 46 87 47 81 48 83 49 31 50 86 51 80 52 79 53 32 55
REMARK SMILES IDX 66 56 45 57 65 58 46 59 49 60 64 61 84 62 47 63 48 64 63 66
REMARK SMILES IDX 85 67 50 68 33 69 34 70 43 71 35 72 36 73 42 74 44 75 37 76
REMARK SMILES IDX 38 77 39 78 40 79 41 80 67 81 68 82 77 83 69 84 70 85 76 86
REMARK SMILES IDX 78 87 71 88 72 89 73 90 74 91 75 92 51 93 52 94 61 95 53 96
REMARK SMILES IDX 54 97 60 98 62 99 55 100 56 101 57 102 58 103 59 104
REMARK H PARENT 16 6 21 35 83 54 49 65
REMARK Flexibility Score: inf
ROOT
ATOM      1  C   UNL A   1      32.311  29.718  25.314  1.00  0.00     0.023 C 
ENDROOT
BRANCH   1   2
ATOM      2  C   UNL A   1      32.967  29.372  23.984  1.00  0.00     0.116 C 
BRANCH   2   3
ATOM      3  N   UNL A   1      32.019  28.797  23.038  1.00  0.00    -0.356 N 
ATOM      4  C   UNL A   1      31.729  27.491  22.772  1.00  0.00     0.223 C 
ATOM      5  O   UNL A   1      30.848  27.231  21.951  1.00  0.00    -0.275 OA
ATOM      6  H   UNL A   1      31.510  29.453  22.509  1.00  0.00     0.163 HD
BRANCH   4   7
ATOM      7  C   UNL A   1      32.456  26.377  23.505  1.00  0.00     0.081 C 
ATOM      8  N   UNL A   1      32.716  23.542  24.085  1.00  0.00    -0.198 NA
ATOM      9  C   UNL A   1      32.027  24.403  25.078  1.00  0.00     0.103 C 
ATOM     10  C   UNL A   1      33.607  24.142  23.065  1.00  0.00     0.103 C 
ATOM     11  C   UNL A   1      31.535  25.721  24.528  1.00  0.00     0.030 C 
ATOM     12  C   UNL A   1      33.099  25.441  22.488  1.00  0.00     0.030 C 
BRANCH   8  13
ATOM     13  S   UNL A   1      33.308  22.058  24.743  1.00  0.00     0.243 S 
ATOM     14  O   UNL A   1      33.364  21.095  23.658  1.00  0.00    -0.207 OA
ATOM     15  O   UNL A   1      32.584  21.793  25.961  1.00  0.00    -0.207 OA
BRANCH  13  16
ATOM     16  C   UNL A   1      35.000  22.379  25.213  1.00  0.00     0.085 A 
ATOM     17  C   UNL A   1      40.702  20.866  26.160  1.00  0.00     0.088 C 
ATOM     18  C   UNL A   1      39.334  21.403  25.961  1.00  0.00     0.106 A 
ATOM     19  N   UNL A   1      38.308  20.695  25.527  1.00  0.00    -0.233 NA
ATOM     20  N   UNL A   1      38.963  22.706  26.221  1.00  0.00    -0.325 N 
ATOM     21  C   UNL A   1      37.238  21.549  25.509  1.00  0.00     0.090 A 
ATOM     22  C   UNL A   1      37.621  22.816  25.935  1.00  0.00     0.068 A 
ATOM     23  C   UNL A   1      35.905  21.309  25.141  1.00  0.00     0.052 A 
ATOM     24  C   UNL A   1      36.733  23.882  26.017  1.00  0.00     0.030 A 
ATOM     25  C   UNL A   1      35.422  23.640  25.641  1.00  0.00     0.024 A 
BRANCH  20  26
ATOM     26  C   UNL A   1      39.809  23.776  26.715  1.00  0.00     0.089 C 
ATOM     27  C   UNL A   1      39.067  24.864  27.499  1.00  0.00     0.025 C 
ATOM     28  C   UNL A   1      40.918  23.313  27.667  1.00  0.00     0.025 C 
ATOM     29  C   UNL A   1      40.157  25.560  28.300  1.00  0.00     0.002 C 
ATOM     30  C   UNL A   1      41.257  24.526  28.526  1.00  0.00     0.002 C 
ENDBRANCH  20  26
ENDBRANCH  13  16
ENDBRANCH   8  13
ENDBRANCH   4   7
ENDBRANCH   2   3
ENDBRANCH   1   2
BRANCH   1  31
ATOM     31  C   UNL A   1      32.412  28.611  26.364  1.00  0.00     0.023 C 
BRANCH  31  32
ATOM     32  C   UNL A   1      33.586  28.776  27.331  1.00  0.00     0.116 C 
BRANCH  32  33
ATOM     33  N   UNL A   1      33.699  30.102  27.898  1.00  0.00    -0.352 N 
ATOM     34  C   UNL A   1      34.749  30.938  28.157  1.00  0.00     0.251 C 
ATOM     35  H   UNL A   1      32.830  30.487  28.155  1.00  0.00     0.163 HD
ATOM     36  O   UNL A   1      34.456  32.092  28.481  1.00  0.00    -0.269 OA
BRANCH  34  37
ATOM     37  C   UNL A   1      36.176  30.524  28.162  1.00  0.00     0.039 A 
ATOM     38  C   UNL A   1      36.667  29.300  27.707  1.00  0.00     0.014 A 
ATOM     39  C   UNL A   1      37.070  31.430  28.763  1.00  0.00     0.014 A 
ATOM     40  C   UNL A   1      37.972  28.923  27.981  1.00  0.00     0.010 A 
ATOM     41  C   UNL A   1      38.387  31.071  29.010  1.00  0.00     0.010 A 
ATOM     42  C   UNL A   1      38.812  29.791  28.677  1.00  0.00    -0.014 A 
BRANCH  42  43
ATOM     43  C   UNL A   1      40.192  29.372  28.895  1.00  0.00     0.031 A 
ATOM     44  C   UNL A   1      40.495  29.098  30.333  1.00  0.00     0.074 A 
ATOM     45  C   UNL A   1      41.049  29.150  27.876  1.00  0.00     0.049 A 
ATOM     46  N   UNL A   1      41.349  29.695  31.099  1.00  0.00    -0.248 NA
ATOM     47  C   UNL A   1      39.603  28.171  31.057  1.00  0.00     0.031 C 
ATOM     48  C   UNL A   1      40.759  29.169  26.438  1.00  0.00     0.029 A 
ATOM     49  N   UNL A   1      42.354  28.756  27.904  1.00  0.00    -0.354 N 
ATOM     50  C   UNL A   1      41.269  29.050  32.332  1.00  0.00     0.074 A 
ATOM     51  C   UNL A   1      40.067  28.261  32.304  1.00  0.00     0.031 C 
ATOM     52  C   UNL A   1      41.763  28.563  25.765  1.00  0.00     0.029 A 
ATOM     53  C   UNL A   1      42.829  28.240  26.696  1.00  0.00     0.049 A 
ATOM     54  H   UNL A   1      42.914  28.828  28.709  1.00  0.00     0.167 HD
ATOM     55  C   UNL A   1      42.329  29.016  33.185  1.00  0.00     0.037 A 
ATOM     56  C   UNL A   1      43.981  27.540  26.510  1.00  0.00     0.037 A 
ATOM     57  C   UNL A   1      43.277  30.051  32.878  1.00  0.00     0.049 A 
ATOM     58  C   UNL A   1      44.854  27.850  27.675  1.00  0.00     0.074 A 
ATOM     59  C   UNL A   1      43.245  31.430  32.884  1.00  0.00     0.029 A 
ATOM     60  N   UNL A   1      44.370  29.696  32.131  1.00  0.00    -0.354 N 
ATOM     61  N   UNL A   1      45.342  29.037  27.921  1.00  0.00    -0.248 NA
ATOM     62  C   UNL A   1      44.776  26.953  28.817  1.00  0.00     0.031 C 
ATOM     63  C   UNL A   1      44.031  31.820  31.762  1.00  0.00     0.029 A 
ATOM     64  C   UNL A   1      44.562  30.665  31.182  1.00  0.00     0.049 A 
ATOM     65  H   UNL A   1      44.920  28.888  32.253  1.00  0.00     0.167 HD
ATOM     66  C   UNL A   1      45.235  29.183  29.297  1.00  0.00     0.074 A 
ATOM     67  C   UNL A   1      44.923  27.844  29.798  1.00  0.00     0.031 C 
ATOM     68  C   UNL A   1      45.125  30.414  29.873  1.00  0.00     0.037 A 
BRANCH  55  69
ATOM     69  C   UNL A   1      42.695  27.814  34.023  1.00  0.00     0.058 A 
ATOM     70  C   UNL A   1      42.708  27.924  35.429  1.00  0.00     0.135 A 
ATOM     71  C   UNL A   1      43.313  26.657  33.498  1.00  0.00     0.135 A 
ATOM     72  F   UNL A   1      42.168  28.994  36.035  1.00  0.00    -0.206 F 
ATOM     73  C   UNL A   1      43.340  26.986  36.246  1.00  0.00     0.059 A 
ATOM     74  C   UNL A   1      43.903  25.683  34.296  1.00  0.00     0.059 A 
ATOM     75  F   UNL A   1      43.463  26.460  32.183  1.00  0.00    -0.206 F 
ATOM     76  C   UNL A   1      43.942  25.872  35.667  1.00  0.00     0.060 A 
BRANCH  76  77
ATOM     77  S   UNL A   1      44.817  24.697  36.713  1.00  0.00     0.124 S 
ATOM     78  O   UNL A   1      46.201  25.118  36.536  1.00  0.00    -0.237 OA
ATOM     79  O   UNL A   1      44.229  24.966  38.021  1.00  0.00    -0.237 OA
ATOM     80  O   UNL A   1      44.469  23.405  36.131  1.00  0.00    -0.744 OA
ENDBRANCH  76  77
ENDBRANCH  55  69
BRANCH  56  81
ATOM     81  C   UNL A   1      44.183  26.312  25.680  1.00  0.00     0.058 A 
ATOM     82  C   UNL A   1      45.474  25.812  25.415  1.00  0.00     0.135 A 
ATOM     83  C   UNL A   1      43.118  25.436  25.383  1.00  0.00     0.135 A 
ATOM     84  F   UNL A   1      46.554  26.562  25.681  1.00  0.00    -0.206 F 
ATOM     85  C   UNL A   1      45.696  24.509  24.943  1.00  0.00     0.059 A 
ATOM     86  C   UNL A   1      43.315  24.138  24.905  1.00  0.00     0.059 A 
ATOM     87  F   UNL A   1      41.847  25.781  25.637  1.00  0.00    -0.206 F 
ATOM     88  C   UNL A   1      44.608  23.670  24.714  1.00  0.00     0.060 A 
BRANCH  88  89
ATOM     89  S   UNL A   1      44.889  21.936  24.275  1.00  0.00     0.124 S 
ATOM     90  O   UNL A   1      44.380  21.880  22.909  1.00  0.00    -0.237 OA
ATOM     91  O   UNL A   1      46.335  21.812  24.422  1.00  0.00    -0.237 OA
ATOM     92  O   UNL A   1      44.101  21.202  25.262  1.00  0.00    -0.744 OA
ENDBRANCH  88  89
ENDBRANCH  56  81
BRANCH  68  93
ATOM     93  C   UNL A   1      45.421  31.639  29.047  1.00  0.00     0.058 A 
ATOM     94  C   UNL A   1      46.701  32.194  28.867  1.00  0.00     0.135 A 
ATOM     95  C   UNL A   1      44.391  32.111  28.219  1.00  0.00     0.135 A 
ATOM     96  F   UNL A   1      47.752  31.743  29.565  1.00  0.00    -0.206 F 
ATOM     97  C   UNL A   1      46.943  33.169  27.894  1.00  0.00     0.059 A 
ATOM     98  C   UNL A   1      44.616  33.058  27.226  1.00  0.00     0.059 A 
ATOM     99  F   UNL A   1      43.160  31.581  28.313  1.00  0.00    -0.206 F 
ATOM    100  C   UNL A   1      45.897  33.580  27.064  1.00  0.00     0.060 A 
BRANCH 100 101
ATOM    101  S   UNL A   1      46.232  34.732  25.713  1.00  0.00     0.124 S 
ATOM    102  O   UNL A   1      47.618  34.420  25.377  1.00  0.00    -0.237 OA
ATOM    103  O   UNL A   1      45.237  34.348  24.717  1.00  0.00    -0.237 OA
ATOM    104  O   UNL A   1      46.019  36.044  26.319  1.00  0.00    -0.744 OA
ENDBRANCH 100 101
ENDBRANCH  68  93
ENDBRANCH  42  43
ENDBRANCH  34  37
ENDBRANCH  32  33
ENDBRANCH  31  32
ENDBRANCH   1  31
TORSDOF 17
ENDMDL
