MODEL 1
REMARK VINA RESULT:     -14.2      0.000      0.000
REMARK SMILES Cc1cccc(CC(=O)N2CCC3(CCC(=O)N([C@H](C)C(=O)NCCCCNC(=O)c4ccc(-c5c6nc(c(-c7c(F)cc(S(=O)(=O)[O-])cc7F)c7ccc([nH]7)c(-c7c(F)cc(S(=O)(=O)[O-])cc7F)c7nc(c(-c8c(F)cc(S(=O)(=O)[O-])cc8F)c8ccc5[nH]8)C=C7)C=C6)cc4)C3)CC2)c1
REMARK SMILES IDX 25 1 24 2 23 3 21 4 22 5 19 7 20 8 18 9 8 10 9 11 10 12
REMARK SMILES IDX 11 13 99 14 12 15 98 16 13 17 14 18 97 19 15 20 16 21 17 22
REMARK SMILES IDX 7 23 6 24 1 25 2 26 3 27 100 28 4 29 5 30 26 31 27 32 28 33
REMARK SMILES IDX 29 34 30 36 31 37 32 38 96 39 33 40 95 41 34 42 35 43 36 44
REMARK SMILES IDX 89 45 37 46 94 47 88 48 90 49 38 50 93 51 87 52 86 53 39 55
REMARK SMILES IDX 73 56 52 57 72 58 53 59 56 60 71 61 91 62 54 63 55 64 70 66
REMARK SMILES IDX 92 67 57 68 40 69 41 70 50 71 42 72 43 73 49 74 51 75 44 76
REMARK SMILES IDX 45 77 46 78 47 79 48 80 74 81 75 82 84 83 76 84 77 85 83 86
REMARK SMILES IDX 85 87 78 88 79 89 80 90 81 91 82 92 58 93 59 94 68 95 60 96
REMARK SMILES IDX 61 97 67 98 69 99 62 100 63 101 64 102 65 103 66 104
REMARK H PARENT 23 6 28 35 90 54 56 65
REMARK Flexibility Score: inf
ROOT
ATOM      1  C   UNL A   1      31.764  29.497  27.261  1.00  0.00     0.023 C 
ENDROOT
BRANCH   1   2
ATOM      2  C   UNL A   1      31.404  28.051  26.924  1.00  0.00     0.116 C 
BRANCH   2   3
ATOM      3  N   UNL A   1      32.556  27.167  26.800  1.00  0.00    -0.354 N 
ATOM      4  C   UNL A   1      33.316  26.863  25.705  1.00  0.00     0.242 C 
ATOM      5  O   UNL A   1      34.393  26.288  25.899  1.00  0.00    -0.273 OA
ATOM      6  H   UNL A   1      32.828  26.718  27.633  1.00  0.00     0.163 HD
BRANCH   4   7
ATOM      7  C   UNL A   1      32.828  27.132  24.256  1.00  0.00     0.171 C 
ATOM      8  C   UNL A   1      33.849  27.942  23.453  1.00  0.00     0.042 C 
BRANCH   7   9
ATOM      9  N   UNL A   1      32.246  26.041  23.452  1.00  0.00    -0.330 N 
ATOM     10  C   UNL A   1      33.156  19.822  25.326  1.00  0.00     0.226 C 
ATOM     11  O   UNL A   1      32.863  19.554  26.500  1.00  0.00    -0.275 OA
ATOM     12  N   UNL A   1      32.509  20.847  24.652  1.00  0.00    -0.342 N 
ATOM     13  C   UNL A   1      31.742  21.842  25.403  1.00  0.00     0.120 C 
ATOM     14  C   UNL A   1      32.420  21.020  23.210  1.00  0.00     0.120 C 
ATOM     15  C   UNL A   1      32.196  23.262  25.024  1.00  0.00     0.030 C 
ATOM     16  C   UNL A   1      33.017  22.360  22.817  1.00  0.00     0.030 C 
ATOM     17  C   UNL A   1      32.252  23.527  23.490  1.00  0.00    -0.008 C 
ATOM     18  C   UNL A   1      30.844  23.625  22.851  1.00  0.00     0.019 C 
ATOM     19  C   UNL A   1      33.024  24.836  23.207  1.00  0.00     0.127 C 
ATOM     20  C   UNL A   1      30.126  24.921  23.162  1.00  0.00     0.101 C 
ATOM     21  C   UNL A   1      30.988  26.128  22.891  1.00  0.00     0.223 C 
ATOM     22  O   UNL A   1      30.538  27.130  22.351  1.00  0.00    -0.275 OA
BRANCH  10  23
ATOM     23  C   UNL A   1      34.396  19.154  24.729  1.00  0.00     0.135 C 
BRANCH  23  24
ATOM     24  C   UNL A   1      35.747  19.782  24.949  1.00  0.00    -0.038 A 
ATOM     25  C   UNL A   1      37.159  23.297  25.422  1.00  0.00     0.044 C 
ATOM     26  C   UNL A   1      37.075  21.807  25.268  1.00  0.00    -0.051 A 
ATOM     27  C   UNL A   1      38.240  21.047  25.122  1.00  0.00     0.003 A 
ATOM     28  C   UNL A   1      35.835  21.163  25.209  1.00  0.00     0.007 A 
ATOM     29  C   UNL A   1      38.165  19.667  24.920  1.00  0.00     0.001 A 
ATOM     30  C   UNL A   1      36.924  19.033  24.834  1.00  0.00     0.004 A 
ENDBRANCH  23  24
ENDBRANCH  10  23
ENDBRANCH   7   9
ENDBRANCH   4   7
ENDBRANCH   2   3
ENDBRANCH   1   2
BRANCH   1  31
ATOM     31  C   UNL A   1      32.887  30.105  26.421  1.00  0.00     0.023 C 
BRANCH  31  32
ATOM     32  C   UNL A   1      34.289  29.898  26.984  1.00  0.00     0.116 C 
BRANCH  32  33
ATOM     33  N   UNL A   1      35.023  31.119  27.248  1.00  0.00    -0.352 N 
ATOM     34  C   UNL A   1      36.121  31.258  28.085  1.00  0.00     0.251 C 
ATOM     35  H   UNL A   1      34.711  31.932  26.787  1.00  0.00     0.163 HD
ATOM     36  O   UNL A   1      36.373  32.308  28.650  1.00  0.00    -0.269 OA
BRANCH  34  37
ATOM     37  C   UNL A   1      37.077  30.126  28.122  1.00  0.00     0.039 A 
ATOM     38  C   UNL A   1      37.093  29.340  29.282  1.00  0.00     0.014 A 
ATOM     39  C   UNL A   1      38.076  29.993  27.164  1.00  0.00     0.014 A 
ATOM     40  C   UNL A   1      38.197  28.531  29.555  1.00  0.00     0.010 A 
ATOM     41  C   UNL A   1      39.205  29.263  27.477  1.00  0.00     0.010 A 
ATOM     42  C   UNL A   1      39.285  28.553  28.686  1.00  0.00    -0.014 A 
BRANCH  42  43
ATOM     43  C   UNL A   1      40.578  27.930  28.962  1.00  0.00     0.031 A 
ATOM     44  C   UNL A   1      40.829  26.516  28.597  1.00  0.00     0.074 A 
ATOM     45  C   UNL A   1      41.614  28.688  29.383  1.00  0.00     0.049 A 
ATOM     46  N   UNL A   1      41.823  25.812  29.029  1.00  0.00    -0.248 NA
ATOM     47  C   UNL A   1      39.944  25.766  27.714  1.00  0.00     0.031 C 
ATOM     48  C   UNL A   1      43.035  28.353  29.299  1.00  0.00     0.029 A 
ATOM     49  N   UNL A   1      41.576  29.842  30.174  1.00  0.00    -0.354 N 
ATOM     50  C   UNL A   1      41.895  24.671  28.262  1.00  0.00     0.074 A 
ATOM     51  C   UNL A   1      40.662  24.658  27.508  1.00  0.00     0.031 C 
ATOM     52  C   UNL A   1      43.704  29.069  30.212  1.00  0.00     0.029 A 
ATOM     53  C   UNL A   1      42.714  29.766  31.009  1.00  0.00     0.049 A 
ATOM     54  H   UNL A   1      40.899  30.556  30.154  1.00  0.00     0.167 HD
ATOM     55  C   UNL A   1      43.052  23.943  28.247  1.00  0.00     0.037 A 
ATOM     56  C   UNL A   1      42.603  29.663  32.365  1.00  0.00     0.037 A 
ATOM     57  C   UNL A   1      44.034  24.473  29.196  1.00  0.00     0.049 A 
ATOM     58  C   UNL A   1      43.273  28.454  32.976  1.00  0.00     0.074 A 
ATOM     59  C   UNL A   1      45.185  25.233  29.057  1.00  0.00     0.029 A 
ATOM     60  N   UNL A   1      43.750  24.460  30.558  1.00  0.00    -0.354 N 
ATOM     61  N   UNL A   1      43.710  27.421  32.311  1.00  0.00    -0.248 NA
ATOM     62  C   UNL A   1      43.482  28.316  34.408  1.00  0.00     0.031 C 
ATOM     63  C   UNL A   1      45.606  25.656  30.344  1.00  0.00     0.029 A 
ATOM     64  C   UNL A   1      44.703  25.166  31.271  1.00  0.00     0.049 A 
ATOM     65  H   UNL A   1      42.973  24.009  30.961  1.00  0.00     0.167 HD
ATOM     66  C   UNL A   1      44.198  26.469  33.183  1.00  0.00     0.074 A 
ATOM     67  C   UNL A   1      44.074  27.112  34.478  1.00  0.00     0.031 C 
ATOM     68  C   UNL A   1      44.629  25.244  32.730  1.00  0.00     0.037 A 
BRANCH  55  69
ATOM     69  C   UNL A   1      43.389  22.931  27.158  1.00  0.00     0.058 A 
ATOM     70  C   UNL A   1      42.705  21.697  27.067  1.00  0.00     0.135 A 
ATOM     71  C   UNL A   1      44.422  23.086  26.212  1.00  0.00     0.135 A 
ATOM     72  F   UNL A   1      41.613  21.440  27.798  1.00  0.00    -0.206 F 
ATOM     73  C   UNL A   1      43.107  20.659  26.222  1.00  0.00     0.059 A 
ATOM     74  C   UNL A   1      44.882  22.044  25.398  1.00  0.00     0.059 A 
ATOM     75  F   UNL A   1      44.990  24.280  25.996  1.00  0.00    -0.206 F 
ATOM     76  C   UNL A   1      44.228  20.822  25.423  1.00  0.00     0.060 A 
BRANCH  76  77
ATOM     77  S   UNL A   1      44.799  19.434  24.425  1.00  0.00     0.124 S 
ATOM     78  O   UNL A   1      44.124  18.302  25.053  1.00  0.00    -0.237 OA
ATOM     79  O   UNL A   1      44.323  19.798  23.095  1.00  0.00    -0.237 OA
ATOM     80  O   UNL A   1      46.249  19.463  24.601  1.00  0.00    -0.744 OA
ENDBRANCH  76  77
ENDBRANCH  55  69
BRANCH  56  81
ATOM     81  C   UNL A   1      41.402  30.353  32.907  1.00  0.00     0.058 A 
ATOM     82  C   UNL A   1      40.268  29.567  33.188  1.00  0.00     0.135 A 
ATOM     83  C   UNL A   1      41.506  31.600  33.538  1.00  0.00     0.135 A 
ATOM     84  F   UNL A   1      40.112  28.373  32.592  1.00  0.00    -0.206 F 
ATOM     85  C   UNL A   1      39.366  29.922  34.185  1.00  0.00     0.059 A 
ATOM     86  C   UNL A   1      40.603  31.981  34.534  1.00  0.00     0.059 A 
ATOM     87  F   UNL A   1      42.560  32.393  33.299  1.00  0.00    -0.206 F 
ATOM     88  C   UNL A   1      39.587  31.096  34.899  1.00  0.00     0.060 A 
BRANCH  88  89
ATOM     89  S   UNL A   1      38.638  31.345  36.420  1.00  0.00     0.124 S 
ATOM     90  O   UNL A   1      39.639  31.923  37.310  1.00  0.00    -0.237 OA
ATOM     91  O   UNL A   1      37.592  32.261  35.972  1.00  0.00    -0.237 OA
ATOM     92  O   UNL A   1      38.192  29.999  36.761  1.00  0.00    -0.744 OA
ENDBRANCH  88  89
ENDBRANCH  56  81
BRANCH  68  93
ATOM     93  C   UNL A   1      45.070  24.006  33.527  1.00  0.00     0.058 A 
ATOM     94  C   UNL A   1      46.381  23.697  33.931  1.00  0.00     0.135 A 
ATOM     95  C   UNL A   1      44.097  23.067  33.985  1.00  0.00     0.135 A 
ATOM     96  F   UNL A   1      47.419  24.485  33.652  1.00  0.00    -0.206 F 
ATOM     97  C   UNL A   1      46.705  22.561  34.686  1.00  0.00     0.059 A 
ATOM     98  C   UNL A   1      44.392  21.951  34.771  1.00  0.00     0.059 A 
ATOM     99  F   UNL A   1      42.795  23.195  33.696  1.00  0.00    -0.206 F 
ATOM    100  C   UNL A   1      45.707  21.695  35.107  1.00  0.00     0.060 A 
BRANCH 100 101
ATOM    101  S   UNL A   1      46.140  20.283  36.137  1.00  0.00     0.124 S 
ATOM    102  O   UNL A   1      45.720  20.741  37.457  1.00  0.00    -0.237 OA
ATOM    103  O   UNL A   1      45.335  19.214  35.554  1.00  0.00    -0.237 OA
ATOM    104  O   UNL A   1      47.581  20.148  35.945  1.00  0.00    -0.744 OA
ENDBRANCH 100 101
ENDBRANCH  68  93
ENDBRANCH  42  43
ENDBRANCH  34  37
ENDBRANCH  32  33
ENDBRANCH  31  32
ENDBRANCH   1  31
TORSDOF 17
ENDMDL
MODEL 2
REMARK VINA RESULT:     -13.5      1.707      2.340
REMARK SMILES Cc1cccc(CC(=O)N2CCC3(CCC(=O)N([C@H](C)C(=O)NCCCCNC(=O)c4ccc(-c5c6nc(c(-c7c(F)cc(S(=O)(=O)[O-])cc7F)c7ccc([nH]7)c(-c7c(F)cc(S(=O)(=O)[O-])cc7F)c7nc(c(-c8c(F)cc(S(=O)(=O)[O-])cc8F)c8ccc5[nH]8)C=C7)C=C6)cc4)C3)CC2)c1
REMARK SMILES IDX 25 1 24 2 23 3 21 4 22 5 19 7 20 8 18 9 8 10 9 11 10 12
REMARK SMILES IDX 11 13 99 14 12 15 98 16 13 17 14 18 97 19 15 20 16 21 17 22
REMARK SMILES IDX 7 23 6 24 1 25 2 26 3 27 100 28 4 29 5 30 26 31 27 32 28 33
REMARK SMILES IDX 29 34 30 36 31 37 32 38 96 39 33 40 95 41 34 42 35 43 36 44
REMARK SMILES IDX 89 45 37 46 94 47 88 48 90 49 38 50 93 51 87 52 86 53 39 55
REMARK SMILES IDX 73 56 52 57 72 58 53 59 56 60 71 61 91 62 54 63 55 64 70 66
REMARK SMILES IDX 92 67 57 68 40 69 41 70 50 71 42 72 43 73 49 74 51 75 44 76
REMARK SMILES IDX 45 77 46 78 47 79 48 80 74 81 75 82 84 83 76 84 77 85 83 86
REMARK SMILES IDX 85 87 78 88 79 89 80 90 81 91 82 92 58 93 59 94 68 95 60 96
REMARK SMILES IDX 61 97 67 98 69 99 62 100 63 101 64 102 65 103 66 104
REMARK H PARENT 23 6 28 35 90 54 56 65
REMARK Flexibility Score: inf
ROOT
ATOM      1  C   UNL A   1      31.374  31.549  26.544  1.00  0.00     0.023 C 
ENDROOT
BRANCH   1   2
ATOM      2  C   UNL A   1      31.314  30.303  25.661  1.00  0.00     0.116 C 
BRANCH   2   3
ATOM      3  N   UNL A   1      32.291  29.281  26.012  1.00  0.00    -0.354 N 
ATOM      4  C   UNL A   1      33.118  28.545  25.210  1.00  0.00     0.242 C 
ATOM      5  O   UNL A   1      34.039  27.924  25.755  1.00  0.00    -0.273 OA
ATOM      6  H   UNL A   1      32.367  29.090  26.975  1.00  0.00     0.163 HD
BRANCH   4   7
ATOM      7  C   UNL A   1      32.880  28.399  23.684  1.00  0.00     0.171 C 
ATOM      8  C   UNL A   1      33.979  29.084  22.867  1.00  0.00     0.042 C 
BRANCH   7   9
ATOM      9  N   UNL A   1      32.512  27.091  23.109  1.00  0.00    -0.330 N 
ATOM     10  C   UNL A   1      34.800  21.603  25.878  1.00  0.00     0.226 C 
ATOM     11  O   UNL A   1      34.617  21.486  27.098  1.00  0.00    -0.275 OA
ATOM     12  N   UNL A   1      33.923  22.344  25.099  1.00  0.00    -0.342 N 
ATOM     13  C   UNL A   1      32.992  23.275  25.737  1.00  0.00     0.120 C 
ATOM     14  C   UNL A   1      33.742  22.244  23.659  1.00  0.00     0.120 C 
ATOM     15  C   UNL A   1      33.118  24.672  25.103  1.00  0.00     0.030 C 
ATOM     16  C   UNL A   1      34.024  23.590  23.013  1.00  0.00     0.030 C 
ATOM     17  C   UNL A   1      33.055  24.675  23.547  1.00  0.00    -0.008 C 
ATOM     18  C   UNL A   1      31.634  24.373  23.008  1.00  0.00     0.019 C 
ATOM     19  C   UNL A   1      33.518  26.045  23.002  1.00  0.00     0.127 C 
ATOM     20  C   UNL A   1      30.670  25.530  23.161  1.00  0.00     0.101 C 
ATOM     21  C   UNL A   1      31.243  26.822  22.638  1.00  0.00     0.223 C 
ATOM     22  O   UNL A   1      30.569  27.604  21.980  1.00  0.00    -0.275 OA
BRANCH  10  23
ATOM     23  C   UNL A   1      36.129  21.109  25.303  1.00  0.00     0.135 C 
BRANCH  23  24
ATOM     24  C   UNL A   1      37.399  21.839  25.654  1.00  0.00    -0.038 A 
ATOM     25  C   UNL A   1      40.989  20.931  26.576  1.00  0.00     0.044 C 
ATOM     26  C   UNL A   1      39.755  21.733  26.288  1.00  0.00    -0.051 A 
ATOM     27  C   UNL A   1      39.732  23.108  26.544  1.00  0.00     0.003 A 
ATOM     28  C   UNL A   1      38.593  21.112  25.817  1.00  0.00     0.007 A 
ATOM     29  C   UNL A   1      38.567  23.848  26.332  1.00  0.00     0.001 A 
ATOM     30  C   UNL A   1      37.402  23.219  25.888  1.00  0.00     0.004 A 
ENDBRANCH  23  24
ENDBRANCH  10  23
ENDBRANCH   7   9
ENDBRANCH   4   7
ENDBRANCH   2   3
ENDBRANCH   1   2
BRANCH   1  31
ATOM     31  C   UNL A   1      32.758  32.178  26.697  1.00  0.00     0.023 C 
BRANCH  31  32
ATOM     32  C   UNL A   1      33.586  31.627  27.853  1.00  0.00     0.116 C 
BRANCH  32  33
ATOM     33  N   UNL A   1      34.047  32.624  28.797  1.00  0.00    -0.352 N 
ATOM     34  C   UNL A   1      34.961  32.428  29.823  1.00  0.00     0.251 C 
ATOM     35  H   UNL A   1      33.677  33.532  28.700  1.00  0.00     0.163 HD
ATOM     36  O   UNL A   1      34.938  33.094  30.843  1.00  0.00    -0.269 OA
BRANCH  34  37
ATOM     37  C   UNL A   1      36.080  31.495  29.550  1.00  0.00     0.039 A 
ATOM     38  C   UNL A   1      36.117  30.308  30.293  1.00  0.00     0.014 A 
ATOM     39  C   UNL A   1      37.169  31.882  28.777  1.00  0.00     0.014 A 
ATOM     40  C   UNL A   1      37.309  29.586  30.383  1.00  0.00     0.010 A 
ATOM     41  C   UNL A   1      38.369  31.216  28.939  1.00  0.00     0.010 A 
ATOM     42  C   UNL A   1      38.453  30.085  29.765  1.00  0.00    -0.014 A 
BRANCH  42  43
ATOM     43  C   UNL A   1      39.799  29.550  29.960  1.00  0.00     0.031 A 
ATOM     44  C   UNL A   1      40.168  28.218  29.424  1.00  0.00     0.074 A 
ATOM     45  C   UNL A   1      40.770  30.339  30.468  1.00  0.00     0.049 A 
ATOM     46  N   UNL A   1      41.225  27.558  29.765  1.00  0.00    -0.248 NA
ATOM     47  C   UNL A   1      39.341  27.505  28.459  1.00  0.00     0.031 C 
ATOM     48  C   UNL A   1      42.213  30.145  30.340  1.00  0.00     0.029 A 
ATOM     49  N   UNL A   1      40.641  31.381  31.394  1.00  0.00    -0.354 N 
ATOM     50  C   UNL A   1      41.388  26.529  28.864  1.00  0.00     0.074 A 
ATOM     51  C   UNL A   1      40.151  26.499  28.117  1.00  0.00     0.031 C 
ATOM     52  C   UNL A   1      42.829  30.802  31.332  1.00  0.00     0.029 A 
ATOM     53  C   UNL A   1      41.792  31.306  32.211  1.00  0.00     0.049 A 
ATOM     54  H   UNL A   1      39.903  32.030  31.463  1.00  0.00     0.167 HD
ATOM     55  C   UNL A   1      42.603  25.914  28.758  1.00  0.00     0.037 A 
ATOM     56  C   UNL A   1      41.709  31.029  33.544  1.00  0.00     0.037 A 
ATOM     57  C   UNL A   1      43.548  26.411  29.762  1.00  0.00     0.049 A 
ATOM     58  C   UNL A   1      42.490  29.820  34.001  1.00  0.00     0.074 A 
ATOM     59  C   UNL A   1      44.626  27.281  29.714  1.00  0.00     0.029 A 
ATOM     60  N   UNL A   1      43.284  26.207  31.112  1.00  0.00    -0.354 N 
ATOM     61  N   UNL A   1      43.008  28.918  33.214  1.00  0.00    -0.248 NA
ATOM     62  C   UNL A   1      42.730  29.527  35.406  1.00  0.00     0.031 C 
ATOM     63  C   UNL A   1      45.025  27.580  31.042  1.00  0.00     0.029 A 
ATOM     64  C   UNL A   1      44.181  26.903  31.904  1.00  0.00     0.049 A 
ATOM     65  H   UNL A   1      42.555  25.643  31.459  1.00  0.00     0.167 HD
ATOM     66  C   UNL A   1      43.589  27.914  33.962  1.00  0.00     0.074 A 
ATOM     67  C   UNL A   1      43.426  28.381  35.326  1.00  0.00     0.031 C 
ATOM     68  C   UNL A   1      44.119  26.796  33.362  1.00  0.00     0.037 A 
BRANCH  55  69
ATOM     69  C   UNL A   1      43.014  25.076  27.553  1.00  0.00     0.058 A 
ATOM     70  C   UNL A   1      43.345  23.709  27.690  1.00  0.00     0.135 A 
ATOM     71  C   UNL A   1      43.165  25.575  26.243  1.00  0.00     0.135 A 
ATOM     72  F   UNL A   1      43.131  23.042  28.831  1.00  0.00    -0.206 F 
ATOM     73  C   UNL A   1      43.916  22.951  26.663  1.00  0.00     0.059 A 
ATOM     74  C   UNL A   1      43.788  24.858  25.215  1.00  0.00     0.059 A 
ATOM     75  F   UNL A   1      42.656  26.763  25.891  1.00  0.00    -0.206 F 
ATOM     76  C   UNL A   1      44.180  23.547  25.439  1.00  0.00     0.060 A 
BRANCH  76  77
ATOM     77  S   UNL A   1      45.021  22.589  24.165  1.00  0.00     0.124 S 
ATOM     78  O   UNL A   1      46.135  23.461  23.806  1.00  0.00    -0.237 OA
ATOM     79  O   UNL A   1      45.374  21.371  24.883  1.00  0.00    -0.237 OA
ATOM     80  O   UNL A   1      44.001  22.433  23.130  1.00  0.00    -0.744 OA
ENDBRANCH  76  77
ENDBRANCH  55  69
BRANCH  56  81
ATOM     81  C   UNL A   1      40.459  31.539  34.170  1.00  0.00     0.058 A 
ATOM     82  C   UNL A   1      39.423  30.615  34.408  1.00  0.00     0.135 A 
ATOM     83  C   UNL A   1      40.450  32.734  34.902  1.00  0.00     0.135 A 
ATOM     84  F   UNL A   1      39.376  29.465  33.716  1.00  0.00    -0.206 F 
ATOM     85  C   UNL A   1      38.521  30.788  35.450  1.00  0.00     0.059 A 
ATOM     86  C   UNL A   1      39.544  32.933  35.946  1.00  0.00     0.059 A 
ATOM     87  F   UNL A   1      41.406  33.653  34.708  1.00  0.00    -0.206 F 
ATOM     88  C   UNL A   1      38.638  31.917  36.257  1.00  0.00     0.060 A 
BRANCH  88  89
ATOM     89  S   UNL A   1      37.717  31.935  37.814  1.00  0.00     0.124 S 
ATOM     90  O   UNL A   1      37.240  30.559  37.900  1.00  0.00    -0.237 OA
ATOM     91  O   UNL A   1      38.758  32.301  38.772  1.00  0.00    -0.237 OA
ATOM     92  O   UNL A   1      36.690  32.945  37.585  1.00  0.00    -0.744 OA
ENDBRANCH  88  89
ENDBRANCH  56  81
BRANCH  68  93
ATOM     93  C   UNL A   1      44.678  25.515  34.001  1.00  0.00     0.058 A 
ATOM     94  C   UNL A   1      46.027  25.120  34.038  1.00  0.00     0.135 A 
ATOM     95  C   UNL A   1      43.805  24.622  34.692  1.00  0.00     0.135 A 
ATOM     96  F   UNL A   1      47.001  25.854  33.500  1.00  0.00    -0.206 F 
ATOM     97  C   UNL A   1      46.468  23.948  34.668  1.00  0.00     0.059 A 
ATOM     98  C   UNL A   1      44.228  23.470  35.360  1.00  0.00     0.059 A 
ATOM     99  F   UNL A   1      42.483  24.832  34.762  1.00  0.00    -0.206 F 
ATOM    100  C   UNL A   1      45.566  23.131  35.332  1.00  0.00     0.060 A 
BRANCH 100 101
ATOM    101  S   UNL A   1      46.167  21.670  36.195  1.00  0.00     0.124 S 
ATOM    102  O   UNL A   1      47.585  21.689  35.854  1.00  0.00    -0.237 OA
ATOM    103  O   UNL A   1      45.849  21.977  37.587  1.00  0.00    -0.237 OA
ATOM    104  O   UNL A   1      45.391  20.581  35.609  1.00  0.00    -0.744 OA
ENDBRANCH 100 101
ENDBRANCH  68  93
ENDBRANCH  42  43
ENDBRANCH  34  37
ENDBRANCH  32  33
ENDBRANCH  31  32
ENDBRANCH   1  31
TORSDOF 17
ENDMDL
MODEL 3
REMARK VINA RESULT:     -13.5      4.247     11.108
REMARK SMILES Cc1cccc(CC(=O)N2CCC3(CCC(=O)N([C@H](C)C(=O)NCCCCNC(=O)c4ccc(-c5c6nc(c(-c7c(F)cc(S(=O)(=O)[O-])cc7F)c7ccc([nH]7)c(-c7c(F)cc(S(=O)(=O)[O-])cc7F)c7nc(c(-c8c(F)cc(S(=O)(=O)[O-])cc8F)c8ccc5[nH]8)C=C7)C=C6)cc4)C3)CC2)c1
REMARK SMILES IDX 25 1 24 2 23 3 21 4 22 5 19 7 20 8 18 9 8 10 9 11 10 12
REMARK SMILES IDX 11 13 99 14 12 15 98 16 13 17 14 18 97 19 15 20 16 21 17 22
REMARK SMILES IDX 7 23 6 24 1 25 2 26 3 27 100 28 4 29 5 30 26 31 27 32 28 33
REMARK SMILES IDX 29 34 30 36 31 37 32 38 96 39 33 40 95 41 34 42 35 43 36 44
REMARK SMILES IDX 89 45 37 46 94 47 88 48 90 49 38 50 93 51 87 52 86 53 39 55
REMARK SMILES IDX 73 56 52 57 72 58 53 59 56 60 71 61 91 62 54 63 55 64 70 66
REMARK SMILES IDX 92 67 57 68 40 69 41 70 50 71 42 72 43 73 49 74 51 75 44 76
REMARK SMILES IDX 45 77 46 78 47 79 48 80 74 81 75 82 84 83 76 84 77 85 83 86
REMARK SMILES IDX 85 87 78 88 79 89 80 90 81 91 82 92 58 93 59 94 68 95 60 96
REMARK SMILES IDX 61 97 67 98 69 99 62 100 63 101 64 102 65 103 66 104
REMARK H PARENT 23 6 28 35 90 54 56 65
REMARK Flexibility Score: inf
ROOT
ATOM      1  C   UNL A   1      38.194  23.139  25.798  1.00  0.00     0.023 C 
ENDROOT
BRANCH   1   2
ATOM      2  C   UNL A   1      36.736  23.005  25.360  1.00  0.00     0.116 C 
BRANCH   2   3
ATOM      3  N   UNL A   1      36.312  21.632  25.121  1.00  0.00    -0.354 N 
ATOM      4  C   UNL A   1      35.116  21.024  25.385  1.00  0.00     0.242 C 
ATOM      5  O   UNL A   1      34.906  19.924  24.860  1.00  0.00    -0.273 OA
ATOM      6  H   UNL A   1      36.990  21.052  24.705  1.00  0.00     0.163 HD
BRANCH   4   7
ATOM      7  C   UNL A   1      34.082  21.622  26.376  1.00  0.00     0.171 C 
ATOM      8  C   UNL A   1      34.750  22.507  27.431  1.00  0.00     0.042 C 
BRANCH   7   9
ATOM      9  N   UNL A   1      32.832  22.223  25.875  1.00  0.00    -0.330 N 
ATOM     10  C   UNL A   1      32.681  28.627  24.468  1.00  0.00     0.226 C 
ATOM     11  O   UNL A   1      33.570  29.044  23.712  1.00  0.00    -0.275 OA
ATOM     12  N   UNL A   1      32.241  27.314  24.386  1.00  0.00    -0.342 N 
ATOM     13  C   UNL A   1      33.044  26.321  23.671  1.00  0.00     0.120 C 
ATOM     14  C   UNL A   1      30.974  26.789  24.873  1.00  0.00     0.120 C 
ATOM     15  C   UNL A   1      33.303  25.099  24.570  1.00  0.00     0.030 C 
ATOM     16  C   UNL A   1      31.232  25.685  25.884  1.00  0.00     0.030 C 
ATOM     17  C   UNL A   1      32.024  24.519  25.242  1.00  0.00    -0.008 C 
ATOM     18  C   UNL A   1      31.097  23.793  24.234  1.00  0.00     0.019 C 
ATOM     19  C   UNL A   1      32.417  23.530  26.363  1.00  0.00     0.127 C 
ATOM     20  C   UNL A   1      31.618  22.440  23.798  1.00  0.00     0.101 C 
ATOM     21  C   UNL A   1      32.013  21.578  24.969  1.00  0.00     0.223 C 
ATOM     22  O   UNL A   1      31.741  20.385  25.011  1.00  0.00    -0.275 OA
BRANCH  10  23
ATOM     23  C   UNL A   1      32.255  29.523  25.633  1.00  0.00     0.135 C 
BRANCH  23  24
ATOM     24  C   UNL A   1      33.284  29.952  26.646  1.00  0.00    -0.038 A 
ATOM     25  C   UNL A   1      34.187  33.136  28.545  1.00  0.00     0.044 C 
ATOM     26  C   UNL A   1      34.219  31.724  28.041  1.00  0.00    -0.051 A 
ATOM     27  C   UNL A   1      35.302  30.892  28.344  1.00  0.00     0.003 A 
ATOM     28  C   UNL A   1      33.201  31.237  27.215  1.00  0.00     0.007 A 
ATOM     29  C   UNL A   1      35.364  29.595  27.830  1.00  0.00     0.001 A 
ATOM     30  C   UNL A   1      34.360  29.123  26.983  1.00  0.00     0.004 A 
ENDBRANCH  23  24
ENDBRANCH  10  23
ENDBRANCH   7   9
ENDBRANCH   4   7
ENDBRANCH   2   3
ENDBRANCH   1   2
BRANCH   1  31
ATOM     31  C   UNL A   1      38.987  21.834  25.841  1.00  0.00     0.023 C 
BRANCH  31  32
ATOM     32  C   UNL A   1      40.020  21.750  26.960  1.00  0.00     0.116 C 
BRANCH  32  33
ATOM     33  N   UNL A   1      41.395  21.898  26.527  1.00  0.00    -0.352 N 
ATOM     34  C   UNL A   1      41.992  23.059  26.060  1.00  0.00     0.251 C 
ATOM     35  H   UNL A   1      41.962  21.093  26.571  1.00  0.00     0.163 HD
ATOM     36  O   UNL A   1      42.924  23.034  25.274  1.00  0.00    -0.269 OA
BRANCH  34  37
ATOM     37  C   UNL A   1      41.568  24.329  26.694  1.00  0.00     0.039 A 
ATOM     38  C   UNL A   1      41.500  25.463  25.873  1.00  0.00     0.014 A 
ATOM     39  C   UNL A   1      41.475  24.450  28.077  1.00  0.00     0.014 A 
ATOM     40  C   UNL A   1      41.497  26.735  26.449  1.00  0.00     0.010 A 
ATOM     41  C   UNL A   1      41.563  25.707  28.642  1.00  0.00     0.010 A 
ATOM     42  C   UNL A   1      41.605  26.853  27.833  1.00  0.00    -0.014 A 
BRANCH  42  43
ATOM     43  C   UNL A   1      41.831  28.112  28.540  1.00  0.00     0.031 A 
ATOM     44  C   UNL A   1      40.710  29.046  28.798  1.00  0.00     0.074 A 
ATOM     45  C   UNL A   1      43.024  28.349  29.127  1.00  0.00     0.049 A 
ATOM     46  N   UNL A   1      40.850  30.276  29.170  1.00  0.00    -0.248 NA
ATOM     47  C   UNL A   1      39.314  28.662  28.627  1.00  0.00     0.031 C 
ATOM     48  C   UNL A   1      43.298  29.303  30.201  1.00  0.00     0.029 A 
ATOM     49  N   UNL A   1      44.291  27.914  28.718  1.00  0.00    -0.354 N 
ATOM     50  C   UNL A   1      39.621  30.731  29.591  1.00  0.00     0.074 A 
ATOM     51  C   UNL A   1      38.689  29.712  29.165  1.00  0.00     0.031 C 
ATOM     52  C   UNL A   1      44.602  29.609  30.187  1.00  0.00     0.029 A 
ATOM     53  C   UNL A   1      45.170  28.982  29.010  1.00  0.00     0.049 A 
ATOM     54  H   UNL A   1      44.521  27.048  28.312  1.00  0.00     0.167 HD
ATOM     55  C   UNL A   1      39.550  31.848  30.376  1.00  0.00     0.037 A 
ATOM     56  C   UNL A   1      45.837  29.651  28.026  1.00  0.00     0.037 A 
ATOM     57  C   UNL A   1      40.866  32.469  30.549  1.00  0.00     0.049 A 
ATOM     58  C   UNL A   1      45.593  31.141  27.980  1.00  0.00     0.074 A 
ATOM     59  C   UNL A   1      41.782  32.495  31.589  1.00  0.00     0.029 A 
ATOM     60  N   UNL A   1      41.533  32.984  29.443  1.00  0.00    -0.354 N 
ATOM     61  N   UNL A   1      44.644  31.768  28.618  1.00  0.00    -0.248 NA
ATOM     62  C   UNL A   1      46.407  32.043  27.180  1.00  0.00     0.031 C 
ATOM     63  C   UNL A   1      42.995  33.052  31.109  1.00  0.00     0.029 A 
ATOM     64  C   UNL A   1      42.825  33.354  29.770  1.00  0.00     0.049 A 
ATOM     65  H   UNL A   1      41.137  33.074  28.545  1.00  0.00     0.167 HD
ATOM     66  C   UNL A   1      44.662  33.109  28.296  1.00  0.00     0.074 A 
ATOM     67  C   UNL A   1      45.822  33.226  27.431  1.00  0.00     0.031 C 
ATOM     68  C   UNL A   1      43.697  33.967  28.767  1.00  0.00     0.037 A 
BRANCH  55  69
ATOM     69  C   UNL A   1      38.331  32.201  31.220  1.00  0.00     0.058 A 
ATOM     70  C   UNL A   1      37.342  33.090  30.743  1.00  0.00     0.135 A 
ATOM     71  C   UNL A   1      38.109  31.747  32.535  1.00  0.00     0.135 A 
ATOM     72  F   UNL A   1      37.325  33.510  29.471  1.00  0.00    -0.206 F 
ATOM     73  C   UNL A   1      36.317  33.600  31.546  1.00  0.00     0.059 A 
ATOM     74  C   UNL A   1      37.129  32.285  33.379  1.00  0.00     0.059 A 
ATOM     75  F   UNL A   1      38.800  30.716  33.039  1.00  0.00    -0.206 F 
ATOM     76  C   UNL A   1      36.245  33.229  32.879  1.00  0.00     0.060 A 
BRANCH  76  77
ATOM     77  S   UNL A   1      34.988  33.983  33.929  1.00  0.00     0.124 S 
ATOM     78  O   UNL A   1      33.758  33.390  33.414  1.00  0.00    -0.237 OA
ATOM     79  O   UNL A   1      35.397  33.542  35.258  1.00  0.00    -0.237 OA
ATOM     80  O   UNL A   1      35.142  35.412  33.668  1.00  0.00    -0.744 OA
ENDBRANCH  76  77
ENDBRANCH  55  69
BRANCH  56  81
ATOM     81  C   UNL A   1      46.169  28.792  26.858  1.00  0.00     0.058 A 
ATOM     82  C   UNL A   1      47.405  28.117  26.872  1.00  0.00     0.135 A 
ATOM     83  C   UNL A   1      45.166  28.300  26.012  1.00  0.00     0.135 A 
ATOM     84  F   UNL A   1      48.406  28.563  27.651  1.00  0.00    -0.206 F 
ATOM     85  C   UNL A   1      47.581  26.906  26.214  1.00  0.00     0.059 A 
ATOM     86  C   UNL A   1      45.327  27.091  25.331  1.00  0.00     0.059 A 
ATOM     87  F   UNL A   1      43.974  28.909  25.950  1.00  0.00    -0.206 F 
ATOM     88  C   UNL A   1      46.509  26.369  25.506  1.00  0.00     0.060 A 
BRANCH  88  89
ATOM     89  S   UNL A   1      46.631  24.641  24.983  1.00  0.00     0.124 S 
ATOM     90  O   UNL A   1      47.566  24.728  23.865  1.00  0.00    -0.237 OA
ATOM     91  O   UNL A   1      47.152  24.001  26.189  1.00  0.00    -0.237 OA
ATOM     92  O   UNL A   1      45.258  24.298  24.632  1.00  0.00    -0.744 OA
ENDBRANCH  88  89
ENDBRANCH  56  81
BRANCH  68  93
ATOM     93  C   UNL A   1      43.450  35.445  28.425  1.00  0.00     0.058 A 
ATOM     94  C   UNL A   1      43.659  36.545  29.275  1.00  0.00     0.135 A 
ATOM     95  C   UNL A   1      43.021  35.813  27.114  1.00  0.00     0.135 A 
ATOM     96  F   UNL A   1      44.116  36.410  30.520  1.00  0.00    -0.206 F 
ATOM     97  C   UNL A   1      43.440  37.873  28.883  1.00  0.00     0.059 A 
ATOM     98  C   UNL A   1      42.836  37.131  26.690  1.00  0.00     0.059 A 
ATOM     99  F   UNL A   1      42.769  34.900  26.166  1.00  0.00    -0.206 F 
ATOM    100  C   UNL A   1      43.034  38.160  27.588  1.00  0.00     0.060 A 
BRANCH 100 101
ATOM    101  S   UNL A   1      42.830  39.877  27.087  1.00  0.00     0.124 S 
ATOM    102  O   UNL A   1      44.026  40.093  26.280  1.00  0.00    -0.237 OA
ATOM    103  O   UNL A   1      41.570  39.840  26.350  1.00  0.00    -0.237 OA
ATOM    104  O   UNL A   1      42.786  40.601  28.353  1.00  0.00    -0.744 OA
ENDBRANCH 100 101
ENDBRANCH  68  93
ENDBRANCH  42  43
ENDBRANCH  34  37
ENDBRANCH  32  33
ENDBRANCH  31  32
ENDBRANCH   1  31
TORSDOF 17
ENDMDL
