MODEL 1
REMARK VINA RESULT:     -12.6      0.000      0.000
REMARK SMILES CCCc1cc(-n2ccc(C(=O)NCCCCNC(=O)c3ccc(-c4c5nc(c(-c6c(F)cc(S(=O)(=O)[O-])cc6F)c6ccc([nH]6)c(-c6c(F)cc(S(=O)(=O)[O-])cc6F)c6nc(c(-c7c(F)cc(S(=O)(=O)[O-])cc7F)c7ccc4[nH]7)C=C6)C=C5)cc3)n2)nc(-c2ccc(C(F)(F)F)cc2)n1
REMARK SMILES IDX 15 1 14 2 13 3 11 4 12 5 10 7 7 8 8 9 87 10 9 11 6 12 4 13
REMARK SMILES IDX 5 14 100 15 89 16 88 17 3 18 2 19 1 20 90 21 91 22 99 23
REMARK SMILES IDX 92 24 98 25 93 26 94 27 95 28 96 29 97 30 16 31 17 32 18 33
REMARK SMILES IDX 19 34 20 36 21 37 22 38 86 39 23 40 85 41 24 42 25 43 26 44
REMARK SMILES IDX 79 45 27 46 84 47 78 48 80 49 28 50 83 51 77 52 76 53 29 55
REMARK SMILES IDX 63 56 42 57 62 58 43 59 46 60 61 61 81 62 44 63 45 64 60 66
REMARK SMILES IDX 82 67 47 68 30 69 31 70 40 71 32 72 33 73 39 74 41 75 34 76
REMARK SMILES IDX 35 77 36 78 37 79 38 80 64 81 65 82 74 83 66 84 67 85 73 86
REMARK SMILES IDX 75 87 68 88 69 89 70 90 71 91 72 92 48 93 49 94 58 95 50 96
REMARK SMILES IDX 51 97 57 98 59 99 52 100 53 101 54 102 55 103 56 104
REMARK H PARENT 13 6 18 35 80 54 46 65
REMARK Flexibility Score: inf
ROOT
ATOM      1  C   UNL A   1      32.504  29.504  25.510  1.00  0.00     0.023 C 
ENDROOT
BRANCH   1   2
ATOM      2  C   UNL A   1      32.143  28.869  24.161  1.00  0.00     0.116 C 
BRANCH   2   3
ATOM      3  N   UNL A   1      30.747  28.464  24.086  1.00  0.00    -0.351 N 
ATOM      4  C   UNL A   1      30.161  27.338  23.547  1.00  0.00     0.271 C 
ATOM      5  O   UNL A   1      28.925  27.308  23.490  1.00  0.00    -0.267 OA
ATOM      6  H   UNL A   1      30.114  29.100  24.489  1.00  0.00     0.163 HD
BRANCH   4   7
ATOM      7  C   UNL A   1      30.968  26.254  22.968  1.00  0.00     0.150 A 
ATOM      8  N   UNL A   1      32.112  24.457  22.844  1.00  0.00    -0.222 N 
ATOM      9  C   UNL A   1      32.470  25.184  21.730  1.00  0.00     0.118 A 
ATOM     10  N   UNL A   1      31.087  25.028  23.505  1.00  0.00    -0.161 NA
ATOM     11  C   UNL A   1      31.718  26.333  21.763  1.00  0.00     0.056 A 
BRANCH   8  12
ATOM     12  C   UNL A   1      32.805  23.351  23.402  1.00  0.00     0.157 A 
ATOM     13  C   UNL A   1      32.869  21.051  23.879  1.00  0.00     0.047 A 
ATOM     14  C   UNL A   1      32.181  22.123  23.351  1.00  0.00     0.073 A 
ATOM     15  N   UNL A   1      34.110  21.188  24.392  1.00  0.00    -0.233 NA
ATOM     16  C   UNL A   1      34.651  22.428  24.372  1.00  0.00     0.161 A 
ATOM     17  N   UNL A   1      34.049  23.522  23.884  1.00  0.00    -0.209 NA
BRANCH  13  18
ATOM     18  C   UNL A   1      32.264  19.669  23.848  1.00  0.00     0.056 C 
BRANCH  18  19
ATOM     19  C   UNL A   1      33.123  18.557  24.473  1.00  0.00     0.003 C 
ATOM     20  C   UNL A   1      33.691  17.542  23.488  1.00  0.00     0.004 C 
ENDBRANCH  18  19
ENDBRANCH  13  18
BRANCH  16  21
ATOM     21  C   UNL A   1      35.977  22.621  24.966  1.00  0.00     0.019 A 
ATOM     22  C   UNL A   1      36.335  23.825  25.590  1.00  0.00     0.012 A 
ATOM     23  C   UNL A   1      36.918  21.576  24.958  1.00  0.00     0.012 A 
ATOM     24  C   UNL A   1      37.587  23.972  26.202  1.00  0.00     0.014 A 
ATOM     25  C   UNL A   1      38.175  21.724  25.552  1.00  0.00     0.014 A 
ATOM     26  C   UNL A   1      38.520  22.923  26.187  1.00  0.00     0.056 A 
BRANCH  26  27
ATOM     27  C   UNL A   1      39.863  23.093  26.855  1.00  0.00     0.416 C 
ATOM     28  F   UNL A   1      40.182  22.031  27.646  1.00  0.00    -0.166 F 
ATOM     29  F   UNL A   1      40.883  23.211  25.963  1.00  0.00    -0.166 F 
ATOM     30  F   UNL A   1      39.938  24.188  27.662  1.00  0.00    -0.166 F 
ENDBRANCH  26  27
ENDBRANCH  16  21
ENDBRANCH   8  12
ENDBRANCH   4   7
ENDBRANCH   2   3
ENDBRANCH   1   2
BRANCH   1  31
ATOM     31  C   UNL A   1      33.420  28.681  26.424  1.00  0.00     0.023 C 
BRANCH  31  32
ATOM     32  C   UNL A   1      34.712  29.381  26.823  1.00  0.00     0.116 C 
BRANCH  32  33
ATOM     33  N   UNL A   1      34.515  30.761  27.276  1.00  0.00    -0.352 N 
ATOM     34  C   UNL A   1      35.080  31.368  28.385  1.00  0.00     0.251 C 
ATOM     35  H   UNL A   1      33.914  31.318  26.730  1.00  0.00     0.163 HD
ATOM     36  O   UNL A   1      34.570  32.370  28.886  1.00  0.00    -0.269 OA
BRANCH  34  37
ATOM     37  C   UNL A   1      36.312  30.790  28.945  1.00  0.00     0.039 A 
ATOM     38  C   UNL A   1      36.377  29.480  29.426  1.00  0.00     0.014 A 
ATOM     39  C   UNL A   1      37.447  31.594  28.916  1.00  0.00     0.014 A 
ATOM     40  C   UNL A   1      37.620  28.960  29.788  1.00  0.00     0.010 A 
ATOM     41  C   UNL A   1      38.680  31.028  29.090  1.00  0.00     0.010 A 
ATOM     42  C   UNL A   1      38.774  29.736  29.592  1.00  0.00    -0.014 A 
BRANCH  42  43
ATOM     43  C   UNL A   1      40.114  29.188  29.793  1.00  0.00     0.031 A 
ATOM     44  C   UNL A   1      40.532  29.105  31.220  1.00  0.00     0.074 A 
ATOM     45  C   UNL A   1      40.803  28.584  28.798  1.00  0.00     0.049 A 
ATOM     46  N   UNL A   1      41.440  29.798  31.823  1.00  0.00    -0.248 NA
ATOM     47  C   UNL A   1      39.736  28.262  32.131  1.00  0.00     0.031 C 
ATOM     48  C   UNL A   1      40.367  28.335  27.415  1.00  0.00     0.029 A 
ATOM     49  N   UNL A   1      42.016  27.968  28.835  1.00  0.00    -0.354 N 
ATOM     50  C   UNL A   1      41.505  29.296  33.121  1.00  0.00     0.074 A 
ATOM     51  C   UNL A   1      40.306  28.525  33.309  1.00  0.00     0.031 C 
ATOM     52  C   UNL A   1      41.183  27.432  26.830  1.00  0.00     0.029 A 
ATOM     53  C   UNL A   1      42.303  27.189  27.717  1.00  0.00     0.049 A 
ATOM     54  H   UNL A   1      42.639  28.063  29.592  1.00  0.00     0.167 HD
ATOM     55  C   UNL A   1      42.670  29.326  33.828  1.00  0.00     0.037 A 
ATOM     56  C   UNL A   1      43.394  26.410  27.515  1.00  0.00     0.037 A 
ATOM     57  C   UNL A   1      43.625  30.203  33.193  1.00  0.00     0.049 A 
ATOM     58  C   UNL A   1      44.448  26.925  28.420  1.00  0.00     0.074 A 
ATOM     59  C   UNL A   1      43.713  31.556  32.944  1.00  0.00     0.029 A 
ATOM     60  N   UNL A   1      44.513  29.587  32.347  1.00  0.00    -0.354 N 
ATOM     61  N   UNL A   1      44.970  28.118  28.314  1.00  0.00    -0.248 NA
ATOM     62  C   UNL A   1      44.627  26.281  29.711  1.00  0.00     0.031 C 
ATOM     63  C   UNL A   1      44.385  31.667  31.689  1.00  0.00     0.029 A 
ATOM     64  C   UNL A   1      44.733  30.385  31.256  1.00  0.00     0.049 A 
ATOM     65  H   UNL A   1      44.928  28.708  32.501  1.00  0.00     0.167 HD
ATOM     66  C   UNL A   1      45.156  28.541  29.621  1.00  0.00     0.074 A 
ATOM     67  C   UNL A   1      45.067  27.323  30.423  1.00  0.00     0.031 C 
ATOM     68  C   UNL A   1      45.077  29.866  29.945  1.00  0.00     0.037 A 
BRANCH  55  69
ATOM     69  C   UNL A   1      43.118  28.258  34.807  1.00  0.00     0.058 A 
ATOM     70  C   UNL A   1      43.485  28.636  36.118  1.00  0.00     0.135 A 
ATOM     71  C   UNL A   1      43.485  26.945  34.437  1.00  0.00     0.135 A 
ATOM     72  F   UNL A   1      43.197  29.863  36.581  1.00  0.00    -0.206 F 
ATOM     73  C   UNL A   1      44.220  27.800  36.964  1.00  0.00     0.059 A 
ATOM     74  C   UNL A   1      44.172  26.079  35.281  1.00  0.00     0.059 A 
ATOM     75  F   UNL A   1      43.287  26.465  33.204  1.00  0.00    -0.206 F 
ATOM     76  C   UNL A   1      44.572  26.528  36.528  1.00  0.00     0.060 A 
BRANCH  76  77
ATOM     77  S   UNL A   1      45.602  25.482  37.572  1.00  0.00     0.124 S 
ATOM     78  O   UNL A   1      45.140  24.150  37.196  1.00  0.00    -0.237 OA
ATOM     79  O   UNL A   1      46.945  25.843  37.131  1.00  0.00    -0.237 OA
ATOM     80  O   UNL A   1      45.255  25.911  38.924  1.00  0.00    -0.744 OA
ENDBRANCH  76  77
ENDBRANCH  55  69
BRANCH  56  81
ATOM     81  C   UNL A   1      43.478  25.096  26.827  1.00  0.00     0.058 A 
ATOM     82  C   UNL A   1      43.953  24.974  25.510  1.00  0.00     0.135 A 
ATOM     83  C   UNL A   1      43.352  23.896  27.556  1.00  0.00     0.135 A 
ATOM     84  F   UNL A   1      44.133  26.067  24.754  1.00  0.00    -0.206 F 
ATOM     85  C   UNL A   1      44.312  23.736  24.957  1.00  0.00     0.059 A 
ATOM     86  C   UNL A   1      43.701  22.653  27.026  1.00  0.00     0.059 A 
ATOM     87  F   UNL A   1      42.966  23.913  28.841  1.00  0.00    -0.206 F 
ATOM     88  C   UNL A   1      44.198  22.581  25.730  1.00  0.00     0.060 A 
BRANCH  88  89
ATOM     89  S   UNL A   1      44.790  21.003  25.069  1.00  0.00     0.124 S 
ATOM     90  O   UNL A   1      43.879  20.051  25.696  1.00  0.00    -0.237 OA
ATOM     91  O   UNL A   1      44.627  21.188  23.631  1.00  0.00    -0.237 OA
ATOM     92  O   UNL A   1      46.174  20.937  25.533  1.00  0.00    -0.744 OA
ENDBRANCH  88  89
ENDBRANCH  56  81
BRANCH  68  93
ATOM     93  C   UNL A   1      45.177  30.869  28.822  1.00  0.00     0.058 A 
ATOM     94  C   UNL A   1      44.080  31.451  28.162  1.00  0.00     0.135 A 
ATOM     95  C   UNL A   1      46.448  31.365  28.500  1.00  0.00     0.135 A 
ATOM     96  F   UNL A   1      42.826  31.099  28.470  1.00  0.00    -0.206 F 
ATOM     97  C   UNL A   1      44.241  32.461  27.209  1.00  0.00     0.059 A 
ATOM     98  C   UNL A   1      46.632  32.389  27.575  1.00  0.00     0.059 A 
ATOM     99  F   UNL A   1      47.533  30.889  29.133  1.00  0.00    -0.206 F 
ATOM    100  C   UNL A   1      45.524  32.927  26.926  1.00  0.00     0.060 A 
BRANCH 100 101
ATOM    101  S   UNL A   1      45.729  34.296  25.765  1.00  0.00     0.124 S 
ATOM    102  O   UNL A   1      44.907  33.870  24.638  1.00  0.00    -0.237 OA
ATOM    103  O   UNL A   1      45.225  35.437  26.523  1.00  0.00    -0.237 OA
ATOM    104  O   UNL A   1      47.169  34.316  25.512  1.00  0.00    -0.744 OA
ENDBRANCH 100 101
ENDBRANCH  68  93
ENDBRANCH  42  43
ENDBRANCH  34  37
ENDBRANCH  32  33
ENDBRANCH  31  32
ENDBRANCH   1  31
TORSDOF 19
ENDMDL
MODEL 2
REMARK VINA RESULT:     -12.0      3.747      6.844
REMARK SMILES CCCc1cc(-n2ccc(C(=O)NCCCCNC(=O)c3ccc(-c4c5nc(c(-c6c(F)cc(S(=O)(=O)[O-])cc6F)c6ccc([nH]6)c(-c6c(F)cc(S(=O)(=O)[O-])cc6F)c6nc(c(-c7c(F)cc(S(=O)(=O)[O-])cc7F)c7ccc4[nH]7)C=C6)C=C5)cc3)n2)nc(-c2ccc(C(F)(F)F)cc2)n1
REMARK SMILES IDX 15 1 14 2 13 3 11 4 12 5 10 7 7 8 8 9 87 10 9 11 6 12 4 13
REMARK SMILES IDX 5 14 100 15 89 16 88 17 3 18 2 19 1 20 90 21 91 22 99 23
REMARK SMILES IDX 92 24 98 25 93 26 94 27 95 28 96 29 97 30 16 31 17 32 18 33
REMARK SMILES IDX 19 34 20 36 21 37 22 38 86 39 23 40 85 41 24 42 25 43 26 44
REMARK SMILES IDX 79 45 27 46 84 47 78 48 80 49 28 50 83 51 77 52 76 53 29 55
REMARK SMILES IDX 63 56 42 57 62 58 43 59 46 60 61 61 81 62 44 63 45 64 60 66
REMARK SMILES IDX 82 67 47 68 30 69 31 70 40 71 32 72 33 73 39 74 41 75 34 76
REMARK SMILES IDX 35 77 36 78 37 79 38 80 64 81 65 82 74 83 66 84 67 85 73 86
REMARK SMILES IDX 75 87 68 88 69 89 70 90 71 91 72 92 48 93 49 94 58 95 50 96
REMARK SMILES IDX 51 97 57 98 59 99 52 100 53 101 54 102 55 103 56 104
REMARK H PARENT 13 6 18 35 80 54 46 65
REMARK Flexibility Score: inf
ROOT
ATOM      1  C   UNL A   1      35.112  34.284  34.381  1.00  0.00     0.023 C 
ENDROOT
BRANCH   1   2
ATOM      2  C   UNL A   1      35.003  35.579  33.565  1.00  0.00     0.116 C 
BRANCH   2   3
ATOM      3  N   UNL A   1      33.670  36.163  33.615  1.00  0.00    -0.351 N 
ATOM      4  C   UNL A   1      32.729  36.350  32.625  1.00  0.00     0.271 C 
ATOM      5  O   UNL A   1      31.721  37.008  32.911  1.00  0.00    -0.267 OA
ATOM      6  H   UNL A   1      33.394  36.477  34.505  1.00  0.00     0.163 HD
BRANCH   4   7
ATOM      7  C   UNL A   1      32.954  35.876  31.251  1.00  0.00     0.150 A 
ATOM      8  N   UNL A   1      33.662  34.668  29.641  1.00  0.00    -0.222 N 
ATOM      9  C   UNL A   1      33.352  35.881  29.066  1.00  0.00     0.118 A 
ATOM     10  N   UNL A   1      33.270  34.611  30.928  1.00  0.00    -0.161 NA
ATOM     11  C   UNL A   1      32.856  36.669  30.075  1.00  0.00     0.056 A 
BRANCH   8  12
ATOM     12  C   UNL A   1      34.461  33.636  29.083  1.00  0.00     0.157 A 
ATOM     13  C   UNL A   1      36.593  32.722  28.711  1.00  0.00     0.047 A 
ATOM     14  C   UNL A   1      35.826  33.737  29.241  1.00  0.00     0.073 A 
ATOM     15  N   UNL A   1      36.034  31.658  28.095  1.00  0.00    -0.233 NA
ATOM     16  C   UNL A   1      34.684  31.634  28.014  1.00  0.00     0.161 A 
ATOM     17  N   UNL A   1      33.867  32.581  28.496  1.00  0.00    -0.209 NA
BRANCH  13  18
ATOM     18  C   UNL A   1      38.095  32.748  28.855  1.00  0.00     0.056 C 
BRANCH  18  19
ATOM     19  C   UNL A   1      38.708  34.127  29.146  1.00  0.00     0.003 C 
ATOM     20  C   UNL A   1      38.915  34.449  30.622  1.00  0.00     0.004 C 
ENDBRANCH  18  19
ENDBRANCH  13  18
BRANCH  16  21
ATOM     21  C   UNL A   1      34.047  30.518  27.308  1.00  0.00     0.019 A 
ATOM     22  C   UNL A   1      34.732  29.319  27.059  1.00  0.00     0.012 A 
ATOM     23  C   UNL A   1      32.707  30.611  26.895  1.00  0.00     0.012 A 
ATOM     24  C   UNL A   1      34.090  28.242  26.434  1.00  0.00     0.014 A 
ATOM     25  C   UNL A   1      32.067  29.544  26.255  1.00  0.00     0.014 A 
ATOM     26  C   UNL A   1      32.751  28.345  26.024  1.00  0.00     0.056 A 
BRANCH  26  27
ATOM     27  C   UNL A   1      32.070  27.175  25.357  1.00  0.00     0.416 C 
ATOM     28  F   UNL A   1      32.463  25.981  25.884  1.00  0.00    -0.166 F 
ATOM     29  F   UNL A   1      30.717  27.210  25.486  1.00  0.00    -0.166 F 
ATOM     30  F   UNL A   1      32.320  27.086  24.021  1.00  0.00    -0.166 F 
ENDBRANCH  26  27
ENDBRANCH  16  21
ENDBRANCH   8  12
ENDBRANCH   4   7
ENDBRANCH   2   3
ENDBRANCH   1   2
BRANCH   1  31
ATOM     31  C   UNL A   1      36.524  33.867  34.808  1.00  0.00     0.023 C 
BRANCH  31  32
ATOM     32  C   UNL A   1      37.032  32.587  34.157  1.00  0.00     0.116 C 
BRANCH  32  33
ATOM     33  N   UNL A   1      36.050  31.949  33.276  1.00  0.00    -0.352 N 
ATOM     34  C   UNL A   1      36.302  31.062  32.243  1.00  0.00     0.251 C 
ATOM     35  H   UNL A   1      35.106  32.176  33.437  1.00  0.00     0.163 HD
ATOM     36  O   UNL A   1      35.481  30.891  31.342  1.00  0.00    -0.269 OA
BRANCH  34  37
ATOM     37  C   UNL A   1      37.575  30.323  32.253  1.00  0.00     0.039 A 
ATOM     38  C   UNL A   1      37.640  28.942  32.451  1.00  0.00     0.014 A 
ATOM     39  C   UNL A   1      38.725  31.058  31.986  1.00  0.00     0.014 A 
ATOM     40  C   UNL A   1      38.866  28.298  32.284  1.00  0.00     0.010 A 
ATOM     41  C   UNL A   1      39.877  30.407  31.638  1.00  0.00     0.010 A 
ATOM     42  C   UNL A   1      39.979  29.038  31.851  1.00  0.00    -0.014 A 
BRANCH  42  43
ATOM     43  C   UNL A   1      41.242  28.394  31.497  1.00  0.00     0.031 A 
ATOM     44  C   UNL A   1      42.178  28.215  32.641  1.00  0.00     0.074 A 
ATOM     45  C   UNL A   1      41.435  27.794  30.299  1.00  0.00     0.049 A 
ATOM     46  N   UNL A   1      43.302  28.817  32.848  1.00  0.00    -0.248 NA
ATOM     47  C   UNL A   1      41.739  27.384  33.777  1.00  0.00     0.031 C 
ATOM     48  C   UNL A   1      40.473  27.641  29.196  1.00  0.00     0.029 A 
ATOM     49  N   UNL A   1      42.512  27.098  29.844  1.00  0.00    -0.354 N 
ATOM     50  C   UNL A   1      43.831  28.251  34.006  1.00  0.00     0.074 A 
ATOM     51  C   UNL A   1      42.745  27.552  34.639  1.00  0.00     0.031 C 
ATOM     52  C   UNL A   1      40.919  26.715  28.321  1.00  0.00     0.029 A 
ATOM     53  C   UNL A   1      42.274  26.356  28.689  1.00  0.00     0.049 A 
ATOM     54  H   UNL A   1      43.388  27.116  30.294  1.00  0.00     0.167 HD
ATOM     55  C   UNL A   1      45.178  28.170  34.195  1.00  0.00     0.037 A 
ATOM     56  C   UNL A   1      43.134  25.518  28.059  1.00  0.00     0.037 A 
ATOM     57  C   UNL A   1      45.874  29.012  33.251  1.00  0.00     0.049 A 
ATOM     58  C   UNL A   1      44.495  25.919  28.483  1.00  0.00     0.074 A 
ATOM     59  C   UNL A   1      45.964  30.366  33.012  1.00  0.00     0.029 A 
ATOM     60  N   UNL A   1      46.307  28.379  32.113  1.00  0.00    -0.354 N 
ATOM     61  N   UNL A   1      45.026  27.078  28.201  1.00  0.00    -0.248 NA
ATOM     62  C   UNL A   1      45.114  25.203  29.587  1.00  0.00     0.031 C 
ATOM     63  C   UNL A   1      46.097  30.492  31.596  1.00  0.00     0.029 A 
ATOM     64  C   UNL A   1      46.144  29.212  31.038  1.00  0.00     0.049 A 
ATOM     65  H   UNL A   1      46.678  27.468  32.074  1.00  0.00     0.167 HD
ATOM     66  C   UNL A   1      45.744  27.425  29.336  1.00  0.00     0.074 A 
ATOM     67  C   UNL A   1      45.880  26.179  30.086  1.00  0.00     0.031 C 
ATOM     68  C   UNL A   1      45.903  28.735  29.688  1.00  0.00     0.037 A 
BRANCH  55  69
ATOM     69  C   UNL A   1      45.889  27.029  34.899  1.00  0.00     0.058 A 
ATOM     70  C   UNL A   1      46.819  27.322  35.921  1.00  0.00     0.135 A 
ATOM     71  C   UNL A   1      45.920  25.699  34.422  1.00  0.00     0.135 A 
ATOM     72  F   UNL A   1      46.888  28.555  36.448  1.00  0.00    -0.206 F 
ATOM     73  C   UNL A   1      47.754  26.389  36.377  1.00  0.00     0.059 A 
ATOM     74  C   UNL A   1      46.808  24.741  34.899  1.00  0.00     0.059 A 
ATOM     75  F   UNL A   1      45.164  25.285  33.400  1.00  0.00    -0.206 F 
ATOM     76  C   UNL A   1      47.750  25.104  35.847  1.00  0.00     0.060 A 
BRANCH  76  77
ATOM     77  S   UNL A   1      49.011  23.924  36.359  1.00  0.00     0.124 S 
ATOM     78  O   UNL A   1      50.143  24.332  35.533  1.00  0.00    -0.237 OA
ATOM     79  O   UNL A   1      49.125  24.204  37.786  1.00  0.00    -0.237 OA
ATOM     80  O   UNL A   1      48.419  22.632  36.024  1.00  0.00    -0.744 OA
ENDBRANCH  76  77
ENDBRANCH  55  69
BRANCH  56  81
ATOM     81  C   UNL A   1      42.836  24.236  27.370  1.00  0.00     0.058 A 
ATOM     82  C   UNL A   1      43.318  23.953  26.080  1.00  0.00     0.135 A 
ATOM     83  C   UNL A   1      42.299  23.146  28.085  1.00  0.00     0.135 A 
ATOM     84  F   UNL A   1      43.873  24.925  25.341  1.00  0.00    -0.206 F 
ATOM     85  C   UNL A   1      43.298  22.659  25.542  1.00  0.00     0.059 A 
ATOM     86  C   UNL A   1      42.267  21.849  27.569  1.00  0.00     0.059 A 
ATOM     87  F   UNL A   1      41.870  23.300  29.347  1.00  0.00    -0.206 F 
ATOM     88  C   UNL A   1      42.784  21.608  26.302  1.00  0.00     0.060 A 
BRANCH  88  89
ATOM     89  S   UNL A   1      42.883  19.915  25.667  1.00  0.00     0.124 S 
ATOM     90  O   UNL A   1      41.489  19.632  25.341  1.00  0.00    -0.237 OA
ATOM     91  O   UNL A   1      43.786  20.063  24.530  1.00  0.00    -0.237 OA
ATOM     92  O   UNL A   1      43.424  19.160  26.794  1.00  0.00    -0.744 OA
ENDBRANCH  88  89
ENDBRANCH  56  81
BRANCH  68  93
ATOM     93  C   UNL A   1      45.634  29.782  28.636  1.00  0.00     0.058 A 
ATOM     94  C   UNL A   1      44.380  30.366  28.383  1.00  0.00     0.135 A 
ATOM     95  C   UNL A   1      46.733  30.316  27.949  1.00  0.00     0.135 A 
ATOM     96  F   UNL A   1      43.291  29.976  29.056  1.00  0.00    -0.206 F 
ATOM     97  C   UNL A   1      44.223  31.414  27.472  1.00  0.00     0.059 A 
ATOM     98  C   UNL A   1      46.606  31.378  27.057  1.00  0.00     0.059 A 
ATOM     99  F   UNL A   1      47.967  29.839  28.185  1.00  0.00    -0.206 F 
ATOM    100  C   UNL A   1      45.346  31.918  26.817  1.00  0.00     0.060 A 
BRANCH 100 101
ATOM    101  S   UNL A   1      45.161  33.334  25.709  1.00  0.00     0.124 S 
ATOM    102  O   UNL A   1      44.477  32.742  24.565  1.00  0.00    -0.237 OA
ATOM    103  O   UNL A   1      44.371  34.264  26.510  1.00  0.00    -0.237 OA
ATOM    104  O   UNL A   1      46.539  33.754  25.462  1.00  0.00    -0.744 OA
ENDBRANCH 100 101
ENDBRANCH  68  93
ENDBRANCH  42  43
ENDBRANCH  34  37
ENDBRANCH  32  33
ENDBRANCH  31  32
ENDBRANCH   1  31
TORSDOF 19
ENDMDL
MODEL 3
REMARK VINA RESULT:     -11.6      4.117     10.353
REMARK SMILES CCCc1cc(-n2ccc(C(=O)NCCCCNC(=O)c3ccc(-c4c5nc(c(-c6c(F)cc(S(=O)(=O)[O-])cc6F)c6ccc([nH]6)c(-c6c(F)cc(S(=O)(=O)[O-])cc6F)c6nc(c(-c7c(F)cc(S(=O)(=O)[O-])cc7F)c7ccc4[nH]7)C=C6)C=C5)cc3)n2)nc(-c2ccc(C(F)(F)F)cc2)n1
REMARK SMILES IDX 15 1 14 2 13 3 11 4 12 5 10 7 7 8 8 9 87 10 9 11 6 12 4 13
REMARK SMILES IDX 5 14 100 15 89 16 88 17 3 18 2 19 1 20 90 21 91 22 99 23
REMARK SMILES IDX 92 24 98 25 93 26 94 27 95 28 96 29 97 30 16 31 17 32 18 33
REMARK SMILES IDX 19 34 20 36 21 37 22 38 86 39 23 40 85 41 24 42 25 43 26 44
REMARK SMILES IDX 79 45 27 46 84 47 78 48 80 49 28 50 83 51 77 52 76 53 29 55
REMARK SMILES IDX 63 56 42 57 62 58 43 59 46 60 61 61 81 62 44 63 45 64 60 66
REMARK SMILES IDX 82 67 47 68 30 69 31 70 40 71 32 72 33 73 39 74 41 75 34 76
REMARK SMILES IDX 35 77 36 78 37 79 38 80 64 81 65 82 74 83 66 84 67 85 73 86
REMARK SMILES IDX 75 87 68 88 69 89 70 90 71 91 72 92 48 93 49 94 58 95 50 96
REMARK SMILES IDX 51 97 57 98 59 99 52 100 53 101 54 102 55 103 56 104
REMARK H PARENT 13 6 18 35 80 54 46 65
REMARK Flexibility Score: inf
ROOT
ATOM      1  C   UNL A   1      44.858  22.595  26.340  1.00  0.00     0.023 C 
ENDROOT
BRANCH   1   2
ATOM      2  C   UNL A   1      44.427  22.082  24.960  1.00  0.00     0.116 C 
BRANCH   2   3
ATOM      3  N   UNL A   1      44.508  20.632  24.849  1.00  0.00    -0.351 N 
ATOM      4  C   UNL A   1      43.681  19.641  25.334  1.00  0.00     0.271 C 
ATOM      5  O   UNL A   1      44.061  18.470  25.217  1.00  0.00    -0.267 OA
ATOM      6  H   UNL A   1      45.285  20.303  24.342  1.00  0.00     0.163 HD
BRANCH   4   7
ATOM      7  C   UNL A   1      42.439  19.961  26.054  1.00  0.00     0.150 A 
ATOM      8  N   UNL A   1      40.623  20.957  26.568  1.00  0.00    -0.222 N 
ATOM      9  C   UNL A   1      40.994  20.280  27.710  1.00  0.00     0.118 A 
ATOM     10  N   UNL A   1      41.406  20.636  25.521  1.00  0.00    -0.161 NA
ATOM     11  C   UNL A   1      42.142  19.597  27.396  1.00  0.00     0.056 A 
BRANCH   8  12
ATOM     12  C   UNL A   1      39.682  22.014  26.469  1.00  0.00     0.157 A 
ATOM     13  C   UNL A   1      39.165  24.283  26.790  1.00  0.00     0.047 A 
ATOM     14  C   UNL A   1      40.079  23.259  26.908  1.00  0.00     0.073 A 
ATOM     15  N   UNL A   1      37.947  24.088  26.241  1.00  0.00    -0.233 NA
ATOM     16  C   UNL A   1      37.659  22.838  25.813  1.00  0.00     0.161 A 
ATOM     17  N   UNL A   1      38.487  21.786  25.894  1.00  0.00    -0.209 NA
BRANCH  13  18
ATOM     18  C   UNL A   1      39.526  25.681  27.232  1.00  0.00     0.056 C 
BRANCH  18  19
ATOM     19  C   UNL A   1      40.012  25.810  28.685  1.00  0.00     0.003 C 
ATOM     20  C   UNL A   1      41.450  26.291  28.849  1.00  0.00     0.004 C 
ENDBRANCH  18  19
ENDBRANCH  13  18
BRANCH  16  21
ATOM     21  C   UNL A   1      36.328  22.580  25.255  1.00  0.00     0.019 A 
ATOM     22  C   UNL A   1      35.533  23.616  24.741  1.00  0.00     0.012 A 
ATOM     23  C   UNL A   1      35.828  21.268  25.186  1.00  0.00     0.012 A 
ATOM     24  C   UNL A   1      34.287  23.344  24.160  1.00  0.00     0.014 A 
ATOM     25  C   UNL A   1      34.578  20.994  24.622  1.00  0.00     0.014 A 
ATOM     26  C   UNL A   1      33.796  22.031  24.097  1.00  0.00     0.056 A 
BRANCH  26  27
ATOM     27  C   UNL A   1      32.455  21.752  23.463  1.00  0.00     0.416 C 
ATOM     28  F   UNL A   1      31.586  22.790  23.620  1.00  0.00    -0.166 F 
ATOM     29  F   UNL A   1      32.540  21.538  22.123  1.00  0.00    -0.166 F 
ATOM     30  F   UNL A   1      31.822  20.662  23.981  1.00  0.00    -0.166 F 
ENDBRANCH  26  27
ENDBRANCH  16  21
ENDBRANCH   8  12
ENDBRANCH   4   7
ENDBRANCH   2   3
ENDBRANCH   1   2
BRANCH   1  31
ATOM     31  C   UNL A   1      43.823  23.422  27.111  1.00  0.00     0.023 C 
BRANCH  31  32
ATOM     32  C   UNL A   1      44.080  24.923  27.107  1.00  0.00     0.116 C 
BRANCH  32  33
ATOM     33  N   UNL A   1      45.111  25.338  26.152  1.00  0.00    -0.352 N 
ATOM     34  C   UNL A   1      45.269  26.589  25.580  1.00  0.00     0.251 C 
ATOM     35  H   UNL A   1      45.764  24.650  25.888  1.00  0.00     0.163 HD
ATOM     36  O   UNL A   1      45.900  26.730  24.533  1.00  0.00    -0.269 OA
BRANCH  34  37
ATOM     37  C   UNL A   1      44.671  27.748  26.261  1.00  0.00     0.039 A 
ATOM     38  C   UNL A   1      43.345  28.139  26.056  1.00  0.00     0.014 A 
ATOM     39  C   UNL A   1      45.473  28.412  27.184  1.00  0.00     0.014 A 
ATOM     40  C   UNL A   1      42.812  29.146  26.861  1.00  0.00     0.010 A 
ATOM     41  C   UNL A   1      44.900  29.259  28.091  1.00  0.00     0.010 A 
ATOM     42  C   UNL A   1      43.591  29.685  27.897  1.00  0.00    -0.014 A 
BRANCH  42  43
ATOM     43  C   UNL A   1      43.035  30.617  28.875  1.00  0.00     0.031 A 
ATOM     44  C   UNL A   1      43.924  31.768  29.197  1.00  0.00     0.074 A 
ATOM     45  C   UNL A   1      41.738  30.572  29.259  1.00  0.00     0.049 A 
ATOM     46  N   UNL A   1      44.545  32.006  30.304  1.00  0.00    -0.248 NA
ATOM     47  C   UNL A   1      44.298  32.685  28.104  1.00  0.00     0.031 C 
ATOM     48  C   UNL A   1      40.682  29.666  28.780  1.00  0.00     0.029 A 
ATOM     49  N   UNL A   1      41.053  31.399  30.095  1.00  0.00    -0.354 N 
ATOM     50  C   UNL A   1      45.179  33.234  30.129  1.00  0.00     0.074 A 
ATOM     51  C   UNL A   1      45.174  33.487  28.714  1.00  0.00     0.031 C 
ATOM     52  C   UNL A   1      39.471  30.137  29.144  1.00  0.00     0.029 A 
ATOM     53  C   UNL A   1      39.669  31.257  30.042  1.00  0.00     0.049 A 
ATOM     54  H   UNL A   1      41.500  32.046  30.688  1.00  0.00     0.167 HD
ATOM     55  C   UNL A   1      45.400  34.066  31.187  1.00  0.00     0.037 A 
ATOM     56  C   UNL A   1      38.741  31.992  30.703  1.00  0.00     0.037 A 
ATOM     57  C   UNL A   1      45.206  33.364  32.433  1.00  0.00     0.049 A 
ATOM     58  C   UNL A   1      39.437  32.598  31.861  1.00  0.00     0.074 A 
ATOM     59  C   UNL A   1      45.829  32.325  33.090  1.00  0.00     0.029 A 
ATOM     60  N   UNL A   1      43.958  33.492  32.989  1.00  0.00    -0.354 N 
ATOM     61  N   UNL A   1      39.947  31.902  32.841  1.00  0.00    -0.248 NA
ATOM     62  C   UNL A   1      39.946  33.954  31.730  1.00  0.00     0.031 C 
ATOM     63  C   UNL A   1      44.784  31.624  33.765  1.00  0.00     0.029 A 
ATOM     64  C   UNL A   1      43.581  32.297  33.543  1.00  0.00     0.049 A 
ATOM     65  H   UNL A   1      43.417  34.314  32.989  1.00  0.00     0.167 HD
ATOM     66  C   UNL A   1      41.122  32.561  33.169  1.00  0.00     0.074 A 
ATOM     67  C   UNL A   1      40.992  33.882  32.560  1.00  0.00     0.031 C 
ATOM     68  C   UNL A   1      42.198  31.872  33.654  1.00  0.00     0.037 A 
BRANCH  55  69
ATOM     69  C   UNL A   1      45.344  35.581  31.124  1.00  0.00     0.058 A 
ATOM     70  C   UNL A   1      46.402  36.333  31.683  1.00  0.00     0.135 A 
ATOM     71  C   UNL A   1      44.181  36.321  30.815  1.00  0.00     0.135 A 
ATOM     72  F   UNL A   1      47.556  35.738  32.026  1.00  0.00    -0.206 F 
ATOM     73  C   UNL A   1      46.284  37.694  31.978  1.00  0.00     0.059 A 
ATOM     74  C   UNL A   1      44.061  37.686  31.052  1.00  0.00     0.059 A 
ATOM     75  F   UNL A   1      43.063  35.744  30.360  1.00  0.00    -0.206 F 
ATOM     76  C   UNL A   1      45.101  38.358  31.672  1.00  0.00     0.060 A 
BRANCH  76  77
ATOM     77  S   UNL A   1      44.905  40.087  32.135  1.00  0.00     0.124 S 
ATOM     78  O   UNL A   1      43.538  40.099  32.646  1.00  0.00    -0.237 OA
ATOM     79  O   UNL A   1      45.961  40.256  33.127  1.00  0.00    -0.237 OA
ATOM     80  O   UNL A   1      45.114  40.798  30.877  1.00  0.00    -0.744 OA
ENDBRANCH  76  77
ENDBRANCH  55  69
BRANCH  56  81
ATOM     81  C   UNL A   1      37.402  32.430  30.232  1.00  0.00     0.058 A 
ATOM     82  C   UNL A   1      36.227  32.132  30.944  1.00  0.00     0.135 A 
ATOM     83  C   UNL A   1      37.281  33.395  29.211  1.00  0.00     0.135 A 
ATOM     84  F   UNL A   1      36.257  31.248  31.952  1.00  0.00    -0.206 F 
ATOM     85  C   UNL A   1      35.010  32.775  30.680  1.00  0.00     0.059 A 
ATOM     86  C   UNL A   1      36.080  34.047  28.929  1.00  0.00     0.059 A 
ATOM     87  F   UNL A   1      38.358  33.793  28.515  1.00  0.00    -0.206 F 
ATOM     88  C   UNL A   1      34.950  33.745  29.679  1.00  0.00     0.060 A 
BRANCH  88  89
ATOM     89  S   UNL A   1      33.417  34.676  29.430  1.00  0.00     0.124 S 
ATOM     90  O   UNL A   1      33.901  35.885  28.771  1.00  0.00    -0.237 OA
ATOM     91  O   UNL A   1      32.634  33.768  28.598  1.00  0.00    -0.237 OA
ATOM     92  O   UNL A   1      32.910  34.867  30.786  1.00  0.00    -0.744 OA
ENDBRANCH  88  89
ENDBRANCH  56  81
BRANCH  68  93
ATOM     93  C   UNL A   1      41.956  30.481  34.188  1.00  0.00     0.058 A 
ATOM     94  C   UNL A   1      42.057  29.300  33.431  1.00  0.00     0.135 A 
ATOM     95  C   UNL A   1      41.752  30.336  35.567  1.00  0.00     0.135 A 
ATOM     96  F   UNL A   1      42.336  29.342  32.123  1.00  0.00    -0.206 F 
ATOM     97  C   UNL A   1      41.934  28.035  34.014  1.00  0.00     0.059 A 
ATOM     98  C   UNL A   1      41.654  29.088  36.175  1.00  0.00     0.059 A 
ATOM     99  F   UNL A   1      41.701  31.423  36.354  1.00  0.00    -0.206 F 
ATOM    100  C   UNL A   1      41.738  27.940  35.391  1.00  0.00     0.060 A 
BRANCH 100 101
ATOM    101  S   UNL A   1      41.672  26.307  36.163  1.00  0.00     0.124 S 
ATOM    102  O   UNL A   1      40.883  25.544  35.202  1.00  0.00    -0.237 OA
ATOM    103  O   UNL A   1      43.082  25.942  36.257  1.00  0.00    -0.237 OA
ATOM    104  O   UNL A   1      41.018  26.562  37.444  1.00  0.00    -0.744 OA
ENDBRANCH 100 101
ENDBRANCH  68  93
ENDBRANCH  42  43
ENDBRANCH  34  37
ENDBRANCH  32  33
ENDBRANCH  31  32
ENDBRANCH   1  31
TORSDOF 19
ENDMDL
