MODEL 1
REMARK VINA RESULT:     -12.6      0.000      0.000
REMARK SMILES CC(=O)Nc1cc(NC(C)=O)cc(C(=O)Nc2ccc(Br)cc2C(=O)NCCCCNC(=O)c2ccc(-c3c4nc(c(-c5c(F)cc(S(=O)(=O)[O-])cc5F)c5ccc([nH]5)c(-c5c(F)cc(S(=O)(=O)[O-])cc5F)c5nc(c(-c6c(F)cc(S(=O)(=O)[O-])cc6F)c6ccc3[nH]6)C=C5)C=C4)cc2)c1
REMARK SMILES IDX 28 1 27 2 26 3 24 4 25 5 23 7 17 8 18 9 19 10 22 11 20 12
REMARK SMILES IDX 21 13 16 14 14 15 15 16 13 18 5 19 6 20 100 21 7 22 12 23
REMARK SMILES IDX 4 24 1 25 2 26 3 27 8 29 9 30 10 32 11 33 29 34 30 35 31 36
REMARK SMILES IDX 32 37 33 39 34 40 35 41 99 42 36 43 98 44 37 45 38 46 39 47
REMARK SMILES IDX 92 48 40 49 97 50 91 51 93 52 41 53 96 54 90 55 89 56 42 58
REMARK SMILES IDX 76 59 55 60 75 61 56 62 59 63 74 64 94 65 57 66 58 67 73 69
REMARK SMILES IDX 95 70 60 71 43 72 44 73 53 74 45 75 46 76 52 77 54 78 47 79
REMARK SMILES IDX 48 80 49 81 50 82 51 83 77 84 78 85 87 86 79 87 80 88 86 89
REMARK SMILES IDX 88 90 81 91 82 92 83 93 84 94 85 95 61 96 62 97 71 98 63 99
REMARK SMILES IDX 64 100 70 101 72 102 65 103 66 104 67 105 68 106 69 107
REMARK H PARENT 26 6 16 17 4 28 8 31 31 38 93 57 59 68
REMARK Flexibility Score: inf
ROOT
ATOM      1  C   UNL A   1      34.036  27.282  25.437  1.00  0.00     0.023 C 
ENDROOT
BRANCH   1   2
ATOM      2  C   UNL A   1      33.965  25.762  25.534  1.00  0.00     0.116 C 
BRANCH   2   3
ATOM      3  N   UNL A   1      35.228  25.088  25.302  1.00  0.00    -0.352 N 
ATOM      4  C   UNL A   1      35.477  23.889  24.681  1.00  0.00     0.253 C 
ATOM      5  O   UNL A   1      36.636  23.482  24.627  1.00  0.00    -0.269 OA
ATOM      6  H   UNL A   1      36.023  25.560  25.638  1.00  0.00     0.163 HD
BRANCH   4   7
ATOM      7  C   UNL A   1      34.387  23.025  24.153  1.00  0.00     0.064 A 
ATOM      8  C   UNL A   1      33.531  23.318  23.072  1.00  0.00     0.054 A 
ATOM      9  C   UNL A   1      32.415  22.493  22.851  1.00  0.00     0.028 A 
ATOM     10  C   UNL A   1      32.248  21.305  23.566  1.00  0.00     0.018 A 
ATOM     11  C   UNL A   1      34.228  21.807  24.844  1.00  0.00     0.031 A 
ATOM     12  C   UNL A   1      33.181  20.947  24.531  1.00  0.00     0.018 A 
ATOM     13  Br  UNL A   1      33.025  19.285  25.416  1.00  0.00    -0.051 Br
BRANCH   8  14
ATOM     14  N   UNL A   1      33.714  24.325  22.097  1.00  0.00    -0.321 N 
ATOM     15  C   UNL A   1      32.900  25.379  21.725  1.00  0.00     0.255 C 
ATOM     16  O   UNL A   1      33.115  25.967  20.668  1.00  0.00    -0.269 OA
ATOM     17  H   UNL A   1      34.562  24.265  21.600  1.00  0.00     0.170 HD
BRANCH  15  18
ATOM     18  C   UNL A   1      31.827  25.870  22.622  1.00  0.00     0.044 A 
ATOM     19  C   UNL A   1      30.503  27.706  23.467  1.00  0.00     0.044 A 
ATOM     20  C   UNL A   1      30.005  26.847  24.459  1.00  0.00     0.052 A 
ATOM     21  C   UNL A   1      31.368  27.186  22.516  1.00  0.00     0.040 A 
ATOM     22  C   UNL A   1      30.350  25.489  24.496  1.00  0.00     0.044 A 
ATOM     23  C   UNL A   1      31.284  25.006  23.577  1.00  0.00     0.040 A 
BRANCH  19  24
ATOM     24  N   UNL A   1      30.172  29.071  23.567  1.00  0.00    -0.326 N 
ATOM     25  C   UNL A   1      27.800  29.147  22.776  1.00  0.00     0.114 C 
ATOM     26  C   UNL A   1      29.094  29.804  23.165  1.00  0.00     0.221 C 
ATOM     27  O   UNL A   1      29.180  31.036  23.163  1.00  0.00    -0.275 OA
ATOM     28  H   UNL A   1      30.862  29.607  24.020  1.00  0.00     0.169 HD
ENDBRANCH  19  24
BRANCH  22  29
ATOM     29  N   UNL A   1      29.818  24.566  25.424  1.00  0.00    -0.326 N 
ATOM     30  C   UNL A   1      30.522  23.773  26.313  1.00  0.00     0.221 C 
ATOM     31  H   UNL A   1      28.839  24.475  25.437  1.00  0.00     0.169 HD
ATOM     32  C   UNL A   1      29.630  22.919  27.181  1.00  0.00     0.114 C 
ATOM     33  O   UNL A   1      31.740  23.739  26.455  1.00  0.00    -0.275 OA
ENDBRANCH  22  29
ENDBRANCH  15  18
ENDBRANCH   8  14
ENDBRANCH   4   7
ENDBRANCH   2   3
ENDBRANCH   1   2
BRANCH   1  34
ATOM     34  C   UNL A   1      32.932  28.058  26.162  1.00  0.00     0.023 C 
BRANCH  34  35
ATOM     35  C   UNL A   1      33.225  28.512  27.591  1.00  0.00     0.116 C 
BRANCH  35  36
ATOM     36  N   UNL A   1      33.383  29.952  27.740  1.00  0.00    -0.352 N 
ATOM     37  C   UNL A   1      34.491  30.693  28.084  1.00  0.00     0.251 C 
ATOM     38  H   UNL A   1      32.570  30.479  27.567  1.00  0.00     0.163 HD
ATOM     39  O   UNL A   1      34.395  31.905  28.256  1.00  0.00    -0.269 OA
BRANCH  37  40
ATOM     40  C   UNL A   1      35.793  30.022  28.289  1.00  0.00     0.039 A 
ATOM     41  C   UNL A   1      36.672  29.905  27.211  1.00  0.00     0.014 A 
ATOM     42  C   UNL A   1      36.160  29.546  29.551  1.00  0.00     0.014 A 
ATOM     43  C   UNL A   1      37.967  29.425  27.426  1.00  0.00     0.010 A 
ATOM     44  C   UNL A   1      37.472  29.138  29.777  1.00  0.00     0.010 A 
ATOM     45  C   UNL A   1      38.398  29.102  28.723  1.00  0.00    -0.014 A 
BRANCH  45  46
ATOM     46  C   UNL A   1      39.824  28.790  29.013  1.00  0.00     0.031 A 
ATOM     47  C   UNL A   1      40.740  29.844  29.569  1.00  0.00     0.074 A 
ATOM     48  C   UNL A   1      40.315  27.577  28.681  1.00  0.00     0.049 A 
ATOM     49  N   UNL A   1      42.031  29.793  29.766  1.00  0.00    -0.248 NA
ATOM     50  C   UNL A   1      40.127  31.133  29.926  1.00  0.00     0.031 C 
ATOM     51  C   UNL A   1      39.543  26.482  28.090  1.00  0.00     0.029 A 
ATOM     52  N   UNL A   1      41.587  27.067  28.780  1.00  0.00    -0.354 N 
ATOM     53  C   UNL A   1      42.391  31.043  30.254  1.00  0.00     0.074 A 
ATOM     54  C   UNL A   1      41.186  31.846  30.279  1.00  0.00     0.031 C 
ATOM     55  C   UNL A   1      40.350  25.425  27.897  1.00  0.00     0.029 A 
ATOM     56  C   UNL A   1      41.704  25.779  28.309  1.00  0.00     0.049 A 
ATOM     57  H   UNL A   1      42.344  27.575  29.151  1.00  0.00     0.167 HD
ATOM     58  C   UNL A   1      43.607  31.475  30.664  1.00  0.00     0.037 A 
ATOM     59  C   UNL A   1      42.781  24.976  28.207  1.00  0.00     0.037 A 
ATOM     60  C   UNL A   1      44.798  30.665  30.666  1.00  0.00     0.049 A 
ATOM     61  C   UNL A   1      44.123  25.482  28.660  1.00  0.00     0.074 A 
ATOM     62  C   UNL A   1      46.064  30.999  31.115  1.00  0.00     0.029 A 
ATOM     63  N   UNL A   1      44.870  29.361  30.201  1.00  0.00    -0.354 N 
ATOM     64  N   UNL A   1      44.432  26.653  29.166  1.00  0.00    -0.248 NA
ATOM     65  C   UNL A   1      45.262  24.563  28.528  1.00  0.00     0.031 C 
ATOM     66  C   UNL A   1      46.910  29.907  30.890  1.00  0.00     0.029 A 
ATOM     67  C   UNL A   1      46.162  28.881  30.336  1.00  0.00     0.049 A 
ATOM     68  H   UNL A   1      44.114  28.851  29.830  1.00  0.00     0.167 HD
ATOM     69  C   UNL A   1      45.796  26.602  29.432  1.00  0.00     0.074 A 
ATOM     70  C   UNL A   1      46.251  25.283  29.041  1.00  0.00     0.031 C 
ATOM     71  C   UNL A   1      46.598  27.562  29.953  1.00  0.00     0.037 A 
BRANCH  58  72
ATOM     72  C   UNL A   1      43.709  32.891  31.160  1.00  0.00     0.058 A 
ATOM     73  C   UNL A   1      44.040  33.947  30.296  1.00  0.00     0.135 A 
ATOM     74  C   UNL A   1      43.443  33.200  32.503  1.00  0.00     0.135 A 
ATOM     75  F   UNL A   1      44.317  33.703  29.006  1.00  0.00    -0.206 F 
ATOM     76  C   UNL A   1      44.134  35.257  30.753  1.00  0.00     0.059 A 
ATOM     77  C   UNL A   1      43.507  34.508  32.977  1.00  0.00     0.059 A 
ATOM     78  F   UNL A   1      43.122  32.227  33.371  1.00  0.00    -0.206 F 
ATOM     79  C   UNL A   1      43.870  35.526  32.097  1.00  0.00     0.060 A 
BRANCH  79  80
ATOM     80  S   UNL A   1      44.002  37.232  32.676  1.00  0.00     0.124 S 
ATOM     81  O   UNL A   1      42.924  37.286  33.659  1.00  0.00    -0.237 OA
ATOM     82  O   UNL A   1      45.356  37.276  33.217  1.00  0.00    -0.237 OA
ATOM     83  O   UNL A   1      43.788  38.018  31.465  1.00  0.00    -0.744 OA
ENDBRANCH  79  80
ENDBRANCH  58  72
BRANCH  59  84
ATOM     84  C   UNL A   1      42.636  23.599  27.666  1.00  0.00     0.058 A 
ATOM     85  C   UNL A   1      42.673  23.364  26.283  1.00  0.00     0.135 A 
ATOM     86  C   UNL A   1      42.461  22.494  28.513  1.00  0.00     0.135 A 
ATOM     87  F   UNL A   1      42.831  24.392  25.434  1.00  0.00    -0.206 F 
ATOM     88  C   UNL A   1      42.526  22.087  25.756  1.00  0.00     0.059 A 
ATOM     89  C   UNL A   1      42.335  21.202  28.010  1.00  0.00     0.059 A 
ATOM     90  F   UNL A   1      42.436  22.664  29.843  1.00  0.00    -0.206 F 
ATOM     91  C   UNL A   1      42.357  21.010  26.629  1.00  0.00     0.060 A 
BRANCH  91  92
ATOM     92  S   UNL A   1      42.211  19.347  25.939  1.00  0.00     0.124 S 
ATOM     93  O   UNL A   1      43.059  19.446  24.757  1.00  0.00    -0.237 OA
ATOM     94  O   UNL A   1      42.723  18.517  27.025  1.00  0.00    -0.237 OA
ATOM     95  O   UNL A   1      40.779  19.218  25.683  1.00  0.00    -0.744 OA
ENDBRANCH  91  92
ENDBRANCH  59  84
BRANCH  71  96
ATOM     96  C   UNL A   1      48.046  27.219  30.159  1.00  0.00     0.058 A 
ATOM     97  C   UNL A   1      49.022  27.552  29.207  1.00  0.00     0.135 A 
ATOM     98  C   UNL A   1      48.470  26.613  31.352  1.00  0.00     0.135 A 
ATOM     99  F   UNL A   1      48.664  28.123  28.046  1.00  0.00    -0.206 F 
ATOM    100  C   UNL A   1      50.369  27.288  29.427  1.00  0.00     0.059 A 
ATOM    101  C   UNL A   1      49.815  26.360  31.603  1.00  0.00     0.059 A 
ATOM    102  F   UNL A   1      47.577  26.281  32.297  1.00  0.00    -0.206 F 
ATOM    103  C   UNL A   1      50.757  26.695  30.631  1.00  0.00     0.060 A 
BRANCH 103 104
ATOM    104  S   UNL A   1      52.515  26.409  30.928  1.00  0.00     0.124 S 
ATOM    105  O   UNL A   1      53.026  26.279  29.569  1.00  0.00    -0.237 OA
ATOM    106  O   UNL A   1      52.913  27.617  31.644  1.00  0.00    -0.237 OA
ATOM    107  O   UNL A   1      52.529  25.185  31.725  1.00  0.00    -0.744 OA
ENDBRANCH 103 104
ENDBRANCH  71  96
ENDBRANCH  45  46
ENDBRANCH  37  40
ENDBRANCH  35  36
ENDBRANCH  34  35
ENDBRANCH   1  34
TORSDOF 18
ENDMDL
MODEL 2
REMARK VINA RESULT:     -12.6      4.686      9.769
REMARK SMILES CC(=O)Nc1cc(NC(C)=O)cc(C(=O)Nc2ccc(Br)cc2C(=O)NCCCCNC(=O)c2ccc(-c3c4nc(c(-c5c(F)cc(S(=O)(=O)[O-])cc5F)c5ccc([nH]5)c(-c5c(F)cc(S(=O)(=O)[O-])cc5F)c5nc(c(-c6c(F)cc(S(=O)(=O)[O-])cc6F)c6ccc3[nH]6)C=C5)C=C4)cc2)c1
REMARK SMILES IDX 28 1 27 2 26 3 24 4 25 5 23 7 17 8 18 9 19 10 22 11 20 12
REMARK SMILES IDX 21 13 16 14 14 15 15 16 13 18 5 19 6 20 100 21 7 22 12 23
REMARK SMILES IDX 4 24 1 25 2 26 3 27 8 29 9 30 10 32 11 33 29 34 30 35 31 36
REMARK SMILES IDX 32 37 33 39 34 40 35 41 99 42 36 43 98 44 37 45 38 46 39 47
REMARK SMILES IDX 92 48 40 49 97 50 91 51 93 52 41 53 96 54 90 55 89 56 42 58
REMARK SMILES IDX 76 59 55 60 75 61 56 62 59 63 74 64 94 65 57 66 58 67 73 69
REMARK SMILES IDX 95 70 60 71 43 72 44 73 53 74 45 75 46 76 52 77 54 78 47 79
REMARK SMILES IDX 48 80 49 81 50 82 51 83 77 84 78 85 87 86 79 87 80 88 86 89
REMARK SMILES IDX 88 90 81 91 82 92 83 93 84 94 85 95 61 96 62 97 71 98 63 99
REMARK SMILES IDX 64 100 70 101 72 102 65 103 66 104 67 105 68 106 69 107
REMARK H PARENT 26 6 16 17 4 28 8 31 31 38 93 57 59 68
REMARK Flexibility Score: inf
ROOT
ATOM      1  C   UNL A   1      38.491  21.807  25.432  1.00  0.00     0.023 C 
ENDROOT
BRANCH   1   2
ATOM      2  C   UNL A   1      37.016  21.537  25.706  1.00  0.00     0.116 C 
BRANCH   2   3
ATOM      3  N   UNL A   1      36.258  22.708  26.103  1.00  0.00    -0.352 N 
ATOM      4  C   UNL A   1      34.976  23.072  25.774  1.00  0.00     0.253 C 
ATOM      5  O   UNL A   1      34.538  24.141  26.197  1.00  0.00    -0.269 OA
ATOM      6  H   UNL A   1      36.733  23.333  26.697  1.00  0.00     0.163 HD
BRANCH   4   7
ATOM      7  C   UNL A   1      34.131  22.264  24.853  1.00  0.00     0.064 A 
ATOM      8  C   UNL A   1      33.622  22.673  23.604  1.00  0.00     0.054 A 
ATOM      9  C   UNL A   1      32.661  21.868  22.970  1.00  0.00     0.028 A 
ATOM     10  C   UNL A   1      32.343  20.603  23.468  1.00  0.00     0.018 A 
ATOM     11  C   UNL A   1      33.830  20.972  25.328  1.00  0.00     0.031 A 
ATOM     12  C   UNL A   1      32.963  20.143  24.623  1.00  0.00     0.018 A 
ATOM     13  Br  UNL A   1      32.627  18.388  25.234  1.00  0.00    -0.051 Br
BRANCH   8  14
ATOM     14  N   UNL A   1      34.040  23.790  22.845  1.00  0.00    -0.321 N 
ATOM     15  C   UNL A   1      33.493  25.054  22.723  1.00  0.00     0.255 C 
ATOM     16  O   UNL A   1      33.847  25.781  21.797  1.00  0.00    -0.269 OA
ATOM     17  H   UNL A   1      34.856  23.642  22.313  1.00  0.00     0.170 HD
BRANCH  15  18
ATOM     18  C   UNL A   1      32.553  25.581  23.740  1.00  0.00     0.044 A 
ATOM     19  C   UNL A   1      31.815  27.409  25.138  1.00  0.00     0.044 A 
ATOM     20  C   UNL A   1      30.973  26.511  25.812  1.00  0.00     0.052 A 
ATOM     21  C   UNL A   1      32.555  26.942  24.062  1.00  0.00     0.040 A 
ATOM     22  C   UNL A   1      30.858  25.172  25.413  1.00  0.00     0.044 A 
ATOM     23  C   UNL A   1      31.671  24.705  24.378  1.00  0.00     0.040 A 
BRANCH  19  24
ATOM     24  N   UNL A   1      31.933  28.708  25.669  1.00  0.00    -0.326 N 
ATOM     25  C   UNL A   1      34.201  28.692  26.725  1.00  0.00     0.114 C 
ATOM     26  C   UNL A   1      32.851  29.306  26.483  1.00  0.00     0.221 C 
ATOM     27  O   UNL A   1      32.573  30.394  26.993  1.00  0.00    -0.275 OA
ATOM     28  H   UNL A   1      31.202  29.308  25.398  1.00  0.00     0.169 HD
ENDBRANCH  19  24
BRANCH  22  29
ATOM     29  N   UNL A   1      29.970  24.246  26.005  1.00  0.00    -0.326 N 
ATOM     30  C   UNL A   1      30.281  23.256  26.920  1.00  0.00     0.221 C 
ATOM     31  H   UNL A   1      29.027  24.313  25.736  1.00  0.00     0.169 HD
ATOM     32  C   UNL A   1      29.077  22.463  27.368  1.00  0.00     0.114 C 
ATOM     33  O   UNL A   1      31.391  23.011  27.383  1.00  0.00    -0.275 OA
ENDBRANCH  22  29
ENDBRANCH  15  18
ENDBRANCH   8  14
ENDBRANCH   4   7
ENDBRANCH   2   3
ENDBRANCH   1   2
BRANCH   1  34
ATOM     34  C   UNL A   1      39.405  21.880  26.659  1.00  0.00     0.023 C 
BRANCH  34  35
ATOM     35  C   UNL A   1      39.841  23.270  27.120  1.00  0.00     0.116 C 
BRANCH  35  36
ATOM     36  N   UNL A   1      40.405  24.099  26.064  1.00  0.00    -0.352 N 
ATOM     37  C   UNL A   1      40.895  25.385  26.110  1.00  0.00     0.251 C 
ATOM     38  H   UNL A   1      40.442  23.674  25.178  1.00  0.00     0.163 HD
ATOM     39  O   UNL A   1      41.239  25.953  25.077  1.00  0.00    -0.269 OA
BRANCH  37  40
ATOM     40  C   UNL A   1      40.967  26.101  27.402  1.00  0.00     0.039 A 
ATOM     41  C   UNL A   1      42.095  26.871  27.688  1.00  0.00     0.014 A 
ATOM     42  C   UNL A   1      39.907  26.044  28.310  1.00  0.00     0.014 A 
ATOM     43  C   UNL A   1      42.107  27.683  28.825  1.00  0.00     0.010 A 
ATOM     44  C   UNL A   1      39.889  26.908  29.403  1.00  0.00     0.010 A 
ATOM     45  C   UNL A   1      40.977  27.759  29.654  1.00  0.00    -0.014 A 
BRANCH  45  46
ATOM     46  C   UNL A   1      40.880  28.764  30.747  1.00  0.00     0.031 A 
ATOM     47  C   UNL A   1      41.764  28.664  31.959  1.00  0.00     0.074 A 
ATOM     48  C   UNL A   1      39.923  29.714  30.689  1.00  0.00     0.049 A 
ATOM     49  N   UNL A   1      41.736  29.368  33.060  1.00  0.00    -0.248 NA
ATOM     50  C   UNL A   1      42.797  27.616  31.940  1.00  0.00     0.031 C 
ATOM     51  C   UNL A   1      38.968  29.891  29.591  1.00  0.00     0.029 A 
ATOM     52  N   UNL A   1      39.583  30.701  31.581  1.00  0.00    -0.354 N 
ATOM     53  C   UNL A   1      42.734  28.843  33.872  1.00  0.00     0.074 A 
ATOM     54  C   UNL A   1      43.318  27.729  33.153  1.00  0.00     0.031 C 
ATOM     55  C   UNL A   1      38.167  30.933  29.865  1.00  0.00     0.029 A 
ATOM     56  C   UNL A   1      38.518  31.473  31.174  1.00  0.00     0.049 A 
ATOM     57  H   UNL A   1      40.056  30.843  32.433  1.00  0.00     0.167 HD
ATOM     58  C   UNL A   1      43.141  29.262  35.094  1.00  0.00     0.037 A 
ATOM     59  C   UNL A   1      37.886  32.491  31.789  1.00  0.00     0.037 A 
ATOM     60  C   UNL A   1      42.579  30.388  35.793  1.00  0.00     0.049 A 
ATOM     61  C   UNL A   1      38.351  32.932  33.150  1.00  0.00     0.074 A 
ATOM     62  C   UNL A   1      42.963  30.923  37.011  1.00  0.00     0.029 A 
ATOM     63  N   UNL A   1      41.517  31.155  35.339  1.00  0.00    -0.354 N 
ATOM     64  N   UNL A   1      39.330  32.453  33.880  1.00  0.00    -0.248 NA
ATOM     65  C   UNL A   1      37.626  34.049  33.773  1.00  0.00     0.031 C 
ATOM     66  C   UNL A   1      42.111  31.992  37.308  1.00  0.00     0.029 A 
ATOM     67  C   UNL A   1      41.221  32.148  36.258  1.00  0.00     0.049 A 
ATOM     68  H   UNL A   1      41.043  31.015  34.487  1.00  0.00     0.167 HD
ATOM     69  C   UNL A   1      39.352  33.224  35.037  1.00  0.00     0.074 A 
ATOM     70  C   UNL A   1      38.296  34.207  34.906  1.00  0.00     0.031 C 
ATOM     71  C   UNL A   1      40.173  33.126  36.110  1.00  0.00     0.037 A 
BRANCH  58  72
ATOM     72  C   UNL A   1      44.263  28.505  35.749  1.00  0.00     0.058 A 
ATOM     73  C   UNL A   1      45.605  28.845  35.523  1.00  0.00     0.135 A 
ATOM     74  C   UNL A   1      43.993  27.450  36.636  1.00  0.00     0.135 A 
ATOM     75  F   UNL A   1      45.918  29.836  34.673  1.00  0.00    -0.206 F 
ATOM     76  C   UNL A   1      46.644  28.146  36.128  1.00  0.00     0.059 A 
ATOM     77  C   UNL A   1      45.016  26.753  37.273  1.00  0.00     0.059 A 
ATOM     78  F   UNL A   1      42.726  27.086  36.888  1.00  0.00    -0.206 F 
ATOM     79  C   UNL A   1      46.338  27.099  36.999  1.00  0.00     0.060 A 
BRANCH  79  80
ATOM     80  S   UNL A   1      47.698  26.198  37.773  1.00  0.00     0.124 S 
ATOM     81  O   UNL A   1      47.112  25.844  39.062  1.00  0.00    -0.237 OA
ATOM     82  O   UNL A   1      47.909  25.090  36.846  1.00  0.00    -0.237 OA
ATOM     83  O   UNL A   1      48.774  27.183  37.821  1.00  0.00    -0.744 OA
ENDBRANCH  79  80
ENDBRANCH  58  72
BRANCH  59  84
ATOM     84  C   UNL A   1      36.751  33.177  31.118  1.00  0.00     0.058 A 
ATOM     85  C   UNL A   1      36.977  34.072  30.061  1.00  0.00     0.135 A 
ATOM     86  C   UNL A   1      35.424  32.955  31.514  1.00  0.00     0.135 A 
ATOM     87  F   UNL A   1      38.232  34.322  29.652  1.00  0.00    -0.206 F 
ATOM     88  C   UNL A   1      35.931  34.734  29.429  1.00  0.00     0.059 A 
ATOM     89  C   UNL A   1      34.357  33.587  30.881  1.00  0.00     0.059 A 
ATOM     90  F   UNL A   1      35.154  32.096  32.509  1.00  0.00    -0.206 F 
ATOM     91  C   UNL A   1      34.622  34.484  29.847  1.00  0.00     0.060 A 
BRANCH  91  92
ATOM     92  S   UNL A   1      33.265  35.315  28.992  1.00  0.00     0.124 S 
ATOM     93  O   UNL A   1      32.692  34.219  28.219  1.00  0.00    -0.237 OA
ATOM     94  O   UNL A   1      32.455  35.805  30.103  1.00  0.00    -0.237 OA
ATOM     95  O   UNL A   1      33.944  36.350  28.218  1.00  0.00    -0.744 OA
ENDBRANCH  91  92
ENDBRANCH  59  84
BRANCH  71  96
ATOM     96  C   UNL A   1      39.987  34.121  37.220  1.00  0.00     0.058 A 
ATOM     97  C   UNL A   1      40.626  35.369  37.203  1.00  0.00     0.135 A 
ATOM     98  C   UNL A   1      39.105  33.848  38.278  1.00  0.00     0.135 A 
ATOM     99  F   UNL A   1      41.486  35.673  36.218  1.00  0.00    -0.206 F 
ATOM    100  C   UNL A   1      40.404  36.311  38.200  1.00  0.00     0.059 A 
ATOM    101  C   UNL A   1      38.850  34.784  39.275  1.00  0.00     0.059 A 
ATOM    102  F   UNL A   1      38.463  32.670  38.337  1.00  0.00    -0.206 F 
ATOM    103  C   UNL A   1      39.510  36.011  39.231  1.00  0.00     0.060 A 
BRANCH 103 104
ATOM    104  S   UNL A   1      39.188  37.265  40.490  1.00  0.00     0.124 S 
ATOM    105  O   UNL A   1      40.498  37.891  40.625  1.00  0.00    -0.237 OA
ATOM    106  O   UNL A   1      38.155  38.082  39.862  1.00  0.00    -0.237 OA
ATOM    107  O   UNL A   1      38.744  36.483  41.641  1.00  0.00    -0.744 OA
ENDBRANCH 103 104
ENDBRANCH  71  96
ENDBRANCH  45  46
ENDBRANCH  37  40
ENDBRANCH  35  36
ENDBRANCH  34  35
ENDBRANCH   1  34
TORSDOF 18
ENDMDL
MODEL 3
REMARK VINA RESULT:     -12.3      0.598      2.641
REMARK SMILES CC(=O)Nc1cc(NC(C)=O)cc(C(=O)Nc2ccc(Br)cc2C(=O)NCCCCNC(=O)c2ccc(-c3c4nc(c(-c5c(F)cc(S(=O)(=O)[O-])cc5F)c5ccc([nH]5)c(-c5c(F)cc(S(=O)(=O)[O-])cc5F)c5nc(c(-c6c(F)cc(S(=O)(=O)[O-])cc6F)c6ccc3[nH]6)C=C5)C=C4)cc2)c1
REMARK SMILES IDX 28 1 27 2 26 3 24 4 25 5 23 7 17 8 18 9 19 10 22 11 20 12
REMARK SMILES IDX 21 13 16 14 14 15 15 16 13 18 5 19 6 20 100 21 7 22 12 23
REMARK SMILES IDX 4 24 1 25 2 26 3 27 8 29 9 30 10 32 11 33 29 34 30 35 31 36
REMARK SMILES IDX 32 37 33 39 34 40 35 41 99 42 36 43 98 44 37 45 38 46 39 47
REMARK SMILES IDX 92 48 40 49 97 50 91 51 93 52 41 53 96 54 90 55 89 56 42 58
REMARK SMILES IDX 76 59 55 60 75 61 56 62 59 63 74 64 94 65 57 66 58 67 73 69
REMARK SMILES IDX 95 70 60 71 43 72 44 73 53 74 45 75 46 76 52 77 54 78 47 79
REMARK SMILES IDX 48 80 49 81 50 82 51 83 77 84 78 85 87 86 79 87 80 88 86 89
REMARK SMILES IDX 88 90 81 91 82 92 83 93 84 94 85 95 61 96 62 97 71 98 63 99
REMARK SMILES IDX 64 100 70 101 72 102 65 103 66 104 67 105 68 106 69 107
REMARK H PARENT 26 6 16 17 4 28 8 31 31 38 93 57 59 68
REMARK Flexibility Score: inf
ROOT
ATOM      1  C   UNL A   1      34.143  27.043  25.440  1.00  0.00     0.023 C 
ENDROOT
BRANCH   1   2
ATOM      2  C   UNL A   1      34.133  25.537  25.678  1.00  0.00     0.116 C 
BRANCH   2   3
ATOM      3  N   UNL A   1      35.357  24.862  25.294  1.00  0.00    -0.352 N 
ATOM      4  C   UNL A   1      35.528  23.685  24.608  1.00  0.00     0.253 C 
ATOM      5  O   UNL A   1      36.671  23.271  24.421  1.00  0.00    -0.269 OA
ATOM      6  H   UNL A   1      36.188  25.315  25.565  1.00  0.00     0.163 HD
BRANCH   4   7
ATOM      7  C   UNL A   1      34.380  22.850  24.163  1.00  0.00     0.064 A 
ATOM      8  C   UNL A   1      33.458  23.164  23.144  1.00  0.00     0.054 A 
ATOM      9  C   UNL A   1      32.307  22.370  23.006  1.00  0.00     0.028 A 
ATOM     10  C   UNL A   1      32.159  21.188  23.737  1.00  0.00     0.018 A 
ATOM     11  C   UNL A   1      34.237  21.639  24.870  1.00  0.00     0.031 A 
ATOM     12  C   UNL A   1      33.147  20.807  24.635  1.00  0.00     0.018 A 
ATOM     13  Br  UNL A   1      33.009  19.153  25.537  1.00  0.00    -0.051 Br
BRANCH   8  14
ATOM     14  N   UNL A   1      33.599  24.162  22.154  1.00  0.00    -0.321 N 
ATOM     15  C   UNL A   1      32.790  25.238  21.835  1.00  0.00     0.255 C 
ATOM     16  O   UNL A   1      32.946  25.817  20.762  1.00  0.00    -0.269 OA
ATOM     17  H   UNL A   1      34.407  24.077  21.597  1.00  0.00     0.170 HD
BRANCH  15  18
ATOM     18  C   UNL A   1      31.798  25.761  22.804  1.00  0.00     0.044 A 
ATOM     19  C   UNL A   1      30.388  25.400  24.733  1.00  0.00     0.044 A 
ATOM     20  C   UNL A   1      29.767  26.631  24.469  1.00  0.00     0.052 A 
ATOM     21  C   UNL A   1      31.445  25.006  23.927  1.00  0.00     0.040 A 
ATOM     22  C   UNL A   1      30.201  27.464  23.428  1.00  0.00     0.044 A 
ATOM     23  C   UNL A   1      31.214  27.011  22.581  1.00  0.00     0.040 A 
BRANCH  19  24
ATOM     24  N   UNL A   1      29.823  24.593  25.739  1.00  0.00    -0.326 N 
ATOM     25  C   UNL A   1      31.824  23.664  26.920  1.00  0.00     0.114 C 
ATOM     26  C   UNL A   1      30.350  23.704  26.631  1.00  0.00     0.221 C 
ATOM     27  O   UNL A   1      29.586  22.949  27.238  1.00  0.00    -0.275 OA
ATOM     28  H   UNL A   1      28.847  24.691  25.815  1.00  0.00     0.169 HD
ENDBRANCH  19  24
BRANCH  22  29
ATOM     29  N   UNL A   1      29.664  28.744  23.168  1.00  0.00    -0.326 N 
ATOM     30  C   UNL A   1      28.330  29.077  23.012  1.00  0.00     0.221 C 
ATOM     31  H   UNL A   1      30.312  29.481  23.086  1.00  0.00     0.169 HD
ATOM     32  C   UNL A   1      28.111  30.551  22.772  1.00  0.00     0.114 C 
ATOM     33  O   UNL A   1      27.374  28.312  23.079  1.00  0.00    -0.275 OA
ENDBRANCH  22  29
ENDBRANCH  15  18
ENDBRANCH   8  14
ENDBRANCH   4   7
ENDBRANCH   2   3
ENDBRANCH   1   2
BRANCH   1  34
ATOM     34  C   UNL A   1      33.024  27.842  26.115  1.00  0.00     0.023 C 
BRANCH  34  35
ATOM     35  C   UNL A   1      33.313  28.403  27.507  1.00  0.00     0.116 C 
BRANCH  35  36
ATOM     36  N   UNL A   1      33.475  29.849  27.546  1.00  0.00    -0.352 N 
ATOM     37  C   UNL A   1      34.583  30.611  27.841  1.00  0.00     0.251 C 
ATOM     38  H   UNL A   1      32.665  30.364  27.329  1.00  0.00     0.163 HD
ATOM     39  O   UNL A   1      34.490  31.833  27.919  1.00  0.00    -0.269 OA
BRANCH  37  40
ATOM     40  C   UNL A   1      35.881  29.954  28.105  1.00  0.00     0.039 A 
ATOM     41  C   UNL A   1      36.827  29.886  27.081  1.00  0.00     0.014 A 
ATOM     42  C   UNL A   1      36.177  29.443  29.371  1.00  0.00     0.014 A 
ATOM     43  C   UNL A   1      38.114  29.419  27.360  1.00  0.00     0.010 A 
ATOM     44  C   UNL A   1      37.481  29.048  29.666  1.00  0.00     0.010 A 
ATOM     45  C   UNL A   1      38.471  29.061  28.670  1.00  0.00    -0.014 A 
BRANCH  45  46
ATOM     46  C   UNL A   1      39.880  28.761  29.039  1.00  0.00     0.031 A 
ATOM     47  C   UNL A   1      40.738  29.807  29.694  1.00  0.00     0.074 A 
ATOM     48  C   UNL A   1      40.416  27.572  28.691  1.00  0.00     0.049 A 
ATOM     49  N   UNL A   1      42.016  29.770  29.971  1.00  0.00    -0.248 NA
ATOM     50  C   UNL A   1      40.080  31.069  30.062  1.00  0.00     0.031 C 
ATOM     51  C   UNL A   1      39.704  26.488  28.008  1.00  0.00     0.029 A 
ATOM     52  N   UNL A   1      41.688  27.079  28.850  1.00  0.00    -0.354 N 
ATOM     53  C   UNL A   1      42.320  31.005  30.530  1.00  0.00     0.074 A 
ATOM     54  C   UNL A   1      41.100  31.786  30.510  1.00  0.00     0.031 C 
ATOM     55  C   UNL A   1      40.542  25.454  27.826  1.00  0.00     0.029 A 
ATOM     56  C   UNL A   1      41.860  25.814  28.337  1.00  0.00     0.049 A 
ATOM     57  H   UNL A   1      42.410  27.585  29.289  1.00  0.00     0.167 HD
ATOM     58  C   UNL A   1      43.499  31.441  31.034  1.00  0.00     0.037 A 
ATOM     59  C   UNL A   1      42.957  25.034  28.273  1.00  0.00     0.037 A 
ATOM     60  C   UNL A   1      44.702  30.652  31.080  1.00  0.00     0.049 A 
ATOM     61  C   UNL A   1      44.257  25.545  28.831  1.00  0.00     0.074 A 
ATOM     62  C   UNL A   1      45.931  30.988  31.622  1.00  0.00     0.029 A 
ATOM     63  N   UNL A   1      44.829  29.369  30.569  1.00  0.00    -0.354 N 
ATOM     64  N   UNL A   1      44.511  26.698  29.401  1.00  0.00    -0.248 NA
ATOM     65  C   UNL A   1      45.421  24.651  28.735  1.00  0.00     0.031 C 
ATOM     66  C   UNL A   1      46.810  29.921  31.408  1.00  0.00     0.029 A 
ATOM     67  C   UNL A   1      46.120  28.906  30.768  1.00  0.00     0.049 A 
ATOM     68  H   UNL A   1      44.109  28.861  30.130  1.00  0.00     0.167 HD
ATOM     69  C   UNL A   1      45.856  26.660  29.751  1.00  0.00     0.074 A 
ATOM     70  C   UNL A   1      46.360  25.366  29.339  1.00  0.00     0.031 C 
ATOM     71  C   UNL A   1      46.605  27.611  30.361  1.00  0.00     0.037 A 
BRANCH  58  72
ATOM     72  C   UNL A   1      43.541  32.836  31.591  1.00  0.00     0.058 A 
ATOM     73  C   UNL A   1      43.352  33.084  32.960  1.00  0.00     0.135 A 
ATOM     74  C   UNL A   1      43.805  33.934  30.756  1.00  0.00     0.135 A 
ATOM     75  F   UNL A   1      43.083  32.072  33.799  1.00  0.00    -0.206 F 
ATOM     76  C   UNL A   1      43.392  34.374  33.478  1.00  0.00     0.059 A 
ATOM     77  C   UNL A   1      43.874  35.231  31.256  1.00  0.00     0.059 A 
ATOM     78  F   UNL A   1      43.994  33.752  29.439  1.00  0.00    -0.206 F 
ATOM     79  C   UNL A   1      43.650  35.441  32.616  1.00  0.00     0.060 A 
BRANCH  79  80
ATOM     80  S   UNL A   1      43.692  37.111  33.303  1.00  0.00     0.124 S 
ATOM     81  O   UNL A   1      43.655  37.922  32.089  1.00  0.00    -0.237 OA
ATOM     82  O   UNL A   1      42.487  37.144  34.125  1.00  0.00    -0.237 OA
ATOM     83  O   UNL A   1      44.951  37.142  34.040  1.00  0.00    -0.744 OA
ENDBRANCH  79  80
ENDBRANCH  58  72
BRANCH  59  84
ATOM     84  C   UNL A   1      42.873  23.679  27.669  1.00  0.00     0.058 A 
ATOM     85  C   UNL A   1      42.430  22.582  28.425  1.00  0.00     0.135 A 
ATOM     86  C   UNL A   1      43.228  23.450  26.331  1.00  0.00     0.135 A 
ATOM     87  F   UNL A   1      42.087  22.752  29.712  1.00  0.00    -0.206 F 
ATOM     88  C   UNL A   1      42.357  21.304  27.883  1.00  0.00     0.059 A 
ATOM     89  C   UNL A   1      43.141  22.184  25.759  1.00  0.00     0.059 A 
ATOM     90  F   UNL A   1      43.641  24.468  25.562  1.00  0.00    -0.206 F 
ATOM     91  C   UNL A   1      42.716  21.115  26.547  1.00  0.00     0.060 A 
BRANCH  91  92
ATOM     92  S   UNL A   1      42.576  19.460  25.837  1.00  0.00     0.124 S 
ATOM     93  O   UNL A   1      43.154  18.639  26.895  1.00  0.00    -0.237 OA
ATOM     94  O   UNL A   1      41.136  19.329  25.642  1.00  0.00    -0.237 OA
ATOM     95  O   UNL A   1      43.360  19.557  24.609  1.00  0.00    -0.744 OA
ENDBRANCH  91  92
ENDBRANCH  59  84
BRANCH  71  96
ATOM     96  C   UNL A   1      48.043  27.285  30.645  1.00  0.00     0.058 A 
ATOM     97  C   UNL A   1      48.422  26.574  31.794  1.00  0.00     0.135 A 
ATOM     98  C   UNL A   1      49.045  27.628  29.724  1.00  0.00     0.135 A 
ATOM     99  F   UNL A   1      47.501  26.233  32.709  1.00  0.00    -0.206 F 
ATOM    100  C   UNL A   1      49.746  26.221  32.025  1.00  0.00     0.059 A 
ATOM    101  C   UNL A   1      50.373  27.265  29.923  1.00  0.00     0.059 A 
ATOM    102  F   UNL A   1      48.734  28.302  28.605  1.00  0.00    -0.206 F 
ATOM    103  C   UNL A   1      50.715  26.568  31.080  1.00  0.00     0.060 A 
BRANCH 103 104
ATOM    104  S   UNL A   1      52.423  26.054  31.364  1.00  0.00     0.124 S 
ATOM    105  O   UNL A   1      52.961  26.056  30.008  1.00  0.00    -0.237 OA
ATOM    106  O   UNL A   1      52.924  27.103  32.247  1.00  0.00    -0.237 OA
ATOM    107  O   UNL A   1      52.283  24.739  31.983  1.00  0.00    -0.744 OA
ENDBRANCH 103 104
ENDBRANCH  71  96
ENDBRANCH  45  46
ENDBRANCH  37  40
ENDBRANCH  35  36
ENDBRANCH  34  35
ENDBRANCH   1  34
TORSDOF 18
ENDMDL
