MODEL 1
REMARK VINA RESULT:     -12.3      0.000      0.000
REMARK SMILES CC[NH+]1CCC2(CC1)OC[C@H](C(=O)NCCCCNC(=O)c1ccc(-c3c4nc(c(-c5c(F)cc(S(=O)(=O)[O-])cc5F)c5ccc([nH]5)c(-c5c(F)cc(S(=O)(=O)[O-])cc5F)c5nc(c(-c6c(F)cc(S(=O)(=O)[O-])cc6F)c6ccc3[nH]6)C=C5)C=C4)cc1)N2C(=O)c1ccc(F)cc1
REMARK SMILES IDX 17 1 16 2 15 3 14 4 12 5 13 6 11 8 3 9 4 10 8 11 5 13 7 14
REMARK SMILES IDX 6 15 9 16 88 17 10 18 2 19 1 20 89 21 90 22 91 23 92 24
REMARK SMILES IDX 97 25 93 26 96 27 94 28 95 29 18 30 19 31 20 32 21 34 22 35
REMARK SMILES IDX 23 36 87 37 24 38 86 39 25 40 26 41 27 42 80 43 28 44 85 45
REMARK SMILES IDX 79 46 81 47 29 48 84 49 78 50 77 51 30 53 64 54 43 55 63 56
REMARK SMILES IDX 44 57 47 58 62 59 82 60 45 61 46 62 61 64 83 65 48 66 31 67
REMARK SMILES IDX 32 68 41 69 33 70 34 71 40 72 42 73 35 74 36 75 37 76 38 77
REMARK SMILES IDX 39 78 65 79 66 80 75 81 67 82 68 83 74 84 76 85 69 86 70 87
REMARK SMILES IDX 71 88 72 89 73 90 49 91 50 92 59 93 51 94 52 95 58 96 60 97
REMARK SMILES IDX 53 98 54 99 55 100 56 101 57 102
REMARK H PARENT 14 7 3 12 19 33 81 52 47 63
REMARK Flexibility Score: inf
ROOT
ATOM      1  C   UNL A   1      32.299  28.287  26.296  1.00  0.00     0.023 C 
ENDROOT
BRANCH   1   2
ATOM      2  C   UNL A   1      31.190  27.436  26.920  1.00  0.00     0.023 C 
BRANCH   2   3
ATOM      3  C   UNL A   1      30.677  26.305  26.033  1.00  0.00     0.116 C 
BRANCH   3   4
ATOM      4  N   UNL A   1      31.028  25.006  26.568  1.00  0.00    -0.354 N 
ATOM      5  C   UNL A   1      31.763  24.003  26.009  1.00  0.00     0.245 C 
ATOM      6  O   UNL A   1      31.958  23.009  26.714  1.00  0.00    -0.273 OA
ATOM      7  H   UNL A   1      30.683  24.819  27.472  1.00  0.00     0.163 HD
BRANCH   5   8
ATOM      8  C   UNL A   1      32.284  24.106  24.554  1.00  0.00     0.203 C 
ATOM      9  N   UNL A   1      36.687  21.531  25.136  1.00  0.00    -0.335 N 
ATOM     10  C   UNL A   1      35.610  21.816  26.069  1.00  0.00     0.267 C 
ATOM     11  C   UNL A   1      36.636  22.159  23.818  1.00  0.00     0.267 C 
ATOM     12  H   UNL A   1      36.428  20.563  24.952  1.00  0.00     0.348 HD
ATOM     13  C   UNL A   1      35.072  23.221  25.997  1.00  0.00     0.120 C 
ATOM     14  C   UNL A   1      35.787  23.416  23.622  1.00  0.00     0.120 C 
ATOM     15  C   UNL A   1      34.618  23.597  24.587  1.00  0.00     0.155 C 
ATOM     16  O   UNL A   1      34.441  25.052  24.646  1.00  0.00    -0.352 OA
ATOM     17  N   UNL A   1      33.283  23.100  24.189  1.00  0.00    -0.295 N 
ATOM     18  C   UNL A   1      33.072  25.381  24.374  1.00  0.00     0.198 C 
BRANCH   9  19
ATOM     19  C   UNL A   1      38.043  21.445  25.674  1.00  0.00     0.258 C 
ATOM     20  C   UNL A   1      38.665  22.776  26.087  1.00  0.00     0.071 C 
ENDBRANCH   9  19
BRANCH  17  21
ATOM     21  C   UNL A   1      32.856  22.043  23.396  1.00  0.00     0.256 C 
ATOM     22  O   UNL A   1      32.639  22.165  22.189  1.00  0.00    -0.269 OA
BRANCH  21  23
ATOM     23  C   UNL A   1      32.678  20.674  23.893  1.00  0.00     0.040 A 
ATOM     24  C   UNL A   1      32.853  20.428  25.262  1.00  0.00     0.017 A 
ATOM     25  C   UNL A   1      32.539  19.604  23.004  1.00  0.00     0.017 A 
ATOM     26  C   UNL A   1      32.753  19.121  25.749  1.00  0.00     0.040 A 
ATOM     27  C   UNL A   1      32.413  18.302  23.494  1.00  0.00     0.040 A 
ATOM     28  C   UNL A   1      32.506  18.075  24.864  1.00  0.00     0.123 A 
ATOM     29  F   UNL A   1      32.366  16.832  25.338  1.00  0.00    -0.207 F 
ENDBRANCH  21  23
ENDBRANCH  17  21
ENDBRANCH   5   8
ENDBRANCH   3   4
ENDBRANCH   2   3
ENDBRANCH   1   2
BRANCH   1  30
ATOM     30  C   UNL A   1      33.460  28.634  27.224  1.00  0.00     0.116 C 
BRANCH  30  31
ATOM     31  N   UNL A   1      33.445  30.019  27.667  1.00  0.00    -0.352 N 
ATOM     32  C   UNL A   1      34.444  30.744  28.273  1.00  0.00     0.251 C 
ATOM     33  H   UNL A   1      32.603  30.505  27.513  1.00  0.00     0.163 HD
ATOM     34  O   UNL A   1      34.221  31.879  28.685  1.00  0.00    -0.269 OA
BRANCH  32  35
ATOM     35  C   UNL A   1      35.776  30.132  28.462  1.00  0.00     0.039 A 
ATOM     36  C   UNL A   1      36.657  30.095  27.379  1.00  0.00     0.014 A 
ATOM     37  C   UNL A   1      36.168  29.640  29.711  1.00  0.00     0.014 A 
ATOM     38  C   UNL A   1      37.967  29.650  27.572  1.00  0.00     0.010 A 
ATOM     39  C   UNL A   1      37.491  29.257  29.915  1.00  0.00     0.010 A 
ATOM     40  C   UNL A   1      38.409  29.277  28.853  1.00  0.00    -0.014 A 
BRANCH  40  41
ATOM     41  C   UNL A   1      39.838  28.972  29.113  1.00  0.00     0.031 A 
ATOM     42  C   UNL A   1      40.761  30.031  29.645  1.00  0.00     0.074 A 
ATOM     43  C   UNL A   1      40.318  27.755  28.790  1.00  0.00     0.049 A 
ATOM     44  N   UNL A   1      42.051  29.969  29.856  1.00  0.00    -0.248 NA
ATOM     45  C   UNL A   1      40.163  31.337  29.961  1.00  0.00     0.031 C 
ATOM     46  C   UNL A   1      39.529  26.659  28.220  1.00  0.00     0.029 A 
ATOM     47  N   UNL A   1      41.586  27.236  28.877  1.00  0.00    -0.354 N 
ATOM     48  C   UNL A   1      42.421  31.225  30.322  1.00  0.00     0.074 A 
ATOM     49  C   UNL A   1      41.227  32.043  30.318  1.00  0.00     0.031 C 
ATOM     50  C   UNL A   1      40.325  25.596  28.025  1.00  0.00     0.029 A 
ATOM     51  C   UNL A   1      41.688  25.945  28.413  1.00  0.00     0.049 A 
ATOM     52  H   UNL A   1      42.350  27.740  29.238  1.00  0.00     0.167 HD
ATOM     53  C   UNL A   1      43.640  31.648  30.732  1.00  0.00     0.037 A 
ATOM     54  C   UNL A   1      42.760  25.137  28.297  1.00  0.00     0.037 A 
ATOM     55  C   UNL A   1      44.821  30.823  30.744  1.00  0.00     0.049 A 
ATOM     56  C   UNL A   1      44.108  25.640  28.736  1.00  0.00     0.074 A 
ATOM     57  C   UNL A   1      46.088  31.141  31.200  1.00  0.00     0.029 A 
ATOM     58  N   UNL A   1      44.885  29.520  30.269  1.00  0.00    -0.354 N 
ATOM     59  N   UNL A   1      44.425  26.809  29.241  1.00  0.00    -0.248 NA
ATOM     60  C   UNL A   1      45.242  24.718  28.589  1.00  0.00     0.031 C 
ATOM     61  C   UNL A   1      46.929  30.051  30.957  1.00  0.00     0.029 A 
ATOM     62  C   UNL A   1      46.177  29.033  30.392  1.00  0.00     0.049 A 
ATOM     63  H   UNL A   1      44.125  29.017  29.898  1.00  0.00     0.167 HD
ATOM     64  C   UNL A   1      45.793  26.756  29.486  1.00  0.00     0.074 A 
ATOM     65  C   UNL A   1      46.237  25.434  29.093  1.00  0.00     0.031 C 
ATOM     66  C   UNL A   1      46.607  27.717  29.988  1.00  0.00     0.037 A 
BRANCH  53  67
ATOM     67  C   UNL A   1      43.763  33.072  31.205  1.00  0.00     0.058 A 
ATOM     68  C   UNL A   1      43.641  33.410  32.561  1.00  0.00     0.135 A 
ATOM     69  C   UNL A   1      44.047  34.104  30.296  1.00  0.00     0.135 A 
ATOM     70  F   UNL A   1      43.355  32.464  33.472  1.00  0.00    -0.206 F 
ATOM     71  C   UNL A   1      43.769  34.724  32.999  1.00  0.00     0.059 A 
ATOM     72  C   UNL A   1      44.207  35.423  30.715  1.00  0.00     0.059 A 
ATOM     73  F   UNL A   1      44.174  33.838  28.987  1.00  0.00    -0.206 F 
ATOM     74  C   UNL A   1      44.053  35.724  32.067  1.00  0.00     0.060 A 
BRANCH  74  75
ATOM     75  S   UNL A   1      44.223  37.423  32.653  1.00  0.00     0.124 S 
ATOM     76  O   UNL A   1      45.569  37.400  33.221  1.00  0.00    -0.237 OA
ATOM     77  O   UNL A   1      44.069  38.195  31.424  1.00  0.00    -0.237 OA
ATOM     78  O   UNL A   1      43.137  37.562  33.618  1.00  0.00    -0.744 OA
ENDBRANCH  74  75
ENDBRANCH  53  67
BRANCH  54  79
ATOM     79  C   UNL A   1      42.599  23.767  27.744  1.00  0.00     0.058 A 
ATOM     80  C   UNL A   1      42.620  23.540  26.360  1.00  0.00     0.135 A 
ATOM     81  C   UNL A   1      42.440  22.654  28.586  1.00  0.00     0.135 A 
ATOM     82  F   UNL A   1      42.761  24.572  25.514  1.00  0.00    -0.206 F 
ATOM     83  C   UNL A   1      42.475  22.262  25.829  1.00  0.00     0.059 A 
ATOM     84  C   UNL A   1      42.320  21.365  28.079  1.00  0.00     0.059 A 
ATOM     85  F   UNL A   1      42.431  22.815  29.919  1.00  0.00    -0.206 F 
ATOM     86  C   UNL A   1      42.329  21.180  26.697  1.00  0.00     0.060 A 
BRANCH  86  87
ATOM     87  S   UNL A   1      42.196  19.519  25.999  1.00  0.00     0.124 S 
ATOM     88  O   UNL A   1      40.767  19.429  25.727  1.00  0.00    -0.237 OA
ATOM     89  O   UNL A   1      43.065  19.610  24.830  1.00  0.00    -0.237 OA
ATOM     90  O   UNL A   1      42.692  18.664  27.073  1.00  0.00    -0.744 OA
ENDBRANCH  86  87
ENDBRANCH  54  79
BRANCH  66  91
ATOM     91  C   UNL A   1      48.062  27.373  30.151  1.00  0.00     0.058 A 
ATOM     92  C   UNL A   1      48.999  27.653  29.145  1.00  0.00     0.135 A 
ATOM     93  C   UNL A   1      48.532  26.798  31.343  1.00  0.00     0.135 A 
ATOM     94  F   UNL A   1      48.601  28.195  27.983  1.00  0.00    -0.206 F 
ATOM     95  C   UNL A   1      50.349  27.359  29.307  1.00  0.00     0.059 A 
ATOM     96  C   UNL A   1      49.881  26.519  31.537  1.00  0.00     0.059 A 
ATOM     97  F   UNL A   1      47.679  26.516  32.341  1.00  0.00    -0.206 F 
ATOM     98  C   UNL A   1      50.781  26.793  30.508  1.00  0.00     0.060 A 
BRANCH  98  99
ATOM     99  S   UNL A   1      52.540  26.447  30.717  1.00  0.00     0.124 S 
ATOM    100  O   UNL A   1      52.994  27.642  31.421  1.00  0.00    -0.237 OA
ATOM    101  O   UNL A   1      52.526  25.217  31.504  1.00  0.00    -0.237 OA
ATOM    102  O   UNL A   1      53.024  26.302  29.348  1.00  0.00    -0.744 OA
ENDBRANCH  98  99
ENDBRANCH  66  91
ENDBRANCH  40  41
ENDBRANCH  32  35
ENDBRANCH  30  31
ENDBRANCH   1  30
TORSDOF 17
ENDMDL
MODEL 2
REMARK VINA RESULT:     -12.1      3.469      9.751
REMARK SMILES CC[NH+]1CCC2(CC1)OC[C@H](C(=O)NCCCCNC(=O)c1ccc(-c3c4nc(c(-c5c(F)cc(S(=O)(=O)[O-])cc5F)c5ccc([nH]5)c(-c5c(F)cc(S(=O)(=O)[O-])cc5F)c5nc(c(-c6c(F)cc(S(=O)(=O)[O-])cc6F)c6ccc3[nH]6)C=C5)C=C4)cc1)N2C(=O)c1ccc(F)cc1
REMARK SMILES IDX 17 1 16 2 15 3 14 4 12 5 13 6 11 8 3 9 4 10 8 11 5 13 7 14
REMARK SMILES IDX 6 15 9 16 88 17 10 18 2 19 1 20 89 21 90 22 91 23 92 24
REMARK SMILES IDX 97 25 93 26 96 27 94 28 95 29 18 30 19 31 20 32 21 34 22 35
REMARK SMILES IDX 23 36 87 37 24 38 86 39 25 40 26 41 27 42 80 43 28 44 85 45
REMARK SMILES IDX 79 46 81 47 29 48 84 49 78 50 77 51 30 53 64 54 43 55 63 56
REMARK SMILES IDX 44 57 47 58 62 59 82 60 45 61 46 62 61 64 83 65 48 66 31 67
REMARK SMILES IDX 32 68 41 69 33 70 34 71 40 72 42 73 35 74 36 75 37 76 38 77
REMARK SMILES IDX 39 78 65 79 66 80 75 81 67 82 68 83 74 84 76 85 69 86 70 87
REMARK SMILES IDX 71 88 72 89 73 90 49 91 50 92 59 93 51 94 52 95 58 96 60 97
REMARK SMILES IDX 53 98 54 99 55 100 56 101 57 102
REMARK H PARENT 14 7 3 12 19 33 81 52 47 63
REMARK Flexibility Score: inf
ROOT
ATOM      1  C   UNL A   1      35.765  23.155  25.940  1.00  0.00     0.023 C 
ENDROOT
BRANCH   1   2
ATOM      2  C   UNL A   1      34.549  22.835  25.067  1.00  0.00     0.023 C 
BRANCH   2   3
ATOM      3  C   UNL A   1      33.201  22.998  25.763  1.00  0.00     0.116 C 
BRANCH   3   4
ATOM      4  N   UNL A   1      32.134  23.231  24.812  1.00  0.00    -0.354 N 
ATOM      5  C   UNL A   1      31.831  24.353  24.100  1.00  0.00     0.245 C 
ATOM      6  O   UNL A   1      30.888  24.261  23.309  1.00  0.00    -0.273 OA
ATOM      7  H   UNL A   1      31.538  22.462  24.656  1.00  0.00     0.163 HD
BRANCH   5   8
ATOM      8  C   UNL A   1      32.611  25.674  24.314  1.00  0.00     0.203 C 
ATOM      9  N   UNL A   1      28.770  28.974  23.469  1.00  0.00    -0.335 N 
ATOM     10  C   UNL A   1      28.801  27.521  23.496  1.00  0.00     0.267 C 
ATOM     11  C   UNL A   1      30.041  29.688  23.571  1.00  0.00     0.267 C 
ATOM     12  H   UNL A   1      28.350  29.098  24.389  1.00  0.00     0.348 HD
ATOM     13  C   UNL A   1      29.992  26.906  22.810  1.00  0.00     0.120 C 
ATOM     14  C   UNL A   1      31.338  28.959  23.216  1.00  0.00     0.120 C 
ATOM     15  C   UNL A   1      31.316  27.438  23.357  1.00  0.00     0.155 C 
ATOM     16  O   UNL A   1      32.312  26.987  22.380  1.00  0.00    -0.352 OA
ATOM     17  N   UNL A   1      31.775  26.834  24.627  1.00  0.00    -0.295 N 
ATOM     18  C   UNL A   1      33.252  26.113  23.020  1.00  0.00     0.198 C 
BRANCH   9  19
ATOM     19  C   UNL A   1      27.828  29.614  22.554  1.00  0.00     0.258 C 
ATOM     20  C   UNL A   1      27.683  31.123  22.719  1.00  0.00     0.071 C 
ENDBRANCH   9  19
BRANCH  17  21
ATOM     21  C   UNL A   1      31.749  27.259  25.949  1.00  0.00     0.256 C 
ATOM     22  O   UNL A   1      31.029  26.733  26.799  1.00  0.00    -0.269 OA
BRANCH  21  23
ATOM     23  C   UNL A   1      32.608  28.324  26.478  1.00  0.00     0.040 A 
ATOM     24  C   UNL A   1      32.025  29.556  26.807  1.00  0.00     0.017 A 
ATOM     25  C   UNL A   1      34.000  28.192  26.465  1.00  0.00     0.017 A 
ATOM     26  C   UNL A   1      32.832  30.607  27.252  1.00  0.00     0.040 A 
ATOM     27  C   UNL A   1      34.803  29.234  26.933  1.00  0.00     0.040 A 
ATOM     28  C   UNL A   1      34.210  30.427  27.337  1.00  0.00     0.123 A 
ATOM     29  F   UNL A   1      34.975  31.420  27.805  1.00  0.00    -0.207 F 
ENDBRANCH  21  23
ENDBRANCH  17  21
ENDBRANCH   5   8
ENDBRANCH   3   4
ENDBRANCH   2   3
ENDBRANCH   1   2
BRANCH   1  30
ATOM     30  C   UNL A   1      37.011  23.614  25.188  1.00  0.00     0.116 C 
BRANCH  30  31
ATOM     31  N   UNL A   1      38.159  22.745  25.398  1.00  0.00    -0.352 N 
ATOM     32  C   UNL A   1      39.330  23.007  26.069  1.00  0.00     0.251 C 
ATOM     33  H   UNL A   1      38.089  21.846  25.005  1.00  0.00     0.163 HD
ATOM     34  O   UNL A   1      40.247  22.191  26.054  1.00  0.00    -0.269 OA
BRANCH  32  35
ATOM     35  C   UNL A   1      39.493  24.296  26.773  1.00  0.00     0.039 A 
ATOM     36  C   UNL A   1      38.903  24.454  28.030  1.00  0.00     0.014 A 
ATOM     37  C   UNL A   1      40.262  25.324  26.219  1.00  0.00     0.014 A 
ATOM     38  C   UNL A   1      39.160  25.608  28.771  1.00  0.00     0.010 A 
ATOM     39  C   UNL A   1      40.568  26.446  26.986  1.00  0.00     0.010 A 
ATOM     40  C   UNL A   1      40.037  26.589  28.277  1.00  0.00    -0.014 A 
BRANCH  40  41
ATOM     41  C   UNL A   1      40.463  27.735  29.121  1.00  0.00     0.031 A 
ATOM     42  C   UNL A   1      41.740  27.671  29.908  1.00  0.00     0.074 A 
ATOM     43  C   UNL A   1      39.647  28.801  29.237  1.00  0.00     0.049 A 
ATOM     44  N   UNL A   1      42.229  28.539  30.757  1.00  0.00    -0.248 NA
ATOM     45  C   UNL A   1      42.568  26.467  29.736  1.00  0.00     0.031 C 
ATOM     46  C   UNL A   1      38.357  28.957  28.560  1.00  0.00     0.029 A 
ATOM     47  N   UNL A   1      39.771  29.951  29.976  1.00  0.00    -0.354 N 
ATOM     48  C   UNL A   1      43.414  27.986  31.225  1.00  0.00     0.074 A 
ATOM     49  C   UNL A   1      43.547  26.687  30.603  1.00  0.00     0.031 C 
ATOM     50  C   UNL A   1      37.818  30.137  28.902  1.00  0.00     0.029 A 
ATOM     51  C   UNL A   1      38.699  30.805  29.855  1.00  0.00     0.049 A 
ATOM     52  H   UNL A   1      40.553  30.147  30.541  1.00  0.00     0.167 HD
ATOM     53  C   UNL A   1      44.315  28.522  32.083  1.00  0.00     0.037 A 
ATOM     54  C   UNL A   1      38.445  31.985  30.454  1.00  0.00     0.037 A 
ATOM     55  C   UNL A   1      44.180  29.822  32.690  1.00  0.00     0.049 A 
ATOM     56  C   UNL A   1      39.450  32.547  31.421  1.00  0.00     0.074 A 
ATOM     57  C   UNL A   1      45.070  30.479  33.521  1.00  0.00     0.029 A 
ATOM     58  N   UNL A   1      43.083  30.659  32.541  1.00  0.00    -0.354 N 
ATOM     59  N   UNL A   1      40.601  32.041  31.798  1.00  0.00    -0.248 NA
ATOM     60  C   UNL A   1      39.125  33.837  32.044  1.00  0.00     0.031 C 
ATOM     61  C   UNL A   1      44.490  31.690  33.914  1.00  0.00     0.029 A 
ATOM     62  C   UNL A   1      43.259  31.811  33.290  1.00  0.00     0.049 A 
ATOM     63  H   UNL A   1      42.294  30.462  31.985  1.00  0.00     0.167 HD
ATOM     64  C   UNL A   1      41.143  32.959  32.692  1.00  0.00     0.074 A 
ATOM     65  C   UNL A   1      40.204  34.059  32.781  1.00  0.00     0.031 C 
ATOM     66  C   UNL A   1      42.311  32.895  33.377  1.00  0.00     0.037 A 
BRANCH  53  67
ATOM     67  C   UNL A   1      45.533  27.704  32.418  1.00  0.00     0.058 A 
ATOM     68  C   UNL A   1      45.587  26.901  33.568  1.00  0.00     0.135 A 
ATOM     69  C   UNL A   1      46.643  27.690  31.557  1.00  0.00     0.135 A 
ATOM     70  F   UNL A   1      44.560  26.887  34.433  1.00  0.00    -0.206 F 
ATOM     71  C   UNL A   1      46.708  26.134  33.868  1.00  0.00     0.059 A 
ATOM     72  C   UNL A   1      47.764  26.908  31.824  1.00  0.00     0.059 A 
ATOM     73  F   UNL A   1      46.645  28.439  30.444  1.00  0.00    -0.206 F 
ATOM     74  C   UNL A   1      47.792  26.144  32.989  1.00  0.00     0.060 A 
BRANCH  74  75
ATOM     75  S   UNL A   1      49.236  25.136  33.389  1.00  0.00     0.124 S 
ATOM     76  O   UNL A   1      48.608  23.919  33.895  1.00  0.00    -0.237 OA
ATOM     77  O   UNL A   1      49.900  25.014  32.096  1.00  0.00    -0.237 OA
ATOM     78  O   UNL A   1      49.945  25.936  34.382  1.00  0.00    -0.744 OA
ENDBRANCH  74  75
ENDBRANCH  53  67
BRANCH  54  79
ATOM     79  C   UNL A   1      37.186  32.714  30.152  1.00  0.00     0.058 A 
ATOM     80  C   UNL A   1      37.125  33.646  29.105  1.00  0.00     0.135 A 
ATOM     81  C   UNL A   1      36.013  32.482  30.890  1.00  0.00     0.135 A 
ATOM     82  F   UNL A   1      38.220  33.907  28.377  1.00  0.00    -0.206 F 
ATOM     83  C   UNL A   1      35.951  34.332  28.808  1.00  0.00     0.059 A 
ATOM     84  C   UNL A   1      34.823  33.137  30.595  1.00  0.00     0.059 A 
ATOM     85  F   UNL A   1      36.015  31.587  31.891  1.00  0.00    -0.206 F 
ATOM     86  C   UNL A   1      34.804  34.068  29.557  1.00  0.00     0.060 A 
BRANCH  86  87
ATOM     87  S   UNL A   1      33.273  34.925  29.129  1.00  0.00     0.124 S 
ATOM     88  O   UNL A   1      32.583  34.954  30.413  1.00  0.00    -0.237 OA
ATOM     89  O   UNL A   1      33.768  36.208  28.640  1.00  0.00    -0.237 OA
ATOM     90  O   UNL A   1      32.680  34.063  28.110  1.00  0.00    -0.744 OA
ENDBRANCH  86  87
ENDBRANCH  54  79
BRANCH  66  91
ATOM     91  C   UNL A   1      42.646  34.050  34.279  1.00  0.00     0.058 A 
ATOM     92  C   UNL A   1      42.330  34.029  35.647  1.00  0.00     0.135 A 
ATOM     93  C   UNL A   1      43.330  35.171  33.782  1.00  0.00     0.135 A 
ATOM     94  F   UNL A   1      41.668  32.985  36.171  1.00  0.00    -0.206 F 
ATOM     95  C   UNL A   1      42.663  35.087  36.486  1.00  0.00     0.059 A 
ATOM     96  C   UNL A   1      43.697  36.229  34.609  1.00  0.00     0.059 A 
ATOM     97  F   UNL A   1      43.664  35.239  32.484  1.00  0.00    -0.206 F 
ATOM     98  C   UNL A   1      43.349  36.182  35.958  1.00  0.00     0.060 A 
BRANCH  98  99
ATOM     99  S   UNL A   1      43.806  37.532  37.065  1.00  0.00     0.124 S 
ATOM    100  O   UNL A   1      42.654  37.582  37.960  1.00  0.00    -0.237 OA
ATOM    101  O   UNL A   1      45.048  37.044  37.659  1.00  0.00    -0.237 OA
ATOM    102  O   UNL A   1      43.954  38.673  36.168  1.00  0.00    -0.744 OA
ENDBRANCH  98  99
ENDBRANCH  66  91
ENDBRANCH  40  41
ENDBRANCH  32  35
ENDBRANCH  30  31
ENDBRANCH   1  30
TORSDOF 17
ENDMDL
MODEL 3
REMARK VINA RESULT:     -12.0      5.038     10.756
REMARK SMILES CC[NH+]1CCC2(CC1)OC[C@H](C(=O)NCCCCNC(=O)c1ccc(-c3c4nc(c(-c5c(F)cc(S(=O)(=O)[O-])cc5F)c5ccc([nH]5)c(-c5c(F)cc(S(=O)(=O)[O-])cc5F)c5nc(c(-c6c(F)cc(S(=O)(=O)[O-])cc6F)c6ccc3[nH]6)C=C5)C=C4)cc1)N2C(=O)c1ccc(F)cc1
REMARK SMILES IDX 17 1 16 2 15 3 14 4 12 5 13 6 11 8 3 9 4 10 8 11 5 13 7 14
REMARK SMILES IDX 6 15 9 16 88 17 10 18 2 19 1 20 89 21 90 22 91 23 92 24
REMARK SMILES IDX 97 25 93 26 96 27 94 28 95 29 18 30 19 31 20 32 21 34 22 35
REMARK SMILES IDX 23 36 87 37 24 38 86 39 25 40 26 41 27 42 80 43 28 44 85 45
REMARK SMILES IDX 79 46 81 47 29 48 84 49 78 50 77 51 30 53 64 54 43 55 63 56
REMARK SMILES IDX 44 57 47 58 62 59 82 60 45 61 46 62 61 64 83 65 48 66 31 67
REMARK SMILES IDX 32 68 41 69 33 70 34 71 40 72 42 73 35 74 36 75 37 76 38 77
REMARK SMILES IDX 39 78 65 79 66 80 75 81 67 82 68 83 74 84 76 85 69 86 70 87
REMARK SMILES IDX 71 88 72 89 73 90 49 91 50 92 59 93 51 94 52 95 58 96 60 97
REMARK SMILES IDX 53 98 54 99 55 100 56 101 57 102
REMARK H PARENT 14 7 3 12 19 33 81 52 47 63
REMARK Flexibility Score: inf
ROOT
ATOM      1  C   UNL A   1      37.313  23.236  25.647  1.00  0.00     0.023 C 
ENDROOT
BRANCH   1   2
ATOM      2  C   UNL A   1      36.053  24.053  25.348  1.00  0.00     0.023 C 
BRANCH   2   3
ATOM      3  C   UNL A   1      35.369  23.713  24.027  1.00  0.00     0.116 C 
BRANCH   3   4
ATOM      4  N   UNL A   1      33.932  23.626  24.177  1.00  0.00    -0.354 N 
ATOM      5  C   UNL A   1      33.013  24.617  24.359  1.00  0.00     0.245 C 
ATOM      6  O   UNL A   1      31.831  24.266  24.402  1.00  0.00    -0.273 OA
ATOM      7  H   UNL A   1      33.562  22.714  24.141  1.00  0.00     0.163 HD
BRANCH   5   8
ATOM      8  C   UNL A   1      33.450  26.092  24.541  1.00  0.00     0.203 C 
ATOM      9  N   UNL A   1      28.942  28.347  23.566  1.00  0.00    -0.335 N 
ATOM     10  C   UNL A   1      29.321  26.945  23.636  1.00  0.00     0.267 C 
ATOM     11  C   UNL A   1      30.002  29.348  23.656  1.00  0.00     0.267 C 
ATOM     12  H   UNL A   1      28.490  28.391  24.478  1.00  0.00     0.348 HD
ATOM     13  C   UNL A   1      30.635  26.616  22.978  1.00  0.00     0.120 C 
ATOM     14  C   UNL A   1      31.442  28.943  23.334  1.00  0.00     0.120 C 
ATOM     15  C   UNL A   1      31.784  27.466  23.521  1.00  0.00     0.155 C 
ATOM     16  O   UNL A   1      32.874  27.242  22.566  1.00  0.00    -0.352 OA
ATOM     17  N   UNL A   1      32.355  27.025  24.811  1.00  0.00    -0.295 N 
ATOM     18  C   UNL A   1      33.987  26.638  23.239  1.00  0.00     0.198 C 
BRANCH   9  19
ATOM     19  C   UNL A   1      27.888  28.717  22.623  1.00  0.00     0.258 C 
ATOM     20  C   UNL A   1      28.147  29.990  21.824  1.00  0.00     0.071 C 
ENDBRANCH   9  19
BRANCH  17  21
ATOM     21  C   UNL A   1      32.207  27.466  26.120  1.00  0.00     0.256 C 
ATOM     22  O   UNL A   1      31.504  26.876  26.942  1.00  0.00    -0.269 OA
BRANCH  21  23
ATOM     23  C   UNL A   1      32.910  28.631  26.670  1.00  0.00     0.040 A 
ATOM     24  C   UNL A   1      32.209  29.837  26.804  1.00  0.00     0.017 A 
ATOM     25  C   UNL A   1      34.294  28.602  26.866  1.00  0.00     0.017 A 
ATOM     26  C   UNL A   1      32.874  30.977  27.265  1.00  0.00     0.040 A 
ATOM     27  C   UNL A   1      34.952  29.735  27.350  1.00  0.00     0.040 A 
ATOM     28  C   UNL A   1      34.233  30.907  27.559  1.00  0.00     0.123 A 
ATOM     29  F   UNL A   1      34.857  31.988  28.043  1.00  0.00    -0.207 F 
ENDBRANCH  21  23
ENDBRANCH  17  21
ENDBRANCH   5   8
ENDBRANCH   3   4
ENDBRANCH   2   3
ENDBRANCH   1   2
BRANCH   1  30
ATOM     30  C   UNL A   1      38.275  23.858  26.655  1.00  0.00     0.116 C 
BRANCH  30  31
ATOM     31  N   UNL A   1      39.669  23.765  26.249  1.00  0.00    -0.352 N 
ATOM     32  C   UNL A   1      40.710  24.616  26.534  1.00  0.00     0.251 C 
ATOM     33  H   UNL A   1      39.899  22.986  25.694  1.00  0.00     0.163 HD
ATOM     34  O   UNL A   1      41.809  24.444  26.014  1.00  0.00    -0.269 OA
BRANCH  32  35
ATOM     35  C   UNL A   1      40.487  25.764  27.439  1.00  0.00     0.039 A 
ATOM     36  C   UNL A   1      39.526  25.648  28.446  1.00  0.00     0.014 A 
ATOM     37  C   UNL A   1      41.253  26.928  27.323  1.00  0.00     0.014 A 
ATOM     38  C   UNL A   1      39.397  26.663  29.395  1.00  0.00     0.010 A 
ATOM     39  C   UNL A   1      41.167  27.910  28.306  1.00  0.00     0.010 A 
ATOM     40  C   UNL A   1      40.252  27.778  29.363  1.00  0.00    -0.014 A 
BRANCH  40  41
ATOM     41  C   UNL A   1      40.252  28.778  30.461  1.00  0.00     0.031 A 
ATOM     42  C   UNL A   1      41.165  28.617  31.642  1.00  0.00     0.074 A 
ATOM     43  C   UNL A   1      39.363  29.791  30.424  1.00  0.00     0.049 A 
ATOM     44  N   UNL A   1      41.245  29.344  32.727  1.00  0.00    -0.248 NA
ATOM     45  C   UNL A   1      42.096  27.479  31.612  1.00  0.00     0.031 C 
ATOM     46  C   UNL A   1      38.391  30.024  29.353  1.00  0.00     0.029 A 
ATOM     47  N   UNL A   1      39.119  30.805  31.316  1.00  0.00    -0.354 N 
ATOM     48  C   UNL A   1      42.227  28.750  33.511  1.00  0.00     0.074 A 
ATOM     49  C   UNL A   1      42.680  27.576  32.799  1.00  0.00     0.031 C 
ATOM     50  C   UNL A   1      37.670  31.118  29.641  1.00  0.00     0.029 A 
ATOM     51  C   UNL A   1      38.094  31.641  30.936  1.00  0.00     0.049 A 
ATOM     52  H   UNL A   1      39.629  30.923  32.150  1.00  0.00     0.167 HD
ATOM     53  C   UNL A   1      42.714  29.159  34.707  1.00  0.00     0.037 A 
ATOM     54  C   UNL A   1      37.546  32.698  31.566  1.00  0.00     0.037 A 
ATOM     55  C   UNL A   1      42.264  30.338  35.404  1.00  0.00     0.049 A 
ATOM     56  C   UNL A   1      38.090  33.117  32.904  1.00  0.00     0.074 A 
ATOM     57  C   UNL A   1      42.741  30.870  36.589  1.00  0.00     0.029 A 
ATOM     58  N   UNL A   1      41.227  31.160  34.987  1.00  0.00    -0.354 N 
ATOM     59  N   UNL A   1      39.068  32.585  33.598  1.00  0.00    -0.248 NA
ATOM     60  C   UNL A   1      37.457  34.278  33.545  1.00  0.00     0.031 C 
ATOM     61  C   UNL A   1      41.960  31.984  36.914  1.00  0.00     0.029 A 
ATOM     62  C   UNL A   1      41.028  32.176  35.907  1.00  0.00     0.049 A 
ATOM     63  H   UNL A   1      40.707  31.038  34.160  1.00  0.00     0.167 HD
ATOM     64  C   UNL A   1      39.177  33.355  34.750  1.00  0.00     0.074 A 
ATOM     65  C   UNL A   1      38.180  34.401  34.649  1.00  0.00     0.031 C 
ATOM     66  C   UNL A   1      40.025  33.207  35.798  1.00  0.00     0.037 A 
BRANCH  53  67
ATOM     67  C   UNL A   1      43.796  28.327  35.341  1.00  0.00     0.058 A 
ATOM     68  C   UNL A   1      43.499  27.312  36.263  1.00  0.00     0.135 A 
ATOM     69  C   UNL A   1      45.142  28.520  34.991  1.00  0.00     0.135 A 
ATOM     70  F   UNL A   1      42.229  27.095  36.645  1.00  0.00    -0.206 F 
ATOM     71  C   UNL A   1      44.498  26.534  36.838  1.00  0.00     0.059 A 
ATOM     72  C   UNL A   1      46.157  27.733  35.532  1.00  0.00     0.059 A 
ATOM     73  F   UNL A   1      45.484  29.476  34.114  1.00  0.00    -0.206 F 
ATOM     74  C   UNL A   1      45.826  26.753  36.465  1.00  0.00     0.060 A 
BRANCH  74  75
ATOM     75  S   UNL A   1      47.110  25.728  37.213  1.00  0.00     0.124 S 
ATOM     76  O   UNL A   1      48.266  26.063  36.386  1.00  0.00    -0.237 OA
ATOM     77  O   UNL A   1      47.149  26.228  38.584  1.00  0.00    -0.237 OA
ATOM     78  O   UNL A   1      46.598  24.371  37.058  1.00  0.00    -0.744 OA
ENDBRANCH  74  75
ENDBRANCH  53  67
BRANCH  54  79
ATOM     79  C   UNL A   1      36.421  33.436  30.933  1.00  0.00     0.058 A 
ATOM     80  C   UNL A   1      36.637  34.270  29.826  1.00  0.00     0.135 A 
ATOM     81  C   UNL A   1      35.106  33.310  31.410  1.00  0.00     0.135 A 
ATOM     82  F   UNL A   1      37.877  34.429  29.340  1.00  0.00    -0.206 F 
ATOM     83  C   UNL A   1      35.593  34.963  29.221  1.00  0.00     0.059 A 
ATOM     84  C   UNL A   1      34.043  33.973  30.806  1.00  0.00     0.059 A 
ATOM     85  F   UNL A   1      34.844  32.511  32.456  1.00  0.00    -0.206 F 
ATOM     86  C   UNL A   1      34.298  34.805  29.717  1.00  0.00     0.060 A 
BRANCH  86  87
ATOM     87  S   UNL A   1      32.943  35.667  28.891  1.00  0.00     0.124 S 
ATOM     88  O   UNL A   1      32.351  34.595  28.101  1.00  0.00    -0.237 OA
ATOM     89  O   UNL A   1      32.150  36.141  30.022  1.00  0.00    -0.237 OA
ATOM     90  O   UNL A   1      33.624  36.712  28.133  1.00  0.00    -0.744 OA
ENDBRANCH  86  87
ENDBRANCH  54  79
BRANCH  66  91
ATOM     91  C   UNL A   1      39.918  34.205  36.918  1.00  0.00     0.058 A 
ATOM     92  C   UNL A   1      40.484  35.485  36.816  1.00  0.00     0.135 A 
ATOM     93  C   UNL A   1      39.205  33.895  38.087  1.00  0.00     0.135 A 
ATOM     94  F   UNL A   1      41.184  35.830  35.723  1.00  0.00    -0.206 F 
ATOM     95  C   UNL A   1      40.363  36.418  37.842  1.00  0.00     0.059 A 
ATOM     96  C   UNL A   1      39.048  34.821  39.115  1.00  0.00     0.059 A 
ATOM     97  F   UNL A   1      38.636  32.687  38.233  1.00  0.00    -0.206 F 
ATOM     98  C   UNL A   1      39.640  36.076  38.987  1.00  0.00     0.060 A 
BRANCH  98  99
ATOM     99  S   UNL A   1      39.462  37.307  40.295  1.00  0.00     0.124 S 
ATOM    100  O   UNL A   1      38.724  38.362  39.609  1.00  0.00    -0.237 OA
ATOM    101  O   UNL A   1      38.717  36.574  41.315  1.00  0.00    -0.237 OA
ATOM    102  O   UNL A   1      40.841  37.631  40.648  1.00  0.00    -0.744 OA
ENDBRANCH  98  99
ENDBRANCH  66  91
ENDBRANCH  40  41
ENDBRANCH  32  35
ENDBRANCH  30  31
ENDBRANCH   1  30
TORSDOF 17
ENDMDL
