MODEL 1
REMARK VINA RESULT:     -10.4      0.000      0.000
REMARK SMILES C=CCN(CC(=O)NCCCCNC(=O)c1ccc(-c2c3nc(c(-c4c(F)cc(S(=O)(=O)[O-])cc4F)c4ccc([nH]4)c(-c4c(F)cc(S(=O)(=O)[O-])cc4F)c4nc(c(-c5c(F)cc(S(=O)(=O)[O-])cc5F)c5ccc2[nH]5)C=C4)C=C3)cc1)C(=O)c1sc(N)nc1C
REMARK SMILES IDX 10 1 9 2 8 3 6 4 7 5 5 7 4 8 3 9 2 10 1 11 82 12 83 13 84 14
REMARK SMILES IDX 85 15 89 16 86 17 88 18 90 19 87 20 11 23 12 24 13 25 14 26
REMARK SMILES IDX 15 28 16 29 17 30 81 31 18 32 80 33 19 34 20 35 21 36 74 37
REMARK SMILES IDX 22 38 79 39 73 40 75 41 23 42 78 43 72 44 71 45 24 47 58 48
REMARK SMILES IDX 37 49 57 50 38 51 41 52 56 53 76 54 39 55 40 56 55 58 77 59
REMARK SMILES IDX 42 60 25 61 26 62 35 63 27 64 28 65 34 66 36 67 29 68 30 69
REMARK SMILES IDX 31 70 32 71 33 72 59 73 60 74 69 75 61 76 62 77 68 78 70 79
REMARK SMILES IDX 63 80 64 81 65 82 66 83 67 84 43 85 44 86 53 87 45 88 46 89
REMARK SMILES IDX 52 90 54 91 47 92 48 93 49 94 50 95 51 96
REMARK H PARENT 8 6 87 21 87 22 13 27 75 46 41 57
REMARK Flexibility Score: inf
ROOT
ATOM      1  C   UNL A   1      31.981  28.579  25.247  1.00  0.00     0.023 C 
ENDROOT
BRANCH   1   2
ATOM      2  C   UNL A   1      31.666  27.724  24.021  1.00  0.00     0.116 C 
BRANCH   2   3
ATOM      3  N   UNL A   1      32.758  27.617  23.077  1.00  0.00    -0.355 N 
ATOM      4  C   UNL A   1      33.168  26.572  22.305  1.00  0.00     0.239 C 
ATOM      5  O   UNL A   1      33.867  26.853  21.325  1.00  0.00    -0.273 OA
ATOM      6  H   UNL A   1      33.295  28.436  22.977  1.00  0.00     0.163 HD
BRANCH   4   7
ATOM      7  C   UNL A   1      32.686  25.124  22.505  1.00  0.00     0.220 C 
BRANCH   7   8
ATOM      8  N   UNL A   1      33.459  24.280  23.422  1.00  0.00    -0.325 N 
BRANCH   8   9
ATOM      9  C   UNL A   1      34.217  23.169  22.858  1.00  0.00     0.147 C 
BRANCH   9  10
ATOM     10  C   UNL A   1      35.383  22.807  23.725  1.00  0.00    -0.014 C 
ATOM     11  C   UNL A   1      36.651  22.860  23.291  1.00  0.00     0.006 C 
ENDBRANCH   9  10
ENDBRANCH   8   9
BRANCH   8  12
ATOM     12  C   UNL A   1      33.530  24.501  24.807  1.00  0.00     0.266 C 
ATOM     13  O   UNL A   1      34.395  25.239  25.279  1.00  0.00    -0.268 OA
BRANCH  12  14
ATOM     14  C   UNL A   1      32.561  23.857  25.670  1.00  0.00     0.117 A 
ATOM     15  S   UNL A   1      30.893  24.207  25.460  1.00  0.00    -0.092 S 
ATOM     16  C   UNL A   1      32.730  23.074  26.799  1.00  0.00     0.063 A 
ATOM     17  C   UNL A   1      30.528  23.293  26.863  1.00  0.00     0.180 A 
ATOM     18  N   UNL A   1      31.552  22.722  27.441  1.00  0.00    -0.225 NA
ATOM     19  C   UNL A   1      33.993  22.610  27.422  1.00  0.00     0.068 C 
BRANCH  17  20
ATOM     20  N   UNL A   1      29.286  23.190  27.345  1.00  0.00    -0.375 N 
ATOM     21  H   UNL A   1      28.673  22.511  26.982  1.00  0.00     0.159 HD
ATOM     22  H   UNL A   1      28.984  23.794  28.061  1.00  0.00     0.159 HD
ENDBRANCH  17  20
ENDBRANCH  12  14
ENDBRANCH   8  12
ENDBRANCH   7   8
ENDBRANCH   4   7
ENDBRANCH   2   3
ENDBRANCH   1   2
BRANCH   1  23
ATOM     23  C   UNL A   1      32.326  27.811  26.523  1.00  0.00     0.023 C 
BRANCH  23  24
ATOM     24  C   UNL A   1      33.530  28.321  27.303  1.00  0.00     0.116 C 
BRANCH  24  25
ATOM     25  N   UNL A   1      33.448  29.733  27.637  1.00  0.00    -0.352 N 
ATOM     26  C   UNL A   1      34.420  30.555  28.156  1.00  0.00     0.251 C 
ATOM     27  H   UNL A   1      32.577  30.159  27.470  1.00  0.00     0.163 HD
ATOM     28  O   UNL A   1      34.136  31.708  28.468  1.00  0.00    -0.269 OA
BRANCH  26  29
ATOM     29  C   UNL A   1      35.790  30.038  28.372  1.00  0.00     0.039 A 
ATOM     30  C   UNL A   1      36.694  30.065  27.306  1.00  0.00     0.014 A 
ATOM     31  C   UNL A   1      36.193  29.552  29.618  1.00  0.00     0.014 A 
ATOM     32  C   UNL A   1      38.020  29.674  27.512  1.00  0.00     0.010 A 
ATOM     33  C   UNL A   1      37.532  29.241  29.841  1.00  0.00     0.010 A 
ATOM     34  C   UNL A   1      38.461  29.298  28.791  1.00  0.00    -0.014 A 
BRANCH  34  35
ATOM     35  C   UNL A   1      39.888  28.971  29.052  1.00  0.00     0.031 A 
ATOM     36  C   UNL A   1      40.815  30.017  29.610  1.00  0.00     0.074 A 
ATOM     37  C   UNL A   1      40.365  27.754  28.720  1.00  0.00     0.049 A 
ATOM     38  N   UNL A   1      42.102  29.942  29.837  1.00  0.00    -0.248 NA
ATOM     39  C   UNL A   1      40.225  31.326  29.932  1.00  0.00     0.031 C 
ATOM     40  C   UNL A   1      39.578  26.671  28.124  1.00  0.00     0.029 A 
ATOM     41  N   UNL A   1      41.627  27.225  28.825  1.00  0.00    -0.354 N 
ATOM     42  C   UNL A   1      42.477  31.194  30.315  1.00  0.00     0.074 A 
ATOM     43  C   UNL A   1      41.292  32.025  30.291  1.00  0.00     0.031 C 
ATOM     44  C   UNL A   1      40.370  25.602  27.939  1.00  0.00     0.029 A 
ATOM     45  C   UNL A   1      41.728  25.935  28.359  1.00  0.00     0.049 A 
ATOM     46  H   UNL A   1      42.390  27.723  29.199  1.00  0.00     0.167 HD
ATOM     47  C   UNL A   1      43.690  31.606  30.753  1.00  0.00     0.037 A 
ATOM     48  C   UNL A   1      42.793  25.114  28.269  1.00  0.00     0.037 A 
ATOM     49  C   UNL A   1      44.860  30.766  30.792  1.00  0.00     0.049 A 
ATOM     50  C   UNL A   1      44.134  25.597  28.754  1.00  0.00     0.074 A 
ATOM     51  C   UNL A   1      46.121  31.072  31.274  1.00  0.00     0.029 A 
ATOM     52  N   UNL A   1      44.917  29.459  30.328  1.00  0.00    -0.354 N 
ATOM     53  N   UNL A   1      44.454  26.763  29.267  1.00  0.00    -0.248 NA
ATOM     54  C   UNL A   1      45.256  24.654  28.657  1.00  0.00     0.031 C 
ATOM     55  C   UNL A   1      46.953  29.970  31.053  1.00  0.00     0.029 A 
ATOM     56  C   UNL A   1      46.198  28.955  30.489  1.00  0.00     0.049 A 
ATOM     57  H   UNL A   1      44.159  28.964  29.941  1.00  0.00     0.167 HD
ATOM     58  C   UNL A   1      45.807  26.681  29.580  1.00  0.00     0.074 A 
ATOM     59  C   UNL A   1      46.241  25.349  29.211  1.00  0.00     0.031 C 
ATOM     60  C   UNL A   1      46.616  27.623  30.125  1.00  0.00     0.037 A 
BRANCH  47  61
ATOM     61  C   UNL A   1      43.817  33.028  31.229  1.00  0.00     0.058 A 
ATOM     62  C   UNL A   1      44.093  34.082  30.341  1.00  0.00     0.135 A 
ATOM     63  C   UNL A   1      43.620  33.350  32.582  1.00  0.00     0.135 A 
ATOM     64  F   UNL A   1      44.304  33.832  29.039  1.00  0.00    -0.206 F 
ATOM     65  C   UNL A   1      44.199  35.397  30.783  1.00  0.00     0.059 A 
ATOM     66  C   UNL A   1      43.692  34.662  33.040  1.00  0.00     0.059 A 
ATOM     67  F   UNL A   1      43.354  32.383  33.474  1.00  0.00    -0.206 F 
ATOM     68  C   UNL A   1      43.997  35.677  32.135  1.00  0.00     0.060 A 
BRANCH  68  69
ATOM     69  S   UNL A   1      44.133  37.389  32.689  1.00  0.00     0.124 S 
ATOM     70  O   UNL A   1      45.472  37.400  33.271  1.00  0.00    -0.237 OA
ATOM     71  O   UNL A   1      43.979  38.133  31.443  1.00  0.00    -0.237 OA
ATOM     72  O   UNL A   1      43.035  37.529  33.640  1.00  0.00    -0.744 OA
ENDBRANCH  68  69
ENDBRANCH  47  61
BRANCH  48  73
ATOM     73  C   UNL A   1      42.632  23.744  27.710  1.00  0.00     0.058 A 
ATOM     74  C   UNL A   1      42.684  23.517  26.327  1.00  0.00     0.135 A 
ATOM     75  C   UNL A   1      42.434  22.635  28.546  1.00  0.00     0.135 A 
ATOM     76  F   UNL A   1      42.863  24.547  25.485  1.00  0.00    -0.206 F 
ATOM     77  C   UNL A   1      42.528  22.243  25.790  1.00  0.00     0.059 A 
ATOM     78  C   UNL A   1      42.305  21.346  28.036  1.00  0.00     0.059 A 
ATOM     79  F   UNL A   1      42.394  22.795  29.879  1.00  0.00    -0.206 F 
ATOM     80  C   UNL A   1      42.342  21.163  26.654  1.00  0.00     0.060 A 
BRANCH  80  81
ATOM     81  S   UNL A   1      42.188  19.507  25.949  1.00  0.00     0.124 S 
ATOM     82  O   UNL A   1      43.059  19.603  24.783  1.00  0.00    -0.237 OA
ATOM     83  O   UNL A   1      42.669  18.664  27.039  1.00  0.00    -0.237 OA
ATOM     84  O   UNL A   1      40.761  19.395  25.663  1.00  0.00    -0.744 OA
ENDBRANCH  80  81
ENDBRANCH  48  73
BRANCH  60  85
ATOM     85  C   UNL A   1      48.046  27.242  30.394  1.00  0.00     0.058 A 
ATOM     86  C   UNL A   1      49.089  27.615  29.532  1.00  0.00     0.135 A 
ATOM     87  C   UNL A   1      48.384  26.539  31.563  1.00  0.00     0.135 A 
ATOM     88  F   UNL A   1      48.822  28.283  28.397  1.00  0.00    -0.206 F 
ATOM     89  C   UNL A   1      50.412  27.284  29.806  1.00  0.00     0.059 A 
ATOM     90  C   UNL A   1      49.703  26.223  31.871  1.00  0.00     0.059 A 
ATOM     91  F   UNL A   1      47.427  26.166  32.428  1.00  0.00    -0.206 F 
ATOM     92  C   UNL A   1      50.710  26.591  30.981  1.00  0.00     0.060 A 
BRANCH  92  93
ATOM     93  S   UNL A   1      52.435  26.199  31.340  1.00  0.00     0.124 S 
ATOM     94  O   UNL A   1      52.303  24.963  32.105  1.00  0.00    -0.237 OA
ATOM     95  O   UNL A   1      53.008  26.062  30.005  1.00  0.00    -0.237 OA
ATOM     96  O   UNL A   1      52.896  27.359  32.098  1.00  0.00    -0.744 OA
ENDBRANCH  92  93
ENDBRANCH  60  85
ENDBRANCH  34  35
ENDBRANCH  26  29
ENDBRANCH  24  25
ENDBRANCH  23  24
ENDBRANCH   1  23
TORSDOF 20
ENDMDL
MODEL 2
REMARK VINA RESULT:     -10.3      1.070      2.106
REMARK SMILES C=CCN(CC(=O)NCCCCNC(=O)c1ccc(-c2c3nc(c(-c4c(F)cc(S(=O)(=O)[O-])cc4F)c4ccc([nH]4)c(-c4c(F)cc(S(=O)(=O)[O-])cc4F)c4nc(c(-c5c(F)cc(S(=O)(=O)[O-])cc5F)c5ccc2[nH]5)C=C4)C=C3)cc1)C(=O)c1sc(N)nc1C
REMARK SMILES IDX 10 1 9 2 8 3 6 4 7 5 5 7 4 8 3 9 2 10 1 11 82 12 83 13 84 14
REMARK SMILES IDX 85 15 89 16 86 17 88 18 90 19 87 20 11 23 12 24 13 25 14 26
REMARK SMILES IDX 15 28 16 29 17 30 81 31 18 32 80 33 19 34 20 35 21 36 74 37
REMARK SMILES IDX 22 38 79 39 73 40 75 41 23 42 78 43 72 44 71 45 24 47 58 48
REMARK SMILES IDX 37 49 57 50 38 51 41 52 56 53 76 54 39 55 40 56 55 58 77 59
REMARK SMILES IDX 42 60 25 61 26 62 35 63 27 64 28 65 34 66 36 67 29 68 30 69
REMARK SMILES IDX 31 70 32 71 33 72 59 73 60 74 69 75 61 76 62 77 68 78 70 79
REMARK SMILES IDX 63 80 64 81 65 82 66 83 67 84 43 85 44 86 53 87 45 88 46 89
REMARK SMILES IDX 52 90 54 91 47 92 48 93 49 94 50 95 51 96
REMARK H PARENT 8 6 87 21 87 22 13 27 75 46 41 57
REMARK Flexibility Score: inf
ROOT
ATOM      1  C   UNL A   1      32.185  28.765  24.941  1.00  0.00     0.023 C 
ENDROOT
BRANCH   1   2
ATOM      2  C   UNL A   1      31.537  28.054  23.754  1.00  0.00     0.116 C 
BRANCH   2   3
ATOM      3  N   UNL A   1      32.467  27.680  22.709  1.00  0.00    -0.355 N 
ATOM      4  C   UNL A   1      33.253  26.576  22.571  1.00  0.00     0.239 C 
ATOM      5  O   UNL A   1      33.652  26.324  21.428  1.00  0.00    -0.273 OA
ATOM      6  H   UNL A   1      32.544  28.333  21.976  1.00  0.00     0.163 HD
BRANCH   4   7
ATOM      7  C   UNL A   1      33.528  25.577  23.710  1.00  0.00     0.220 C 
BRANCH   7   8
ATOM      8  N   UNL A   1      32.722  24.354  23.738  1.00  0.00    -0.325 N 
BRANCH   8   9
ATOM      9  C   UNL A   1      31.384  24.427  24.314  1.00  0.00     0.147 C 
BRANCH   9  10
ATOM     10  C   UNL A   1      31.428  24.349  25.810  1.00  0.00    -0.014 C 
ATOM     11  C   UNL A   1      30.871  23.341  26.498  1.00  0.00     0.006 C 
ENDBRANCH   9  10
ENDBRANCH   8   9
BRANCH   8  12
ATOM     12  C   UNL A   1      33.157  23.124  23.217  1.00  0.00     0.266 C 
ATOM     13  O   UNL A   1      33.297  22.974  22.003  1.00  0.00    -0.268 OA
BRANCH  12  14
ATOM     14  C   UNL A   1      33.450  22.040  24.131  1.00  0.00     0.117 A 
ATOM     15  S   UNL A   1      32.411  20.672  24.164  1.00  0.00    -0.092 S 
ATOM     16  C   UNL A   1      34.377  21.939  25.155  1.00  0.00     0.063 A 
ATOM     17  C   UNL A   1      33.270  20.056  25.512  1.00  0.00     0.180 A 
ATOM     18  N   UNL A   1      34.289  20.776  25.903  1.00  0.00    -0.225 NA
ATOM     19  C   UNL A   1      35.404  22.924  25.570  1.00  0.00     0.068 C 
BRANCH  17  20
ATOM     20  N   UNL A   1      32.910  18.929  26.133  1.00  0.00    -0.375 N 
ATOM     21  H   UNL A   1      32.902  18.890  27.117  1.00  0.00     0.159 HD
ATOM     22  H   UNL A   1      32.654  18.137  25.607  1.00  0.00     0.159 HD
ENDBRANCH  17  20
ENDBRANCH  12  14
ENDBRANCH   8  12
ENDBRANCH   7   8
ENDBRANCH   4   7
ENDBRANCH   2   3
ENDBRANCH   1   2
BRANCH   1  23
ATOM     23  C   UNL A   1      32.394  27.913  26.193  1.00  0.00     0.023 C 
BRANCH  23  24
ATOM     24  C   UNL A   1      33.500  28.370  27.133  1.00  0.00     0.116 C 
BRANCH  24  25
ATOM     25  N   UNL A   1      33.392  29.766  27.521  1.00  0.00    -0.352 N 
ATOM     26  C   UNL A   1      34.340  30.580  28.092  1.00  0.00     0.251 C 
ATOM     27  H   UNL A   1      32.518  30.187  27.351  1.00  0.00     0.163 HD
ATOM     28  O   UNL A   1      34.034  31.717  28.443  1.00  0.00    -0.269 OA
BRANCH  26  29
ATOM     29  C   UNL A   1      35.713  30.073  28.318  1.00  0.00     0.039 A 
ATOM     30  C   UNL A   1      36.616  30.079  27.250  1.00  0.00     0.014 A 
ATOM     31  C   UNL A   1      36.119  29.616  29.574  1.00  0.00     0.014 A 
ATOM     32  C   UNL A   1      37.943  29.697  27.463  1.00  0.00     0.010 A 
ATOM     33  C   UNL A   1      37.460  29.315  29.802  1.00  0.00     0.010 A 
ATOM     34  C   UNL A   1      38.387  29.352  28.750  1.00  0.00    -0.014 A 
BRANCH  34  35
ATOM     35  C   UNL A   1      39.815  29.036  29.016  1.00  0.00     0.031 A 
ATOM     36  C   UNL A   1      40.734  30.090  29.572  1.00  0.00     0.074 A 
ATOM     37  C   UNL A   1      40.302  27.820  28.691  1.00  0.00     0.049 A 
ATOM     38  N   UNL A   1      42.020  30.026  29.803  1.00  0.00    -0.248 NA
ATOM     39  C   UNL A   1      40.134  31.397  29.887  1.00  0.00     0.031 C 
ATOM     40  C   UNL A   1      39.524  26.730  28.098  1.00  0.00     0.029 A 
ATOM     41  N   UNL A   1      41.567  27.301  28.802  1.00  0.00    -0.354 N 
ATOM     42  C   UNL A   1      42.386  31.282  30.276  1.00  0.00     0.074 A 
ATOM     43  C   UNL A   1      41.196  32.105  30.245  1.00  0.00     0.031 C 
ATOM     44  C   UNL A   1      40.323  25.665  27.919  1.00  0.00     0.029 A 
ATOM     45  C   UNL A   1      41.678  26.010  28.342  1.00  0.00     0.049 A 
ATOM     46  H   UNL A   1      42.326  27.805  29.176  1.00  0.00     0.167 HD
ATOM     47  C   UNL A   1      43.595  31.704  30.716  1.00  0.00     0.037 A 
ATOM     48  C   UNL A   1      42.749  25.196  28.258  1.00  0.00     0.037 A 
ATOM     49  C   UNL A   1      44.771  30.872  30.762  1.00  0.00     0.049 A 
ATOM     50  C   UNL A   1      44.085  25.690  28.745  1.00  0.00     0.074 A 
ATOM     51  C   UNL A   1      46.028  31.190  31.246  1.00  0.00     0.029 A 
ATOM     52  N   UNL A   1      44.838  29.565  30.304  1.00  0.00    -0.354 N 
ATOM     53  N   UNL A   1      44.396  26.860  29.253  1.00  0.00    -0.248 NA
ATOM     54  C   UNL A   1      45.214  24.754  28.655  1.00  0.00     0.031 C 
ATOM     55  C   UNL A   1      46.868  30.092  31.032  1.00  0.00     0.029 A 
ATOM     56  C   UNL A   1      46.121  29.069  30.470  1.00  0.00     0.049 A 
ATOM     57  H   UNL A   1      44.084  29.062  29.917  1.00  0.00     0.167 HD
ATOM     58  C   UNL A   1      45.748  26.789  29.570  1.00  0.00     0.074 A 
ATOM     59  C   UNL A   1      46.193  25.458  29.209  1.00  0.00     0.031 C 
ATOM     60  C   UNL A   1      46.549  27.739  30.113  1.00  0.00     0.037 A 
BRANCH  47  61
ATOM     61  C   UNL A   1      43.711  33.130  31.185  1.00  0.00     0.058 A 
ATOM     62  C   UNL A   1      43.610  33.470  32.545  1.00  0.00     0.135 A 
ATOM     63  C   UNL A   1      43.965  34.165  30.271  1.00  0.00     0.135 A 
ATOM     64  F   UNL A   1      43.354  32.524  33.462  1.00  0.00    -0.206 F 
ATOM     65  C   UNL A   1      43.728  34.788  32.976  1.00  0.00     0.059 A 
ATOM     66  C   UNL A   1      44.116  35.485  30.683  1.00  0.00     0.059 A 
ATOM     67  F   UNL A   1      44.070  33.897  28.959  1.00  0.00    -0.206 F 
ATOM     68  C   UNL A   1      43.981  35.789  32.037  1.00  0.00     0.060 A 
BRANCH  68  69
ATOM     69  S   UNL A   1      44.136  37.492  32.615  1.00  0.00     0.124 S 
ATOM     70  O   UNL A   1      43.989  38.236  31.368  1.00  0.00    -0.237 OA
ATOM     71  O   UNL A   1      43.024  37.604  33.554  1.00  0.00    -0.237 OA
ATOM     72  O   UNL A   1      45.466  37.529  33.215  1.00  0.00    -0.744 OA
ENDBRANCH  68  69
ENDBRANCH  47  61
BRANCH  48  73
ATOM     73  C   UNL A   1      42.599  23.822  27.705  1.00  0.00     0.058 A 
ATOM     74  C   UNL A   1      42.677  23.586  26.325  1.00  0.00     0.135 A 
ATOM     75  C   UNL A   1      42.385  22.718  28.544  1.00  0.00     0.135 A 
ATOM     76  F   UNL A   1      42.872  24.610  25.480  1.00  0.00    -0.206 F 
ATOM     77  C   UNL A   1      42.532  22.309  25.793  1.00  0.00     0.059 A 
ATOM     78  C   UNL A   1      42.266  21.426  28.040  1.00  0.00     0.059 A 
ATOM     79  F   UNL A   1      42.319  22.887  29.875  1.00  0.00    -0.206 F 
ATOM     80  C   UNL A   1      42.329  21.234  26.660  1.00  0.00     0.060 A 
BRANCH  80  81
ATOM     81  S   UNL A   1      42.190  19.574  25.962  1.00  0.00     0.124 S 
ATOM     82  O   UNL A   1      42.648  18.749  27.074  1.00  0.00    -0.237 OA
ATOM     83  O   UNL A   1      40.766  19.492  25.649  1.00  0.00    -0.237 OA
ATOM     84  O   UNL A   1      43.076  19.621  24.804  1.00  0.00    -0.744 OA
ENDBRANCH  80  81
ENDBRANCH  48  73
BRANCH  60  85
ATOM     85  C   UNL A   1      47.981  27.369  30.388  1.00  0.00     0.058 A 
ATOM     86  C   UNL A   1      48.356  26.660  31.541  1.00  0.00     0.135 A 
ATOM     87  C   UNL A   1      48.986  27.680  29.458  1.00  0.00     0.135 A 
ATOM     88  F   UNL A   1      47.437  26.342  32.468  1.00  0.00    -0.206 F 
ATOM     89  C   UNL A   1      49.678  26.295  31.772  1.00  0.00     0.059 A 
ATOM     90  C   UNL A   1      50.309  27.299  29.653  1.00  0.00     0.059 A 
ATOM     91  F   UNL A   1      48.682  28.348  28.333  1.00  0.00    -0.206 F 
ATOM     92  C   UNL A   1      50.648  26.616  30.820  1.00  0.00     0.060 A 
BRANCH  92  93
ATOM     93  S   UNL A   1      52.353  26.104  31.116  1.00  0.00     0.124 S 
ATOM     94  O   UNL A   1      52.882  26.038  29.757  1.00  0.00    -0.237 OA
ATOM     95  O   UNL A   1      52.866  27.192  31.944  1.00  0.00    -0.237 OA
ATOM     96  O   UNL A   1      52.210  24.820  31.796  1.00  0.00    -0.744 OA
ENDBRANCH  92  93
ENDBRANCH  60  85
ENDBRANCH  34  35
ENDBRANCH  26  29
ENDBRANCH  24  25
ENDBRANCH  23  24
ENDBRANCH   1  23
TORSDOF 20
ENDMDL
MODEL 3
REMARK VINA RESULT:     -10.2      1.097      2.464
REMARK SMILES C=CCN(CC(=O)NCCCCNC(=O)c1ccc(-c2c3nc(c(-c4c(F)cc(S(=O)(=O)[O-])cc4F)c4ccc([nH]4)c(-c4c(F)cc(S(=O)(=O)[O-])cc4F)c4nc(c(-c5c(F)cc(S(=O)(=O)[O-])cc5F)c5ccc2[nH]5)C=C4)C=C3)cc1)C(=O)c1sc(N)nc1C
REMARK SMILES IDX 10 1 9 2 8 3 6 4 7 5 5 7 4 8 3 9 2 10 1 11 82 12 83 13 84 14
REMARK SMILES IDX 85 15 89 16 86 17 88 18 90 19 87 20 11 23 12 24 13 25 14 26
REMARK SMILES IDX 15 28 16 29 17 30 81 31 18 32 80 33 19 34 20 35 21 36 74 37
REMARK SMILES IDX 22 38 79 39 73 40 75 41 23 42 78 43 72 44 71 45 24 47 58 48
REMARK SMILES IDX 37 49 57 50 38 51 41 52 56 53 76 54 39 55 40 56 55 58 77 59
REMARK SMILES IDX 42 60 25 61 26 62 35 63 27 64 28 65 34 66 36 67 29 68 30 69
REMARK SMILES IDX 31 70 32 71 33 72 59 73 60 74 69 75 61 76 62 77 68 78 70 79
REMARK SMILES IDX 63 80 64 81 65 82 66 83 67 84 43 85 44 86 53 87 45 88 46 89
REMARK SMILES IDX 52 90 54 91 47 92 48 93 49 94 50 95 51 96
REMARK H PARENT 8 6 87 21 87 22 13 27 75 46 41 57
REMARK Flexibility Score: inf
ROOT
ATOM      1  C   UNL A   1      31.668  27.134  26.129  1.00  0.00     0.023 C 
ENDROOT
BRANCH   1   2
ATOM      2  C   UNL A   1      32.029  25.649  26.094  1.00  0.00     0.116 C 
BRANCH   2   3
ATOM      3  N   UNL A   1      31.189  24.816  26.927  1.00  0.00    -0.355 N 
ATOM      4  C   UNL A   1      30.632  23.595  26.690  1.00  0.00     0.239 C 
ATOM      5  O   UNL A   1      30.289  22.944  27.683  1.00  0.00    -0.273 OA
ATOM      6  H   UNL A   1      30.985  25.194  27.812  1.00  0.00     0.163 HD
BRANCH   4   7
ATOM      7  C   UNL A   1      30.557  22.949  25.294  1.00  0.00     0.220 C 
BRANCH   7   8
ATOM      8  N   UNL A   1      31.773  22.307  24.786  1.00  0.00    -0.325 N 
BRANCH   8   9
ATOM      9  C   UNL A   1      32.485  21.389  25.669  1.00  0.00     0.147 C 
BRANCH   9  10
ATOM     10  C   UNL A   1      33.671  22.050  26.303  1.00  0.00    -0.014 C 
ATOM     11  C   UNL A   1      33.928  21.967  27.617  1.00  0.00     0.006 C 
ENDBRANCH   9  10
ENDBRANCH   8   9
BRANCH   8  12
ATOM     12  C   UNL A   1      32.273  22.506  23.489  1.00  0.00     0.266 C 
ATOM     13  O   UNL A   1      32.240  21.597  22.660  1.00  0.00    -0.268 OA
BRANCH  12  14
ATOM     14  C   UNL A   1      32.816  23.802  23.139  1.00  0.00     0.117 A 
ATOM     15  S   UNL A   1      31.773  24.990  22.465  1.00  0.00    -0.092 S 
ATOM     16  C   UNL A   1      34.122  24.260  23.101  1.00  0.00     0.063 A 
ATOM     17  C   UNL A   1      33.121  26.011  22.189  1.00  0.00     0.180 A 
ATOM     18  N   UNL A   1      34.271  25.544  22.598  1.00  0.00    -0.225 NA
ATOM     19  C   UNL A   1      35.363  23.545  23.482  1.00  0.00     0.068 C 
BRANCH  17  20
ATOM     20  N   UNL A   1      33.007  27.194  21.577  1.00  0.00    -0.375 N 
ATOM     21  H   UNL A   1      32.944  27.236  20.595  1.00  0.00     0.159 HD
ATOM     22  H   UNL A   1      32.986  28.023  22.107  1.00  0.00     0.159 HD
ENDBRANCH  17  20
ENDBRANCH  12  14
ENDBRANCH   8  12
ENDBRANCH   7   8
ENDBRANCH   4   7
ENDBRANCH   2   3
ENDBRANCH   1   2
BRANCH   1  23
ATOM     23  C   UNL A   1      32.817  28.104  25.855  1.00  0.00     0.023 C 
BRANCH  23  24
ATOM     24  C   UNL A   1      33.730  28.406  27.035  1.00  0.00     0.116 C 
BRANCH  24  25
ATOM     25  N   UNL A   1      33.615  29.769  27.524  1.00  0.00    -0.352 N 
ATOM     26  C   UNL A   1      34.552  30.536  28.174  1.00  0.00     0.251 C 
ATOM     27  H   UNL A   1      32.744  30.203  27.370  1.00  0.00     0.163 HD
ATOM     28  O   UNL A   1      34.239  31.643  28.604  1.00  0.00    -0.269 OA
BRANCH  26  29
ATOM     29  C   UNL A   1      35.919  30.011  28.388  1.00  0.00     0.039 A 
ATOM     30  C   UNL A   1      36.836  30.075  27.334  1.00  0.00     0.014 A 
ATOM     31  C   UNL A   1      36.307  29.481  29.621  1.00  0.00     0.014 A 
ATOM     32  C   UNL A   1      38.159  29.675  27.542  1.00  0.00     0.010 A 
ATOM     33  C   UNL A   1      37.643  29.161  29.849  1.00  0.00     0.010 A 
ATOM     34  C   UNL A   1      38.584  29.254  28.813  1.00  0.00    -0.014 A 
BRANCH  34  35
ATOM     35  C   UNL A   1      40.008  28.918  29.079  1.00  0.00     0.031 A 
ATOM     36  C   UNL A   1      40.939  29.954  29.649  1.00  0.00     0.074 A 
ATOM     37  C   UNL A   1      40.480  27.700  28.742  1.00  0.00     0.049 A 
ATOM     38  N   UNL A   1      42.223  29.871  29.882  1.00  0.00    -0.248 NA
ATOM     39  C   UNL A   1      40.355  31.265  29.976  1.00  0.00     0.031 C 
ATOM     40  C   UNL A   1      39.690  26.626  28.135  1.00  0.00     0.029 A 
ATOM     41  N   UNL A   1      41.739  27.163  28.850  1.00  0.00    -0.354 N 
ATOM     42  C   UNL A   1      42.603  31.117  30.370  1.00  0.00     0.074 A 
ATOM     43  C   UNL A   1      41.424  31.955  30.345  1.00  0.00     0.031 C 
ATOM     44  C   UNL A   1      40.477  25.553  27.947  1.00  0.00     0.029 A 
ATOM     45  C   UNL A   1      41.834  25.876  28.376  1.00  0.00     0.049 A 
ATOM     46  H   UNL A   1      42.502  27.654  29.232  1.00  0.00     0.167 HD
ATOM     47  C   UNL A   1      43.817  31.519  30.817  1.00  0.00     0.037 A 
ATOM     48  C   UNL A   1      42.895  25.049  28.286  1.00  0.00     0.037 A 
ATOM     49  C   UNL A   1      44.982  30.672  30.857  1.00  0.00     0.049 A 
ATOM     50  C   UNL A   1      44.236  25.521  28.782  1.00  0.00     0.074 A 
ATOM     51  C   UNL A   1      46.242  30.968  31.347  1.00  0.00     0.029 A 
ATOM     52  N   UNL A   1      45.034  29.369  30.385  1.00  0.00    -0.354 N 
ATOM     53  N   UNL A   1      44.560  26.681  29.304  1.00  0.00    -0.248 NA
ATOM     54  C   UNL A   1      45.354  24.572  28.684  1.00  0.00     0.031 C 
ATOM     55  C   UNL A   1      47.069  29.862  31.124  1.00  0.00     0.029 A 
ATOM     56  C   UNL A   1      46.310  28.856  30.549  1.00  0.00     0.049 A 
ATOM     57  H   UNL A   1      44.275  28.880  29.991  1.00  0.00     0.167 HD
ATOM     58  C   UNL A   1      45.911  26.590  29.623  1.00  0.00     0.074 A 
ATOM     59  C   UNL A   1      46.340  25.258  29.248  1.00  0.00     0.031 C 
ATOM     60  C   UNL A   1      46.722  27.524  30.178  1.00  0.00     0.037 A 
BRANCH  47  61
ATOM     61  C   UNL A   1      43.949  32.938  31.303  1.00  0.00     0.058 A 
ATOM     62  C   UNL A   1      44.208  33.999  30.420  1.00  0.00     0.135 A 
ATOM     63  C   UNL A   1      43.775  33.247  32.662  1.00  0.00     0.135 A 
ATOM     64  F   UNL A   1      44.397  33.761  29.112  1.00  0.00    -0.206 F 
ATOM     65  C   UNL A   1      44.320  35.311  30.870  1.00  0.00     0.059 A 
ATOM     66  C   UNL A   1      43.852  34.556  33.130  1.00  0.00     0.059 A 
ATOM     67  F   UNL A   1      43.526  32.272  33.550  1.00  0.00    -0.206 F 
ATOM     68  C   UNL A   1      44.140  35.579  32.228  1.00  0.00     0.060 A 
BRANCH  68  69
ATOM     69  S   UNL A   1      44.283  37.287  32.795  1.00  0.00     0.124 S 
ATOM     70  O   UNL A   1      44.353  38.008  31.527  1.00  0.00    -0.237 OA
ATOM     71  O   UNL A   1      43.052  37.466  33.557  1.00  0.00    -0.237 OA
ATOM     72  O   UNL A   1      45.511  37.283  33.583  1.00  0.00    -0.744 OA
ENDBRANCH  68  69
ENDBRANCH  47  61
BRANCH  48  73
ATOM     73  C   UNL A   1      42.729  23.683  27.718  1.00  0.00     0.058 A 
ATOM     74  C   UNL A   1      42.500  22.578  28.549  1.00  0.00     0.135 A 
ATOM     75  C   UNL A   1      42.786  23.458  26.334  1.00  0.00     0.135 A 
ATOM     76  F   UNL A   1      42.445  22.740  29.880  1.00  0.00    -0.206 F 
ATOM     77  C   UNL A   1      42.350  21.295  28.033  1.00  0.00     0.059 A 
ATOM     78  C   UNL A   1      42.611  22.189  25.790  1.00  0.00     0.059 A 
ATOM     79  F   UNL A   1      42.986  24.485  25.493  1.00  0.00    -0.206 F 
ATOM     80  C   UNL A   1      42.404  21.111  26.650  1.00  0.00     0.060 A 
BRANCH  80  81
ATOM     81  S   UNL A   1      42.161  19.449  25.988  1.00  0.00     0.124 S 
ATOM     82  O   UNL A   1      42.986  19.488  24.786  1.00  0.00    -0.237 OA
ATOM     83  O   UNL A   1      42.656  18.611  27.076  1.00  0.00    -0.237 OA
ATOM     84  O   UNL A   1      40.721  19.384  25.763  1.00  0.00    -0.744 OA
ENDBRANCH  80  81
ENDBRANCH  48  73
BRANCH  60  85
ATOM     85  C   UNL A   1      48.149  27.132  30.453  1.00  0.00     0.058 A 
ATOM     86  C   UNL A   1      49.175  27.368  29.525  1.00  0.00     0.135 A 
ATOM     87  C   UNL A   1      48.503  26.562  31.687  1.00  0.00     0.135 A 
ATOM     88  F   UNL A   1      48.893  27.905  28.326  1.00  0.00    -0.206 F 
ATOM     89  C   UNL A   1      50.496  27.030  29.800  1.00  0.00     0.059 A 
ATOM     90  C   UNL A   1      49.821  26.244  31.996  1.00  0.00     0.059 A 
ATOM     91  F   UNL A   1      47.563  26.324  32.616  1.00  0.00    -0.206 F 
ATOM     92  C   UNL A   1      50.810  26.472  31.041  1.00  0.00     0.060 A 
BRANCH  92  93
ATOM     93  S   UNL A   1      52.534  26.072  31.398  1.00  0.00     0.124 S 
ATOM     94  O   UNL A   1      53.138  26.163  30.072  1.00  0.00    -0.237 OA
ATOM     95  O   UNL A   1      52.909  27.122  32.340  1.00  0.00    -0.237 OA
ATOM     96  O   UNL A   1      52.461  24.728  31.963  1.00  0.00    -0.744 OA
ENDBRANCH  92  93
ENDBRANCH  60  85
ENDBRANCH  34  35
ENDBRANCH  26  29
ENDBRANCH  24  25
ENDBRANCH  23  24
ENDBRANCH   1  23
TORSDOF 20
ENDMDL
