MODEL 1
REMARK VINA RESULT:     -12.4      0.000      0.000
REMARK SMILES Cn1c(=O)c2c(nc(Nc3cccc(Cl)c3Cl)n2CC(=O)NCCCCNC(=O)c2ccc(-c3c4nc(c(-c5c(F)cc(S(=O)(=O)[O-])cc5F)c5ccc([nH]5)c(-c5c(F)cc(S(=O)(=O)[O-])cc5F)c5nc(c(-c6c(F)cc(S(=O)(=O)[O-])cc6F)c6ccc3[nH]6)C=C5)C=C4)cc2)n(C)c1=O
REMARK SMILES IDX 24 1 23 2 22 3 20 4 21 5 19 7 18 8 1 9 2 10 3 11 98 12 4 13
REMARK SMILES IDX 5 14 96 15 99 16 6 17 97 18 7 19 8 20 9 21 10 23 11 24 16 25
REMARK SMILES IDX 12 26 14 27 17 28 13 29 15 30 25 31 26 32 27 33 28 34 29 36
REMARK SMILES IDX 30 37 31 38 95 39 32 40 94 41 33 42 34 43 35 44 88 45 36 46
REMARK SMILES IDX 93 47 87 48 89 49 37 50 92 51 86 52 85 53 38 55 72 56 51 57
REMARK SMILES IDX 71 58 52 59 55 60 70 61 90 62 53 63 54 64 69 66 91 67 56 68
REMARK SMILES IDX 39 69 40 70 49 71 41 72 42 73 48 74 50 75 43 76 44 77 45 78
REMARK SMILES IDX 46 79 47 80 73 81 74 82 83 83 75 84 76 85 82 86 84 87 77 88
REMARK SMILES IDX 78 89 79 90 80 91 81 92 57 93 58 94 67 95 59 96 60 97 66 98
REMARK SMILES IDX 68 99 61 100 62 101 63 102 64 103 65 104
REMARK H PARENT 22 6 9 22 27 35 89 54 55 65
REMARK Flexibility Score: inf
ROOT
ATOM      1  C   UNL A   1      40.465  21.061  26.861  1.00  0.00     0.023 C 
ENDROOT
BRANCH   1   2
ATOM      2  C   UNL A   1      39.267  21.574  26.066  1.00  0.00     0.116 C 
BRANCH   2   3
ATOM      3  N   UNL A   1      38.743  22.813  26.590  1.00  0.00    -0.355 N 
ATOM      4  C   UNL A   1      37.757  23.614  26.093  1.00  0.00     0.240 C 
ATOM      5  O   UNL A   1      37.414  24.573  26.788  1.00  0.00    -0.273 OA
ATOM      6  H   UNL A   1      39.158  23.125  27.426  1.00  0.00     0.163 HD
BRANCH   4   7
ATOM      7  C   UNL A   1      37.013  23.259  24.818  1.00  0.00     0.226 C 
BRANCH   7   8
ATOM      8  N   UNL A   1      35.568  23.112  24.927  1.00  0.00    -0.295 N 
ATOM      9  C   UNL A   1      34.775  18.196  24.862  1.00  0.00     0.159 C 
ATOM     10  N   UNL A   1      34.392  19.594  24.916  1.00  0.00    -0.261 N 
ATOM     11  C   UNL A   1      35.387  20.557  24.748  1.00  0.00     0.282 A 
ATOM     12  C   UNL A   1      33.024  19.860  25.111  1.00  0.00     0.332 A 
ATOM     13  O   UNL A   1      36.556  20.286  24.471  1.00  0.00    -0.267 OA
ATOM     14  C   UNL A   1      34.919  21.891  24.903  1.00  0.00     0.154 A 
ATOM     15  N   UNL A   1      32.645  21.200  25.187  1.00  0.00    -0.279 N 
ATOM     16  O   UNL A   1      32.202  18.944  25.206  1.00  0.00    -0.247 OA
ATOM     17  C   UNL A   1      33.605  22.177  25.096  1.00  0.00     0.170 A 
ATOM     18  C   UNL A   1      31.253  21.561  25.383  1.00  0.00     0.157 C 
ATOM     19  N   UNL A   1      33.390  23.510  25.189  1.00  0.00    -0.194 NA
ATOM     20  C   UNL A   1      34.572  24.083  25.045  1.00  0.00     0.210 A 
BRANCH  20  21
ATOM     21  N   UNL A   1      34.697  25.430  25.134  1.00  0.00    -0.324 N 
ATOM     22  H   UNL A   1      35.626  25.731  25.257  1.00  0.00     0.170 HD
BRANCH  21  23
ATOM     23  C   UNL A   1      33.765  26.483  25.085  1.00  0.00     0.061 A 
ATOM     24  C   UNL A   1      33.310  26.990  26.319  1.00  0.00     0.028 A 
ATOM     25  C   UNL A   1      33.283  27.070  23.896  1.00  0.00     0.083 A 
ATOM     26  C   UNL A   1      32.519  28.135  26.381  1.00  0.00     0.004 A 
ATOM     27  C   UNL A   1      32.488  28.226  23.965  1.00  0.00     0.061 A 
ATOM     28  Cl  UNL A   1      33.684  26.357  22.364  1.00  0.00    -0.080 Cl
ATOM     29  C   UNL A   1      32.131  28.767  25.203  1.00  0.00     0.022 A 
ATOM     30  Cl  UNL A   1      31.944  29.057  22.551  1.00  0.00    -0.083 Cl
ENDBRANCH  21  23
ENDBRANCH  20  21
ENDBRANCH   7   8
ENDBRANCH   4   7
ENDBRANCH   2   3
ENDBRANCH   1   2
BRANCH   1  31
ATOM     31  C   UNL A   1      41.116  19.795  26.292  1.00  0.00     0.023 C 
BRANCH  31  32
ATOM     32  C   UNL A   1      42.500  19.502  26.853  1.00  0.00     0.116 C 
BRANCH  32  33
ATOM     33  N   UNL A   1      43.514  19.388  25.809  1.00  0.00    -0.352 N 
ATOM     34  C   UNL A   1      44.027  20.398  25.020  1.00  0.00     0.251 C 
ATOM     35  H   UNL A   1      43.875  18.486  25.651  1.00  0.00     0.163 HD
ATOM     36  O   UNL A   1      44.544  20.139  23.940  1.00  0.00    -0.269 OA
BRANCH  34  37
ATOM     37  C   UNL A   1      43.962  21.787  25.508  1.00  0.00     0.039 A 
ATOM     38  C   UNL A   1      43.043  22.699  24.978  1.00  0.00     0.014 A 
ATOM     39  C   UNL A   1      44.854  22.174  26.509  1.00  0.00     0.014 A 
ATOM     40  C   UNL A   1      42.987  23.985  25.511  1.00  0.00     0.010 A 
ATOM     41  C   UNL A   1      44.720  23.401  27.113  1.00  0.00     0.010 A 
ATOM     42  C   UNL A   1      43.823  24.323  26.588  1.00  0.00    -0.014 A 
BRANCH  42  43
ATOM     43  C   UNL A   1      43.649  25.582  27.306  1.00  0.00     0.031 A 
ATOM     44  C   UNL A   1      44.710  26.576  26.988  1.00  0.00     0.074 A 
ATOM     45  C   UNL A   1      42.517  25.890  27.980  1.00  0.00     0.049 A 
ATOM     46  N   UNL A   1      45.662  26.987  27.759  1.00  0.00    -0.248 NA
ATOM     47  C   UNL A   1      44.862  27.013  25.587  1.00  0.00     0.031 C 
ATOM     48  C   UNL A   1      41.291  25.092  28.084  1.00  0.00     0.029 A 
ATOM     49  N   UNL A   1      42.174  27.034  28.636  1.00  0.00    -0.354 N 
ATOM     50  C   UNL A   1      46.348  27.950  27.023  1.00  0.00     0.074 A 
ATOM     51  C   UNL A   1      45.987  27.730  25.651  1.00  0.00     0.031 C 
ATOM     52  C   UNL A   1      40.282  25.860  28.553  1.00  0.00     0.029 A 
ATOM     53  C   UNL A   1      40.813  27.157  28.929  1.00  0.00     0.049 A 
ATOM     54  H   UNL A   1      42.835  27.721  28.884  1.00  0.00     0.167 HD
ATOM     55  C   UNL A   1      46.898  29.033  27.642  1.00  0.00     0.037 A 
ATOM     56  C   UNL A   1      40.175  28.252  29.423  1.00  0.00     0.037 A 
ATOM     57  C   UNL A   1      46.991  28.805  29.065  1.00  0.00     0.049 A 
ATOM     58  C   UNL A   1      41.222  29.100  30.053  1.00  0.00     0.074 A 
ATOM     59  C   UNL A   1      47.607  27.860  29.862  1.00  0.00     0.029 A 
ATOM     60  N   UNL A   1      46.040  29.406  29.852  1.00  0.00    -0.354 N 
ATOM     61  N   UNL A   1      41.911  28.738  31.102  1.00  0.00    -0.248 NA
ATOM     62  C   UNL A   1      41.833  30.129  29.227  1.00  0.00     0.031 C 
ATOM     63  C   UNL A   1      46.690  27.622  30.927  1.00  0.00     0.029 A 
ATOM     64  C   UNL A   1      45.611  28.496  30.781  1.00  0.00     0.049 A 
ATOM     65  H   UNL A   1      45.722  30.334  29.765  1.00  0.00     0.167 HD
ATOM     66  C   UNL A   1      43.207  29.154  30.832  1.00  0.00     0.074 A 
ATOM     67  C   UNL A   1      43.081  30.072  29.700  1.00  0.00     0.031 C 
ATOM     68  C   UNL A   1      44.280  28.489  31.352  1.00  0.00     0.037 A 
BRANCH  55  69
ATOM     69  C   UNL A   1      46.945  30.432  27.056  1.00  0.00     0.058 A 
ATOM     70  C   UNL A   1      48.171  31.136  27.082  1.00  0.00     0.135 A 
ATOM     71  C   UNL A   1      45.812  31.215  26.741  1.00  0.00     0.135 A 
ATOM     72  F   UNL A   1      49.319  30.503  27.368  1.00  0.00    -0.206 F 
ATOM     73  C   UNL A   1      48.249  32.517  26.898  1.00  0.00     0.059 A 
ATOM     74  C   UNL A   1      45.876  32.583  26.502  1.00  0.00     0.059 A 
ATOM     75  F   UNL A   1      44.569  30.723  26.734  1.00  0.00    -0.206 F 
ATOM     76  C   UNL A   1      47.090  33.234  26.620  1.00  0.00     0.060 A 
BRANCH  76  77
ATOM     77  S   UNL A   1      47.176  35.024  26.456  1.00  0.00     0.124 S 
ATOM     78  O   UNL A   1      48.017  35.381  27.590  1.00  0.00    -0.237 OA
ATOM     79  O   UNL A   1      47.779  35.172  25.136  1.00  0.00    -0.237 OA
ATOM     80  O   UNL A   1      45.778  35.435  26.549  1.00  0.00    -0.744 OA
ENDBRANCH  76  77
ENDBRANCH  55  69
BRANCH  56  81
ATOM     81  C   UNL A   1      38.818  28.784  29.084  1.00  0.00     0.058 A 
ATOM     82  C   UNL A   1      37.832  28.967  30.076  1.00  0.00     0.135 A 
ATOM     83  C   UNL A   1      38.555  29.397  27.844  1.00  0.00     0.135 A 
ATOM     84  F   UNL A   1      37.996  28.435  31.297  1.00  0.00    -0.206 F 
ATOM     85  C   UNL A   1      36.689  29.755  29.869  1.00  0.00     0.059 A 
ATOM     86  C   UNL A   1      37.421  30.179  27.610  1.00  0.00     0.059 A 
ATOM     87  F   UNL A   1      39.440  29.329  26.838  1.00  0.00    -0.206 F 
ATOM     88  C   UNL A   1      36.505  30.379  28.636  1.00  0.00     0.060 A 
BRANCH  88  89
ATOM     89  S   UNL A   1      35.128  31.533  28.411  1.00  0.00     0.124 S 
ATOM     90  O   UNL A   1      34.139  30.698  27.736  1.00  0.00    -0.237 OA
ATOM     91  O   UNL A   1      34.813  31.910  29.785  1.00  0.00    -0.237 OA
ATOM     92  O   UNL A   1      35.707  32.596  27.593  1.00  0.00    -0.744 OA
ENDBRANCH  88  89
ENDBRANCH  56  81
BRANCH  68  93
ATOM     93  C   UNL A   1      44.059  27.515  32.482  1.00  0.00     0.058 A 
ATOM     94  C   UNL A   1      43.955  26.121  32.335  1.00  0.00     0.135 A 
ATOM     95  C   UNL A   1      44.180  28.015  33.788  1.00  0.00     0.135 A 
ATOM     96  F   UNL A   1      43.915  25.554  31.122  1.00  0.00    -0.206 F 
ATOM     97  C   UNL A   1      43.969  25.264  33.441  1.00  0.00     0.059 A 
ATOM     98  C   UNL A   1      44.230  27.180  34.899  1.00  0.00     0.059 A 
ATOM     99  F   UNL A   1      44.334  29.334  33.989  1.00  0.00    -0.206 F 
ATOM    100  C   UNL A   1      44.124  25.804  34.720  1.00  0.00     0.060 A 
BRANCH 100 101
ATOM    101  S   UNL A   1      44.266  24.694  36.138  1.00  0.00     0.124 S 
ATOM    102  O   UNL A   1      44.367  23.387  35.498  1.00  0.00    -0.237 OA
ATOM    103  O   UNL A   1      45.477  25.175  36.795  1.00  0.00    -0.237 OA
ATOM    104  O   UNL A   1      43.030  24.929  36.882  1.00  0.00    -0.744 OA
ENDBRANCH 100 101
ENDBRANCH  68  93
ENDBRANCH  42  43
ENDBRANCH  34  37
ENDBRANCH  32  33
ENDBRANCH  31  32
ENDBRANCH   1  31
TORSDOF 17
ENDMDL
MODEL 2
REMARK VINA RESULT:     -12.2      2.688      8.720
REMARK SMILES Cn1c(=O)c2c(nc(Nc3cccc(Cl)c3Cl)n2CC(=O)NCCCCNC(=O)c2ccc(-c3c4nc(c(-c5c(F)cc(S(=O)(=O)[O-])cc5F)c5ccc([nH]5)c(-c5c(F)cc(S(=O)(=O)[O-])cc5F)c5nc(c(-c6c(F)cc(S(=O)(=O)[O-])cc6F)c6ccc3[nH]6)C=C5)C=C4)cc2)n(C)c1=O
REMARK SMILES IDX 24 1 23 2 22 3 20 4 21 5 19 7 18 8 1 9 2 10 3 11 98 12 4 13
REMARK SMILES IDX 5 14 96 15 99 16 6 17 97 18 7 19 8 20 9 21 10 23 11 24 16 25
REMARK SMILES IDX 12 26 14 27 17 28 13 29 15 30 25 31 26 32 27 33 28 34 29 36
REMARK SMILES IDX 30 37 31 38 95 39 32 40 94 41 33 42 34 43 35 44 88 45 36 46
REMARK SMILES IDX 93 47 87 48 89 49 37 50 92 51 86 52 85 53 38 55 72 56 51 57
REMARK SMILES IDX 71 58 52 59 55 60 70 61 90 62 53 63 54 64 69 66 91 67 56 68
REMARK SMILES IDX 39 69 40 70 49 71 41 72 42 73 48 74 50 75 43 76 44 77 45 78
REMARK SMILES IDX 46 79 47 80 73 81 74 82 83 83 75 84 76 85 82 86 84 87 77 88
REMARK SMILES IDX 78 89 79 90 80 91 81 92 57 93 58 94 67 95 59 96 60 97 66 98
REMARK SMILES IDX 68 99 61 100 62 101 63 102 64 103 65 104
REMARK H PARENT 22 6 9 22 27 35 89 54 55 65
REMARK Flexibility Score: inf
ROOT
ATOM      1  C   UNL A   1      31.816  28.000  26.508  1.00  0.00     0.023 C 
ENDROOT
BRANCH   1   2
ATOM      2  C   UNL A   1      32.485  26.633  26.388  1.00  0.00     0.116 C 
BRANCH   2   3
ATOM      3  N   UNL A   1      31.667  25.567  26.915  1.00  0.00    -0.355 N 
ATOM      4  C   UNL A   1      31.841  24.217  26.824  1.00  0.00     0.240 C 
ATOM      5  O   UNL A   1      31.053  23.509  27.455  1.00  0.00    -0.273 OA
ATOM      6  H   UNL A   1      30.867  25.857  27.411  1.00  0.00     0.163 HD
BRANCH   4   7
ATOM      7  C   UNL A   1      33.034  23.618  26.102  1.00  0.00     0.226 C 
BRANCH   7   8
ATOM      8  N   UNL A   1      32.773  23.013  24.803  1.00  0.00    -0.295 N 
ATOM      9  C   UNL A   1      32.746  18.108  25.658  1.00  0.00     0.159 C 
ATOM     10  N   UNL A   1      32.654  19.306  24.846  1.00  0.00    -0.261 N 
ATOM     11  C   UNL A   1      32.928  20.534  25.450  1.00  0.00     0.282 A 
ATOM     12  C   UNL A   1      32.317  19.121  23.493  1.00  0.00     0.332 A 
ATOM     13  O   UNL A   1      33.327  20.648  26.610  1.00  0.00    -0.267 OA
ATOM     14  C   UNL A   1      32.727  21.649  24.590  1.00  0.00     0.154 A 
ATOM     15  N   UNL A   1      32.204  20.266  22.706  1.00  0.00    -0.279 N 
ATOM     16  O   UNL A   1      32.134  17.991  23.029  1.00  0.00    -0.247 OA
ATOM     17  C   UNL A   1      32.397  21.499  23.280  1.00  0.00     0.170 A 
ATOM     18  C   UNL A   1      31.863  20.163  21.299  1.00  0.00     0.157 C 
ATOM     19  N   UNL A   1      32.284  22.692  22.651  1.00  0.00    -0.194 NA
ATOM     20  C   UNL A   1      32.553  23.612  23.562  1.00  0.00     0.210 A 
BRANCH  20  21
ATOM     21  N   UNL A   1      32.480  24.929  23.247  1.00  0.00    -0.324 N 
ATOM     22  H   UNL A   1      33.353  25.332  23.038  1.00  0.00     0.170 HD
BRANCH  21  23
ATOM     23  C   UNL A   1      31.406  25.834  23.160  1.00  0.00     0.061 A 
ATOM     24  C   UNL A   1      30.159  25.392  23.646  1.00  0.00     0.028 A 
ATOM     25  C   UNL A   1      31.504  27.144  22.648  1.00  0.00     0.083 A 
ATOM     26  C   UNL A   1      29.078  26.264  23.758  1.00  0.00     0.004 A 
ATOM     27  C   UNL A   1      30.412  28.020  22.766  1.00  0.00     0.061 A 
ATOM     28  Cl  UNL A   1      32.976  27.658  21.882  1.00  0.00    -0.080 Cl
ATOM     29  C   UNL A   1      29.214  27.585  23.342  1.00  0.00     0.022 A 
ATOM     30  Cl  UNL A   1      30.490  29.668  22.253  1.00  0.00    -0.083 Cl
ENDBRANCH  21  23
ENDBRANCH  20  21
ENDBRANCH   7   8
ENDBRANCH   4   7
ENDBRANCH   2   3
ENDBRANCH   1   2
BRANCH   1  31
ATOM     31  C   UNL A   1      32.538  28.987  27.433  1.00  0.00     0.023 C 
BRANCH  31  32
ATOM     32  C   UNL A   1      33.907  29.422  26.930  1.00  0.00     0.116 C 
BRANCH  32  33
ATOM     33  N   UNL A   1      34.088  30.870  26.979  1.00  0.00    -0.352 N 
ATOM     34  C   UNL A   1      35.003  31.579  27.730  1.00  0.00     0.251 C 
ATOM     35  H   UNL A   1      33.487  31.402  26.409  1.00  0.00     0.163 HD
ATOM     36  O   UNL A   1      34.802  32.756  28.004  1.00  0.00    -0.269 OA
BRANCH  34  37
ATOM     37  C   UNL A   1      36.235  30.903  28.177  1.00  0.00     0.039 A 
ATOM     38  C   UNL A   1      36.418  29.530  27.987  1.00  0.00     0.014 A 
ATOM     39  C   UNL A   1      37.213  31.672  28.809  1.00  0.00     0.014 A 
ATOM     40  C   UNL A   1      37.622  28.951  28.381  1.00  0.00     0.010 A 
ATOM     41  C   UNL A   1      38.442  31.127  29.089  1.00  0.00     0.010 A 
ATOM     42  C   UNL A   1      38.634  29.761  28.920  1.00  0.00    -0.014 A 
BRANCH  42  43
ATOM     43  C   UNL A   1      39.976  29.233  29.148  1.00  0.00     0.031 A 
ATOM     44  C   UNL A   1      40.317  29.133  30.594  1.00  0.00     0.074 A 
ATOM     45  C   UNL A   1      40.716  28.667  28.168  1.00  0.00     0.049 A 
ATOM     46  N   UNL A   1      41.162  29.852  31.256  1.00  0.00    -0.248 NA
ATOM     47  C   UNL A   1      39.475  28.279  31.453  1.00  0.00     0.031 C 
ATOM     48  C   UNL A   1      40.330  28.439  26.771  1.00  0.00     0.029 A 
ATOM     49  N   UNL A   1      41.941  28.073  28.229  1.00  0.00    -0.354 N 
ATOM     50  C   UNL A   1      41.158  29.334  32.549  1.00  0.00     0.074 A 
ATOM     51  C   UNL A   1      39.946  28.575  32.667  1.00  0.00     0.031 C 
ATOM     52  C   UNL A   1      41.188  27.569  26.194  1.00  0.00     0.029 A 
ATOM     53  C   UNL A   1      42.271  27.291  27.119  1.00  0.00     0.049 A 
ATOM     54  H   UNL A   1      42.547  28.187  28.997  1.00  0.00     0.167 HD
ATOM     55  C   UNL A   1      42.301  29.317  33.291  1.00  0.00     0.037 A 
ATOM     56  C   UNL A   1      43.343  26.464  26.986  1.00  0.00     0.037 A 
ATOM     57  C   UNL A   1      43.285  30.208  32.720  1.00  0.00     0.049 A 
ATOM     58  C   UNL A   1      44.343  26.907  27.994  1.00  0.00     0.074 A 
ATOM     59  C   UNL A   1      43.325  31.558  32.430  1.00  0.00     0.029 A 
ATOM     60  N   UNL A   1      44.291  29.631  31.985  1.00  0.00    -0.354 N 
ATOM     61  N   UNL A   1      44.938  28.069  27.960  1.00  0.00    -0.248 NA
ATOM     62  C   UNL A   1      44.311  26.258  29.294  1.00  0.00     0.031 C 
ATOM     63  C   UNL A   1      44.035  31.649  31.198  1.00  0.00     0.029 A 
ATOM     64  C   UNL A   1      44.474  30.370  30.848  1.00  0.00     0.049 A 
ATOM     65  H   UNL A   1      44.796  28.822  32.234  1.00  0.00     0.167 HD
ATOM     66  C   UNL A   1      44.958  28.493  29.281  1.00  0.00     0.074 A 
ATOM     67  C   UNL A   1      44.628  27.302  30.065  1.00  0.00     0.031 C 
ATOM     68  C   UNL A   1      44.944  29.822  29.592  1.00  0.00     0.037 A 
BRANCH  55  69
ATOM     69  C   UNL A   1      42.696  28.207  34.248  1.00  0.00     0.058 A 
ATOM     70  C   UNL A   1      42.870  28.520  35.615  1.00  0.00     0.135 A 
ATOM     71  C   UNL A   1      43.185  26.940  33.858  1.00  0.00     0.135 A 
ATOM     72  F   UNL A   1      42.446  29.695  36.108  1.00  0.00    -0.206 F 
ATOM     73  C   UNL A   1      43.551  27.683  36.498  1.00  0.00     0.059 A 
ATOM     74  C   UNL A   1      43.820  26.068  34.734  1.00  0.00     0.059 A 
ATOM     75  F   UNL A   1      43.158  26.509  32.593  1.00  0.00    -0.206 F 
ATOM     76  C   UNL A   1      44.035  26.461  36.043  1.00  0.00     0.060 A 
BRANCH  76  77
ATOM     77  S   UNL A   1      44.979  25.411  37.158  1.00  0.00     0.124 S 
ATOM     78  O   UNL A   1      44.345  25.702  38.437  1.00  0.00    -0.237 OA
ATOM     79  O   UNL A   1      44.726  24.086  36.603  1.00  0.00    -0.237 OA
ATOM     80  O   UNL A   1      46.345  25.901  37.001  1.00  0.00    -0.744 OA
ENDBRANCH  76  77
ENDBRANCH  55  69
BRANCH  56  81
ATOM     81  C   UNL A   1      43.424  25.128  26.318  1.00  0.00     0.058 A 
ATOM     82  C   UNL A   1      44.319  24.890  25.254  1.00  0.00     0.135 A 
ATOM     83  C   UNL A   1      42.846  23.980  26.895  1.00  0.00     0.135 A 
ATOM     84  F   UNL A   1      44.934  25.918  24.648  1.00  0.00    -0.206 F 
ATOM     85  C   UNL A   1      44.662  23.598  24.829  1.00  0.00     0.059 A 
ATOM     86  C   UNL A   1      43.165  22.683  26.484  1.00  0.00     0.059 A 
ATOM     87  F   UNL A   1      42.013  24.077  27.942  1.00  0.00    -0.206 F 
ATOM     88  C   UNL A   1      44.096  22.496  25.469  1.00  0.00     0.060 A 
BRANCH  88  89
ATOM     89  S   UNL A   1      44.656  20.827  25.047  1.00  0.00     0.124 S 
ATOM     90  O   UNL A   1      44.595  20.845  23.590  1.00  0.00    -0.237 OA
ATOM     91  O   UNL A   1      45.993  20.794  25.629  1.00  0.00    -0.237 OA
ATOM     92  O   UNL A   1      43.673  19.965  25.700  1.00  0.00    -0.744 OA
ENDBRANCH  88  89
ENDBRANCH  56  81
BRANCH  68  93
ATOM     93  C   UNL A   1      45.243  30.829  28.510  1.00  0.00     0.058 A 
ATOM     94  C   UNL A   1      44.296  31.355  27.614  1.00  0.00     0.135 A 
ATOM     95  C   UNL A   1      46.506  31.442  28.541  1.00  0.00     0.135 A 
ATOM     96  F   UNL A   1      43.043  30.882  27.575  1.00  0.00    -0.206 F 
ATOM     97  C   UNL A   1      44.595  32.441  26.784  1.00  0.00     0.059 A 
ATOM     98  C   UNL A   1      46.814  32.543  27.750  1.00  0.00     0.059 A 
ATOM     99  F   UNL A   1      47.435  31.018  29.413  1.00  0.00    -0.206 F 
ATOM    100  C   UNL A   1      45.854  33.039  26.872  1.00  0.00     0.060 A 
BRANCH 100 101
ATOM    101  S   UNL A   1      46.203  34.515  25.892  1.00  0.00     0.124 S 
ATOM    102  O   UNL A   1      45.289  34.360  24.764  1.00  0.00    -0.237 OA
ATOM    103  O   UNL A   1      45.884  35.594  26.822  1.00  0.00    -0.237 OA
ATOM    104  O   UNL A   1      47.621  34.384  25.567  1.00  0.00    -0.744 OA
ENDBRANCH 100 101
ENDBRANCH  68  93
ENDBRANCH  42  43
ENDBRANCH  34  37
ENDBRANCH  32  33
ENDBRANCH  31  32
ENDBRANCH   1  31
TORSDOF 17
ENDMDL
MODEL 3
REMARK VINA RESULT:     -12.1      2.669      4.443
REMARK SMILES Cn1c(=O)c2c(nc(Nc3cccc(Cl)c3Cl)n2CC(=O)NCCCCNC(=O)c2ccc(-c3c4nc(c(-c5c(F)cc(S(=O)(=O)[O-])cc5F)c5ccc([nH]5)c(-c5c(F)cc(S(=O)(=O)[O-])cc5F)c5nc(c(-c6c(F)cc(S(=O)(=O)[O-])cc6F)c6ccc3[nH]6)C=C5)C=C4)cc2)n(C)c1=O
REMARK SMILES IDX 24 1 23 2 22 3 20 4 21 5 19 7 18 8 1 9 2 10 3 11 98 12 4 13
REMARK SMILES IDX 5 14 96 15 99 16 6 17 97 18 7 19 8 20 9 21 10 23 11 24 16 25
REMARK SMILES IDX 12 26 14 27 17 28 13 29 15 30 25 31 26 32 27 33 28 34 29 36
REMARK SMILES IDX 30 37 31 38 95 39 32 40 94 41 33 42 34 43 35 44 88 45 36 46
REMARK SMILES IDX 93 47 87 48 89 49 37 50 92 51 86 52 85 53 38 55 72 56 51 57
REMARK SMILES IDX 71 58 52 59 55 60 70 61 90 62 53 63 54 64 69 66 91 67 56 68
REMARK SMILES IDX 39 69 40 70 49 71 41 72 42 73 48 74 50 75 43 76 44 77 45 78
REMARK SMILES IDX 46 79 47 80 73 81 74 82 83 83 75 84 76 85 82 86 84 87 77 88
REMARK SMILES IDX 78 89 79 90 80 91 81 92 57 93 58 94 67 95 59 96 60 97 66 98
REMARK SMILES IDX 68 99 61 100 62 101 63 102 64 103 65 104
REMARK H PARENT 22 6 9 22 27 35 89 54 55 65
REMARK Flexibility Score: inf
ROOT
ATOM      1  C   UNL A   1      38.787  23.561  26.407  1.00  0.00     0.023 C 
ENDROOT
BRANCH   1   2
ATOM      2  C   UNL A   1      37.384  23.558  25.804  1.00  0.00     0.116 C 
BRANCH   2   3
ATOM      3  N   UNL A   1      36.454  22.763  26.570  1.00  0.00    -0.355 N 
ATOM      4  C   UNL A   1      35.172  22.403  26.270  1.00  0.00     0.240 C 
ATOM      5  O   UNL A   1      34.615  21.624  27.047  1.00  0.00    -0.273 OA
ATOM      6  H   UNL A   1      36.792  22.435  27.435  1.00  0.00     0.163 HD
BRANCH   4   7
ATOM      7  C   UNL A   1      34.514  22.822  24.968  1.00  0.00     0.226 C 
BRANCH   7   8
ATOM      8  N   UNL A   1      33.148  23.316  25.058  1.00  0.00    -0.295 N 
ATOM      9  C   UNL A   1      33.493  28.204  24.172  1.00  0.00     0.159 C 
ATOM     10  N   UNL A   1      32.807  26.965  24.485  1.00  0.00    -0.261 N 
ATOM     11  C   UNL A   1      33.577  25.822  24.701  1.00  0.00     0.282 A 
ATOM     12  C   UNL A   1      31.404  27.031  24.571  1.00  0.00     0.332 A 
ATOM     13  O   UNL A   1      34.808  25.825  24.725  1.00  0.00    -0.267 OA
ATOM     14  C   UNL A   1      32.804  24.647  24.917  1.00  0.00     0.154 A 
ATOM     15  N   UNL A   1      30.731  25.842  24.849  1.00  0.00    -0.279 N 
ATOM     16  O   UNL A   1      30.804  28.098  24.408  1.00  0.00    -0.247 OA
ATOM     17  C   UNL A   1      31.448  24.682  25.000  1.00  0.00     0.170 A 
ATOM     18  C   UNL A   1      29.283  25.824  24.958  1.00  0.00     0.157 C 
ATOM     19  N   UNL A   1      30.929  23.454  25.235  1.00  0.00    -0.194 NA
ATOM     20  C   UNL A   1      31.959  22.630  25.313  1.00  0.00     0.210 A 
BRANCH  20  21
ATOM     21  N   UNL A   1      31.762  21.301  25.502  1.00  0.00    -0.324 N 
ATOM     22  H   UNL A   1      31.186  21.096  26.274  1.00  0.00     0.170 HD
BRANCH  21  23
ATOM     23  C   UNL A   1      32.215  20.159  24.816  1.00  0.00     0.061 A 
ATOM     24  C   UNL A   1      32.717  19.102  25.600  1.00  0.00     0.028 A 
ATOM     25  C   UNL A   1      32.175  20.000  23.416  1.00  0.00     0.083 A 
ATOM     26  C   UNL A   1      33.034  17.869  25.033  1.00  0.00     0.004 A 
ATOM     27  C   UNL A   1      32.493  18.754  22.849  1.00  0.00     0.061 A 
ATOM     28  Cl  UNL A   1      31.729  21.345  22.411  1.00  0.00    -0.080 Cl
ATOM     29  C   UNL A   1      32.896  17.689  23.660  1.00  0.00     0.022 A 
ATOM     30  Cl  UNL A   1      32.371  18.454  21.151  1.00  0.00    -0.083 Cl
ENDBRANCH  21  23
ENDBRANCH  20  21
ENDBRANCH   7   8
ENDBRANCH   4   7
ENDBRANCH   2   3
ENDBRANCH   1   2
BRANCH   1  31
ATOM     31  C   UNL A   1      39.461  22.185  26.467  1.00  0.00     0.023 C 
BRANCH  31  32
ATOM     32  C   UNL A   1      40.820  22.189  27.152  1.00  0.00     0.116 C 
BRANCH  32  33
ATOM     33  N   UNL A   1      41.926  22.151  26.200  1.00  0.00    -0.352 N 
ATOM     34  C   UNL A   1      42.540  23.221  25.579  1.00  0.00     0.251 C 
ATOM     35  H   UNL A   1      42.276  21.259  25.975  1.00  0.00     0.163 HD
ATOM     36  O   UNL A   1      43.151  23.061  24.529  1.00  0.00    -0.269 OA
BRANCH  34  37
ATOM     37  C   UNL A   1      42.467  24.550  26.212  1.00  0.00     0.039 A 
ATOM     38  C   UNL A   1      41.660  25.562  25.680  1.00  0.00     0.014 A 
ATOM     39  C   UNL A   1      43.236  24.778  27.353  1.00  0.00     0.014 A 
ATOM     40  C   UNL A   1      41.587  26.783  26.346  1.00  0.00     0.010 A 
ATOM     41  C   UNL A   1      43.074  25.937  28.073  1.00  0.00     0.010 A 
ATOM     42  C   UNL A   1      42.289  26.957  27.550  1.00  0.00    -0.014 A 
BRANCH  42  43
ATOM     43  C   UNL A   1      42.073  28.138  28.381  1.00  0.00     0.031 A 
ATOM     44  C   UNL A   1      43.179  29.128  28.272  1.00  0.00     0.074 A 
ATOM     45  C   UNL A   1      40.889  28.407  28.977  1.00  0.00     0.049 A 
ATOM     46  N   UNL A   1      44.062  29.426  29.167  1.00  0.00    -0.248 NA
ATOM     47  C   UNL A   1      43.472  29.705  26.946  1.00  0.00     0.031 C 
ATOM     48  C   UNL A   1      39.642  27.640  28.880  1.00  0.00     0.029 A 
ATOM     49  N   UNL A   1      40.508  29.485  29.718  1.00  0.00    -0.354 N 
ATOM     50  C   UNL A   1      44.834  30.439  28.606  1.00  0.00     0.074 A 
ATOM     51  C   UNL A   1      44.601  30.377  27.191  1.00  0.00     0.031 C 
ATOM     52  C   UNL A   1      38.609  28.384  29.334  1.00  0.00     0.029 A 
ATOM     53  C   UNL A   1      39.129  29.618  29.895  1.00  0.00     0.049 A 
ATOM     54  H   UNL A   1      41.156  30.122  30.098  1.00  0.00     0.167 HD
ATOM     55  C   UNL A   1      45.345  31.433  29.386  1.00  0.00     0.037 A 
ATOM     56  C   UNL A   1      38.469  30.674  30.444  1.00  0.00     0.037 A 
ATOM     57  C   UNL A   1      45.298  31.054  30.779  1.00  0.00     0.049 A 
ATOM     58  C   UNL A   1      39.468  31.418  31.256  1.00  0.00     0.074 A 
ATOM     59  C   UNL A   1      45.816  30.012  31.522  1.00  0.00     0.029 A 
ATOM     60  N   UNL A   1      44.289  31.597  31.535  1.00  0.00    -0.354 N 
ATOM     61  N   UNL A   1      40.046  30.926  32.319  1.00  0.00    -0.248 NA
ATOM     62  C   UNL A   1      40.175  32.509  30.606  1.00  0.00     0.031 C 
ATOM     63  C   UNL A   1      44.797  29.690  32.466  1.00  0.00     0.029 A 
ATOM     64  C   UNL A   1      43.754  30.607  32.316  1.00  0.00     0.049 A 
ATOM     65  H   UNL A   1      43.999  32.538  31.520  1.00  0.00     0.167 HD
ATOM     66  C   UNL A   1      41.370  31.329  32.216  1.00  0.00     0.074 A 
ATOM     67  C   UNL A   1      41.371  32.365  31.183  1.00  0.00     0.031 C 
ATOM     68  C   UNL A   1      42.375  30.581  32.758  1.00  0.00     0.037 A 
BRANCH  55  69
ATOM     69  C   UNL A   1      45.476  32.885  28.962  1.00  0.00     0.058 A 
ATOM     70  C   UNL A   1      46.723  33.530  29.130  1.00  0.00     0.135 A 
ATOM     71  C   UNL A   1      44.392  33.745  28.676  1.00  0.00     0.135 A 
ATOM     72  F   UNL A   1      47.829  32.821  29.405  1.00  0.00    -0.206 F 
ATOM     73  C   UNL A   1      46.861  34.918  29.104  1.00  0.00     0.059 A 
ATOM     74  C   UNL A   1      44.519  35.126  28.593  1.00  0.00     0.059 A 
ATOM     75  F   UNL A   1      43.134  33.309  28.549  1.00  0.00    -0.206 F 
ATOM     76  C   UNL A   1      45.747  35.709  28.846  1.00  0.00     0.060 A 
BRANCH  76  77
ATOM     77  S   UNL A   1      45.906  37.501  28.886  1.00  0.00     0.124 S 
ATOM     78  O   UNL A   1      46.490  37.770  27.578  1.00  0.00    -0.237 OA
ATOM     79  O   UNL A   1      44.520  37.917  29.068  1.00  0.00    -0.237 OA
ATOM     80  O   UNL A   1      46.781  37.733  30.032  1.00  0.00    -0.744 OA
ENDBRANCH  76  77
ENDBRANCH  55  69
BRANCH  56  81
ATOM     81  C   UNL A   1      37.161  31.279  30.041  1.00  0.00     0.058 A 
ATOM     82  C   UNL A   1      36.312  31.893  30.986  1.00  0.00     0.135 A 
ATOM     83  C   UNL A   1      36.851  31.532  28.690  1.00  0.00     0.135 A 
ATOM     84  F   UNL A   1      36.533  31.726  32.299  1.00  0.00    -0.206 F 
ATOM     85  C   UNL A   1      35.262  32.747  30.616  1.00  0.00     0.059 A 
ATOM     86  C   UNL A   1      35.806  32.371  28.297  1.00  0.00     0.059 A 
ATOM     87  F   UNL A   1      37.612  31.038  27.702  1.00  0.00    -0.206 F 
ATOM     88  C   UNL A   1      35.032  33.000  29.265  1.00  0.00     0.060 A 
BRANCH  88  89
ATOM     89  S   UNL A   1      33.793  34.229  28.780  1.00  0.00     0.124 S 
ATOM     90  O   UNL A   1      33.124  34.502  30.047  1.00  0.00    -0.237 OA
ATOM     91  O   UNL A   1      34.620  35.307  28.249  1.00  0.00    -0.237 OA
ATOM     92  O   UNL A   1      32.985  33.522  27.789  1.00  0.00    -0.744 OA
ENDBRANCH  88  89
ENDBRANCH  56  81
BRANCH  68  93
ATOM     93  C   UNL A   1      42.028  29.499  33.751  1.00  0.00     0.058 A 
ATOM     94  C   UNL A   1      41.700  28.174  33.417  1.00  0.00     0.135 A 
ATOM     95  C   UNL A   1      42.258  29.782  35.107  1.00  0.00     0.135 A 
ATOM     96  F   UNL A   1      41.543  27.801  32.140  1.00  0.00    -0.206 F 
ATOM     97  C   UNL A   1      41.603  27.175  34.392  1.00  0.00     0.059 A 
ATOM     98  C   UNL A   1      42.199  28.798  36.088  1.00  0.00     0.059 A 
ATOM     99  F   UNL A   1      42.624  31.018  35.482  1.00  0.00    -0.206 F 
ATOM    100  C   UNL A   1      41.871  27.494  35.724  1.00  0.00     0.060 A 
BRANCH 100 101
ATOM    101  S   UNL A   1      41.868  26.184  36.967  1.00  0.00     0.124 S 
ATOM    102  O   UNL A   1      42.869  26.658  37.918  1.00  0.00    -0.237 OA
ATOM    103  O   UNL A   1      40.487  26.201  37.440  1.00  0.00    -0.237 OA
ATOM    104  O   UNL A   1      42.244  24.992  36.210  1.00  0.00    -0.744 OA
ENDBRANCH 100 101
ENDBRANCH  68  93
ENDBRANCH  42  43
ENDBRANCH  34  37
ENDBRANCH  32  33
ENDBRANCH  31  32
ENDBRANCH   1  31
TORSDOF 17
ENDMDL
