MODEL 1
REMARK VINA RESULT:     -12.2      0.000      0.000
REMARK SMILES Cc1cc2c(=O)c3ccccc3oc2c(C(=O)NCCCCNC(=O)c2ccc(-c3c4nc(c(-c5c(F)cc(S(=O)(=O)[O-])cc5F)c5ccc([nH]5)c(-c5c(F)cc(S(=O)(=O)[O-])cc5F)c5nc(c(-c6c(F)cc(S(=O)(=O)[O-])cc6F)c6ccc3[nH]6)C=C5)C=C4)cc2)c1C
REMARK SMILES IDX 22 1 21 2 20 3 19 4 18 5 16 6 17 7 15 9 1 10 2 11 3 12 92 13
REMARK SMILES IDX 4 14 93 15 5 16 14 17 6 18 7 19 13 20 8 21 12 22 9 23 11 24
REMARK SMILES IDX 10 25 23 26 24 27 25 29 26 30 27 31 91 32 28 33 90 34 29 35
REMARK SMILES IDX 30 36 31 37 84 38 32 39 89 40 83 41 85 42 33 43 88 44 82 45
REMARK SMILES IDX 81 46 34 48 68 49 47 50 67 51 48 52 51 53 66 54 86 55 49 56
REMARK SMILES IDX 50 57 65 59 87 60 52 61 35 62 36 63 45 64 37 65 38 66 44 67
REMARK SMILES IDX 46 68 39 69 40 70 41 71 42 72 43 73 69 74 70 75 79 76 71 77
REMARK SMILES IDX 72 78 78 79 80 80 73 81 74 82 75 83 76 84 77 85 53 86 54 87
REMARK SMILES IDX 63 88 55 89 56 90 62 91 64 92 57 93 58 94 59 95 60 96 61 97
REMARK H PARENT 18 8 23 28 85 47 51 58
REMARK Flexibility Score: inf
ROOT
ATOM      1  C   UNL A   1      33.522  28.808  27.237  1.00  0.00     0.116 C 
ENDROOT
BRANCH   1   2
ATOM      2  C   UNL A   1      32.817  28.692  25.895  1.00  0.00     0.023 C 
BRANCH   2   3
ATOM      3  C   UNL A   1      33.377  29.600  24.808  1.00  0.00     0.023 C 
BRANCH   3   4
ATOM      4  C   UNL A   1      34.181  28.871  23.727  1.00  0.00     0.116 C 
BRANCH   4   5
ATOM      5  N   UNL A   1      34.094  27.425  23.926  1.00  0.00    -0.352 N 
ATOM      6  C   UNL A   1      33.469  26.607  23.010  1.00  0.00     0.255 C 
ATOM      7  O   UNL A   1      33.981  26.352  21.927  1.00  0.00    -0.269 OA
ATOM      8  H   UNL A   1      34.492  27.027  24.733  1.00  0.00     0.163 HD
BRANCH   6   9
ATOM      9  C   UNL A   1      32.212  25.921  23.451  1.00  0.00     0.086 A 
ATOM     10  C   UNL A   1      30.928  22.708  25.158  1.00  0.00     0.044 C 
ATOM     11  C   UNL A   1      31.000  24.074  24.526  1.00  0.00    -0.046 A 
ATOM     12  C   UNL A   1      29.822  24.815  24.424  1.00  0.00     0.019 A 
ATOM     13  C   UNL A   1      32.216  24.634  24.064  1.00  0.00    -0.032 A 
ATOM     14  C   UNL A   1      29.829  26.079  23.836  1.00  0.00     0.066 A 
ATOM     15  C   UNL A   1      33.486  23.850  24.234  1.00  0.00     0.045 C 
ATOM     16  C   UNL A   1      28.575  26.841  23.775  1.00  0.00     0.200 A 
ATOM     17  C   UNL A   1      31.002  26.636  23.326  1.00  0.00     0.151 A 
ATOM     18  O   UNL A   1      27.531  26.402  24.241  1.00  0.00    -0.288 OA
ATOM     19  C   UNL A   1      28.632  28.156  23.135  1.00  0.00     0.065 A 
ATOM     20  O   UNL A   1      31.011  27.855  22.679  1.00  0.00    -0.455 OA
ATOM     21  C   UNL A   1      27.487  28.956  23.056  1.00  0.00     0.016 A 
ATOM     22  C   UNL A   1      29.847  28.581  22.608  1.00  0.00     0.138 A 
ATOM     23  C   UNL A   1      27.560  30.196  22.427  1.00  0.00     0.001 A 
ATOM     24  C   UNL A   1      29.911  29.820  21.969  1.00  0.00     0.048 A 
ATOM     25  C   UNL A   1      28.769  30.625  21.879  1.00  0.00     0.004 A 
ENDBRANCH   6   9
ENDBRANCH   4   5
ENDBRANCH   3   4
ENDBRANCH   2   3
ENDBRANCH   1   2
BRANCH   1  26
ATOM     26  N   UNL A   1      33.602  30.168  27.756  1.00  0.00    -0.352 N 
ATOM     27  C   UNL A   1      34.713  30.800  28.292  1.00  0.00     0.251 C 
ATOM     28  H   UNL A   1      32.774  30.697  27.721  1.00  0.00     0.163 HD
ATOM     29  O   UNL A   1      34.653  31.928  28.734  1.00  0.00    -0.269 OA
BRANCH  27  30
ATOM     30  C   UNL A   1      35.967  30.014  28.362  1.00  0.00     0.039 A 
ATOM     31  C   UNL A   1      36.345  29.433  29.574  1.00  0.00     0.014 A 
ATOM     32  C   UNL A   1      36.841  30.041  27.274  1.00  0.00     0.014 A 
ATOM     33  C   UNL A   1      37.671  29.068  29.760  1.00  0.00     0.010 A 
ATOM     34  C   UNL A   1      38.153  29.589  27.441  1.00  0.00     0.010 A 
ATOM     35  C   UNL A   1      38.597  29.168  28.705  1.00  0.00    -0.014 A 
BRANCH  35  36
ATOM     36  C   UNL A   1      40.034  28.890  28.969  1.00  0.00     0.031 A 
ATOM     37  C   UNL A   1      40.646  27.566  28.583  1.00  0.00     0.074 A 
ATOM     38  C   UNL A   1      40.808  29.865  29.482  1.00  0.00     0.049 A 
ATOM     39  N   UNL A   1      41.876  27.149  28.746  1.00  0.00    -0.248 NA
ATOM     40  C   UNL A   1      39.766  26.582  27.929  1.00  0.00     0.031 C 
ATOM     41  C   UNL A   1      40.339  31.200  29.862  1.00  0.00     0.029 A 
ATOM     42  N   UNL A   1      42.154  29.901  29.736  1.00  0.00    -0.354 N 
ATOM     43  C   UNL A   1      41.912  25.851  28.247  1.00  0.00     0.074 A 
ATOM     44  C   UNL A   1      40.577  25.542  27.783  1.00  0.00     0.031 C 
ATOM     45  C   UNL A   1      41.390  31.942  30.240  1.00  0.00     0.029 A 
ATOM     46  C   UNL A   1      42.593  31.119  30.195  1.00  0.00     0.049 A 
ATOM     47  H   UNL A   1      42.749  29.128  29.603  1.00  0.00     0.167 HD
ATOM     48  C   UNL A   1      42.964  25.000  28.171  1.00  0.00     0.037 A 
ATOM     49  C   UNL A   1      43.825  31.526  30.555  1.00  0.00     0.037 A 
ATOM     50  C   UNL A   1      44.301  25.327  28.597  1.00  0.00     0.049 A 
ATOM     51  C   UNL A   1      44.967  30.556  30.491  1.00  0.00     0.074 A 
ATOM     52  C   UNL A   1      45.433  24.530  28.563  1.00  0.00     0.029 A 
ATOM     53  N   UNL A   1      44.690  26.550  29.119  1.00  0.00    -0.354 N 
ATOM     54  N   UNL A   1      44.968  29.316  30.063  1.00  0.00    -0.248 NA
ATOM     55  C   UNL A   1      46.268  31.031  30.977  1.00  0.00     0.031 C 
ATOM     56  C   UNL A   1      46.503  25.265  29.087  1.00  0.00     0.029 A 
ATOM     57  C   UNL A   1      46.042  26.529  29.418  1.00  0.00     0.049 A 
ATOM     58  H   UNL A   1      44.093  27.322  29.257  1.00  0.00     0.167 HD
ATOM     59  C   UNL A   1      46.269  28.861  30.234  1.00  0.00     0.074 A 
ATOM     60  C   UNL A   1      47.032  29.964  30.780  1.00  0.00     0.031 C 
ATOM     61  C   UNL A   1      46.783  27.635  29.970  1.00  0.00     0.037 A 
BRANCH  48  62
ATOM     62  C   UNL A   1      42.720  23.626  27.617  1.00  0.00     0.058 A 
ATOM     63  C   UNL A   1      42.818  23.358  26.243  1.00  0.00     0.135 A 
ATOM     64  C   UNL A   1      42.447  22.548  28.477  1.00  0.00     0.135 A 
ATOM     65  F   UNL A   1      43.059  24.354  25.376  1.00  0.00    -0.206 F 
ATOM     66  C   UNL A   1      42.646  22.072  25.739  1.00  0.00     0.059 A 
ATOM     67  C   UNL A   1      42.290  21.251  27.997  1.00  0.00     0.059 A 
ATOM     68  F   UNL A   1      42.341  22.751  29.799  1.00  0.00    -0.206 F 
ATOM     69  C   UNL A   1      42.384  21.025  26.625  1.00  0.00     0.060 A 
BRANCH  69  70
ATOM     70  S   UNL A   1      42.180  19.359  25.956  1.00  0.00     0.124 S 
ATOM     71  O   UNL A   1      40.738  19.310  25.736  1.00  0.00    -0.237 OA
ATOM     72  O   UNL A   1      43.003  19.403  24.751  1.00  0.00    -0.237 OA
ATOM     73  O   UNL A   1      42.681  18.500  27.024  1.00  0.00    -0.744 OA
ENDBRANCH  69  70
ENDBRANCH  48  62
BRANCH  49  74
ATOM     74  C   UNL A   1      44.026  32.921  31.019  1.00  0.00     0.058 A 
ATOM     75  C   UNL A   1      44.396  33.931  30.119  1.00  0.00     0.135 A 
ATOM     76  C   UNL A   1      43.806  33.281  32.357  1.00  0.00     0.135 A 
ATOM     77  F   UNL A   1      44.623  33.632  28.832  1.00  0.00    -0.206 F 
ATOM     78  C   UNL A   1      44.538  35.252  30.530  1.00  0.00     0.059 A 
ATOM     79  C   UNL A   1      43.921  34.597  32.787  1.00  0.00     0.059 A 
ATOM     80  F   UNL A   1      43.436  32.349  33.250  1.00  0.00    -0.206 F 
ATOM     81  C   UNL A   1      44.292  35.576  31.866  1.00  0.00     0.060 A 
BRANCH  81  82
ATOM     82  S   UNL A   1      44.402  37.304  32.376  1.00  0.00     0.124 S 
ATOM     83  O   UNL A   1      43.599  37.302  33.593  1.00  0.00    -0.237 OA
ATOM     84  O   UNL A   1      45.839  37.482  32.558  1.00  0.00    -0.237 OA
ATOM     85  O   UNL A   1      43.829  38.024  31.241  1.00  0.00    -0.744 OA
ENDBRANCH  81  82
ENDBRANCH  49  74
BRANCH  61  86
ATOM     86  C   UNL A   1      48.236  27.422  30.272  1.00  0.00     0.058 A 
ATOM     87  C   UNL A   1      48.658  26.972  31.531  1.00  0.00     0.135 A 
ATOM     88  C   UNL A   1      49.209  27.622  29.281  1.00  0.00     0.135 A 
ATOM     89  F   UNL A   1      47.763  26.773  32.512  1.00  0.00    -0.206 F 
ATOM     90  C   UNL A   1      50.001  26.738  31.804  1.00  0.00     0.059 A 
ATOM     91  C   UNL A   1      50.557  27.379  29.526  1.00  0.00     0.059 A 
ATOM     92  F   UNL A   1      48.852  28.047  28.059  1.00  0.00    -0.206 F 
ATOM     93  C   UNL A   1      50.944  26.945  30.795  1.00  0.00     0.060 A 
BRANCH  93  94
ATOM     94  S   UNL A   1      52.680  26.605  31.150  1.00  0.00     0.124 S 
ATOM     95  O   UNL A   1      53.007  27.685  32.076  1.00  0.00    -0.237 OA
ATOM     96  O   UNL A   1      52.626  25.267  31.729  1.00  0.00    -0.237 OA
ATOM     97  O   UNL A   1      53.317  26.688  29.838  1.00  0.00    -0.744 OA
ENDBRANCH  93  94
ENDBRANCH  61  86
ENDBRANCH  35  36
ENDBRANCH  27  30
ENDBRANCH   1  26
TORSDOF 14
ENDMDL
MODEL 2
REMARK VINA RESULT:     -12.1      3.376      5.387
REMARK SMILES Cc1cc2c(=O)c3ccccc3oc2c(C(=O)NCCCCNC(=O)c2ccc(-c3c4nc(c(-c5c(F)cc(S(=O)(=O)[O-])cc5F)c5ccc([nH]5)c(-c5c(F)cc(S(=O)(=O)[O-])cc5F)c5nc(c(-c6c(F)cc(S(=O)(=O)[O-])cc6F)c6ccc3[nH]6)C=C5)C=C4)cc2)c1C
REMARK SMILES IDX 22 1 21 2 20 3 19 4 18 5 16 6 17 7 15 9 1 10 2 11 3 12 92 13
REMARK SMILES IDX 4 14 93 15 5 16 14 17 6 18 7 19 13 20 8 21 12 22 9 23 11 24
REMARK SMILES IDX 10 25 23 26 24 27 25 29 26 30 27 31 91 32 28 33 90 34 29 35
REMARK SMILES IDX 30 36 31 37 84 38 32 39 89 40 83 41 85 42 33 43 88 44 82 45
REMARK SMILES IDX 81 46 34 48 68 49 47 50 67 51 48 52 51 53 66 54 86 55 49 56
REMARK SMILES IDX 50 57 65 59 87 60 52 61 35 62 36 63 45 64 37 65 38 66 44 67
REMARK SMILES IDX 46 68 39 69 40 70 41 71 42 72 43 73 69 74 70 75 79 76 71 77
REMARK SMILES IDX 72 78 78 79 80 80 73 81 74 82 75 83 76 84 77 85 53 86 54 87
REMARK SMILES IDX 63 88 55 89 56 90 62 91 64 92 57 93 58 94 59 95 60 96 61 97
REMARK H PARENT 18 8 23 28 85 47 51 58
REMARK Flexibility Score: inf
ROOT
ATOM      1  C   UNL A   1      33.938  28.945  26.244  1.00  0.00     0.116 C 
ENDROOT
BRANCH   1   2
ATOM      2  C   UNL A   1      32.964  28.040  26.982  1.00  0.00     0.023 C 
BRANCH   2   3
ATOM      3  C   UNL A   1      31.908  27.393  26.096  1.00  0.00     0.023 C 
BRANCH   3   4
ATOM      4  C   UNL A   1      31.833  25.867  26.212  1.00  0.00     0.116 C 
BRANCH   4   5
ATOM      5  N   UNL A   1      33.172  25.290  26.100  1.00  0.00    -0.352 N 
ATOM      6  C   UNL A   1      33.662  24.834  24.896  1.00  0.00     0.255 C 
ATOM      7  O   UNL A   1      34.002  25.608  24.009  1.00  0.00    -0.269 OA
ATOM      8  H   UNL A   1      33.737  25.227  26.903  1.00  0.00     0.163 HD
BRANCH   6   9
ATOM      9  C   UNL A   1      33.906  23.361  24.769  1.00  0.00     0.086 A 
ATOM     10  C   UNL A   1      32.269  20.093  23.535  1.00  0.00     0.044 C 
ATOM     11  C   UNL A   1      33.257  21.097  24.069  1.00  0.00    -0.046 A 
ATOM     12  C   UNL A   1      34.541  20.653  24.386  1.00  0.00     0.019 A 
ATOM     13  C   UNL A   1      32.935  22.467  24.232  1.00  0.00    -0.032 A 
ATOM     14  C   UNL A   1      35.490  21.537  24.897  1.00  0.00     0.066 A 
ATOM     15  C   UNL A   1      31.567  22.942  23.832  1.00  0.00     0.045 C 
ATOM     16  C   UNL A   1      36.841  21.038  25.189  1.00  0.00     0.200 A 
ATOM     17  C   UNL A   1      35.187  22.881  25.116  1.00  0.00     0.151 A 
ATOM     18  O   UNL A   1      37.157  19.874  24.980  1.00  0.00    -0.288 OA
ATOM     19  C   UNL A   1      37.796  22.003  25.738  1.00  0.00     0.065 A 
ATOM     20  O   UNL A   1      36.093  23.752  25.686  1.00  0.00    -0.455 OA
ATOM     21  C   UNL A   1      39.110  21.615  26.022  1.00  0.00     0.016 A 
ATOM     22  C   UNL A   1      37.361  23.303  25.971  1.00  0.00     0.138 A 
ATOM     23  C   UNL A   1      39.997  22.544  26.560  1.00  0.00     0.001 A 
ATOM     24  C   UNL A   1      38.251  24.227  26.520  1.00  0.00     0.048 A 
ATOM     25  C   UNL A   1      39.566  23.847  26.814  1.00  0.00     0.004 A 
ENDBRANCH   6   9
ENDBRANCH   4   5
ENDBRANCH   3   4
ENDBRANCH   2   3
ENDBRANCH   1   2
BRANCH   1  26
ATOM     26  N   UNL A   1      33.899  30.339  26.670  1.00  0.00    -0.352 N 
ATOM     27  C   UNL A   1      34.811  30.997  27.479  1.00  0.00     0.251 C 
ATOM     28  H   UNL A   1      33.139  30.873  26.345  1.00  0.00     0.163 HD
ATOM     29  O   UNL A   1      34.654  32.155  27.805  1.00  0.00    -0.269 OA
BRANCH  27  30
ATOM     30  C   UNL A   1      35.956  30.206  27.986  1.00  0.00     0.039 A 
ATOM     31  C   UNL A   1      35.867  29.594  29.238  1.00  0.00     0.014 A 
ATOM     32  C   UNL A   1      37.168  30.256  27.296  1.00  0.00     0.014 A 
ATOM     33  C   UNL A   1      37.034  29.220  29.889  1.00  0.00     0.010 A 
ATOM     34  C   UNL A   1      38.330  29.796  27.922  1.00  0.00     0.010 A 
ATOM     35  C   UNL A   1      38.281  29.343  29.250  1.00  0.00    -0.014 A 
BRANCH  35  36
ATOM     36  C   UNL A   1      39.523  29.055  30.017  1.00  0.00     0.031 A 
ATOM     37  C   UNL A   1      40.510  28.024  29.524  1.00  0.00     0.074 A 
ATOM     38  C   UNL A   1      39.802  29.783  31.114  1.00  0.00     0.049 A 
ATOM     39  N   UNL A   1      41.636  27.637  30.068  1.00  0.00    -0.248 NA
ATOM     40  C   UNL A   1      40.194  27.339  28.259  1.00  0.00     0.031 C 
ATOM     41  C   UNL A   1      38.943  30.832  31.669  1.00  0.00     0.029 A 
ATOM     42  N   UNL A   1      40.898  29.780  31.936  1.00  0.00    -0.354 N 
ATOM     43  C   UNL A   1      42.146  26.648  29.234  1.00  0.00     0.074 A 
ATOM     44  C   UNL A   1      41.202  26.483  28.151  1.00  0.00     0.031 C 
ATOM     45  C   UNL A   1      39.573  31.414  32.699  1.00  0.00     0.029 A 
ATOM     46  C   UNL A   1      40.845  30.737  32.922  1.00  0.00     0.049 A 
ATOM     47  H   UNL A   1      41.650  29.154  31.832  1.00  0.00     0.167 HD
ATOM     48  C   UNL A   1      43.302  25.950  29.355  1.00  0.00     0.037 A 
ATOM     49  C   UNL A   1      41.717  31.028  33.906  1.00  0.00     0.037 A 
ATOM     50  C   UNL A   1      44.259  26.146  30.413  1.00  0.00     0.049 A 
ATOM     51  C   UNL A   1      42.974  30.220  34.036  1.00  0.00     0.074 A 
ATOM     52  C   UNL A   1      45.457  25.485  30.622  1.00  0.00     0.029 A 
ATOM     53  N   UNL A   1      44.136  27.079  31.430  1.00  0.00    -0.354 N 
ATOM     54  N   UNL A   1      43.412  29.253  33.266  1.00  0.00    -0.248 NA
ATOM     55  C   UNL A   1      43.843  30.526  35.179  1.00  0.00     0.031 C 
ATOM     56  C   UNL A   1      46.048  26.003  31.780  1.00  0.00     0.029 A 
ATOM     57  C   UNL A   1      45.231  27.007  32.274  1.00  0.00     0.049 A 
ATOM     58  H   UNL A   1      43.381  27.702  31.538  1.00  0.00     0.167 HD
ATOM     59  C   UNL A   1      44.608  28.832  33.834  1.00  0.00     0.074 A 
ATOM     60  C   UNL A   1      44.835  29.664  34.998  1.00  0.00     0.031 C 
ATOM     61  C   UNL A   1      45.437  27.838  33.433  1.00  0.00     0.037 A 
BRANCH  48  62
ATOM     62  C   UNL A   1      43.600  24.898  28.324  1.00  0.00     0.058 A 
ATOM     63  C   UNL A   1      43.145  23.579  28.466  1.00  0.00     0.135 A 
ATOM     64  C   UNL A   1      44.293  25.229  27.148  1.00  0.00     0.135 A 
ATOM     65  F   UNL A   1      42.492  23.204  29.578  1.00  0.00    -0.206 F 
ATOM     66  C   UNL A   1      43.375  22.621  27.482  1.00  0.00     0.059 A 
ATOM     67  C   UNL A   1      44.519  24.293  26.143  1.00  0.00     0.059 A 
ATOM     68  F   UNL A   1      44.751  26.478  26.964  1.00  0.00    -0.206 F 
ATOM     69  C   UNL A   1      44.062  22.988  26.324  1.00  0.00     0.060 A 
BRANCH  69  70
ATOM     70  S   UNL A   1      44.338  21.738  25.050  1.00  0.00     0.124 S 
ATOM     71  O   UNL A   1      45.710  21.330  25.337  1.00  0.00    -0.237 OA
ATOM     72  O   UNL A   1      43.307  20.750  25.353  1.00  0.00    -0.237 OA
ATOM     73  O   UNL A   1      44.150  22.474  23.804  1.00  0.00    -0.744 OA
ENDBRANCH  69  70
ENDBRANCH  48  62
BRANCH  49  74
ATOM     74  C   UNL A   1      41.411  32.132  34.849  1.00  0.00     0.058 A 
ATOM     75  C   UNL A   1      41.835  33.441  34.582  1.00  0.00     0.135 A 
ATOM     76  C   UNL A   1      40.651  31.909  36.007  1.00  0.00     0.135 A 
ATOM     77  F   UNL A   1      42.570  33.700  33.491  1.00  0.00    -0.206 F 
ATOM     78  C   UNL A   1      41.512  34.495  35.431  1.00  0.00     0.059 A 
ATOM     79  C   UNL A   1      40.297  32.949  36.858  1.00  0.00     0.059 A 
ATOM     80  F   UNL A   1      40.211  30.674  36.294  1.00  0.00    -0.206 F 
ATOM     81  C   UNL A   1      40.737  34.239  36.563  1.00  0.00     0.060 A 
BRANCH  81  82
ATOM     82  S   UNL A   1      40.255  35.623  37.619  1.00  0.00     0.124 S 
ATOM     83  O   UNL A   1      39.029  35.116  38.225  1.00  0.00    -0.237 OA
ATOM     84  O   UNL A   1      41.405  35.747  38.510  1.00  0.00    -0.237 OA
ATOM     85  O   UNL A   1      40.087  36.721  36.671  1.00  0.00    -0.744 OA
ENDBRANCH  81  82
ENDBRANCH  49  74
BRANCH  61  86
ATOM     86  C   UNL A   1      46.664  27.595  34.259  1.00  0.00     0.058 A 
ATOM     87  C   UNL A   1      47.858  28.287  34.011  1.00  0.00     0.135 A 
ATOM     88  C   UNL A   1      46.633  26.698  35.339  1.00  0.00     0.135 A 
ATOM     89  F   UNL A   1      47.937  29.149  32.983  1.00  0.00    -0.206 F 
ATOM     90  C   UNL A   1      48.987  28.090  34.797  1.00  0.00     0.059 A 
ATOM     91  C   UNL A   1      47.744  26.498  36.150  1.00  0.00     0.059 A 
ATOM     92  F   UNL A   1      45.510  26.017  35.619  1.00  0.00    -0.206 F 
ATOM     93  C   UNL A   1      48.921  27.193  35.865  1.00  0.00     0.060 A 
BRANCH  93  94
ATOM     94  S   UNL A   1      50.382  26.972  36.901  1.00  0.00     0.124 S 
ATOM     95  O   UNL A   1      51.362  26.498  35.929  1.00  0.00    -0.237 OA
ATOM     96  O   UNL A   1      50.605  28.317  37.422  1.00  0.00    -0.237 OA
ATOM     97  O   UNL A   1      49.951  25.988  37.890  1.00  0.00    -0.744 OA
ENDBRANCH  93  94
ENDBRANCH  61  86
ENDBRANCH  35  36
ENDBRANCH  27  30
ENDBRANCH   1  26
TORSDOF 14
ENDMDL
MODEL 3
REMARK VINA RESULT:     -12.1      3.263      9.154
REMARK SMILES Cc1cc2c(=O)c3ccccc3oc2c(C(=O)NCCCCNC(=O)c2ccc(-c3c4nc(c(-c5c(F)cc(S(=O)(=O)[O-])cc5F)c5ccc([nH]5)c(-c5c(F)cc(S(=O)(=O)[O-])cc5F)c5nc(c(-c6c(F)cc(S(=O)(=O)[O-])cc6F)c6ccc3[nH]6)C=C5)C=C4)cc2)c1C
REMARK SMILES IDX 22 1 21 2 20 3 19 4 18 5 16 6 17 7 15 9 1 10 2 11 3 12 92 13
REMARK SMILES IDX 4 14 93 15 5 16 14 17 6 18 7 19 13 20 8 21 12 22 9 23 11 24
REMARK SMILES IDX 10 25 23 26 24 27 25 29 26 30 27 31 91 32 28 33 90 34 29 35
REMARK SMILES IDX 30 36 31 37 84 38 32 39 89 40 83 41 85 42 33 43 88 44 82 45
REMARK SMILES IDX 81 46 34 48 68 49 47 50 67 51 48 52 51 53 66 54 86 55 49 56
REMARK SMILES IDX 50 57 65 59 87 60 52 61 35 62 36 63 45 64 37 65 38 66 44 67
REMARK SMILES IDX 46 68 39 69 40 70 41 71 42 72 43 73 69 74 70 75 79 76 71 77
REMARK SMILES IDX 72 78 78 79 80 80 73 81 74 82 75 83 76 84 77 85 53 86 54 87
REMARK SMILES IDX 63 88 55 89 56 90 62 91 64 92 57 93 58 94 59 95 60 96 61 97
REMARK H PARENT 18 8 23 28 85 47 51 58
REMARK Flexibility Score: inf
ROOT
ATOM      1  C   UNL A   1      33.954  29.040  26.155  1.00  0.00     0.116 C 
ENDROOT
BRANCH   1   2
ATOM      2  C   UNL A   1      33.243  27.946  26.937  1.00  0.00     0.023 C 
BRANCH   2   3
ATOM      3  C   UNL A   1      32.001  27.388  26.256  1.00  0.00     0.023 C 
BRANCH   3   4
ATOM      4  C   UNL A   1      31.907  25.859  26.264  1.00  0.00     0.116 C 
BRANCH   4   5
ATOM      5  N   UNL A   1      33.240  25.274  26.124  1.00  0.00    -0.352 N 
ATOM      6  C   UNL A   1      33.696  24.800  24.914  1.00  0.00     0.255 C 
ATOM      7  O   UNL A   1      34.015  25.561  24.008  1.00  0.00    -0.269 OA
ATOM      8  H   UNL A   1      33.826  25.220  26.913  1.00  0.00     0.163 HD
BRANCH   6   9
ATOM      9  C   UNL A   1      33.930  23.324  24.801  1.00  0.00     0.086 A 
ATOM     10  C   UNL A   1      32.259  20.051  23.629  1.00  0.00     0.044 C 
ATOM     11  C   UNL A   1      33.259  21.056  24.137  1.00  0.00    -0.046 A 
ATOM     12  C   UNL A   1      34.546  20.609  24.441  1.00  0.00     0.019 A 
ATOM     13  C   UNL A   1      32.947  22.429  24.288  1.00  0.00    -0.032 A 
ATOM     14  C   UNL A   1      35.507  21.494  24.927  1.00  0.00     0.066 A 
ATOM     15  C   UNL A   1      31.576  22.907  23.902  1.00  0.00     0.045 C 
ATOM     16  C   UNL A   1      36.859  20.991  25.206  1.00  0.00     0.200 A 
ATOM     17  C   UNL A   1      35.214  22.842  25.135  1.00  0.00     0.151 A 
ATOM     18  O   UNL A   1      37.166  19.823  25.006  1.00  0.00    -0.288 OA
ATOM     19  C   UNL A   1      37.827  21.957  25.729  1.00  0.00     0.065 A 
ATOM     20  O   UNL A   1      36.133  23.714  25.682  1.00  0.00    -0.455 OA
ATOM     21  C   UNL A   1      39.143  21.565  25.999  1.00  0.00     0.016 A 
ATOM     22  C   UNL A   1      37.402  23.262  25.953  1.00  0.00     0.138 A 
ATOM     23  C   UNL A   1      40.042  22.496  26.513  1.00  0.00     0.001 A 
ATOM     24  C   UNL A   1      38.305  24.187  26.479  1.00  0.00     0.048 A 
ATOM     25  C   UNL A   1      39.622  23.804  26.759  1.00  0.00     0.004 A 
ENDBRANCH   6   9
ENDBRANCH   4   5
ENDBRANCH   3   4
ENDBRANCH   2   3
ENDBRANCH   1   2
BRANCH   1  26
ATOM     26  N   UNL A   1      33.821  30.371  26.734  1.00  0.00    -0.352 N 
ATOM     27  C   UNL A   1      34.691  30.998  27.611  1.00  0.00     0.251 C 
ATOM     28  H   UNL A   1      33.022  30.883  26.472  1.00  0.00     0.163 HD
ATOM     29  O   UNL A   1      34.457  32.098  28.064  1.00  0.00    -0.269 OA
BRANCH  27  30
ATOM     30  C   UNL A   1      35.894  30.238  28.025  1.00  0.00     0.039 A 
ATOM     31  C   UNL A   1      35.909  29.601  29.267  1.00  0.00     0.014 A 
ATOM     32  C   UNL A   1      37.056  30.345  27.258  1.00  0.00     0.014 A 
ATOM     33  C   UNL A   1      37.128  29.256  29.832  1.00  0.00     0.010 A 
ATOM     34  C   UNL A   1      38.271  29.914  27.798  1.00  0.00     0.010 A 
ATOM     35  C   UNL A   1      38.325  29.435  29.117  1.00  0.00    -0.014 A 
BRANCH  35  36
ATOM     36  C   UNL A   1      39.624  29.176  29.794  1.00  0.00     0.031 A 
ATOM     37  C   UNL A   1      39.989  29.905  31.064  1.00  0.00     0.074 A 
ATOM     38  C   UNL A   1      40.439  28.220  29.309  1.00  0.00     0.049 A 
ATOM     39  N   UNL A   1      41.080  29.813  31.782  1.00  0.00    -0.248 NA
ATOM     40  C   UNL A   1      39.005  30.862  31.599  1.00  0.00     0.031 C 
ATOM     41  C   UNL A   1      40.179  27.421  28.109  1.00  0.00     0.029 A 
ATOM     42  N   UNL A   1      41.628  27.732  29.783  1.00  0.00    -0.354 N 
ATOM     43  C   UNL A   1      40.928  30.715  32.830  1.00  0.00     0.074 A 
ATOM     44  C   UNL A   1      39.644  31.356  32.651  1.00  0.00     0.031 C 
ATOM     45  C   UNL A   1      41.145  26.501  27.978  1.00  0.00     0.029 A 
ATOM     46  C   UNL A   1      42.127  26.688  29.040  1.00  0.00     0.049 A 
ATOM     47  H   UNL A   1      42.082  28.093  30.578  1.00  0.00     0.167 HD
ATOM     48  C   UNL A   1      41.777  30.976  33.853  1.00  0.00     0.037 A 
ATOM     49  C   UNL A   1      43.256  25.970  29.188  1.00  0.00     0.037 A 
ATOM     50  C   UNL A   1      43.038  30.307  34.051  1.00  0.00     0.049 A 
ATOM     51  C   UNL A   1      44.194  26.300  30.311  1.00  0.00     0.074 A 
ATOM     52  C   UNL A   1      43.969  30.504  35.056  1.00  0.00     0.029 A 
ATOM     53  N   UNL A   1      43.537  29.302  33.237  1.00  0.00    -0.354 N 
ATOM     54  N   UNL A   1      44.055  27.192  31.261  1.00  0.00    -0.248 NA
ATOM     55  C   UNL A   1      45.450  25.541  30.370  1.00  0.00     0.031 C 
ATOM     56  C   UNL A   1      45.043  29.634  34.837  1.00  0.00     0.029 A 
ATOM     57  C   UNL A   1      44.765  28.875  33.712  1.00  0.00     0.049 A 
ATOM     58  H   UNL A   1      43.085  28.944  32.438  1.00  0.00     0.167 HD
ATOM     59  C   UNL A   1      45.209  27.106  32.030  1.00  0.00     0.074 A 
ATOM     60  C   UNL A   1      46.023  26.059  31.448  1.00  0.00     0.031 C 
ATOM     61  C   UNL A   1      45.565  27.836  33.115  1.00  0.00     0.037 A 
BRANCH  48  62
ATOM     62  C   UNL A   1      41.384  32.038  34.841  1.00  0.00     0.058 A 
ATOM     63  C   UNL A   1      41.729  33.384  34.652  1.00  0.00     0.135 A 
ATOM     64  C   UNL A   1      40.596  31.714  35.959  1.00  0.00     0.135 A 
ATOM     65  F   UNL A   1      42.495  33.745  33.610  1.00  0.00    -0.206 F 
ATOM     66  C   UNL A   1      41.315  34.372  35.540  1.00  0.00     0.059 A 
ATOM     67  C   UNL A   1      40.155  32.688  36.850  1.00  0.00     0.059 A 
ATOM     68  F   UNL A   1      40.240  30.440  36.187  1.00  0.00    -0.206 F 
ATOM     69  C   UNL A   1      40.528  34.015  36.635  1.00  0.00     0.060 A 
BRANCH  69  70
ATOM     70  S   UNL A   1      39.984  35.312  37.769  1.00  0.00     0.124 S 
ATOM     71  O   UNL A   1      41.076  35.325  38.738  1.00  0.00    -0.237 OA
ATOM     72  O   UNL A   1      39.901  36.477  36.894  1.00  0.00    -0.237 OA
ATOM     73  O   UNL A   1      38.707  34.814  38.270  1.00  0.00    -0.744 OA
ENDBRANCH  69  70
ENDBRANCH  48  62
BRANCH  49  74
ATOM     74  C   UNL A   1      43.557  24.877  28.231  1.00  0.00     0.058 A 
ATOM     75  C   UNL A   1      43.092  23.575  28.459  1.00  0.00     0.135 A 
ATOM     76  C   UNL A   1      44.270  25.123  27.047  1.00  0.00     0.135 A 
ATOM     77  F   UNL A   1      42.412  23.292  29.581  1.00  0.00    -0.206 F 
ATOM     78  C   UNL A   1      43.323  22.551  27.546  1.00  0.00     0.059 A 
ATOM     79  C   UNL A   1      44.493  24.123  26.109  1.00  0.00     0.059 A 
ATOM     80  F   UNL A   1      44.720  26.359  26.780  1.00  0.00    -0.206 F 
ATOM     81  C   UNL A   1      44.019  22.838  26.370  1.00  0.00     0.060 A 
BRANCH  81  82
ATOM     82  S   UNL A   1      44.247  21.524  25.153  1.00  0.00     0.124 S 
ATOM     83  O   UNL A   1      45.587  21.050  25.481  1.00  0.00    -0.237 OA
ATOM     84  O   UNL A   1      43.151  20.614  25.471  1.00  0.00    -0.237 OA
ATOM     85  O   UNL A   1      44.118  22.225  23.878  1.00  0.00    -0.744 OA
ENDBRANCH  81  82
ENDBRANCH  49  74
BRANCH  61  86
ATOM     86  C   UNL A   1      46.894  27.530  33.740  1.00  0.00     0.058 A 
ATOM     87  C   UNL A   1      47.020  26.552  34.737  1.00  0.00     0.135 A 
ATOM     88  C   UNL A   1      48.056  28.185  33.306  1.00  0.00     0.135 A 
ATOM     89  F   UNL A   1      45.934  25.904  35.189  1.00  0.00    -0.206 F 
ATOM     90  C   UNL A   1      48.255  26.240  35.293  1.00  0.00     0.059 A 
ATOM     91  C   UNL A   1      49.305  27.877  33.835  1.00  0.00     0.059 A 
ATOM     92  F   UNL A   1      47.986  29.124  32.350  1.00  0.00    -0.206 F 
ATOM     93  C   UNL A   1      49.393  26.908  34.836  1.00  0.00     0.060 A 
BRANCH  93  94
ATOM     94  S   UNL A   1      50.995  26.470  35.541  1.00  0.00     0.124 S 
ATOM     95  O   UNL A   1      51.172  27.516  36.542  1.00  0.00    -0.237 OA
ATOM     96  O   UNL A   1      50.753  25.128  36.062  1.00  0.00    -0.237 OA
ATOM     97  O   UNL A   1      51.899  26.536  34.396  1.00  0.00    -0.744 OA
ENDBRANCH  93  94
ENDBRANCH  61  86
ENDBRANCH  35  36
ENDBRANCH  27  30
ENDBRANCH   1  26
TORSDOF 14
ENDMDL
