MODEL 1
REMARK VINA RESULT:     -13.5      0.000      0.000
REMARK SMILES CCC(=O)Nc1cc(NC(=O)/C=C/C(=O)NCCCCNC(=O)c2ccc(-c3c4nc(c(-c5c(F)cc(S(=O)(=O)[O-])cc5F)c5ccc([nH]5)c(-c5c(F)cc(S(=O)(=O)[O-])cc5F)c5nc(c(-c6c(F)cc(S(=O)(=O)[O-])cc6F)c6ccc3[nH]6)C=C5)C=C4)cc2)ccc1C
REMARK SMILES IDX 18 1 17 2 16 3 14 4 15 5 13 7 12 8 10 9 9 10 11 12 8 13 6 14
REMARK SMILES IDX 7 15 92 16 91 17 93 18 90 19 5 20 3 21 4 22 2 24 1 25 19 26
REMARK SMILES IDX 20 27 21 28 22 29 23 31 24 32 25 33 89 34 26 35 88 36 27 37
REMARK SMILES IDX 28 38 29 39 82 40 30 41 87 42 81 43 83 44 31 45 86 46 80 47
REMARK SMILES IDX 79 48 32 50 66 51 45 52 65 53 46 54 49 55 64 56 84 57 47 58
REMARK SMILES IDX 48 59 63 61 85 62 50 63 33 64 34 65 43 66 35 67 36 68 42 69
REMARK SMILES IDX 44 70 37 71 38 72 39 73 40 74 41 75 67 76 68 77 77 78 69 79
REMARK SMILES IDX 70 80 76 81 78 82 71 83 72 84 73 85 74 86 75 87 51 88 52 89
REMARK SMILES IDX 61 90 53 91 54 92 60 93 62 94 55 95 56 96 57 97 58 98 59 99
REMARK H PARENT 16 6 9 11 5 23 21 30 83 49 49 60
REMARK Flexibility Score: inf
ROOT
ATOM      1  C   UNL A   1      33.177  27.530  26.621  1.00  0.00     0.023 C 
ENDROOT
BRANCH   1   2
ATOM      2  C   UNL A   1      31.659  27.682  26.482  1.00  0.00     0.116 C 
BRANCH   2   3
ATOM      3  N   UNL A   1      31.224  27.586  25.095  1.00  0.00    -0.353 N 
ATOM      4  C   UNL A   1      30.621  26.548  24.463  1.00  0.00     0.244 C 
ATOM      5  O   UNL A   1      30.476  26.537  23.241  1.00  0.00    -0.270 OA
ATOM      6  H   UNL A   1      31.389  28.383  24.541  1.00  0.00     0.163 HD
BRANCH   4   7
ATOM      7  C   UNL A   1      30.092  25.423  25.255  1.00  0.00     0.077 C 
ATOM      8  C   UNL A   1      30.933  24.410  25.514  1.00  0.00     0.077 C 
BRANCH   8   9
ATOM      9  C   UNL A   1      30.641  23.439  26.579  1.00  0.00     0.248 C 
ATOM     10  N   UNL A   1      31.353  22.274  26.678  1.00  0.00    -0.322 N 
ATOM     11  H   UNL A   1      31.024  21.667  27.380  1.00  0.00     0.170 HD
ATOM     12  O   UNL A   1      29.745  23.678  27.385  1.00  0.00    -0.270 OA
BRANCH  10  13
ATOM     13  C   UNL A   1      32.465  21.774  25.971  1.00  0.00     0.043 A 
ATOM     14  C   UNL A   1      34.861  21.401  25.715  1.00  0.00     0.046 A 
ATOM     15  C   UNL A   1      33.785  22.159  26.192  1.00  0.00     0.052 A 
ATOM     16  C   UNL A   1      34.606  20.250  24.959  1.00  0.00    -0.027 A 
ATOM     17  C   UNL A   1      33.284  19.990  24.558  1.00  0.00     0.008 A 
ATOM     18  C   UNL A   1      35.598  19.134  24.778  1.00  0.00     0.046 C 
ATOM     19  C   UNL A   1      32.223  20.747  25.058  1.00  0.00     0.026 A 
BRANCH  14  20
ATOM     20  N   UNL A   1      36.124  21.737  26.226  1.00  0.00    -0.326 N 
ATOM     21  C   UNL A   1      37.147  22.423  25.631  1.00  0.00     0.224 C 
ATOM     22  O   UNL A   1      38.299  22.312  26.055  1.00  0.00    -0.275 OA
ATOM     23  H   UNL A   1      36.300  21.434  27.146  1.00  0.00     0.169 HD
BRANCH  21  24
ATOM     24  C   UNL A   1      36.820  23.423  24.536  1.00  0.00     0.097 C 
ATOM     25  C   UNL A   1      36.687  22.819  23.155  1.00  0.00     0.014 C 
ENDBRANCH  21  24
ENDBRANCH  14  20
ENDBRANCH  10  13
ENDBRANCH   8   9
ENDBRANCH   4   7
ENDBRANCH   2   3
ENDBRANCH   1   2
BRANCH   1  26
ATOM     26  C   UNL A   1      34.001  28.767  26.246  1.00  0.00     0.023 C 
BRANCH  26  27
ATOM     27  C   UNL A   1      33.895  29.920  27.227  1.00  0.00     0.116 C 
BRANCH  27  28
ATOM     28  N   UNL A   1      34.974  30.892  27.189  1.00  0.00    -0.352 N 
ATOM     29  C   UNL A   1      35.784  31.009  28.322  1.00  0.00     0.251 C 
ATOM     30  H   UNL A   1      35.129  31.450  26.393  1.00  0.00     0.163 HD
ATOM     31  O   UNL A   1      35.609  31.788  29.236  1.00  0.00    -0.269 OA
BRANCH  29  32
ATOM     32  C   UNL A   1      36.747  29.889  28.442  1.00  0.00     0.039 A 
ATOM     33  C   UNL A   1      36.886  29.160  29.621  1.00  0.00     0.014 A 
ATOM     34  C   UNL A   1      37.680  29.777  27.410  1.00  0.00     0.014 A 
ATOM     35  C   UNL A   1      38.051  28.411  29.819  1.00  0.00     0.010 A 
ATOM     36  C   UNL A   1      38.870  29.129  27.652  1.00  0.00     0.010 A 
ATOM     37  C   UNL A   1      39.072  28.461  28.866  1.00  0.00    -0.014 A 
BRANCH  37  38
ATOM     38  C   UNL A   1      40.419  27.928  29.051  1.00  0.00     0.031 A 
ATOM     39  C   UNL A   1      40.747  26.538  28.654  1.00  0.00     0.074 A 
ATOM     40  C   UNL A   1      41.423  28.755  29.420  1.00  0.00     0.049 A 
ATOM     41  N   UNL A   1      41.800  25.906  29.053  1.00  0.00    -0.248 NA
ATOM     42  C   UNL A   1      39.897  25.738  27.775  1.00  0.00     0.031 C 
ATOM     43  C   UNL A   1      42.857  28.515  29.285  1.00  0.00     0.029 A 
ATOM     44  N   UNL A   1      41.341  29.926  30.171  1.00  0.00    -0.354 N 
ATOM     45  C   UNL A   1      41.914  24.765  28.296  1.00  0.00     0.074 A 
ATOM     46  C   UNL A   1      40.682  24.680  27.546  1.00  0.00     0.031 C 
ATOM     47  C   UNL A   1      43.516  29.329  30.121  1.00  0.00     0.029 A 
ATOM     48  C   UNL A   1      42.528  30.018  30.931  1.00  0.00     0.049 A 
ATOM     49  H   UNL A   1      40.596  30.569  30.172  1.00  0.00     0.167 HD
ATOM     50  C   UNL A   1      43.082  24.064  28.288  1.00  0.00     0.037 A 
ATOM     51  C   UNL A   1      42.472  29.984  32.296  1.00  0.00     0.037 A 
ATOM     52  C   UNL A   1      44.081  24.635  29.182  1.00  0.00     0.049 A 
ATOM     53  C   UNL A   1      43.100  28.752  32.921  1.00  0.00     0.074 A 
ATOM     54  C   UNL A   1      45.181  25.460  29.014  1.00  0.00     0.029 A 
ATOM     55  N   UNL A   1      43.836  24.607  30.542  1.00  0.00    -0.354 N 
ATOM     56  N   UNL A   1      43.711  27.810  32.253  1.00  0.00    -0.248 NA
ATOM     57  C   UNL A   1      43.024  28.447  34.352  1.00  0.00     0.031 C 
ATOM     58  C   UNL A   1      45.570  25.953  30.294  1.00  0.00     0.029 A 
ATOM     59  C   UNL A   1      44.707  25.423  31.235  1.00  0.00     0.049 A 
ATOM     60  H   UNL A   1      43.127  24.070  30.965  1.00  0.00     0.167 HD
ATOM     61  C   UNL A   1      44.009  26.772  33.096  1.00  0.00     0.074 A 
ATOM     62  C   UNL A   1      43.594  27.231  34.408  1.00  0.00     0.031 C 
ATOM     63  C   UNL A   1      44.522  25.585  32.666  1.00  0.00     0.037 A 
BRANCH  50  64
ATOM     64  C   UNL A   1      43.352  22.975  27.286  1.00  0.00     0.058 A 
ATOM     65  C   UNL A   1      42.654  21.752  27.337  1.00  0.00     0.135 A 
ATOM     66  C   UNL A   1      44.326  23.075  26.272  1.00  0.00     0.135 A 
ATOM     67  F   UNL A   1      41.671  21.545  28.224  1.00  0.00    -0.206 F 
ATOM     68  C   UNL A   1      42.959  20.677  26.504  1.00  0.00     0.059 A 
ATOM     69  C   UNL A   1      44.686  21.994  25.461  1.00  0.00     0.059 A 
ATOM     70  F   UNL A   1      44.959  24.236  26.038  1.00  0.00    -0.206 F 
ATOM     71  C   UNL A   1      43.998  20.794  25.590  1.00  0.00     0.060 A 
BRANCH  71  72
ATOM     72  S   UNL A   1      44.455  19.349  24.613  1.00  0.00     0.124 S 
ATOM     73  O   UNL A   1      44.422  19.872  23.250  1.00  0.00    -0.237 OA
ATOM     74  O   UNL A   1      45.777  19.035  25.140  1.00  0.00    -0.237 OA
ATOM     75  O   UNL A   1      43.405  18.383  24.927  1.00  0.00    -0.744 OA
ENDBRANCH  71  72
ENDBRANCH  50  64
BRANCH  51  76
ATOM     76  C   UNL A   1      41.294  30.736  32.816  1.00  0.00     0.058 A 
ATOM     77  C   UNL A   1      40.104  30.001  33.005  1.00  0.00     0.135 A 
ATOM     78  C   UNL A   1      41.458  31.908  33.566  1.00  0.00     0.135 A 
ATOM     79  F   UNL A   1      39.884  28.886  32.289  1.00  0.00    -0.206 F 
ATOM     80  C   UNL A   1      39.230  30.289  34.046  1.00  0.00     0.059 A 
ATOM     81  C   UNL A   1      40.580  32.226  34.603  1.00  0.00     0.059 A 
ATOM     82  F   UNL A   1      42.560  32.658  33.416  1.00  0.00    -0.206 F 
ATOM     83  C   UNL A   1      39.532  31.351  34.895  1.00  0.00     0.060 A 
BRANCH  83  84
ATOM     84  S   UNL A   1      38.656  31.455  36.476  1.00  0.00     0.124 S 
ATOM     85  O   UNL A   1      37.456  32.201  36.116  1.00  0.00    -0.237 OA
ATOM     86  O   UNL A   1      38.453  30.040  36.804  1.00  0.00    -0.237 OA
ATOM     87  O   UNL A   1      39.603  32.158  37.334  1.00  0.00    -0.744 OA
ENDBRANCH  83  84
ENDBRANCH  51  76
BRANCH  63  88
ATOM     88  C   UNL A   1      44.890  24.463  33.591  1.00  0.00     0.058 A 
ATOM     89  C   UNL A   1      46.228  24.122  33.838  1.00  0.00     0.135 A 
ATOM     90  C   UNL A   1      43.910  23.606  34.133  1.00  0.00     0.135 A 
ATOM     91  F   UNL A   1      47.226  24.865  33.334  1.00  0.00    -0.206 F 
ATOM     92  C   UNL A   1      46.577  23.002  34.592  1.00  0.00     0.059 A 
ATOM     93  C   UNL A   1      44.235  22.459  34.851  1.00  0.00     0.059 A 
ATOM     94  F   UNL A   1      42.602  23.874  33.998  1.00  0.00    -0.206 F 
ATOM     95  C   UNL A   1      45.574  22.172  35.089  1.00  0.00     0.060 A 
BRANCH  95  96
ATOM     96  S   UNL A   1      46.020  20.697  36.025  1.00  0.00     0.124 S 
ATOM     97  O   UNL A   1      45.607  21.038  37.382  1.00  0.00    -0.237 OA
ATOM     98  O   UNL A   1      45.214  19.677  35.359  1.00  0.00    -0.237 OA
ATOM     99  O   UNL A   1      47.462  20.593  35.824  1.00  0.00    -0.744 OA
ENDBRANCH  95  96
ENDBRANCH  63  88
ENDBRANCH  37  38
ENDBRANCH  29  32
ENDBRANCH  27  28
ENDBRANCH  26  27
ENDBRANCH   1  26
TORSDOF 18
ENDMDL
MODEL 2
REMARK VINA RESULT:     -13.3      4.753     11.296
REMARK SMILES CCC(=O)Nc1cc(NC(=O)/C=C/C(=O)NCCCCNC(=O)c2ccc(-c3c4nc(c(-c5c(F)cc(S(=O)(=O)[O-])cc5F)c5ccc([nH]5)c(-c5c(F)cc(S(=O)(=O)[O-])cc5F)c5nc(c(-c6c(F)cc(S(=O)(=O)[O-])cc6F)c6ccc3[nH]6)C=C5)C=C4)cc2)ccc1C
REMARK SMILES IDX 18 1 17 2 16 3 14 4 15 5 13 7 12 8 10 9 9 10 11 12 8 13 6 14
REMARK SMILES IDX 7 15 92 16 91 17 93 18 90 19 5 20 3 21 4 22 2 24 1 25 19 26
REMARK SMILES IDX 20 27 21 28 22 29 23 31 24 32 25 33 89 34 26 35 88 36 27 37
REMARK SMILES IDX 28 38 29 39 82 40 30 41 87 42 81 43 83 44 31 45 86 46 80 47
REMARK SMILES IDX 79 48 32 50 66 51 45 52 65 53 46 54 49 55 64 56 84 57 47 58
REMARK SMILES IDX 48 59 63 61 85 62 50 63 33 64 34 65 43 66 35 67 36 68 42 69
REMARK SMILES IDX 44 70 37 71 38 72 39 73 40 74 41 75 67 76 68 77 77 78 69 79
REMARK SMILES IDX 70 80 76 81 78 82 71 83 72 84 73 85 74 86 75 87 51 88 52 89
REMARK SMILES IDX 61 90 53 91 54 92 60 93 62 94 55 95 56 96 57 97 58 98 59 99
REMARK H PARENT 16 6 9 11 5 23 21 30 83 49 49 60
REMARK Flexibility Score: inf
ROOT
ATOM      1  C   UNL A   1      36.561  21.249  25.494  1.00  0.00     0.023 C 
ENDROOT
BRANCH   1   2
ATOM      2  C   UNL A   1      35.254  22.008  25.246  1.00  0.00     0.116 C 
BRANCH   2   3
ATOM      3  N   UNL A   1      34.124  21.108  25.059  1.00  0.00    -0.353 N 
ATOM      4  C   UNL A   1      32.846  21.246  25.491  1.00  0.00     0.244 C 
ATOM      5  O   UNL A   1      32.040  20.318  25.420  1.00  0.00    -0.270 OA
ATOM      6  H   UNL A   1      34.315  20.287  24.549  1.00  0.00     0.163 HD
BRANCH   4   7
ATOM      7  C   UNL A   1      32.395  22.543  26.025  1.00  0.00     0.077 C 
ATOM      8  C   UNL A   1      31.163  22.950  25.683  1.00  0.00     0.077 C 
BRANCH   8   9
ATOM      9  C   UNL A   1      30.483  24.015  26.436  1.00  0.00     0.248 C 
ATOM     10  N   UNL A   1      30.728  25.333  26.159  1.00  0.00    -0.322 N 
ATOM     11  H   UNL A   1      30.276  25.957  26.772  1.00  0.00     0.170 HD
ATOM     12  O   UNL A   1      29.689  23.715  27.325  1.00  0.00    -0.270 OA
BRANCH  10  13
ATOM     13  C   UNL A   1      31.501  25.971  25.167  1.00  0.00     0.043 A 
ATOM     14  C   UNL A   1      31.735  27.450  23.244  1.00  0.00     0.046 A 
ATOM     15  C   UNL A   1      30.986  26.549  24.010  1.00  0.00     0.052 A 
ATOM     16  C   UNL A   1      33.051  27.746  23.625  1.00  0.00    -0.027 A 
ATOM     17  C   UNL A   1      33.632  26.997  24.662  1.00  0.00     0.008 A 
ATOM     18  C   UNL A   1      33.788  28.983  23.190  1.00  0.00     0.046 C 
ATOM     19  C   UNL A   1      32.864  26.116  25.426  1.00  0.00     0.026 A 
BRANCH  14  20
ATOM     20  N   UNL A   1      31.025  28.165  22.267  1.00  0.00    -0.326 N 
ATOM     21  C   UNL A   1      30.046  29.108  22.421  1.00  0.00     0.224 C 
ATOM     22  O   UNL A   1      29.276  29.360  21.493  1.00  0.00    -0.275 OA
ATOM     23  H   UNL A   1      31.266  27.958  21.335  1.00  0.00     0.169 HD
BRANCH  21  24
ATOM     24  C   UNL A   1      30.014  29.929  23.698  1.00  0.00     0.097 C 
ATOM     25  C   UNL A   1      29.006  31.058  23.691  1.00  0.00     0.014 C 
ENDBRANCH  21  24
ENDBRANCH  14  20
ENDBRANCH  10  13
ENDBRANCH   8   9
ENDBRANCH   4   7
ENDBRANCH   2   3
ENDBRANCH   1   2
BRANCH   1  26
ATOM     26  C   UNL A   1      37.845  22.033  25.202  1.00  0.00     0.023 C 
BRANCH  26  27
ATOM     27  C   UNL A   1      37.997  23.318  25.996  1.00  0.00     0.116 C 
BRANCH  27  28
ATOM     28  N   UNL A   1      38.874  23.253  27.153  1.00  0.00    -0.352 N 
ATOM     29  C   UNL A   1      40.029  24.039  27.138  1.00  0.00     0.251 C 
ATOM     30  H   UNL A   1      38.662  22.675  27.921  1.00  0.00     0.163 HD
ATOM     31  O   UNL A   1      41.121  23.679  26.751  1.00  0.00    -0.269 OA
BRANCH  29  32
ATOM     32  C   UNL A   1      39.738  25.470  27.392  1.00  0.00     0.039 A 
ATOM     33  C   UNL A   1      40.302  26.485  26.622  1.00  0.00     0.014 A 
ATOM     34  C   UNL A   1      39.088  25.754  28.594  1.00  0.00     0.014 A 
ATOM     35  C   UNL A   1      40.329  27.786  27.134  1.00  0.00     0.010 A 
ATOM     36  C   UNL A   1      39.212  27.010  29.141  1.00  0.00     0.010 A 
ATOM     37  C   UNL A   1      39.853  28.028  28.425  1.00  0.00    -0.014 A 
BRANCH  37  38
ATOM     38  C   UNL A   1      40.035  29.273  29.167  1.00  0.00     0.031 A 
ATOM     39  C   UNL A   1      38.964  30.298  29.206  1.00  0.00     0.074 A 
ATOM     40  C   UNL A   1      41.110  29.423  29.972  1.00  0.00     0.049 A 
ATOM     41  N   UNL A   1      39.153  31.522  29.572  1.00  0.00    -0.248 NA
ATOM     42  C   UNL A   1      37.582  30.022  28.820  1.00  0.00     0.031 C 
ATOM     43  C   UNL A   1      41.272  30.388  31.057  1.00  0.00     0.029 A 
ATOM     44  N   UNL A   1      42.368  28.836  29.845  1.00  0.00    -0.354 N 
ATOM     45  C   UNL A   1      37.920  32.104  29.735  1.00  0.00     0.074 A 
ATOM     46  C   UNL A   1      36.973  31.147  29.211  1.00  0.00     0.031 C 
ATOM     47  C   UNL A   1      42.578  30.525  31.327  1.00  0.00     0.029 A 
ATOM     48  C   UNL A   1      43.313  29.766  30.332  1.00  0.00     0.049 A 
ATOM     49  H   UNL A   1      42.562  27.941  29.485  1.00  0.00     0.167 HD
ATOM     50  C   UNL A   1      37.805  33.288  30.400  1.00  0.00     0.037 A 
ATOM     51  C   UNL A   1      44.259  30.285  29.493  1.00  0.00     0.037 A 
ATOM     52  C   UNL A   1      39.096  33.819  30.818  1.00  0.00     0.049 A 
ATOM     53  C   UNL A   1      44.109  31.770  29.218  1.00  0.00     0.074 A 
ATOM     54  C   UNL A   1      39.812  33.820  32.004  1.00  0.00     0.029 A 
ATOM     55  N   UNL A   1      39.987  34.221  29.841  1.00  0.00    -0.354 N 
ATOM     56  N   UNL A   1      43.208  32.539  29.768  1.00  0.00    -0.248 NA
ATOM     57  C   UNL A   1      44.925  32.495  28.240  1.00  0.00     0.031 C 
ATOM     58  C   UNL A   1      41.157  34.195  31.715  1.00  0.00     0.029 A 
ATOM     59  C   UNL A   1      41.252  34.425  30.355  1.00  0.00     0.049 A 
ATOM     60  H   UNL A   1      39.749  34.345  28.894  1.00  0.00     0.167 HD
ATOM     61  C   UNL A   1      43.245  33.777  29.181  1.00  0.00     0.074 A 
ATOM     62  C   UNL A   1      44.360  33.715  28.256  1.00  0.00     0.031 C 
ATOM     63  C   UNL A   1      42.331  34.754  29.442  1.00  0.00     0.037 A 
BRANCH  50  64
ATOM     64  C   UNL A   1      36.473  33.831  30.839  1.00  0.00     0.058 A 
ATOM     65  C   UNL A   1      35.556  34.347  29.902  1.00  0.00     0.135 A 
ATOM     66  C   UNL A   1      36.068  33.901  32.187  1.00  0.00     0.135 A 
ATOM     67  F   UNL A   1      35.799  34.298  28.586  1.00  0.00    -0.206 F 
ATOM     68  C   UNL A   1      34.366  34.967  30.279  1.00  0.00     0.059 A 
ATOM     69  C   UNL A   1      34.906  34.565  32.593  1.00  0.00     0.059 A 
ATOM     70  F   UNL A   1      36.794  33.320  33.155  1.00  0.00    -0.206 F 
ATOM     71  C   UNL A   1      34.062  35.101  31.627  1.00  0.00     0.060 A 
BRANCH  71  72
ATOM     72  S   UNL A   1      32.580  36.018  32.091  1.00  0.00     0.124 S 
ATOM     73  O   UNL A   1      33.074  36.893  33.151  1.00  0.00    -0.237 OA
ATOM     74  O   UNL A   1      32.228  36.675  30.839  1.00  0.00    -0.237 OA
ATOM     75  O   UNL A   1      31.661  34.973  32.535  1.00  0.00    -0.744 OA
ENDBRANCH  71  72
ENDBRANCH  50  64
BRANCH  51  76
ATOM     76  C   UNL A   1      44.771  29.258  28.540  1.00  0.00     0.058 A 
ATOM     77  C   UNL A   1      45.722  28.344  29.041  1.00  0.00     0.135 A 
ATOM     78  C   UNL A   1      44.013  28.862  27.430  1.00  0.00     0.135 A 
ATOM     79  F   UNL A   1      46.495  28.686  30.085  1.00  0.00    -0.206 F 
ATOM     80  C   UNL A   1      45.760  27.024  28.608  1.00  0.00     0.059 A 
ATOM     81  C   UNL A   1      44.051  27.546  26.967  1.00  0.00     0.059 A 
ATOM     82  F   UNL A   1      43.106  29.694  26.899  1.00  0.00    -0.206 F 
ATOM     83  C   UNL A   1      44.853  26.617  27.633  1.00  0.00     0.060 A 
BRANCH  83  84
ATOM     84  S   UNL A   1      44.606  24.840  27.388  1.00  0.00     0.124 S 
ATOM     85  O   UNL A   1      45.962  24.320  27.513  1.00  0.00    -0.237 OA
ATOM     86  O   UNL A   1      43.692  24.507  28.486  1.00  0.00    -0.237 OA
ATOM     87  O   UNL A   1      44.023  24.767  26.054  1.00  0.00    -0.744 OA
ENDBRANCH  83  84
ENDBRANCH  51  76
BRANCH  63  88
ATOM     88  C   UNL A   1      42.394  36.124  28.833  1.00  0.00     0.058 A 
ATOM     89  C   UNL A   1      41.887  36.383  27.551  1.00  0.00     0.135 A 
ATOM     90  C   UNL A   1      43.099  37.174  29.457  1.00  0.00     0.135 A 
ATOM     91  F   UNL A   1      41.229  35.429  26.872  1.00  0.00    -0.206 F 
ATOM     92  C   UNL A   1      42.056  37.617  26.926  1.00  0.00     0.059 A 
ATOM     93  C   UNL A   1      43.318  38.399  28.834  1.00  0.00     0.059 A 
ATOM     94  F   UNL A   1      43.577  37.045  30.704  1.00  0.00    -0.206 F 
ATOM     95  C   UNL A   1      42.779  38.618  27.573  1.00  0.00     0.060 A 
BRANCH  95  96
ATOM     96  S   UNL A   1      43.041  40.201  26.750  1.00  0.00     0.124 S 
ATOM     97  O   UNL A   1      43.362  41.092  27.861  1.00  0.00    -0.237 OA
ATOM     98  O   UNL A   1      44.151  39.883  25.857  1.00  0.00    -0.237 OA
ATOM     99  O   UNL A   1      41.760  40.459  26.099  1.00  0.00    -0.744 OA
ENDBRANCH  95  96
ENDBRANCH  63  88
ENDBRANCH  37  38
ENDBRANCH  29  32
ENDBRANCH  27  28
ENDBRANCH  26  27
ENDBRANCH   1  26
TORSDOF 18
ENDMDL
MODEL 3
REMARK VINA RESULT:     -13.2      1.656      2.645
REMARK SMILES CCC(=O)Nc1cc(NC(=O)/C=C/C(=O)NCCCCNC(=O)c2ccc(-c3c4nc(c(-c5c(F)cc(S(=O)(=O)[O-])cc5F)c5ccc([nH]5)c(-c5c(F)cc(S(=O)(=O)[O-])cc5F)c5nc(c(-c6c(F)cc(S(=O)(=O)[O-])cc6F)c6ccc3[nH]6)C=C5)C=C4)cc2)ccc1C
REMARK SMILES IDX 18 1 17 2 16 3 14 4 15 5 13 7 12 8 10 9 9 10 11 12 8 13 6 14
REMARK SMILES IDX 7 15 92 16 91 17 93 18 90 19 5 20 3 21 4 22 2 24 1 25 19 26
REMARK SMILES IDX 20 27 21 28 22 29 23 31 24 32 25 33 89 34 26 35 88 36 27 37
REMARK SMILES IDX 28 38 29 39 82 40 30 41 87 42 81 43 83 44 31 45 86 46 80 47
REMARK SMILES IDX 79 48 32 50 66 51 45 52 65 53 46 54 49 55 64 56 84 57 47 58
REMARK SMILES IDX 48 59 63 61 85 62 50 63 33 64 34 65 43 66 35 67 36 68 42 69
REMARK SMILES IDX 44 70 37 71 38 72 39 73 40 74 41 75 67 76 68 77 77 78 69 79
REMARK SMILES IDX 70 80 76 81 78 82 71 83 72 84 73 85 74 86 75 87 51 88 52 89
REMARK SMILES IDX 61 90 53 91 54 92 60 93 62 94 55 95 56 96 57 97 58 98 59 99
REMARK H PARENT 16 6 9 11 5 23 21 30 83 49 49 60
REMARK Flexibility Score: inf
ROOT
ATOM      1  C   UNL A   1      32.173  30.446  25.988  1.00  0.00     0.023 C 
ENDROOT
BRANCH   1   2
ATOM      2  C   UNL A   1      31.549  29.202  25.347  1.00  0.00     0.116 C 
BRANCH   2   3
ATOM      3  N   UNL A   1      31.652  28.031  26.207  1.00  0.00    -0.353 N 
ATOM      4  C   UNL A   1      31.604  26.719  25.868  1.00  0.00     0.244 C 
ATOM      5  O   UNL A   1      31.518  25.837  26.722  1.00  0.00    -0.270 OA
ATOM      6  H   UNL A   1      31.775  28.218  27.167  1.00  0.00     0.163 HD
BRANCH   4   7
ATOM      7  C   UNL A   1      31.692  26.332  24.449  1.00  0.00     0.077 C 
ATOM      8  C   UNL A   1      32.701  25.520  24.098  1.00  0.00     0.077 C 
BRANCH   8   9
ATOM      9  C   UNL A   1      32.672  24.786  22.823  1.00  0.00     0.248 C 
ATOM     10  N   UNL A   1      33.406  23.642  22.659  1.00  0.00    -0.322 N 
ATOM     11  H   UNL A   1      33.370  23.277  21.745  1.00  0.00     0.170 HD
ATOM     12  O   UNL A   1      31.985  25.210  21.897  1.00  0.00    -0.270 OA
BRANCH  10  13
ATOM     13  C   UNL A   1      34.201  22.884  23.542  1.00  0.00     0.043 A 
ATOM     14  C   UNL A   1      34.593  20.929  24.945  1.00  0.00     0.046 A 
ATOM     15  C   UNL A   1      33.727  21.859  24.355  1.00  0.00     0.052 A 
ATOM     16  C   UNL A   1      35.974  21.059  24.749  1.00  0.00    -0.027 A 
ATOM     17  C   UNL A   1      36.454  22.216  24.112  1.00  0.00     0.008 A 
ATOM     18  C   UNL A   1      36.952  19.930  24.925  1.00  0.00     0.046 C 
ATOM     19  C   UNL A   1      35.575  23.122  23.515  1.00  0.00     0.026 A 
BRANCH  14  20
ATOM     20  N   UNL A   1      33.987  19.797  25.511  1.00  0.00    -0.326 N 
ATOM     21  C   UNL A   1      32.927  19.061  25.057  1.00  0.00     0.224 C 
ATOM     22  O   UNL A   1      32.289  18.347  25.833  1.00  0.00    -0.275 OA
ATOM     23  H   UNL A   1      34.381  19.489  26.359  1.00  0.00     0.169 HD
BRANCH  21  24
ATOM     24  C   UNL A   1      32.640  19.032  23.566  1.00  0.00     0.097 C 
ATOM     25  C   UNL A   1      32.984  17.724  22.888  1.00  0.00     0.014 C 
ENDBRANCH  21  24
ENDBRANCH  14  20
ENDBRANCH  10  13
ENDBRANCH   8   9
ENDBRANCH   4   7
ENDBRANCH   2   3
ENDBRANCH   1   2
BRANCH   1  26
ATOM     26  C   UNL A   1      32.976  30.195  27.269  1.00  0.00     0.023 C 
BRANCH  26  27
ATOM     27  C   UNL A   1      34.396  29.708  27.041  1.00  0.00     0.116 C 
BRANCH  27  28
ATOM     28  N   UNL A   1      35.448  30.690  27.241  1.00  0.00    -0.352 N 
ATOM     29  C   UNL A   1      36.089  30.713  28.482  1.00  0.00     0.251 C 
ATOM     30  H   UNL A   1      35.700  31.319  26.526  1.00  0.00     0.163 HD
ATOM     31  O   UNL A   1      35.771  31.405  29.427  1.00  0.00    -0.269 OA
BRANCH  29  32
ATOM     32  C   UNL A   1      37.051  29.596  28.639  1.00  0.00     0.039 A 
ATOM     33  C   UNL A   1      37.242  28.954  29.860  1.00  0.00     0.014 A 
ATOM     34  C   UNL A   1      37.933  29.401  27.575  1.00  0.00     0.014 A 
ATOM     35  C   UNL A   1      38.411  28.212  30.057  1.00  0.00     0.010 A 
ATOM     36  C   UNL A   1      39.130  28.762  27.808  1.00  0.00     0.010 A 
ATOM     37  C   UNL A   1      39.386  28.183  29.056  1.00  0.00    -0.014 A 
BRANCH  37  38
ATOM     38  C   UNL A   1      40.738  27.653  29.217  1.00  0.00     0.031 A 
ATOM     39  C   UNL A   1      41.087  26.300  28.721  1.00  0.00     0.074 A 
ATOM     40  C   UNL A   1      41.727  28.462  29.657  1.00  0.00     0.049 A 
ATOM     41  N   UNL A   1      42.144  25.653  29.083  1.00  0.00    -0.248 NA
ATOM     42  C   UNL A   1      40.256  25.558  27.775  1.00  0.00     0.031 C 
ATOM     43  C   UNL A   1      43.166  28.249  29.520  1.00  0.00     0.029 A 
ATOM     44  N   UNL A   1      41.623  29.572  30.492  1.00  0.00    -0.354 N 
ATOM     45  C   UNL A   1      42.279  24.572  28.245  1.00  0.00     0.074 A 
ATOM     46  C   UNL A   1      41.056  24.529  27.476  1.00  0.00     0.031 C 
ATOM     47  C   UNL A   1      43.806  29.006  30.423  1.00  0.00     0.029 A 
ATOM     48  C   UNL A   1      42.801  29.621  31.270  1.00  0.00     0.049 A 
ATOM     49  H   UNL A   1      40.870  30.204  30.533  1.00  0.00     0.167 HD
ATOM     50  C   UNL A   1      43.456  23.887  28.197  1.00  0.00     0.037 A 
ATOM     51  C   UNL A   1      42.732  29.485  32.628  1.00  0.00     0.037 A 
ATOM     52  C   UNL A   1      44.438  24.402  29.143  1.00  0.00     0.049 A 
ATOM     53  C   UNL A   1      43.368  28.216  33.167  1.00  0.00     0.074 A 
ATOM     54  C   UNL A   1      45.530  25.249  29.050  1.00  0.00     0.029 A 
ATOM     55  N   UNL A   1      44.180  24.269  30.494  1.00  0.00    -0.354 N 
ATOM     56  N   UNL A   1      43.997  27.335  32.437  1.00  0.00    -0.248 NA
ATOM     57  C   UNL A   1      43.281  27.805  34.570  1.00  0.00     0.031 C 
ATOM     58  C   UNL A   1      45.899  25.650  30.367  1.00  0.00     0.029 A 
ATOM     59  C   UNL A   1      45.034  25.042  31.256  1.00  0.00     0.049 A 
ATOM     60  H   UNL A   1      43.473  23.694  30.868  1.00  0.00     0.167 HD
ATOM     61  C   UNL A   1      44.299  26.240  33.204  1.00  0.00     0.074 A 
ATOM     62  C   UNL A   1      43.866  26.594  34.542  1.00  0.00     0.031 C 
ATOM     63  C   UNL A   1      44.832  25.094  32.693  1.00  0.00     0.037 A 
BRANCH  50  64
ATOM     64  C   UNL A   1      43.750  22.879  27.120  1.00  0.00     0.058 A 
ATOM     65  C   UNL A   1      43.044  21.662  27.054  1.00  0.00     0.135 A 
ATOM     66  C   UNL A   1      44.754  23.052  26.146  1.00  0.00     0.135 A 
ATOM     67  F   UNL A   1      42.034  21.393  27.892  1.00  0.00    -0.206 F 
ATOM     68  C   UNL A   1      43.368  20.654  26.147  1.00  0.00     0.059 A 
ATOM     69  C   UNL A   1      45.132  22.037  25.263  1.00  0.00     0.059 A 
ATOM     70  F   UNL A   1      45.399  24.223  26.024  1.00  0.00    -0.206 F 
ATOM     71  C   UNL A   1      44.434  20.835  25.276  1.00  0.00     0.060 A 
BRANCH  71  72
ATOM     72  S   UNL A   1      44.912  19.469  24.201  1.00  0.00     0.124 S 
ATOM     73  O   UNL A   1      44.149  18.354  24.757  1.00  0.00    -0.237 OA
ATOM     74  O   UNL A   1      44.475  19.946  22.895  1.00  0.00    -0.237 OA
ATOM     75  O   UNL A   1      46.357  19.380  24.389  1.00  0.00    -0.744 OA
ENDBRANCH  71  72
ENDBRANCH  50  64
BRANCH  51  76
ATOM     76  C   UNL A   1      41.538  30.182  33.189  1.00  0.00     0.058 A 
ATOM     77  C   UNL A   1      41.620  31.584  33.311  1.00  0.00     0.135 A 
ATOM     78  C   UNL A   1      40.261  29.611  33.100  1.00  0.00     0.135 A 
ATOM     79  F   UNL A   1      42.819  32.178  33.430  1.00  0.00    -0.206 F 
ATOM     80  C   UNL A   1      40.508  32.397  33.124  1.00  0.00     0.059 A 
ATOM     81  C   UNL A   1      39.129  30.410  32.931  1.00  0.00     0.059 A 
ATOM     82  F   UNL A   1      40.120  28.282  33.001  1.00  0.00    -0.206 F 
ATOM     83  C   UNL A   1      39.284  31.795  32.843  1.00  0.00     0.060 A 
BRANCH  83  84
ATOM     84  S   UNL A   1      37.958  32.832  32.176  1.00  0.00     0.124 S 
ATOM     85  O   UNL A   1      38.276  32.863  30.754  1.00  0.00    -0.237 OA
ATOM     86  O   UNL A   1      36.761  32.069  32.545  1.00  0.00    -0.237 OA
ATOM     87  O   UNL A   1      38.132  34.092  32.889  1.00  0.00    -0.744 OA
ENDBRANCH  83  84
ENDBRANCH  51  76
BRANCH  63  88
ATOM     88  C   UNL A   1      45.203  23.911  33.536  1.00  0.00     0.058 A 
ATOM     89  C   UNL A   1      44.247  22.972  33.949  1.00  0.00     0.135 A 
ATOM     90  C   UNL A   1      46.498  23.771  34.077  1.00  0.00     0.135 A 
ATOM     91  F   UNL A   1      42.980  23.049  33.508  1.00  0.00    -0.206 F 
ATOM     92  C   UNL A   1      44.557  21.943  34.838  1.00  0.00     0.059 A 
ATOM     93  C   UNL A   1      46.820  22.780  34.999  1.00  0.00     0.059 A 
ATOM     94  F   UNL A   1      47.497  24.586  33.704  1.00  0.00    -0.206 F 
ATOM     95  C   UNL A   1      45.845  21.859  35.363  1.00  0.00     0.060 A 
BRANCH  95  96
ATOM     96  S   UNL A   1      46.241  20.559  36.549  1.00  0.00     0.124 S 
ATOM     97  O   UNL A   1      47.695  20.471  36.457  1.00  0.00    -0.237 OA
ATOM     98  O   UNL A   1      45.721  21.130  37.788  1.00  0.00    -0.237 OA
ATOM     99  O   UNL A   1      45.516  19.401  36.034  1.00  0.00    -0.744 OA
ENDBRANCH  95  96
ENDBRANCH  63  88
ENDBRANCH  37  38
ENDBRANCH  29  32
ENDBRANCH  27  28
ENDBRANCH  26  27
ENDBRANCH   1  26
TORSDOF 18
ENDMDL
