MODEL 1
REMARK VINA RESULT:     -14.3      0.000      0.000
REMARK SMILES COc1ccc(NC(=O)N[C@@H]2C=C[C@H](C(=O)NCCCCNC(=O)c3ccc(-c4c5nc(c(-c6c(F)cc(S(=O)(=O)[O-])cc6F)c6ccc([nH]6)c(-c6c(F)cc(S(=O)(=O)[O-])cc6F)c6nc(c(-c7c(F)cc(S(=O)(=O)[O-])cc7F)c7ccc4[nH]7)C=C6)C=C5)cc3)C2)c(C)c1
REMARK SMILES IDX 19 1 18 2 17 3 15 4 16 5 14 7 11 8 12 9 91 10 13 11 10 12
REMARK SMILES IDX 7 13 8 14 9 16 6 18 3 19 4 20 94 21 5 22 92 23 93 24 2 25
REMARK SMILES IDX 1 26 20 27 21 28 22 29 23 30 24 32 25 33 26 34 90 35 27 36
REMARK SMILES IDX 89 37 28 38 29 39 30 40 83 41 31 42 88 43 82 44 84 45 32 46
REMARK SMILES IDX 87 47 81 48 80 49 33 51 67 52 46 53 66 54 47 55 50 56 65 57
REMARK SMILES IDX 85 58 48 59 49 60 64 62 86 63 51 64 34 65 35 66 44 67 36 68
REMARK SMILES IDX 37 69 43 70 45 71 38 72 39 73 40 74 41 75 42 76 68 77 69 78
REMARK SMILES IDX 78 79 70 80 71 81 77 82 79 83 72 84 73 85 74 86 75 87 76 88
REMARK SMILES IDX 52 89 53 90 62 91 54 92 55 93 61 94 63 95 56 96 57 97 58 98
REMARK SMILES IDX 59 99 60 100
REMARK H PARENT 17 6 7 15 10 17 22 31 84 50 50 61
REMARK Flexibility Score: inf
ROOT
ATOM      1  C   UNL A   1      31.706  27.546  26.160  1.00  0.00     0.023 C 
ENDROOT
BRANCH   1   2
ATOM      2  C   UNL A   1      30.479  27.121  25.367  1.00  0.00     0.116 C 
BRANCH   2   3
ATOM      3  N   UNL A   1      30.249  27.768  24.089  1.00  0.00    -0.356 N 
ATOM      4  C   UNL A   1      30.886  27.522  22.884  1.00  0.00     0.227 C 
ATOM      5  O   UNL A   1      30.478  28.148  21.902  1.00  0.00    -0.274 OA
ATOM      6  H   UNL A   1      29.555  28.467  24.076  1.00  0.00     0.163 HD
BRANCH   4   7
ATOM      7  C   UNL A   1      32.268  26.534  22.867  1.00  0.00     0.103 C 
ATOM      8  C   UNL A   1      32.285  23.501  23.893  1.00  0.00     0.107 C 
ATOM      9  C   UNL A   1      34.021  24.301  24.412  1.00  0.00    -0.006 C 
ATOM     10  C   UNL A   1      31.331  24.724  22.663  1.00  0.00     0.047 C 
ATOM     11  C   UNL A   1      34.007  25.944  24.121  1.00  0.00    -0.016 C 
BRANCH   8  12
ATOM     12  N   UNL A   1      31.218  23.605  25.290  1.00  0.00    -0.332 N 
ATOM     13  N   UNL A   1      32.312  22.280  27.256  1.00  0.00    -0.308 N 
ATOM     14  C   UNL A   1      31.269  23.173  26.705  1.00  0.00     0.319 C 
ATOM     15  H   UNL A   1      32.209  21.988  28.190  1.00  0.00     0.171 HD
ATOM     16  O   UNL A   1      30.336  23.528  27.434  1.00  0.00    -0.248 OA
ATOM     17  H   UNL A   1      30.375  24.068  25.076  1.00  0.00     0.165 HD
BRANCH  13  18
ATOM     18  C   UNL A   1      33.455  21.811  26.543  1.00  0.00     0.046 A 
ATOM     19  C   UNL A   1      36.994  21.747  25.423  1.00  0.00     0.119 A 
ATOM     20  C   UNL A   1      36.452  22.991  26.554  1.00  0.00     0.048 A 
ATOM     21  C   UNL A   1      35.748  20.619  24.943  1.00  0.00     0.052 A 
ATOM     22  C   UNL A   1      34.467  22.818  26.955  1.00  0.00     0.030 A 
ATOM     23  C   UNL A   1      34.058  20.672  25.504  1.00  0.00    -0.024 A 
ATOM     24  C   UNL A   1      33.155  19.535  25.106  1.00  0.00     0.047 C 
BRANCH  19  25
ATOM     25  O   UNL A   1      38.265  21.567  24.995  1.00  0.00    -0.497 OA
ATOM     26  C   UNL A   1      39.199  21.643  26.067  1.00  0.00     0.278 C 
ENDBRANCH  19  25
ENDBRANCH  13  18
ENDBRANCH   8  12
ENDBRANCH   4   7
ENDBRANCH   2   3
ENDBRANCH   1   2
BRANCH   1  27
ATOM     27  C   UNL A   1      31.855  29.046  26.336  1.00  0.00     0.023 C 
BRANCH  27  28
ATOM     28  C   UNL A   1      32.957  29.482  27.280  1.00  0.00     0.116 C 
BRANCH  28  29
ATOM     29  N   UNL A   1      33.811  30.541  26.771  1.00  0.00    -0.352 N 
ATOM     30  C   UNL A   1      34.802  31.147  27.539  1.00  0.00     0.251 C 
ATOM     31  H   UNL A   1      33.683  30.844  25.843  1.00  0.00     0.163 HD
ATOM     32  O   UNL A   1      34.872  32.353  27.730  1.00  0.00    -0.269 OA
BRANCH  30  33
ATOM     33  C   UNL A   1      35.866  30.235  28.017  1.00  0.00     0.039 A 
ATOM     34  C   UNL A   1      35.839  29.768  29.337  1.00  0.00     0.014 A 
ATOM     35  C   UNL A   1      37.006  30.099  27.239  1.00  0.00     0.014 A 
ATOM     36  C   UNL A   1      37.028  29.386  29.938  1.00  0.00     0.010 A 
ATOM     37  C   UNL A   1      38.196  29.938  27.867  1.00  0.00     0.010 A 
ATOM     38  C   UNL A   1      38.195  29.601  29.219  1.00  0.00    -0.014 A 
BRANCH  38  39
ATOM     39  C   UNL A   1      39.527  29.267  29.641  1.00  0.00     0.031 A 
ATOM     40  C   UNL A   1      39.918  27.890  29.285  1.00  0.00     0.074 A 
ATOM     41  C   UNL A   1      40.300  30.347  29.892  1.00  0.00     0.049 A 
ATOM     42  N   UNL A   1      41.005  27.334  29.647  1.00  0.00    -0.248 NA
ATOM     43  C   UNL A   1      39.084  26.993  28.467  1.00  0.00     0.031 C 
ATOM     44  C   UNL A   1      41.742  30.531  29.871  1.00  0.00     0.029 A 
ATOM     45  N   UNL A   1      39.833  31.548  30.446  1.00  0.00    -0.354 N 
ATOM     46  C   UNL A   1      41.198  26.238  28.825  1.00  0.00     0.074 A 
ATOM     47  C   UNL A   1      39.917  25.972  28.234  1.00  0.00     0.031 C 
ATOM     48  C   UNL A   1      42.057  31.543  30.709  1.00  0.00     0.029 A 
ATOM     49  C   UNL A   1      40.822  31.950  31.369  1.00  0.00     0.049 A 
ATOM     50  H   UNL A   1      38.992  32.013  30.236  1.00  0.00     0.167 HD
ATOM     51  C   UNL A   1      42.485  25.827  28.641  1.00  0.00     0.037 A 
ATOM     52  C   UNL A   1      40.531  31.772  32.697  1.00  0.00     0.037 A 
ATOM     53  C   UNL A   1      43.354  26.677  29.463  1.00  0.00     0.049 A 
ATOM     54  C   UNL A   1      41.294  30.594  33.290  1.00  0.00     0.074 A 
ATOM     55  C   UNL A   1      44.086  27.828  29.238  1.00  0.00     0.029 A 
ATOM     56  N   UNL A   1      43.182  26.602  30.825  1.00  0.00    -0.354 N 
ATOM     57  N   UNL A   1      41.936  29.705  32.574  1.00  0.00    -0.248 NA
ATOM     58  C   UNL A   1      41.412  30.325  34.720  1.00  0.00     0.031 C 
ATOM     59  C   UNL A   1      44.270  28.476  30.507  1.00  0.00     0.029 A 
ATOM     60  C   UNL A   1      43.641  27.717  31.482  1.00  0.00     0.049 A 
ATOM     61  H   UNL A   1      42.773  25.830  31.280  1.00  0.00     0.167 HD
ATOM     62  C   UNL A   1      42.560  28.800  33.382  1.00  0.00     0.074 A 
ATOM     63  C   UNL A   1      42.153  29.200  34.723  1.00  0.00     0.031 C 
ATOM     64  C   UNL A   1      43.372  27.803  32.912  1.00  0.00     0.037 A 
BRANCH  51  65
ATOM     65  C   UNL A   1      43.035  24.829  27.652  1.00  0.00     0.058 A 
ATOM     66  C   UNL A   1      42.717  23.463  27.836  1.00  0.00     0.135 A 
ATOM     67  C   UNL A   1      43.857  25.093  26.536  1.00  0.00     0.135 A 
ATOM     68  F   UNL A   1      41.910  23.055  28.825  1.00  0.00    -0.206 F 
ATOM     69  C   UNL A   1      43.204  22.446  27.021  1.00  0.00     0.059 A 
ATOM     70  C   UNL A   1      44.363  24.084  25.704  1.00  0.00     0.059 A 
ATOM     71  F   UNL A   1      44.196  26.336  26.183  1.00  0.00    -0.206 F 
ATOM     72  C   UNL A   1      44.035  22.760  25.962  1.00  0.00     0.060 A 
BRANCH  72  73
ATOM     73  S   UNL A   1      44.648  21.409  24.942  1.00  0.00     0.124 S 
ATOM     74  O   UNL A   1      45.989  21.208  25.484  1.00  0.00    -0.237 OA
ATOM     75  O   UNL A   1      43.685  20.350  25.228  1.00  0.00    -0.237 OA
ATOM     76  O   UNL A   1      44.599  21.951  23.588  1.00  0.00    -0.744 OA
ENDBRANCH  72  73
ENDBRANCH  51  65
BRANCH  52  77
ATOM     77  C   UNL A   1      39.098  32.167  32.963  1.00  0.00     0.058 A 
ATOM     78  C   UNL A   1      38.795  33.549  32.868  1.00  0.00     0.135 A 
ATOM     79  C   UNL A   1      38.035  31.275  32.763  1.00  0.00     0.135 A 
ATOM     80  F   UNL A   1      39.761  34.460  33.072  1.00  0.00    -0.206 F 
ATOM     81  C   UNL A   1      37.572  34.010  32.382  1.00  0.00     0.059 A 
ATOM     82  C   UNL A   1      36.783  31.724  32.314  1.00  0.00     0.059 A 
ATOM     83  F   UNL A   1      38.236  29.953  32.851  1.00  0.00    -0.206 F 
ATOM     84  C   UNL A   1      36.591  33.082  32.051  1.00  0.00     0.060 A 
BRANCH  84  85
ATOM     85  S   UNL A   1      35.133  33.677  31.153  1.00  0.00     0.124 S 
ATOM     86  O   UNL A   1      34.364  32.448  30.988  1.00  0.00    -0.237 OA
ATOM     87  O   UNL A   1      34.570  34.660  32.083  1.00  0.00    -0.237 OA
ATOM     88  O   UNL A   1      35.695  34.229  29.928  1.00  0.00    -0.744 OA
ENDBRANCH  84  85
ENDBRANCH  52  77
BRANCH  64  89
ATOM     89  C   UNL A   1      43.977  26.761  33.814  1.00  0.00     0.058 A 
ATOM     90  C   UNL A   1      45.361  26.571  33.898  1.00  0.00     0.135 A 
ATOM     91  C   UNL A   1      43.179  25.858  34.558  1.00  0.00     0.135 A 
ATOM     92  F   UNL A   1      46.202  27.306  33.155  1.00  0.00    -0.206 F 
ATOM     93  C   UNL A   1      45.917  25.623  34.751  1.00  0.00     0.059 A 
ATOM     94  C   UNL A   1      43.709  24.841  35.332  1.00  0.00     0.059 A 
ATOM     95  F   UNL A   1      41.844  25.954  34.617  1.00  0.00    -0.206 F 
ATOM     96  C   UNL A   1      45.081  24.765  35.465  1.00  0.00     0.060 A 
BRANCH  96  97
ATOM     97  S   UNL A   1      45.796  23.564  36.589  1.00  0.00     0.124 S 
ATOM     98  O   UNL A   1      45.297  22.302  36.052  1.00  0.00    -0.237 OA
ATOM     99  O   UNL A   1      47.222  23.814  36.405  1.00  0.00    -0.237 OA
ATOM    100  O   UNL A   1      45.253  23.946  37.889  1.00  0.00    -0.744 OA
ENDBRANCH  96  97
ENDBRANCH  64  89
ENDBRANCH  38  39
ENDBRANCH  30  33
ENDBRANCH  28  29
ENDBRANCH  27  28
ENDBRANCH   1  27
TORSDOF 17
ENDMDL
MODEL 2
REMARK VINA RESULT:     -14.3      2.270      3.060
REMARK SMILES COc1ccc(NC(=O)N[C@@H]2C=C[C@H](C(=O)NCCCCNC(=O)c3ccc(-c4c5nc(c(-c6c(F)cc(S(=O)(=O)[O-])cc6F)c6ccc([nH]6)c(-c6c(F)cc(S(=O)(=O)[O-])cc6F)c6nc(c(-c7c(F)cc(S(=O)(=O)[O-])cc7F)c7ccc4[nH]7)C=C6)C=C5)cc3)C2)c(C)c1
REMARK SMILES IDX 19 1 18 2 17 3 15 4 16 5 14 7 11 8 12 9 91 10 13 11 10 12
REMARK SMILES IDX 7 13 8 14 9 16 6 18 3 19 4 20 94 21 5 22 92 23 93 24 2 25
REMARK SMILES IDX 1 26 20 27 21 28 22 29 23 30 24 32 25 33 26 34 90 35 27 36
REMARK SMILES IDX 89 37 28 38 29 39 30 40 83 41 31 42 88 43 82 44 84 45 32 46
REMARK SMILES IDX 87 47 81 48 80 49 33 51 67 52 46 53 66 54 47 55 50 56 65 57
REMARK SMILES IDX 85 58 48 59 49 60 64 62 86 63 51 64 34 65 35 66 44 67 36 68
REMARK SMILES IDX 37 69 43 70 45 71 38 72 39 73 40 74 41 75 42 76 68 77 69 78
REMARK SMILES IDX 78 79 70 80 71 81 77 82 79 83 72 84 73 85 74 86 75 87 76 88
REMARK SMILES IDX 52 89 53 90 62 91 54 92 55 93 61 94 63 95 56 96 57 97 58 98
REMARK SMILES IDX 59 99 60 100
REMARK H PARENT 17 6 7 15 10 17 22 31 84 50 50 61
REMARK Flexibility Score: inf
ROOT
ATOM      1  C   UNL A   1      32.840  30.077  25.831  1.00  0.00     0.023 C 
ENDROOT
BRANCH   1   2
ATOM      2  C   UNL A   1      31.504  29.443  25.471  1.00  0.00     0.116 C 
BRANCH   2   3
ATOM      3  N   UNL A   1      30.944  29.750  24.168  1.00  0.00    -0.356 N 
ATOM      4  C   UNL A   1      31.176  29.099  22.969  1.00  0.00     0.227 C 
ATOM      5  O   UNL A   1      30.535  29.492  21.991  1.00  0.00    -0.274 OA
ATOM      6  H   UNL A   1      30.325  30.515  24.133  1.00  0.00     0.163 HD
BRANCH   4   7
ATOM      7  C   UNL A   1      32.424  27.949  22.880  1.00  0.00     0.103 C 
ATOM      8  C   UNL A   1      32.005  24.835  23.489  1.00  0.00     0.107 C 
ATOM      9  C   UNL A   1      33.790  25.328  24.187  1.00  0.00    -0.006 C 
ATOM     10  C   UNL A   1      31.286  26.318  22.394  1.00  0.00     0.047 C 
ATOM     11  C   UNL A   1      33.998  26.983  24.119  1.00  0.00    -0.016 C 
BRANCH   8  12
ATOM     12  N   UNL A   1      30.875  24.898  24.839  1.00  0.00    -0.332 N 
ATOM     13  N   UNL A   1      31.621  23.133  26.613  1.00  0.00    -0.308 N 
ATOM     14  C   UNL A   1      30.765  24.255  26.168  1.00  0.00     0.319 C 
ATOM     15  H   UNL A   1      31.412  22.724  27.483  1.00  0.00     0.171 HD
ATOM     16  O   UNL A   1      29.851  24.641  26.904  1.00  0.00    -0.248 OA
ATOM     17  H   UNL A   1      30.129  25.517  24.666  1.00  0.00     0.165 HD
BRANCH  13  18
ATOM     18  C   UNL A   1      32.724  22.598  25.883  1.00  0.00     0.046 A 
ATOM     19  C   UNL A   1      36.286  22.029  25.006  1.00  0.00     0.119 A 
ATOM     20  C   UNL A   1      35.872  23.083  26.362  1.00  0.00     0.048 A 
ATOM     21  C   UNL A   1      34.907  21.324  24.195  1.00  0.00     0.052 A 
ATOM     22  C   UNL A   1      33.859  23.253  26.584  1.00  0.00     0.030 A 
ATOM     23  C   UNL A   1      33.207  21.612  24.645  1.00  0.00    -0.024 A 
ATOM     24  C   UNL A   1      32.152  20.808  23.933  1.00  0.00     0.047 C 
BRANCH  19  25
ATOM     25  O   UNL A   1      37.538  21.681  24.629  1.00  0.00    -0.497 OA
ATOM     26  C   UNL A   1      37.821  20.319  24.934  1.00  0.00     0.278 C 
ENDBRANCH  19  25
ENDBRANCH  13  18
ENDBRANCH   8  12
ENDBRANCH   4   7
ENDBRANCH   2   3
ENDBRANCH   1   2
BRANCH   1  27
ATOM     27  C   UNL A   1      33.393  29.660  27.181  1.00  0.00     0.023 C 
BRANCH  27  28
ATOM     28  C   UNL A   1      34.826  29.166  27.170  1.00  0.00     0.116 C 
BRANCH  28  29
ATOM     29  N   UNL A   1      35.821  30.192  26.917  1.00  0.00    -0.352 N 
ATOM     30  C   UNL A   1      36.847  30.487  27.813  1.00  0.00     0.251 C 
ATOM     31  H   UNL A   1      35.768  30.702  26.077  1.00  0.00     0.163 HD
ATOM     32  O   UNL A   1      37.055  31.604  28.264  1.00  0.00    -0.269 OA
BRANCH  30  33
ATOM     33  C   UNL A   1      37.772  29.365  28.092  1.00  0.00     0.039 A 
ATOM     34  C   UNL A   1      37.646  28.641  29.284  1.00  0.00     0.014 A 
ATOM     35  C   UNL A   1      38.910  29.248  27.307  1.00  0.00     0.014 A 
ATOM     36  C   UNL A   1      38.758  27.992  29.795  1.00  0.00     0.010 A 
ATOM     37  C   UNL A   1      40.049  28.807  27.891  1.00  0.00     0.010 A 
ATOM     38  C   UNL A   1      39.964  28.199  29.143  1.00  0.00    -0.014 A 
BRANCH  38  39
ATOM     39  C   UNL A   1      41.229  27.614  29.490  1.00  0.00     0.031 A 
ATOM     40  C   UNL A   1      41.357  26.211  29.055  1.00  0.00     0.074 A 
ATOM     41  C   UNL A   1      42.191  28.527  29.756  1.00  0.00     0.049 A 
ATOM     42  N   UNL A   1      42.341  25.454  29.342  1.00  0.00    -0.248 NA
ATOM     43  C   UNL A   1      40.350  25.518  28.233  1.00  0.00     0.031 C 
ATOM     44  C   UNL A   1      43.641  28.456  29.680  1.00  0.00     0.029 A 
ATOM     45  N   UNL A   1      41.964  29.760  30.384  1.00  0.00    -0.354 N 
ATOM     46  C   UNL A   1      42.308  24.387  28.463  1.00  0.00     0.074 A 
ATOM     47  C   UNL A   1      40.980  24.381  27.917  1.00  0.00     0.031 C 
ATOM     48  C   UNL A   1      44.159  29.352  30.549  1.00  0.00     0.029 A 
ATOM     49  C   UNL A   1      43.040  29.933  31.280  1.00  0.00     0.049 A 
ATOM     50  H   UNL A   1      41.211  30.376  30.233  1.00  0.00     0.167 HD
ATOM     51  C   UNL A   1      43.494  23.767  28.204  1.00  0.00     0.037 A 
ATOM     52  C   UNL A   1      42.768  29.739  32.611  1.00  0.00     0.037 A 
ATOM     53  C   UNL A   1      44.528  24.406  29.025  1.00  0.00     0.049 A 
ATOM     54  C   UNL A   1      43.331  28.415  33.114  1.00  0.00     0.074 A 
ATOM     55  C   UNL A   1      45.444  25.421  28.821  1.00  0.00     0.029 A 
ATOM     56  N   UNL A   1      44.393  24.290  30.388  1.00  0.00    -0.354 N 
ATOM     57  N   UNL A   1      43.779  27.467  32.331  1.00  0.00    -0.248 NA
ATOM     58  C   UNL A   1      43.450  28.055  34.525  1.00  0.00     0.031 C 
ATOM     59  C   UNL A   1      45.785  25.959  30.110  1.00  0.00     0.029 A 
ATOM     60  C   UNL A   1      45.066  25.272  31.076  1.00  0.00     0.049 A 
ATOM     61  H   UNL A   1      43.870  23.580  30.825  1.00  0.00     0.167 HD
ATOM     62  C   UNL A   1      44.261  26.425  33.069  1.00  0.00     0.074 A 
ATOM     63  C   UNL A   1      43.979  26.818  34.443  1.00  0.00     0.031 C 
ATOM     64  C   UNL A   1      44.866  25.327  32.519  1.00  0.00     0.037 A 
BRANCH  51  65
ATOM     65  C   UNL A   1      43.823  22.741  27.147  1.00  0.00     0.058 A 
ATOM     66  C   UNL A   1      43.085  21.535  27.134  1.00  0.00     0.135 A 
ATOM     67  C   UNL A   1      44.809  22.833  26.142  1.00  0.00     0.135 A 
ATOM     68  F   UNL A   1      42.082  21.314  27.997  1.00  0.00    -0.206 F 
ATOM     69  C   UNL A   1      43.328  20.495  26.243  1.00  0.00     0.059 A 
ATOM     70  C   UNL A   1      45.075  21.797  25.235  1.00  0.00     0.059 A 
ATOM     71  F   UNL A   1      45.550  23.932  25.974  1.00  0.00    -0.206 F 
ATOM     72  C   UNL A   1      44.332  20.627  25.301  1.00  0.00     0.060 A 
BRANCH  72  73
ATOM     73  S   UNL A   1      44.616  19.251  24.175  1.00  0.00     0.124 S 
ATOM     74  O   UNL A   1      46.013  18.925  24.446  1.00  0.00    -0.237 OA
ATOM     75  O   UNL A   1      43.637  18.272  24.636  1.00  0.00    -0.237 OA
ATOM     76  O   UNL A   1      44.355  19.825  22.859  1.00  0.00    -0.744 OA
ENDBRANCH  72  73
ENDBRANCH  51  65
BRANCH  52  77
ATOM     77  C   UNL A   1      41.439  30.364  32.957  1.00  0.00     0.058 A 
ATOM     78  C   UNL A   1      40.402  29.475  33.338  1.00  0.00     0.135 A 
ATOM     79  C   UNL A   1      41.340  31.683  33.425  1.00  0.00     0.135 A 
ATOM     80  F   UNL A   1      40.421  28.203  32.906  1.00  0.00    -0.206 F 
ATOM     81  C   UNL A   1      39.454  29.809  34.304  1.00  0.00     0.059 A 
ATOM     82  C   UNL A   1      40.366  32.049  34.366  1.00  0.00     0.059 A 
ATOM     83  F   UNL A   1      42.272  32.588  33.097  1.00  0.00    -0.206 F 
ATOM     84  C   UNL A   1      39.482  31.085  34.857  1.00  0.00     0.060 A 
BRANCH  84  85
ATOM     85  S   UNL A   1      38.441  31.403  36.306  1.00  0.00     0.124 S 
ATOM     86  O   UNL A   1      38.097  30.049  36.727  1.00  0.00    -0.237 OA
ATOM     87  O   UNL A   1      39.351  32.133  37.194  1.00  0.00    -0.237 OA
ATOM     88  O   UNL A   1      37.339  32.185  35.763  1.00  0.00    -0.744 OA
ENDBRANCH  84  85
ENDBRANCH  52  77
BRANCH  64  89
ATOM     89  C   UNL A   1      45.308  24.149  33.343  1.00  0.00     0.058 A 
ATOM     90  C   UNL A   1      44.436  23.102  33.662  1.00  0.00     0.135 A 
ATOM     91  C   UNL A   1      46.602  24.076  33.915  1.00  0.00     0.135 A 
ATOM     92  F   UNL A   1      43.158  23.125  33.256  1.00  0.00    -0.206 F 
ATOM     93  C   UNL A   1      44.856  22.002  34.405  1.00  0.00     0.059 A 
ATOM     94  C   UNL A   1      47.007  23.043  34.741  1.00  0.00     0.059 A 
ATOM     95  F   UNL A   1      47.559  24.977  33.653  1.00  0.00    -0.206 F 
ATOM     96  C   UNL A   1      46.144  21.983  34.937  1.00  0.00     0.060 A 
BRANCH  96  97
ATOM     97  S   UNL A   1      46.698  20.553  35.867  1.00  0.00     0.124 S 
ATOM     98  O   UNL A   1      46.018  19.457  35.184  1.00  0.00    -0.237 OA
ATOM     99  O   UNL A   1      48.142  20.626  35.670  1.00  0.00    -0.237 OA
ATOM    100  O   UNL A   1      46.234  20.826  37.224  1.00  0.00    -0.744 OA
ENDBRANCH  96  97
ENDBRANCH  64  89
ENDBRANCH  38  39
ENDBRANCH  30  33
ENDBRANCH  28  29
ENDBRANCH  27  28
ENDBRANCH   1  27
TORSDOF 17
ENDMDL
MODEL 3
REMARK VINA RESULT:     -14.0      4.059     10.606
REMARK SMILES COc1ccc(NC(=O)N[C@@H]2C=C[C@H](C(=O)NCCCCNC(=O)c3ccc(-c4c5nc(c(-c6c(F)cc(S(=O)(=O)[O-])cc6F)c6ccc([nH]6)c(-c6c(F)cc(S(=O)(=O)[O-])cc6F)c6nc(c(-c7c(F)cc(S(=O)(=O)[O-])cc7F)c7ccc4[nH]7)C=C6)C=C5)cc3)C2)c(C)c1
REMARK SMILES IDX 19 1 18 2 17 3 15 4 16 5 14 7 11 8 12 9 91 10 13 11 10 12
REMARK SMILES IDX 7 13 8 14 9 16 6 18 3 19 4 20 94 21 5 22 92 23 93 24 2 25
REMARK SMILES IDX 1 26 20 27 21 28 22 29 23 30 24 32 25 33 26 34 90 35 27 36
REMARK SMILES IDX 89 37 28 38 29 39 30 40 83 41 31 42 88 43 82 44 84 45 32 46
REMARK SMILES IDX 87 47 81 48 80 49 33 51 67 52 46 53 66 54 47 55 50 56 65 57
REMARK SMILES IDX 85 58 48 59 49 60 64 62 86 63 51 64 34 65 35 66 44 67 36 68
REMARK SMILES IDX 37 69 43 70 45 71 38 72 39 73 40 74 41 75 42 76 68 77 69 78
REMARK SMILES IDX 78 79 70 80 71 81 77 82 79 83 72 84 73 85 74 86 75 87 76 88
REMARK SMILES IDX 52 89 53 90 62 91 54 92 55 93 61 94 63 95 56 96 57 97 58 98
REMARK SMILES IDX 59 99 60 100
REMARK H PARENT 17 6 7 15 10 17 22 31 84 50 50 61
REMARK Flexibility Score: inf
ROOT
ATOM      1  C   UNL A   1      40.519  20.806  27.205  1.00  0.00     0.023 C 
ENDROOT
BRANCH   1   2
ATOM      2  C   UNL A   1      40.185  20.534  25.745  1.00  0.00     0.116 C 
BRANCH   2   3
ATOM      3  N   UNL A   1      39.070  19.649  25.465  1.00  0.00    -0.356 N 
ATOM      4  C   UNL A   1      37.798  19.992  25.038  1.00  0.00     0.227 C 
ATOM      5  O   UNL A   1      37.024  19.062  24.796  1.00  0.00    -0.274 OA
ATOM      6  H   UNL A   1      39.238  18.687  25.595  1.00  0.00     0.163 HD
BRANCH   4   7
ATOM      7  C   UNL A   1      37.338  21.627  25.045  1.00  0.00     0.103 C 
ATOM      8  C   UNL A   1      34.292  22.606  25.148  1.00  0.00     0.107 C 
ATOM      9  C   UNL A   1      35.267  23.863  23.970  1.00  0.00    -0.006 C 
ATOM     10  C   UNL A   1      35.584  21.433  26.083  1.00  0.00     0.047 C 
ATOM     11  C   UNL A   1      36.809  23.297  23.675  1.00  0.00    -0.016 C 
BRANCH   8  12
ATOM     12  N   UNL A   1      33.513  21.412  24.115  1.00  0.00    -0.332 N 
ATOM     13  N   UNL A   1      31.358  22.486  23.104  1.00  0.00    -0.308 N 
ATOM     14  C   UNL A   1      32.347  21.389  23.203  1.00  0.00     0.319 C 
ATOM     15  H   UNL A   1      30.575  22.338  22.527  1.00  0.00     0.171 HD
ATOM     16  O   UNL A   1      32.164  20.356  22.551  1.00  0.00    -0.248 OA
ATOM     17  H   UNL A   1      33.967  20.539  24.154  1.00  0.00     0.165 HD
BRANCH  13  18
ATOM     18  C   UNL A   1      31.449  23.741  23.777  1.00  0.00     0.046 A 
ATOM     19  C   UNL A   1      32.007  27.393  24.133  1.00  0.00     0.119 A 
ATOM     20  C   UNL A   1      32.171  26.629  22.549  1.00  0.00     0.048 A 
ATOM     21  C   UNL A   1      31.565  26.296  25.419  1.00  0.00     0.052 A 
ATOM     22  C   UNL A   1      31.861  24.624  22.655  1.00  0.00     0.030 A 
ATOM     23  C   UNL A   1      31.297  24.546  25.215  1.00  0.00    -0.024 A 
ATOM     24  C   UNL A   1      30.777  23.777  26.400  1.00  0.00     0.047 C 
BRANCH  19  25
ATOM     25  O   UNL A   1      32.110  28.718  24.386  1.00  0.00    -0.497 OA
ATOM     26  C   UNL A   1      30.880  29.397  24.155  1.00  0.00     0.278 C 
ENDBRANCH  19  25
ENDBRANCH  13  18
ENDBRANCH   8  12
ENDBRANCH   4   7
ENDBRANCH   2   3
ENDBRANCH   1   2
BRANCH   1  27
ATOM     27  C   UNL A   1      40.415  22.263  27.614  1.00  0.00     0.023 C 
BRANCH  27  28
ATOM     28  C   UNL A   1      40.920  23.261  26.590  1.00  0.00     0.116 C 
BRANCH  28  29
ATOM     29  N   UNL A   1      39.905  24.154  26.059  1.00  0.00    -0.352 N 
ATOM     30  C   UNL A   1      39.050  24.895  26.871  1.00  0.00     0.251 C 
ATOM     31  H   UNL A   1      39.816  24.236  25.082  1.00  0.00     0.163 HD
ATOM     32  O   UNL A   1      37.831  24.851  26.794  1.00  0.00    -0.269 OA
BRANCH  30  33
ATOM     33  C   UNL A   1      39.725  25.860  27.768  1.00  0.00     0.039 A 
ATOM     34  C   UNL A   1      39.316  25.972  29.102  1.00  0.00     0.014 A 
ATOM     35  C   UNL A   1      40.542  26.823  27.192  1.00  0.00     0.014 A 
ATOM     36  C   UNL A   1      39.534  27.165  29.773  1.00  0.00     0.010 A 
ATOM     37  C   UNL A   1      40.571  28.057  27.752  1.00  0.00     0.010 A 
ATOM     38  C   UNL A   1      40.047  28.219  29.033  1.00  0.00    -0.014 A 
BRANCH  38  39
ATOM     39  C   UNL A   1      40.364  29.530  29.529  1.00  0.00     0.031 A 
ATOM     40  C   UNL A   1      39.254  30.489  29.380  1.00  0.00     0.074 A 
ATOM     41  C   UNL A   1      41.408  29.544  30.388  1.00  0.00     0.049 A 
ATOM     42  N   UNL A   1      39.335  31.732  29.647  1.00  0.00    -0.248 NA
ATOM     43  C   UNL A   1      37.914  30.115  28.897  1.00  0.00     0.031 C 
ATOM     44  C   UNL A   1      41.774  30.465  31.452  1.00  0.00     0.029 A 
ATOM     45  N   UNL A   1      42.529  28.707  30.290  1.00  0.00    -0.354 N 
ATOM     46  C   UNL A   1      38.043  32.211  29.765  1.00  0.00     0.074 A 
ATOM     47  C   UNL A   1      37.210  31.227  29.132  1.00  0.00     0.031 C 
ATOM     48  C   UNL A   1      43.113  30.406  31.627  1.00  0.00     0.029 A 
ATOM     49  C   UNL A   1      43.640  29.524  30.593  1.00  0.00     0.049 A 
ATOM     50  H   UNL A   1      42.540  27.751  30.058  1.00  0.00     0.167 HD
ATOM     51  C   UNL A   1      37.864  33.310  30.552  1.00  0.00     0.037 A 
ATOM     52  C   UNL A   1      44.424  29.911  29.536  1.00  0.00     0.037 A 
ATOM     53  C   UNL A   1      39.181  33.740  31.036  1.00  0.00     0.049 A 
ATOM     54  C   UNL A   1      44.195  31.372  29.169  1.00  0.00     0.074 A 
ATOM     55  C   UNL A   1      39.923  33.505  32.179  1.00  0.00     0.029 A 
ATOM     56  N   UNL A   1      40.079  34.164  30.086  1.00  0.00    -0.354 N 
ATOM     57  N   UNL A   1      43.198  32.091  29.620  1.00  0.00    -0.248 NA
ATOM     58  C   UNL A   1      45.065  32.145  28.286  1.00  0.00     0.031 C 
ATOM     59  C   UNL A   1      41.304  33.727  31.849  1.00  0.00     0.029 A 
ATOM     60  C   UNL A   1      41.383  34.082  30.511  1.00  0.00     0.049 A 
ATOM     61  H   UNL A   1      39.816  34.492  29.195  1.00  0.00     0.167 HD
ATOM     62  C   UNL A   1      43.284  33.371  29.156  1.00  0.00     0.074 A 
ATOM     63  C   UNL A   1      44.443  33.340  28.275  1.00  0.00     0.031 C 
ATOM     64  C   UNL A   1      42.421  34.367  29.528  1.00  0.00     0.037 A 
BRANCH  51  65
ATOM     65  C   UNL A   1      36.580  33.926  31.053  1.00  0.00     0.058 A 
ATOM     66  C   UNL A   1      35.623  34.341  30.098  1.00  0.00     0.135 A 
ATOM     67  C   UNL A   1      36.207  34.154  32.394  1.00  0.00     0.135 A 
ATOM     68  F   UNL A   1      35.811  34.151  28.785  1.00  0.00    -0.206 F 
ATOM     69  C   UNL A   1      34.426  34.965  30.434  1.00  0.00     0.059 A 
ATOM     70  C   UNL A   1      35.008  34.786  32.756  1.00  0.00     0.059 A 
ATOM     71  F   UNL A   1      36.968  33.763  33.420  1.00  0.00    -0.206 F 
ATOM     72  C   UNL A   1      34.127  35.196  31.764  1.00  0.00     0.060 A 
BRANCH  72  73
ATOM     73  S   UNL A   1      32.572  36.017  32.148  1.00  0.00     0.124 S 
ATOM     74  O   UNL A   1      31.758  34.907  32.636  1.00  0.00    -0.237 OA
ATOM     75  O   UNL A   1      32.982  36.991  33.155  1.00  0.00    -0.237 OA
ATOM     76  O   UNL A   1      32.155  36.578  30.868  1.00  0.00    -0.744 OA
ENDBRANCH  72  73
ENDBRANCH  51  65
BRANCH  52  77
ATOM     77  C   UNL A   1      44.624  28.747  28.596  1.00  0.00     0.058 A 
ATOM     78  C   UNL A   1      44.088  28.889  27.291  1.00  0.00     0.135 A 
ATOM     79  C   UNL A   1      45.694  27.852  28.742  1.00  0.00     0.135 A 
ATOM     80  F   UNL A   1      43.045  29.711  27.083  1.00  0.00    -0.206 F 
ATOM     81  C   UNL A   1      44.717  28.355  26.167  1.00  0.00     0.059 A 
ATOM     82  C   UNL A   1      46.314  27.271  27.625  1.00  0.00     0.059 A 
ATOM     83  F   UNL A   1      46.247  27.651  29.946  1.00  0.00    -0.206 F 
ATOM     84  C   UNL A   1      45.867  27.594  26.342  1.00  0.00     0.060 A 
BRANCH  84  85
ATOM     85  S   UNL A   1      46.827  27.160  24.866  1.00  0.00     0.124 S 
ATOM     86  O   UNL A   1      46.403  28.189  23.923  1.00  0.00    -0.237 OA
ATOM     87  O   UNL A   1      48.208  27.266  25.346  1.00  0.00    -0.237 OA
ATOM     88  O   UNL A   1      46.376  25.809  24.558  1.00  0.00    -0.744 OA
ENDBRANCH  84  85
ENDBRANCH  52  77
BRANCH  64  89
ATOM     89  C   UNL A   1      42.478  35.749  28.934  1.00  0.00     0.058 A 
ATOM     90  C   UNL A   1      41.925  36.037  27.682  1.00  0.00     0.135 A 
ATOM     91  C   UNL A   1      43.167  36.811  29.569  1.00  0.00     0.135 A 
ATOM     92  F   UNL A   1      41.340  35.077  26.951  1.00  0.00    -0.206 F 
ATOM     93  C   UNL A   1      41.959  37.322  27.147  1.00  0.00     0.059 A 
ATOM     94  C   UNL A   1      43.301  38.069  29.009  1.00  0.00     0.059 A 
ATOM     95  F   UNL A   1      43.697  36.697  30.795  1.00  0.00    -0.206 F 
ATOM     96  C   UNL A   1      42.647  38.330  27.821  1.00  0.00     0.060 A 
BRANCH  96  97
ATOM     97  S   UNL A   1      42.664  39.994  27.151  1.00  0.00     0.124 S 
ATOM     98  O   UNL A   1      43.760  39.930  26.190  1.00  0.00    -0.237 OA
ATOM     99  O   UNL A   1      41.323  40.085  26.581  1.00  0.00    -0.237 OA
ATOM    100  O   UNL A   1      42.907  40.832  28.320  1.00  0.00    -0.744 OA
ENDBRANCH  96  97
ENDBRANCH  64  89
ENDBRANCH  38  39
ENDBRANCH  30  33
ENDBRANCH  28  29
ENDBRANCH  27  28
ENDBRANCH   1  27
TORSDOF 17
ENDMDL
