MODEL 1
REMARK VINA RESULT:     -12.0      0.000      0.000
REMARK SMILES C[C@@H]1CCC/C(=C\Nc2ccc(C(=O)NCCCCNC(=O)c3ccc(-c4c5nc(c(-c6c(F)cc(S(=O)(=O)[O-])cc6F)c6ccc([nH]6)c(-c6c(F)cc(S(=O)(=O)[O-])cc6F)c6nc(c(-c7c(F)cc(S(=O)(=O)[O-])cc7F)c7ccc4[nH]7)C=C6)C=C5)cc3)c(O)c2)C1=O
REMARK SMILES IDX 18 1 17 2 16 3 15 4 13 5 14 6 12 8 9 9 10 10 91 11 11 12
REMARK SMILES IDX 89 13 8 14 7 16 1 17 2 18 3 19 92 20 4 21 6 22 93 23 5 24
REMARK SMILES IDX 90 25 19 27 20 28 21 29 22 31 23 32 24 33 88 34 25 35 87 36
REMARK SMILES IDX 26 37 27 38 28 39 81 40 29 41 86 42 80 43 82 44 30 45 85 46
REMARK SMILES IDX 79 47 78 48 31 50 65 51 44 52 64 53 45 54 48 55 63 56 83 57
REMARK SMILES IDX 46 58 47 59 62 61 84 62 49 63 32 64 33 65 42 66 34 67 35 68
REMARK SMILES IDX 41 69 43 70 36 71 37 72 38 73 39 74 40 75 66 76 67 77 76 78
REMARK SMILES IDX 68 79 69 80 75 81 77 82 70 83 71 84 72 85 73 86 74 87 50 88
REMARK SMILES IDX 51 89 60 90 52 91 53 92 59 93 61 94 54 95 55 96 56 97 57 98
REMARK SMILES IDX 58 99
REMARK H PARENT 15 7 8 15 90 26 20 30 82 49 48 60
REMARK Flexibility Score: inf
ROOT
ATOM      1  C   UNL A   1      33.573  28.186  25.571  1.00  0.00     0.023 C 
ENDROOT
BRANCH   1   2
ATOM      2  C   UNL A   1      32.853  29.262  24.762  1.00  0.00     0.023 C 
BRANCH   2   3
ATOM      3  C   UNL A   1      31.336  29.321  24.911  1.00  0.00     0.116 C 
BRANCH   3   4
ATOM      4  N   UNL A   1      30.607  29.589  23.679  1.00  0.00    -0.352 N 
ATOM      5  C   UNL A   1      30.287  28.732  22.649  1.00  0.00     0.255 C 
ATOM      6  O   UNL A   1      29.667  29.153  21.676  1.00  0.00    -0.269 OA
ATOM      7  H   UNL A   1      30.298  30.517  23.567  1.00  0.00     0.163 HD
BRANCH   5   8
ATOM      8  C   UNL A   1      30.727  27.317  22.671  1.00  0.00     0.081 A 
ATOM      9  C   UNL A   1      31.900  24.758  22.859  1.00  0.00     0.042 A 
ATOM     10  C   UNL A   1      32.405  25.707  21.965  1.00  0.00     0.027 A 
ATOM     11  C   UNL A   1      30.745  25.081  23.583  1.00  0.00     0.073 A 
ATOM     12  C   UNL A   1      31.826  26.979  21.872  1.00  0.00     0.020 A 
ATOM     13  C   UNL A   1      30.137  26.327  23.454  1.00  0.00     0.130 A 
BRANCH   9  14
ATOM     14  N   UNL A   1      32.506  23.518  23.107  1.00  0.00    -0.361 N 
ATOM     15  H   UNL A   1      31.902  22.808  23.424  1.00  0.00     0.166 HD
BRANCH  14  16
ATOM     16  C   UNL A   1      33.819  23.155  22.971  1.00  0.00     0.090 C 
ATOM     17  C   UNL A   1      36.240  21.039  24.994  1.00  0.00     0.016 C 
ATOM     18  C   UNL A   1      36.858  22.405  24.692  1.00  0.00     0.058 C 
ATOM     19  C   UNL A   1      36.751  23.382  25.874  1.00  0.00     0.012 C 
ATOM     20  C   UNL A   1      36.188  22.985  23.455  1.00  0.00     0.163 C 
ATOM     21  C   UNL A   1      35.339  23.924  26.092  1.00  0.00     0.006 C 
ATOM     22  C   UNL A   1      34.856  23.618  23.686  1.00  0.00     0.011 C 
ATOM     23  O   UNL A   1      36.662  22.871  22.330  1.00  0.00    -0.294 OA
ATOM     24  C   UNL A   1      34.809  24.589  24.823  1.00  0.00     0.041 C 
ENDBRANCH  14  16
ENDBRANCH   9  14
BRANCH  13  25
ATOM     25  O   UNL A   1      28.957  26.484  24.128  1.00  0.00    -0.507 OA
ATOM     26  H   UNL A   1      28.379  25.754  24.238  1.00  0.00     0.293 HD
ENDBRANCH  13  25
ENDBRANCH   5   8
ENDBRANCH   3   4
ENDBRANCH   2   3
ENDBRANCH   1   2
BRANCH   1  27
ATOM     27  C   UNL A   1      33.560  28.356  27.086  1.00  0.00     0.116 C 
BRANCH  27  28
ATOM     28  N   UNL A   1      33.497  29.743  27.521  1.00  0.00    -0.352 N 
ATOM     29  C   UNL A   1      34.458  30.532  28.110  1.00  0.00     0.251 C 
ATOM     30  H   UNL A   1      32.631  30.186  27.369  1.00  0.00     0.163 HD
ATOM     31  O   UNL A   1      34.159  31.662  28.495  1.00  0.00    -0.269 OA
BRANCH  29  32
ATOM     32  C   UNL A   1      35.832  30.021  28.318  1.00  0.00     0.039 A 
ATOM     33  C   UNL A   1      36.745  30.093  27.263  1.00  0.00     0.014 A 
ATOM     34  C   UNL A   1      36.228  29.481  29.543  1.00  0.00     0.014 A 
ATOM     35  C   UNL A   1      38.073  29.702  27.466  1.00  0.00     0.010 A 
ATOM     36  C   UNL A   1      37.570  29.188  29.772  1.00  0.00     0.010 A 
ATOM     37  C   UNL A   1      38.509  29.288  28.735  1.00  0.00    -0.014 A 
BRANCH  37  38
ATOM     38  C   UNL A   1      39.937  28.954  28.990  1.00  0.00     0.031 A 
ATOM     39  C   UNL A   1      40.867  29.986  29.574  1.00  0.00     0.074 A 
ATOM     40  C   UNL A   1      40.413  27.740  28.644  1.00  0.00     0.049 A 
ATOM     41  N   UNL A   1      42.147  29.894  29.831  1.00  0.00    -0.248 NA
ATOM     42  C   UNL A   1      40.291  31.306  29.880  1.00  0.00     0.031 C 
ATOM     43  C   UNL A   1      39.632  26.673  28.012  1.00  0.00     0.029 A 
ATOM     44  N   UNL A   1      41.667  27.197  28.772  1.00  0.00    -0.354 N 
ATOM     45  C   UNL A   1      42.528  31.140  30.317  1.00  0.00     0.074 A 
ATOM     46  C   UNL A   1      41.361  31.991  30.255  1.00  0.00     0.031 C 
ATOM     47  C   UNL A   1      40.415  25.596  27.839  1.00  0.00     0.029 A 
ATOM     48  C   UNL A   1      41.761  25.904  28.311  1.00  0.00     0.049 A 
ATOM     49  H   UNL A   1      42.428  27.687  29.158  1.00  0.00     0.167 HD
ATOM     50  C   UNL A   1      43.732  31.533  30.798  1.00  0.00     0.037 A 
ATOM     51  C   UNL A   1      42.812  25.061  28.271  1.00  0.00     0.037 A 
ATOM     52  C   UNL A   1      44.885  30.676  30.881  1.00  0.00     0.049 A 
ATOM     53  C   UNL A   1      44.137  25.517  28.824  1.00  0.00     0.074 A 
ATOM     54  C   UNL A   1      46.135  30.960  31.404  1.00  0.00     0.029 A 
ATOM     55  N   UNL A   1      44.934  29.365  30.427  1.00  0.00    -0.354 N 
ATOM     56  N   UNL A   1      44.460  26.677  29.342  1.00  0.00    -0.248 NA
ATOM     57  C   UNL A   1      45.236  24.542  28.798  1.00  0.00     0.031 C 
ATOM     58  C   UNL A   1      46.951  29.839  31.224  1.00  0.00     0.029 A 
ATOM     59  C   UNL A   1      46.196  28.834  30.643  1.00  0.00     0.049 A 
ATOM     60  H   UNL A   1      44.182  28.883  30.014  1.00  0.00     0.167 HD
ATOM     61  C   UNL A   1      45.789  26.562  29.734  1.00  0.00     0.074 A 
ATOM     62  C   UNL A   1      46.203  25.213  29.407  1.00  0.00     0.031 C 
ATOM     63  C   UNL A   1      46.594  27.488  30.315  1.00  0.00     0.037 A 
BRANCH  50  64
ATOM     64  C   UNL A   1      43.862  32.955  31.279  1.00  0.00     0.058 A 
ATOM     65  C   UNL A   1      43.592  33.311  32.611  1.00  0.00     0.135 A 
ATOM     66  C   UNL A   1      44.293  33.969  30.409  1.00  0.00     0.135 A 
ATOM     67  F   UNL A   1      43.161  32.388  33.485  1.00  0.00    -0.206 F 
ATOM     68  C   UNL A   1      43.714  34.624  33.054  1.00  0.00     0.059 A 
ATOM     69  C   UNL A   1      44.454  35.284  30.837  1.00  0.00     0.059 A 
ATOM     70  F   UNL A   1      44.565  33.688  29.124  1.00  0.00    -0.206 F 
ATOM     71  C   UNL A   1      44.147  35.604  32.159  1.00  0.00     0.060 A 
BRANCH  71  72
ATOM     72  S   UNL A   1      44.308  37.301  32.754  1.00  0.00     0.124 S 
ATOM     73  O   UNL A   1      44.098  38.061  31.526  1.00  0.00    -0.237 OA
ATOM     74  O   UNL A   1      43.238  37.387  33.743  1.00  0.00    -0.237 OA
ATOM     75  O   UNL A   1      45.663  37.345  33.295  1.00  0.00    -0.744 OA
ENDBRANCH  71  72
ENDBRANCH  50  64
BRANCH  51  76
ATOM     76  C   UNL A   1      42.649  23.689  27.715  1.00  0.00     0.058 A 
ATOM     77  C   UNL A   1      42.732  23.452  26.334  1.00  0.00     0.135 A 
ATOM     78  C   UNL A   1      42.409  22.588  28.552  1.00  0.00     0.135 A 
ATOM     79  F   UNL A   1      42.955  24.472  25.491  1.00  0.00    -0.206 F 
ATOM     80  C   UNL A   1      42.562  22.179  25.800  1.00  0.00     0.059 A 
ATOM     81  C   UNL A   1      42.264  21.300  28.043  1.00  0.00     0.059 A 
ATOM     82  F   UNL A   1      42.337  22.755  29.881  1.00  0.00    -0.206 F 
ATOM     83  C   UNL A   1      42.331  21.107  26.665  1.00  0.00     0.060 A 
BRANCH  83  84
ATOM     84  S   UNL A   1      42.155  19.453  25.963  1.00  0.00     0.124 S 
ATOM     85  O   UNL A   1      42.976  19.553  24.763  1.00  0.00    -0.237 OA
ATOM     86  O   UNL A   1      42.683  18.610  27.031  1.00  0.00    -0.237 OA
ATOM     87  O   UNL A   1      40.717  19.336  25.736  1.00  0.00    -0.744 OA
ENDBRANCH  83  84
ENDBRANCH  51  76
BRANCH  63  88
ATOM     88  C   UNL A   1      47.992  27.058  30.675  1.00  0.00     0.058 A 
ATOM     89  C   UNL A   1      48.285  26.425  31.892  1.00  0.00     0.135 A 
ATOM     90  C   UNL A   1      49.049  27.267  29.774  1.00  0.00     0.135 A 
ATOM     91  F   UNL A   1      47.312  26.203  32.791  1.00  0.00    -0.206 F 
ATOM     92  C   UNL A   1      49.584  26.054  32.224  1.00  0.00     0.059 A 
ATOM     93  C   UNL A   1      50.350  26.873  30.071  1.00  0.00     0.059 A 
ATOM     94  F   UNL A   1      48.823  27.855  28.589  1.00  0.00    -0.206 F 
ATOM     95  C   UNL A   1      50.611  26.286  31.307  1.00  0.00     0.060 A 
BRANCH  95  96
ATOM     96  S   UNL A   1      52.293  25.801  31.749  1.00  0.00     0.124 S 
ATOM     97  O   UNL A   1      52.999  26.005  30.489  1.00  0.00    -0.237 OA
ATOM     98  O   UNL A   1      52.618  26.740  32.818  1.00  0.00    -0.237 OA
ATOM     99  O   UNL A   1      52.147  24.410  32.169  1.00  0.00    -0.744 OA
ENDBRANCH  95  96
ENDBRANCH  63  88
ENDBRANCH  37  38
ENDBRANCH  29  32
ENDBRANCH  27  28
ENDBRANCH   1  27
TORSDOF 17
ENDMDL
MODEL 2
REMARK VINA RESULT:     -11.7      4.861     10.768
REMARK SMILES C[C@@H]1CCC/C(=C\Nc2ccc(C(=O)NCCCCNC(=O)c3ccc(-c4c5nc(c(-c6c(F)cc(S(=O)(=O)[O-])cc6F)c6ccc([nH]6)c(-c6c(F)cc(S(=O)(=O)[O-])cc6F)c6nc(c(-c7c(F)cc(S(=O)(=O)[O-])cc7F)c7ccc4[nH]7)C=C6)C=C5)cc3)c(O)c2)C1=O
REMARK SMILES IDX 18 1 17 2 16 3 15 4 13 5 14 6 12 8 9 9 10 10 91 11 11 12
REMARK SMILES IDX 89 13 8 14 7 16 1 17 2 18 3 19 92 20 4 21 6 22 93 23 5 24
REMARK SMILES IDX 90 25 19 27 20 28 21 29 22 31 23 32 24 33 88 34 25 35 87 36
REMARK SMILES IDX 26 37 27 38 28 39 81 40 29 41 86 42 80 43 82 44 30 45 85 46
REMARK SMILES IDX 79 47 78 48 31 50 65 51 44 52 64 53 45 54 48 55 63 56 83 57
REMARK SMILES IDX 46 58 47 59 62 61 84 62 49 63 32 64 33 65 42 66 34 67 35 68
REMARK SMILES IDX 41 69 43 70 36 71 37 72 38 73 39 74 40 75 66 76 67 77 76 78
REMARK SMILES IDX 68 79 69 80 75 81 77 82 70 83 71 84 72 85 73 86 74 87 50 88
REMARK SMILES IDX 51 89 60 90 52 91 53 92 59 93 61 94 54 95 55 96 56 97 57 98
REMARK SMILES IDX 58 99
REMARK H PARENT 15 7 8 15 90 26 20 30 82 49 48 60
REMARK Flexibility Score: inf
ROOT
ATOM      1  C   UNL A   1      40.313  22.391  27.479  1.00  0.00     0.023 C 
ENDROOT
BRANCH   1   2
ATOM      2  C   UNL A   1      39.769  21.685  26.239  1.00  0.00     0.023 C 
BRANCH   2   3
ATOM      3  C   UNL A   1      38.396  22.134  25.751  1.00  0.00     0.116 C 
BRANCH   3   4
ATOM      4  N   UNL A   1      37.459  21.056  25.469  1.00  0.00    -0.352 N 
ATOM      5  C   UNL A   1      36.138  21.124  25.086  1.00  0.00     0.255 C 
ATOM      6  O   UNL A   1      35.502  20.089  24.903  1.00  0.00    -0.269 OA
ATOM      7  H   UNL A   1      37.823  20.146  25.566  1.00  0.00     0.163 HD
BRANCH   5   8
ATOM      8  C   UNL A   1      35.453  22.430  24.943  1.00  0.00     0.081 A 
ATOM      9  C   UNL A   1      34.359  25.031  24.978  1.00  0.00     0.042 A 
ATOM     10  C   UNL A   1      34.105  24.139  26.024  1.00  0.00     0.027 A 
ATOM     11  C   UNL A   1      35.088  24.565  23.874  1.00  0.00     0.073 A 
ATOM     12  C   UNL A   1      34.649  22.848  26.010  1.00  0.00     0.020 A 
ATOM     13  C   UNL A   1      35.586  23.265  23.835  1.00  0.00     0.130 A 
BRANCH   9  14
ATOM     14  N   UNL A   1      33.966  26.376  24.984  1.00  0.00    -0.361 N 
ATOM     15  H   UNL A   1      34.430  26.956  24.339  1.00  0.00     0.166 HD
BRANCH  14  16
ATOM     16  C   UNL A   1      33.026  26.999  25.762  1.00  0.00     0.090 C 
ATOM     17  C   UNL A   1      31.429  30.445  25.797  1.00  0.00     0.016 C 
ATOM     18  C   UNL A   1      31.971  30.101  27.186  1.00  0.00     0.058 C 
ATOM     19  C   UNL A   1      33.336  30.749  27.470  1.00  0.00     0.012 C 
ATOM     20  C   UNL A   1      32.060  28.588  27.317  1.00  0.00     0.163 C 
ATOM     21  C   UNL A   1      34.492  30.096  26.714  1.00  0.00     0.006 C 
ATOM     22  C   UNL A   1      33.250  27.958  26.675  1.00  0.00     0.011 C 
ATOM     23  O   UNL A   1      31.176  27.915  27.839  1.00  0.00    -0.294 OA
ATOM     24  C   UNL A   1      34.559  28.599  27.010  1.00  0.00     0.041 C 
ENDBRANCH  14  16
ENDBRANCH   9  14
BRANCH  13  25
ATOM     25  O   UNL A   1      36.185  22.895  22.664  1.00  0.00    -0.507 OA
ATOM     26  H   UNL A   1      36.937  22.335  22.678  1.00  0.00     0.293 HD
ENDBRANCH  13  25
ENDBRANCH   5   8
ENDBRANCH   3   4
ENDBRANCH   2   3
ENDBRANCH   1   2
BRANCH   1  27
ATOM     27  C   UNL A   1      41.593  23.198  27.291  1.00  0.00     0.116 C 
BRANCH  27  28
ATOM     28  N   UNL A   1      41.555  24.099  26.148  1.00  0.00    -0.352 N 
ATOM     29  C   UNL A   1      41.368  25.462  26.099  1.00  0.00     0.251 C 
ATOM     30  H   UNL A   1      41.684  23.666  25.274  1.00  0.00     0.163 HD
ATOM     31  O   UNL A   1      41.268  26.019  25.007  1.00  0.00    -0.269 OA
BRANCH  29  32
ATOM     32  C   UNL A   1      41.246  26.253  27.345  1.00  0.00     0.039 A 
ATOM     33  C   UNL A   1      42.240  27.187  27.650  1.00  0.00     0.014 A 
ATOM     34  C   UNL A   1      40.162  26.088  28.208  1.00  0.00     0.014 A 
ATOM     35  C   UNL A   1      42.099  28.010  28.772  1.00  0.00     0.010 A 
ATOM     36  C   UNL A   1      39.973  26.973  29.266  1.00  0.00     0.010 A 
ATOM     37  C   UNL A   1      40.941  27.942  29.565  1.00  0.00    -0.014 A 
BRANCH  37  38
ATOM     38  C   UNL A   1      40.735  28.871  30.710  1.00  0.00     0.031 A 
ATOM     39  C   UNL A   1      41.571  28.739  31.957  1.00  0.00     0.074 A 
ATOM     40  C   UNL A   1      39.759  29.800  30.652  1.00  0.00     0.049 A 
ATOM     41  N   UNL A   1      41.514  29.428  33.068  1.00  0.00    -0.248 NA
ATOM     42  C   UNL A   1      42.585  27.671  31.970  1.00  0.00     0.031 C 
ATOM     43  C   UNL A   1      38.837  29.991  29.528  1.00  0.00     0.029 A 
ATOM     44  N   UNL A   1      39.374  30.757  31.558  1.00  0.00    -0.354 N 
ATOM     45  C   UNL A   1      42.470  28.872  33.911  1.00  0.00     0.074 A 
ATOM     46  C   UNL A   1      43.047  27.747  33.209  1.00  0.00     0.031 C 
ATOM     47  C   UNL A   1      38.020  31.021  29.799  1.00  0.00     0.029 A 
ATOM     48  C   UNL A   1      38.329  31.541  31.126  1.00  0.00     0.049 A 
ATOM     49  H   UNL A   1      39.806  30.872  32.435  1.00  0.00     0.167 HD
ATOM     50  C   UNL A   1      42.855  29.278  35.145  1.00  0.00     0.037 A 
ATOM     51  C   UNL A   1      37.691  32.563  31.730  1.00  0.00     0.037 A 
ATOM     52  C   UNL A   1      42.296  30.414  35.830  1.00  0.00     0.049 A 
ATOM     53  C   UNL A   1      38.146  33.004  33.096  1.00  0.00     0.074 A 
ATOM     54  C   UNL A   1      42.655  30.942  37.058  1.00  0.00     0.029 A 
ATOM     55  N   UNL A   1      41.257  31.199  35.349  1.00  0.00    -0.354 N 
ATOM     56  N   UNL A   1      39.099  32.509  33.849  1.00  0.00    -0.248 NA
ATOM     57  C   UNL A   1      37.446  34.153  33.688  1.00  0.00     0.031 C 
ATOM     58  C   UNL A   1      41.803  32.015  37.340  1.00  0.00     0.029 A 
ATOM     59  C   UNL A   1      40.952  32.195  36.262  1.00  0.00     0.049 A 
ATOM     60  H   UNL A   1      40.804  31.067  34.484  1.00  0.00     0.167 HD
ATOM     61  C   UNL A   1      39.136  33.305  34.989  1.00  0.00     0.074 A 
ATOM     62  C   UNL A   1      38.119  34.323  34.818  1.00  0.00     0.031 C 
ATOM     63  C   UNL A   1      39.939  33.205  36.078  1.00  0.00     0.037 A 
BRANCH  50  64
ATOM     64  C   UNL A   1      43.940  28.491  35.833  1.00  0.00     0.058 A 
ATOM     65  C   UNL A   1      45.300  28.783  35.639  1.00  0.00     0.135 A 
ATOM     66  C   UNL A   1      43.617  27.454  36.722  1.00  0.00     0.135 A 
ATOM     67  F   UNL A   1      45.670  29.753  34.787  1.00  0.00    -0.206 F 
ATOM     68  C   UNL A   1      46.301  28.056  36.276  1.00  0.00     0.059 A 
ATOM     69  C   UNL A   1      44.600  26.734  37.397  1.00  0.00     0.059 A 
ATOM     70  F   UNL A   1      42.333  27.129  36.947  1.00  0.00    -0.206 F 
ATOM     71  C   UNL A   1      45.940  27.033  37.155  1.00  0.00     0.060 A 
BRANCH  71  72
ATOM     72  S   UNL A   1      47.251  26.106  37.980  1.00  0.00     0.124 S 
ATOM     73  O   UNL A   1      46.536  25.544  39.121  1.00  0.00    -0.237 OA
ATOM     74  O   UNL A   1      47.652  25.151  36.951  1.00  0.00    -0.237 OA
ATOM     75  O   UNL A   1      48.241  27.129  38.302  1.00  0.00    -0.744 OA
ENDBRANCH  71  72
ENDBRANCH  50  64
BRANCH  51  76
ATOM     76  C   UNL A   1      36.573  33.261  31.036  1.00  0.00     0.058 A 
ATOM     77  C   UNL A   1      36.815  34.100  29.937  1.00  0.00     0.135 A 
ATOM     78  C   UNL A   1      35.243  33.102  31.454  1.00  0.00     0.135 A 
ATOM     79  F   UNL A   1      38.070  34.290  29.502  1.00  0.00    -0.206 F 
ATOM     80  C   UNL A   1      35.784  34.773  29.291  1.00  0.00     0.059 A 
ATOM     81  C   UNL A   1      34.190  33.742  30.805  1.00  0.00     0.059 A 
ATOM     82  F   UNL A   1      34.954  32.298  32.487  1.00  0.00    -0.206 F 
ATOM     83  C   UNL A   1      34.472  34.586  29.732  1.00  0.00     0.060 A 
BRANCH  83  84
ATOM     84  S   UNL A   1      33.137  35.431  28.859  1.00  0.00     0.124 S 
ATOM     85  O   UNL A   1      33.874  36.409  28.069  1.00  0.00    -0.237 OA
ATOM     86  O   UNL A   1      32.520  34.339  28.111  1.00  0.00    -0.237 OA
ATOM     87  O   UNL A   1      32.322  35.978  29.940  1.00  0.00    -0.744 OA
ENDBRANCH  83  84
ENDBRANCH  51  76
BRANCH  63  88
ATOM     88  C   UNL A   1      39.782  34.250  37.150  1.00  0.00     0.058 A 
ATOM     89  C   UNL A   1      40.393  35.510  37.056  1.00  0.00     0.135 A 
ATOM     90  C   UNL A   1      38.989  33.989  38.280  1.00  0.00     0.135 A 
ATOM     91  F   UNL A   1      41.163  35.811  35.999  1.00  0.00    -0.206 F 
ATOM     92  C   UNL A   1      40.259  36.459  38.064  1.00  0.00     0.059 A 
ATOM     93  C   UNL A   1      38.814  34.937  39.284  1.00  0.00     0.059 A 
ATOM     94  F   UNL A   1      38.369  32.807  38.414  1.00  0.00    -0.206 F 
ATOM     95  C   UNL A   1      39.469  36.162  39.177  1.00  0.00     0.060 A 
BRANCH  95  96
ATOM     96  S   UNL A   1      39.305  37.401  40.480  1.00  0.00     0.124 S 
ATOM     97  O   UNL A   1      40.647  37.972  40.513  1.00  0.00    -0.237 OA
ATOM     98  O   UNL A   1      38.257  38.270  39.954  1.00  0.00    -0.237 OA
ATOM     99  O   UNL A   1      38.928  36.614  41.651  1.00  0.00    -0.744 OA
ENDBRANCH  95  96
ENDBRANCH  63  88
ENDBRANCH  37  38
ENDBRANCH  29  32
ENDBRANCH  27  28
ENDBRANCH   1  27
TORSDOF 17
ENDMDL
MODEL 3
REMARK VINA RESULT:     -11.6      1.141      8.302
REMARK SMILES C[C@@H]1CCC/C(=C\Nc2ccc(C(=O)NCCCCNC(=O)c3ccc(-c4c5nc(c(-c6c(F)cc(S(=O)(=O)[O-])cc6F)c6ccc([nH]6)c(-c6c(F)cc(S(=O)(=O)[O-])cc6F)c6nc(c(-c7c(F)cc(S(=O)(=O)[O-])cc7F)c7ccc4[nH]7)C=C6)C=C5)cc3)c(O)c2)C1=O
REMARK SMILES IDX 18 1 17 2 16 3 15 4 13 5 14 6 12 8 9 9 10 10 91 11 11 12
REMARK SMILES IDX 89 13 8 14 7 16 1 17 2 18 3 19 92 20 4 21 6 22 93 23 5 24
REMARK SMILES IDX 90 25 19 27 20 28 21 29 22 31 23 32 24 33 88 34 25 35 87 36
REMARK SMILES IDX 26 37 27 38 28 39 81 40 29 41 86 42 80 43 82 44 30 45 85 46
REMARK SMILES IDX 79 47 78 48 31 50 65 51 44 52 64 53 45 54 48 55 63 56 83 57
REMARK SMILES IDX 46 58 47 59 62 61 84 62 49 63 32 64 33 65 42 66 34 67 35 68
REMARK SMILES IDX 41 69 43 70 36 71 37 72 38 73 39 74 40 75 66 76 67 77 76 78
REMARK SMILES IDX 68 79 69 80 75 81 77 82 70 83 71 84 72 85 73 86 74 87 50 88
REMARK SMILES IDX 51 89 60 90 52 91 53 92 59 93 61 94 54 95 55 96 56 97 57 98
REMARK SMILES IDX 58 99
REMARK H PARENT 15 7 8 15 90 26 20 30 82 49 48 60
REMARK Flexibility Score: inf
ROOT
ATOM      1  C   UNL A   1      32.805  27.849  26.647  1.00  0.00     0.023 C 
ENDROOT
BRANCH   1   2
ATOM      2  C   UNL A   1      31.822  28.734  25.885  1.00  0.00     0.023 C 
BRANCH   2   3
ATOM      3  C   UNL A   1      32.324  29.336  24.577  1.00  0.00     0.116 C 
BRANCH   3   4
ATOM      4  N   UNL A   1      31.333  29.407  23.512  1.00  0.00    -0.352 N 
ATOM      5  C   UNL A   1      30.889  28.418  22.664  1.00  0.00     0.255 C 
ATOM      6  O   UNL A   1      30.045  28.679  21.811  1.00  0.00    -0.269 OA
ATOM      7  H   UNL A   1      30.923  30.293  23.378  1.00  0.00     0.163 HD
BRANCH   5   8
ATOM      8  C   UNL A   1      31.454  27.049  22.729  1.00  0.00     0.081 A 
ATOM      9  C   UNL A   1      32.212  24.332  22.656  1.00  0.00     0.042 A 
ATOM     10  C   UNL A   1      31.091  24.738  23.386  1.00  0.00     0.027 A 
ATOM     11  C   UNL A   1      32.996  25.320  22.045  1.00  0.00     0.073 A 
ATOM     12  C   UNL A   1      30.711  26.086  23.422  1.00  0.00     0.020 A 
ATOM     13  C   UNL A   1      32.649  26.667  22.122  1.00  0.00     0.130 A 
BRANCH   9  14
ATOM     14  N   UNL A   1      32.574  22.992  22.461  1.00  0.00    -0.361 N 
ATOM     15  H   UNL A   1      32.425  22.641  21.554  1.00  0.00     0.166 HD
BRANCH  14  16
ATOM     16  C   UNL A   1      33.108  22.102  23.355  1.00  0.00     0.090 C 
ATOM     17  C   UNL A   1      34.183  22.274  26.994  1.00  0.00     0.016 C 
ATOM     18  C   UNL A   1      35.307  21.688  26.139  1.00  0.00     0.058 C 
ATOM     19  C   UNL A   1      36.390  22.722  25.788  1.00  0.00     0.012 C 
ATOM     20  C   UNL A   1      34.705  21.094  24.874  1.00  0.00     0.163 C 
ATOM     21  C   UNL A   1      35.945  23.739  24.738  1.00  0.00     0.006 C 
ATOM     22  C   UNL A   1      34.373  22.076  23.800  1.00  0.00     0.011 C 
ATOM     23  O   UNL A   1      34.428  19.904  24.768  1.00  0.00    -0.294 OA
ATOM     24  C   UNL A   1      35.470  23.037  23.467  1.00  0.00     0.041 C 
ENDBRANCH  14  16
ENDBRANCH   9  14
BRANCH  13  25
ATOM     25  O   UNL A   1      33.548  27.543  21.580  1.00  0.00    -0.507 OA
ATOM     26  H   UNL A   1      33.247  28.258  21.054  1.00  0.00     0.293 HD
ENDBRANCH  13  25
ENDBRANCH   5   8
ENDBRANCH   3   4
ENDBRANCH   2   3
ENDBRANCH   1   2
BRANCH   1  27
ATOM     27  C   UNL A   1      34.139  28.486  27.022  1.00  0.00     0.116 C 
BRANCH  27  28
ATOM     28  N   UNL A   1      34.008  29.765  27.703  1.00  0.00    -0.352 N 
ATOM     29  C   UNL A   1      34.930  30.480  28.432  1.00  0.00     0.251 C 
ATOM     30  H   UNL A   1      33.120  30.184  27.631  1.00  0.00     0.163 HD
ATOM     31  O   UNL A   1      34.576  31.504  29.016  1.00  0.00    -0.269 OA
BRANCH  29  32
ATOM     32  C   UNL A   1      36.329  30.009  28.550  1.00  0.00     0.039 A 
ATOM     33  C   UNL A   1      37.173  30.117  27.442  1.00  0.00     0.014 A 
ATOM     34  C   UNL A   1      36.815  29.472  29.743  1.00  0.00     0.014 A 
ATOM     35  C   UNL A   1      38.521  29.766  27.559  1.00  0.00     0.010 A 
ATOM     36  C   UNL A   1      38.177  29.218  29.886  1.00  0.00     0.010 A 
ATOM     37  C   UNL A   1      39.047  29.355  28.795  1.00  0.00    -0.014 A 
BRANCH  37  38
ATOM     38  C   UNL A   1      40.497  29.063  28.958  1.00  0.00     0.031 A 
ATOM     39  C   UNL A   1      41.046  27.707  28.591  1.00  0.00     0.074 A 
ATOM     40  C   UNL A   1      41.314  29.997  29.487  1.00  0.00     0.049 A 
ATOM     41  N   UNL A   1      42.269  27.254  28.697  1.00  0.00    -0.248 NA
ATOM     42  C   UNL A   1      40.088  26.721  28.066  1.00  0.00     0.031 C 
ATOM     43  C   UNL A   1      40.898  31.326  29.943  1.00  0.00     0.029 A 
ATOM     44  N   UNL A   1      42.664  29.973  29.736  1.00  0.00    -0.354 N 
ATOM     45  C   UNL A   1      42.224  25.933  28.264  1.00  0.00     0.074 A 
ATOM     46  C   UNL A   1      40.843  25.637  27.958  1.00  0.00     0.031 C 
ATOM     47  C   UNL A   1      41.973  31.999  30.382  1.00  0.00     0.029 A 
ATOM     48  C   UNL A   1      43.149  31.141  30.277  1.00  0.00     0.049 A 
ATOM     49  H   UNL A   1      43.233  29.193  29.544  1.00  0.00     0.167 HD
ATOM     50  C   UNL A   1      43.244  25.055  28.107  1.00  0.00     0.037 A 
ATOM     51  C   UNL A   1      44.398  31.484  30.649  1.00  0.00     0.037 A 
ATOM     52  C   UNL A   1      44.622  25.362  28.390  1.00  0.00     0.049 A 
ATOM     53  C   UNL A   1      45.517  30.495  30.452  1.00  0.00     0.074 A 
ATOM     54  C   UNL A   1      45.737  24.562  28.210  1.00  0.00     0.029 A 
ATOM     55  N   UNL A   1      45.076  26.565  28.912  1.00  0.00    -0.354 N 
ATOM     56  N   UNL A   1      45.466  29.274  29.977  1.00  0.00    -0.248 NA
ATOM     57  C   UNL A   1      46.866  30.938  30.830  1.00  0.00     0.031 C 
ATOM     58  C   UNL A   1      46.857  25.262  28.668  1.00  0.00     0.029 A 
ATOM     59  C   UNL A   1      46.451  26.521  29.078  1.00  0.00     0.049 A 
ATOM     60  H   UNL A   1      44.505  27.336  29.132  1.00  0.00     0.167 HD
ATOM     61  C   UNL A   1      46.778  28.813  29.968  1.00  0.00     0.074 A 
ATOM     62  C   UNL A   1      47.601  29.894  30.471  1.00  0.00     0.031 C 
ATOM     63  C   UNL A   1      47.259  27.606  29.577  1.00  0.00     0.037 A 
BRANCH  50  64
ATOM     64  C   UNL A   1      42.907  23.677  27.600  1.00  0.00     0.058 A 
ATOM     65  C   UNL A   1      42.898  23.377  26.228  1.00  0.00     0.135 A 
ATOM     66  C   UNL A   1      42.623  22.634  28.497  1.00  0.00     0.135 A 
ATOM     67  F   UNL A   1      43.146  24.338  25.323  1.00  0.00    -0.206 F 
ATOM     68  C   UNL A   1      42.588  22.104  25.761  1.00  0.00     0.059 A 
ATOM     69  C   UNL A   1      42.342  21.344  28.055  1.00  0.00     0.059 A 
ATOM     70  F   UNL A   1      42.616  22.862  29.820  1.00  0.00    -0.206 F 
ATOM     71  C   UNL A   1      42.313  21.093  26.684  1.00  0.00     0.060 A 
BRANCH  71  72
ATOM     72  S   UNL A   1      41.922  19.444  26.061  1.00  0.00     0.124 S 
ATOM     73  O   UNL A   1      42.778  19.368  24.882  1.00  0.00    -0.237 OA
ATOM     74  O   UNL A   1      42.307  18.589  27.179  1.00  0.00    -0.237 OA
ATOM     75  O   UNL A   1      40.489  19.512  25.792  1.00  0.00    -0.744 OA
ENDBRANCH  71  72
ENDBRANCH  50  64
BRANCH  51  76
ATOM     76  C   UNL A   1      44.665  32.835  31.215  1.00  0.00     0.058 A 
ATOM     77  C   UNL A   1      44.977  33.921  30.382  1.00  0.00     0.135 A 
ATOM     78  C   UNL A   1      44.612  33.070  32.598  1.00  0.00     0.135 A 
ATOM     79  F   UNL A   1      45.047  33.748  29.053  1.00  0.00    -0.206 F 
ATOM     80  C   UNL A   1      45.248  35.184  30.899  1.00  0.00     0.059 A 
ATOM     81  C   UNL A   1      44.850  34.332  33.136  1.00  0.00     0.059 A 
ATOM     82  F   UNL A   1      44.301  32.071  33.438  1.00  0.00    -0.206 F 
ATOM     83  C   UNL A   1      45.179  35.380  32.279  1.00  0.00     0.060 A 
BRANCH  83  84
ATOM     84  S   UNL A   1      45.489  37.033  32.935  1.00  0.00     0.124 S 
ATOM     85  O   UNL A   1      46.935  37.009  33.123  1.00  0.00    -0.237 OA
ATOM     86  O   UNL A   1      45.000  37.887  31.857  1.00  0.00    -0.237 OA
ATOM     87  O   UNL A   1      44.694  37.064  34.159  1.00  0.00    -0.744 OA
ENDBRANCH  83  84
ENDBRANCH  51  76
BRANCH  63  88
ATOM     88  C   UNL A   1      48.751  27.406  29.635  1.00  0.00     0.058 A 
ATOM     89  C   UNL A   1      49.374  26.775  30.723  1.00  0.00     0.135 A 
ATOM     90  C   UNL A   1      49.564  27.837  28.574  1.00  0.00     0.135 A 
ATOM     91  F   UNL A   1      48.644  26.346  31.765  1.00  0.00    -0.206 F 
ATOM     92  C   UNL A   1      50.755  26.616  30.777  1.00  0.00     0.059 A 
ATOM     93  C   UNL A   1      50.943  27.658  28.592  1.00  0.00     0.059 A 
ATOM     94  F   UNL A   1      49.019  28.433  27.503  1.00  0.00    -0.206 F 
ATOM     95  C   UNL A   1      51.532  27.065  29.707  1.00  0.00     0.060 A 
BRANCH  95  96
ATOM     96  S   UNL A   1      53.323  26.856  29.789  1.00  0.00     0.124 S 
ATOM     97  O   UNL A   1      53.476  26.119  31.039  1.00  0.00    -0.237 OA
ATOM     98  O   UNL A   1      53.607  26.105  28.570  1.00  0.00    -0.237 OA
ATOM     99  O   UNL A   1      53.825  28.227  29.804  1.00  0.00    -0.744 OA
ENDBRANCH  95  96
ENDBRANCH  63  88
ENDBRANCH  37  38
ENDBRANCH  29  32
ENDBRANCH  27  28
ENDBRANCH   1  27
TORSDOF 17
ENDMDL
