MODEL 1
REMARK VINA RESULT:     -11.7      0.000      0.000
REMARK SMILES COc1ccc(NC(=O)[C@@H]2CC=CC[C@H]2C(=O)NCCCCNC(=O)c2ccc(-c3c4nc(c(-c5c(F)cc(S(=O)(=O)[O-])cc5F)c5ccc([nH]5)c(-c5c(F)cc(S(=O)(=O)[O-])cc5F)c5nc(c(-c6c(F)cc(S(=O)(=O)[O-])cc6F)c6ccc3[nH]6)C=C5)C=C4)cc2)cc1Cl
REMARK SMILES IDX 20 1 19 2 18 3 16 4 17 5 15 7 10 8 11 9 12 10 14 11 13 12
REMARK SMILES IDX 8 13 7 14 9 16 6 17 3 18 4 19 93 20 5 21 92 22 94 23 2 24
REMARK SMILES IDX 1 25 21 26 22 27 23 28 24 29 25 31 26 32 27 33 91 34 28 35
REMARK SMILES IDX 90 36 29 37 30 38 31 39 84 40 32 41 89 42 83 43 85 44 33 45
REMARK SMILES IDX 88 46 82 47 81 48 34 50 68 51 47 52 67 53 48 54 51 55 66 56
REMARK SMILES IDX 86 57 49 58 50 59 65 61 87 62 52 63 35 64 36 65 45 66 37 67
REMARK SMILES IDX 38 68 44 69 46 70 39 71 40 72 41 73 42 74 43 75 69 76 70 77
REMARK SMILES IDX 79 78 71 79 72 80 78 81 80 82 73 83 74 84 75 85 76 86 77 87
REMARK SMILES IDX 53 88 54 89 63 90 55 91 56 92 62 93 64 94 57 95 58 96 59 97
REMARK SMILES IDX 60 98 61 99
REMARK H PARENT 18 6 7 15 23 30 85 49 51 60
REMARK Flexibility Score: inf
ROOT
ATOM      1  C   UNL A   1      31.530  28.987  26.433  1.00  0.00     0.023 C 
ENDROOT
BRANCH   1   2
ATOM      2  C   UNL A   1      31.456  29.948  25.245  1.00  0.00     0.116 C 
BRANCH   2   3
ATOM      3  N   UNL A   1      32.442  29.644  24.222  1.00  0.00    -0.356 N 
ATOM      4  C   UNL A   1      32.304  29.054  23.001  1.00  0.00     0.224 C 
ATOM      5  O   UNL A   1      33.304  28.961  22.286  1.00  0.00    -0.275 OA
ATOM      6  H   UNL A   1      33.363  29.907  24.448  1.00  0.00     0.163 HD
BRANCH   4   7
ATOM      7  C   UNL A   1      30.947  28.569  22.485  1.00  0.00     0.095 C 
ATOM      8  C   UNL A   1      30.557  27.216  23.111  1.00  0.00     0.095 C 
ATOM      9  C   UNL A   1      29.090  26.964  23.485  1.00  0.00     0.041 C 
ATOM     10  C   UNL A   1      28.158  28.120  23.312  1.00  0.00    -0.030 C 
ATOM     11  C   UNL A   1      29.938  29.725  22.592  1.00  0.00     0.041 C 
ATOM     12  C   UNL A   1      28.532  29.340  22.915  1.00  0.00    -0.030 C 
BRANCH   8  13
ATOM     13  C   UNL A   1      31.246  26.070  22.376  1.00  0.00     0.228 C 
ATOM     14  N   UNL A   1      31.880  25.015  22.943  1.00  0.00    -0.326 N 
ATOM     15  H   UNL A   1      32.294  24.425  22.270  1.00  0.00     0.169 HD
ATOM     16  O   UNL A   1      31.270  26.101  21.137  1.00  0.00    -0.274 OA
BRANCH  14  17
ATOM     17  C   UNL A   1      32.091  24.560  24.249  1.00  0.00     0.042 A 
ATOM     18  C   UNL A   1      32.368  23.371  26.775  1.00  0.00     0.137 A 
ATOM     19  C   UNL A   1      33.441  24.040  26.193  1.00  0.00     0.050 A 
ATOM     20  C   UNL A   1      31.122  23.386  26.147  1.00  0.00     0.085 A 
ATOM     21  C   UNL A   1      33.296  24.639  24.937  1.00  0.00     0.030 A 
ATOM     22  C   UNL A   1      30.987  23.980  24.889  1.00  0.00     0.050 A 
ATOM     23  Cl  UNL A   1      29.719  22.687  26.868  1.00  0.00    -0.080 Cl
BRANCH  18  24
ATOM     24  O   UNL A   1      32.599  22.768  27.982  1.00  0.00    -0.495 OA
ATOM     25  C   UNL A   1      33.746  21.916  27.918  1.00  0.00     0.278 C 
ENDBRANCH  18  24
ENDBRANCH  14  17
ENDBRANCH   8  13
ENDBRANCH   4   7
ENDBRANCH   2   3
ENDBRANCH   1   2
BRANCH   1  26
ATOM     26  C   UNL A   1      32.711  28.019  26.405  1.00  0.00     0.023 C 
BRANCH  26  27
ATOM     27  C   UNL A   1      33.923  28.460  27.212  1.00  0.00     0.116 C 
BRANCH  27  28
ATOM     28  N   UNL A   1      33.797  29.808  27.743  1.00  0.00    -0.352 N 
ATOM     29  C   UNL A   1      34.741  30.566  28.402  1.00  0.00     0.251 C 
ATOM     30  H   UNL A   1      32.920  30.237  27.614  1.00  0.00     0.163 HD
ATOM     31  O   UNL A   1      34.439  31.644  28.887  1.00  0.00    -0.269 OA
BRANCH  29  32
ATOM     32  C   UNL A   1      36.112  30.030  28.539  1.00  0.00     0.039 A 
ATOM     33  C   UNL A   1      36.974  30.097  27.443  1.00  0.00     0.014 A 
ATOM     34  C   UNL A   1      36.554  29.519  29.762  1.00  0.00     0.014 A 
ATOM     35  C   UNL A   1      38.308  29.718  27.596  1.00  0.00     0.010 A 
ATOM     36  C   UNL A   1      37.899  29.213  29.933  1.00  0.00     0.010 A 
ATOM     37  C   UNL A   1      38.789  29.312  28.852  1.00  0.00    -0.014 A 
BRANCH  37  38
ATOM     38  C   UNL A   1      40.221  28.985  29.061  1.00  0.00     0.031 A 
ATOM     39  C   UNL A   1      41.159  30.032  29.593  1.00  0.00     0.074 A 
ATOM     40  C   UNL A   1      40.686  27.772  28.705  1.00  0.00     0.049 A 
ATOM     41  N   UNL A   1      42.454  29.971  29.762  1.00  0.00    -0.248 NA
ATOM     42  C   UNL A   1      40.566  31.330  29.955  1.00  0.00     0.031 C 
ATOM     43  C   UNL A   1      39.883  26.692  28.128  1.00  0.00     0.029 A 
ATOM     44  N   UNL A   1      41.952  27.245  28.766  1.00  0.00    -0.354 N 
ATOM     45  C   UNL A   1      42.832  31.220  30.238  1.00  0.00     0.074 A 
ATOM     46  C   UNL A   1      41.638  32.037  30.276  1.00  0.00     0.031 C 
ATOM     47  C   UNL A   1      40.670  25.625  27.909  1.00  0.00     0.029 A 
ATOM     48  C   UNL A   1      42.038  25.957  28.296  1.00  0.00     0.049 A 
ATOM     49  H   UNL A   1      42.726  27.745  29.113  1.00  0.00     0.167 HD
ATOM     50  C   UNL A   1      44.056  31.640  30.633  1.00  0.00     0.037 A 
ATOM     51  C   UNL A   1      43.101  25.136  28.186  1.00  0.00     0.037 A 
ATOM     52  C   UNL A   1      45.235  30.814  30.616  1.00  0.00     0.049 A 
ATOM     53  C   UNL A   1      44.450  25.619  28.644  1.00  0.00     0.074 A 
ATOM     54  C   UNL A   1      46.515  31.133  31.031  1.00  0.00     0.029 A 
ATOM     55  N   UNL A   1      45.275  29.503  30.164  1.00  0.00    -0.354 N 
ATOM     56  N   UNL A   1      44.782  26.790  29.130  1.00  0.00    -0.248 NA
ATOM     57  C   UNL A   1      45.565  24.668  28.545  1.00  0.00     0.031 C 
ATOM     58  C   UNL A   1      47.337  30.023  30.803  1.00  0.00     0.029 A 
ATOM     59  C   UNL A   1      46.559  28.999  30.285  1.00  0.00     0.049 A 
ATOM     60  H   UNL A   1      44.503  29.003  29.811  1.00  0.00     0.167 HD
ATOM     61  C   UNL A   1      46.140  26.712  29.416  1.00  0.00     0.074 A 
ATOM     62  C   UNL A   1      46.564  25.372  29.059  1.00  0.00     0.031 C 
ATOM     63  C   UNL A   1      46.960  27.661  29.929  1.00  0.00     0.037 A 
BRANCH  50  64
ATOM     64  C   UNL A   1      44.175  33.054  31.132  1.00  0.00     0.058 A 
ATOM     65  C   UNL A   1      44.428  34.120  30.253  1.00  0.00     0.135 A 
ATOM     66  C   UNL A   1      44.017  33.351  32.494  1.00  0.00     0.135 A 
ATOM     67  F   UNL A   1      44.608  33.889  28.943  1.00  0.00    -0.206 F 
ATOM     68  C   UNL A   1      44.551  35.427  30.712  1.00  0.00     0.059 A 
ATOM     69  C   UNL A   1      44.107  34.655  32.972  1.00  0.00     0.059 A 
ATOM     70  F   UNL A   1      43.775  32.369  33.377  1.00  0.00    -0.206 F 
ATOM     71  C   UNL A   1      44.391  35.684  32.074  1.00  0.00     0.060 A 
BRANCH  71  72
ATOM     72  S   UNL A   1      44.552  37.386  32.653  1.00  0.00     0.124 S 
ATOM     73  O   UNL A   1      43.552  37.427  33.716  1.00  0.00    -0.237 OA
ATOM     74  O   UNL A   1      45.943  37.440  33.091  1.00  0.00    -0.237 OA
ATOM     75  O   UNL A   1      44.240  38.178  31.467  1.00  0.00    -0.744 OA
ENDBRANCH  71  72
ENDBRANCH  50  64
BRANCH  51  76
ATOM     76  C   UNL A   1      42.918  23.761  27.649  1.00  0.00     0.058 A 
ATOM     77  C   UNL A   1      42.631  22.689  28.506  1.00  0.00     0.135 A 
ATOM     78  C   UNL A   1      42.992  23.500  26.274  1.00  0.00     0.135 A 
ATOM     79  F   UNL A   1      42.556  22.889  29.830  1.00  0.00    -0.206 F 
ATOM     80  C   UNL A   1      42.431  21.401  28.019  1.00  0.00     0.059 A 
ATOM     81  C   UNL A   1      42.775  22.224  25.760  1.00  0.00     0.059 A 
ATOM     82  F   UNL A   1      43.248  24.496  25.412  1.00  0.00    -0.206 F 
ATOM     83  C   UNL A   1      42.501  21.179  26.642  1.00  0.00     0.060 A 
BRANCH  83  84
ATOM     84  S   UNL A   1      42.173  19.518  26.015  1.00  0.00     0.124 S 
ATOM     85  O   UNL A   1      43.027  19.476  24.834  1.00  0.00    -0.237 OA
ATOM     86  O   UNL A   1      42.588  18.680  27.134  1.00  0.00    -0.237 OA
ATOM     87  O   UNL A   1      40.735  19.537  25.756  1.00  0.00    -0.744 OA
ENDBRANCH  83  84
ENDBRANCH  51  76
BRANCH  63  88
ATOM     88  C   UNL A   1      48.396  27.281  30.162  1.00  0.00     0.058 A 
ATOM     89  C   UNL A   1      49.391  27.550  29.211  1.00  0.00     0.135 A 
ATOM     90  C   UNL A   1      48.785  26.693  31.377  1.00  0.00     0.135 A 
ATOM     91  F   UNL A   1      49.068  28.107  28.033  1.00  0.00    -0.206 F 
ATOM     92  C   UNL A   1      50.725  27.233  29.449  1.00  0.00     0.059 A 
ATOM     93  C   UNL A   1      50.116  26.388  31.644  1.00  0.00     0.059 A 
ATOM     94  F   UNL A   1      47.872  26.424  32.322  1.00  0.00    -0.206 F 
ATOM     95  C   UNL A   1      51.077  26.653  30.669  1.00  0.00     0.060 A 
BRANCH  95  96
ATOM     96  S   UNL A   1      52.816  26.280  30.981  1.00  0.00     0.124 S 
ATOM     97  O   UNL A   1      53.312  26.037  29.631  1.00  0.00    -0.237 OA
ATOM     98  O   UNL A   1      53.290  27.503  31.620  1.00  0.00    -0.237 OA
ATOM     99  O   UNL A   1      52.761  25.108  31.850  1.00  0.00    -0.744 OA
ENDBRANCH  95  96
ENDBRANCH  63  88
ENDBRANCH  37  38
ENDBRANCH  29  32
ENDBRANCH  27  28
ENDBRANCH  26  27
ENDBRANCH   1  26
TORSDOF 17
ENDMDL
MODEL 2
REMARK VINA RESULT:     -11.5      1.435      3.536
REMARK SMILES COc1ccc(NC(=O)[C@@H]2CC=CC[C@H]2C(=O)NCCCCNC(=O)c2ccc(-c3c4nc(c(-c5c(F)cc(S(=O)(=O)[O-])cc5F)c5ccc([nH]5)c(-c5c(F)cc(S(=O)(=O)[O-])cc5F)c5nc(c(-c6c(F)cc(S(=O)(=O)[O-])cc6F)c6ccc3[nH]6)C=C5)C=C4)cc2)cc1Cl
REMARK SMILES IDX 20 1 19 2 18 3 16 4 17 5 15 7 10 8 11 9 12 10 14 11 13 12
REMARK SMILES IDX 8 13 7 14 9 16 6 17 3 18 4 19 93 20 5 21 92 22 94 23 2 24
REMARK SMILES IDX 1 25 21 26 22 27 23 28 24 29 25 31 26 32 27 33 91 34 28 35
REMARK SMILES IDX 90 36 29 37 30 38 31 39 84 40 32 41 89 42 83 43 85 44 33 45
REMARK SMILES IDX 88 46 82 47 81 48 34 50 68 51 47 52 67 53 48 54 51 55 66 56
REMARK SMILES IDX 86 57 49 58 50 59 65 61 87 62 52 63 35 64 36 65 45 66 37 67
REMARK SMILES IDX 38 68 44 69 46 70 39 71 40 72 41 73 42 74 43 75 69 76 70 77
REMARK SMILES IDX 79 78 71 79 72 80 78 81 80 82 73 83 74 84 75 85 76 86 77 87
REMARK SMILES IDX 53 88 54 89 63 90 55 91 56 92 62 93 64 94 57 95 58 96 59 97
REMARK SMILES IDX 60 98 61 99
REMARK H PARENT 18 6 7 15 23 30 85 49 51 60
REMARK Flexibility Score: inf
ROOT
ATOM      1  C   UNL A   1      33.918  26.818  25.327  1.00  0.00     0.023 C 
ENDROOT
BRANCH   1   2
ATOM      2  C   UNL A   1      33.681  25.589  26.206  1.00  0.00     0.116 C 
BRANCH   2   3
ATOM      3  N   UNL A   1      32.270  25.330  26.431  1.00  0.00    -0.356 N 
ATOM      4  C   UNL A   1      31.563  24.165  26.402  1.00  0.00     0.224 C 
ATOM      5  O   UNL A   1      30.365  24.206  26.689  1.00  0.00    -0.275 OA
ATOM      6  H   UNL A   1      31.733  26.130  26.637  1.00  0.00     0.163 HD
BRANCH   4   7
ATOM      7  C   UNL A   1      32.229  22.822  26.088  1.00  0.00     0.095 C 
ATOM      8  C   UNL A   1      32.980  22.868  24.743  1.00  0.00     0.095 C 
ATOM      9  C   UNL A   1      34.320  22.133  24.613  1.00  0.00     0.041 C 
ATOM     10  C   UNL A   1      34.856  21.514  25.864  1.00  0.00    -0.030 C 
ATOM     11  C   UNL A   1      33.010  22.358  27.328  1.00  0.00     0.041 C 
ATOM     12  C   UNL A   1      34.275  21.611  27.064  1.00  0.00    -0.030 C 
BRANCH   8  13
ATOM     13  C   UNL A   1      32.010  22.658  23.583  1.00  0.00     0.228 C 
ATOM     14  N   UNL A   1      31.315  23.621  22.930  1.00  0.00    -0.326 N 
ATOM     15  H   UNL A   1      30.711  23.246  22.247  1.00  0.00     0.169 HD
ATOM     16  O   UNL A   1      31.793  21.498  23.204  1.00  0.00    -0.274 OA
BRANCH  14  17
ATOM     17  C   UNL A   1      31.246  25.017  22.988  1.00  0.00     0.042 A 
ATOM     18  C   UNL A   1      31.214  27.817  22.797  1.00  0.00     0.137 A 
ATOM     19  C   UNL A   1      30.136  27.139  23.362  1.00  0.00     0.050 A 
ATOM     20  C   UNL A   1      32.356  27.108  22.424  1.00  0.00     0.085 A 
ATOM     21  C   UNL A   1      30.160  25.745  23.463  1.00  0.00     0.030 A 
ATOM     22  C   UNL A   1      32.370  25.714  22.522  1.00  0.00     0.050 A 
ATOM     23  Cl  UNL A   1      33.775  27.893  21.835  1.00  0.00    -0.080 Cl
BRANCH  18  24
ATOM     24  O   UNL A   1      31.097  29.176  22.686  1.00  0.00    -0.495 OA
ATOM     25  C   UNL A   1      29.855  29.536  22.075  1.00  0.00     0.278 C 
ENDBRANCH  18  24
ENDBRANCH  14  17
ENDBRANCH   8  13
ENDBRANCH   4   7
ENDBRANCH   2   3
ENDBRANCH   1   2
BRANCH   1  26
ATOM     26  C   UNL A   1      33.292  28.110  25.845  1.00  0.00     0.023 C 
BRANCH  26  27
ATOM     27  C   UNL A   1      33.576  28.421  27.307  1.00  0.00     0.116 C 
BRANCH  27  28
ATOM     28  N   UNL A   1      33.502  29.841  27.615  1.00  0.00    -0.352 N 
ATOM     29  C   UNL A   1      34.474  30.659  28.147  1.00  0.00     0.251 C 
ATOM     30  H   UNL A   1      32.641  30.275  27.415  1.00  0.00     0.163 HD
ATOM     31  O   UNL A   1      34.215  31.811  28.452  1.00  0.00    -0.269 OA
BRANCH  29  32
ATOM     32  C   UNL A   1      35.825  30.101  28.374  1.00  0.00     0.039 A 
ATOM     33  C   UNL A   1      36.762  30.165  27.341  1.00  0.00     0.014 A 
ATOM     34  C   UNL A   1      36.174  29.573  29.619  1.00  0.00     0.014 A 
ATOM     35  C   UNL A   1      38.076  29.764  27.583  1.00  0.00     0.010 A 
ATOM     36  C   UNL A   1      37.499  29.245  29.880  1.00  0.00     0.010 A 
ATOM     37  C   UNL A   1      38.463  29.340  28.864  1.00  0.00    -0.014 A 
BRANCH  37  38
ATOM     38  C   UNL A   1      39.873  28.989  29.169  1.00  0.00     0.031 A 
ATOM     39  C   UNL A   1      40.775  30.006  29.811  1.00  0.00     0.074 A 
ATOM     40  C   UNL A   1      40.354  27.786  28.803  1.00  0.00     0.049 A 
ATOM     41  N   UNL A   1      42.053  29.924  30.075  1.00  0.00    -0.248 NA
ATOM     42  C   UNL A   1      40.167  31.295  30.177  1.00  0.00     0.031 C 
ATOM     43  C   UNL A   1      39.588  26.737  28.125  1.00  0.00     0.029 A 
ATOM     44  N   UNL A   1      41.607  27.244  28.940  1.00  0.00    -0.354 N 
ATOM     45  C   UNL A   1      42.403  31.150  30.626  1.00  0.00     0.074 A 
ATOM     46  C   UNL A   1      41.217  31.978  30.606  1.00  0.00     0.031 C 
ATOM     47  C   UNL A   1      40.381  25.672  27.925  1.00  0.00     0.029 A 
ATOM     48  C   UNL A   1      41.718  25.973  28.428  1.00  0.00     0.049 A 
ATOM     49  H   UNL A   1      42.356  27.721  29.364  1.00  0.00     0.167 HD
ATOM     50  C   UNL A   1      43.597  31.541  31.130  1.00  0.00     0.037 A 
ATOM     51  C   UNL A   1      42.779  25.145  28.368  1.00  0.00     0.037 A 
ATOM     52  C   UNL A   1      44.767  30.703  31.170  1.00  0.00     0.049 A 
ATOM     53  C   UNL A   1      44.093  25.595  28.945  1.00  0.00     0.074 A 
ATOM     54  C   UNL A   1      46.015  30.992  31.694  1.00  0.00     0.029 A 
ATOM     55  N   UNL A   1      44.831  29.410  30.673  1.00  0.00    -0.354 N 
ATOM     56  N   UNL A   1      44.397  26.744  29.500  1.00  0.00    -0.248 NA
ATOM     57  C   UNL A   1      45.205  24.637  28.895  1.00  0.00     0.031 C 
ATOM     58  C   UNL A   1      46.842  29.882  31.486  1.00  0.00     0.029 A 
ATOM     59  C   UNL A   1      46.099  28.888  30.871  1.00  0.00     0.049 A 
ATOM     60  H   UNL A   1      44.085  28.933  30.242  1.00  0.00     0.167 HD
ATOM     61  C   UNL A   1      45.728  26.640  29.885  1.00  0.00     0.074 A 
ATOM     62  C   UNL A   1      46.168  25.310  29.510  1.00  0.00     0.031 C 
ATOM     63  C   UNL A   1      46.515  27.560  30.496  1.00  0.00     0.037 A 
BRANCH  50  64
ATOM     64  C   UNL A   1      43.689  32.933  31.691  1.00  0.00     0.058 A 
ATOM     65  C   UNL A   1      43.922  34.042  30.860  1.00  0.00     0.135 A 
ATOM     66  C   UNL A   1      43.525  33.167  33.064  1.00  0.00     0.135 A 
ATOM     67  F   UNL A   1      44.106  33.872  29.541  1.00  0.00    -0.206 F 
ATOM     68  C   UNL A   1      44.019  35.330  31.376  1.00  0.00     0.059 A 
ATOM     69  C   UNL A   1      43.591  34.450  33.599  1.00  0.00     0.059 A 
ATOM     70  F   UNL A   1      43.303  32.143  33.903  1.00  0.00    -0.206 F 
ATOM     71  C   UNL A   1      43.855  35.523  32.748  1.00  0.00     0.060 A 
BRANCH  71  72
ATOM     72  S   UNL A   1      43.983  37.201  33.401  1.00  0.00     0.124 S 
ATOM     73  O   UNL A   1      42.667  37.377  34.009  1.00  0.00    -0.237 OA
ATOM     74  O   UNL A   1      45.101  37.092  34.332  1.00  0.00    -0.237 OA
ATOM     75  O   UNL A   1      44.238  38.009  32.213  1.00  0.00    -0.744 OA
ENDBRANCH  71  72
ENDBRANCH  50  64
BRANCH  51  76
ATOM     76  C   UNL A   1      42.628  23.794  27.766  1.00  0.00     0.058 A 
ATOM     77  C   UNL A   1      42.733  23.610  26.380  1.00  0.00     0.135 A 
ATOM     78  C   UNL A   1      42.410  22.660  28.562  1.00  0.00     0.135 A 
ATOM     79  F   UNL A   1      42.936  24.666  25.576  1.00  0.00    -0.206 F 
ATOM     80  C   UNL A   1      42.621  22.351  25.801  1.00  0.00     0.059 A 
ATOM     81  C   UNL A   1      42.315  21.386  28.009  1.00  0.00     0.059 A 
ATOM     82  F   UNL A   1      42.318  22.782  29.896  1.00  0.00    -0.206 F 
ATOM     83  C   UNL A   1      42.416  21.242  26.626  1.00  0.00     0.060 A 
BRANCH  83  84
ATOM     84  S   UNL A   1      42.340  19.604  25.871  1.00  0.00     0.124 S 
ATOM     85  O   UNL A   1      42.730  18.748  26.986  1.00  0.00    -0.237 OA
ATOM     86  O   UNL A   1      40.943  19.520  25.459  1.00  0.00    -0.237 OA
ATOM     87  O   UNL A   1      43.303  19.695  24.777  1.00  0.00    -0.744 OA
ENDBRANCH  83  84
ENDBRANCH  51  76
BRANCH  63  88
ATOM     88  C   UNL A   1      47.925  27.155  30.822  1.00  0.00     0.058 A 
ATOM     89  C   UNL A   1      48.264  26.615  32.072  1.00  0.00     0.135 A 
ATOM     90  C   UNL A   1      48.935  27.258  29.852  1.00  0.00     0.135 A 
ATOM     91  F   UNL A   1      47.335  26.501  33.034  1.00  0.00    -0.206 F 
ATOM     92  C   UNL A   1      49.563  26.205  32.355  1.00  0.00     0.059 A 
ATOM     93  C   UNL A   1      50.235  26.833  30.106  1.00  0.00     0.059 A 
ATOM     94  F   UNL A   1      48.659  27.759  28.638  1.00  0.00    -0.206 F 
ATOM     95  C   UNL A   1      50.541  26.316  31.365  1.00  0.00     0.060 A 
BRANCH  95  96
ATOM     96  S   UNL A   1      52.215  25.747  31.732  1.00  0.00     0.124 S 
ATOM     97  O   UNL A   1      51.992  24.329  31.995  1.00  0.00    -0.237 OA
ATOM     98  O   UNL A   1      52.930  26.058  30.498  1.00  0.00    -0.237 OA
ATOM     99  O   UNL A   1      52.599  26.548  32.890  1.00  0.00    -0.744 OA
ENDBRANCH  95  96
ENDBRANCH  63  88
ENDBRANCH  37  38
ENDBRANCH  29  32
ENDBRANCH  27  28
ENDBRANCH  26  27
ENDBRANCH   1  26
TORSDOF 17
ENDMDL
MODEL 3
REMARK VINA RESULT:     -11.5      2.528      3.279
REMARK SMILES COc1ccc(NC(=O)[C@@H]2CC=CC[C@H]2C(=O)NCCCCNC(=O)c2ccc(-c3c4nc(c(-c5c(F)cc(S(=O)(=O)[O-])cc5F)c5ccc([nH]5)c(-c5c(F)cc(S(=O)(=O)[O-])cc5F)c5nc(c(-c6c(F)cc(S(=O)(=O)[O-])cc6F)c6ccc3[nH]6)C=C5)C=C4)cc2)cc1Cl
REMARK SMILES IDX 20 1 19 2 18 3 16 4 17 5 15 7 10 8 11 9 12 10 14 11 13 12
REMARK SMILES IDX 8 13 7 14 9 16 6 17 3 18 4 19 93 20 5 21 92 22 94 23 2 24
REMARK SMILES IDX 1 25 21 26 22 27 23 28 24 29 25 31 26 32 27 33 91 34 28 35
REMARK SMILES IDX 90 36 29 37 30 38 31 39 84 40 32 41 89 42 83 43 85 44 33 45
REMARK SMILES IDX 88 46 82 47 81 48 34 50 68 51 47 52 67 53 48 54 51 55 66 56
REMARK SMILES IDX 86 57 49 58 50 59 65 61 87 62 52 63 35 64 36 65 45 66 37 67
REMARK SMILES IDX 38 68 44 69 46 70 39 71 40 72 41 73 42 74 43 75 69 76 70 77
REMARK SMILES IDX 79 78 71 79 72 80 78 81 80 82 73 83 74 84 75 85 76 86 77 87
REMARK SMILES IDX 53 88 54 89 63 90 55 91 56 92 62 93 64 94 57 95 58 96 59 97
REMARK SMILES IDX 60 98 61 99
REMARK H PARENT 18 6 7 15 23 30 85 49 51 60
REMARK Flexibility Score: inf
ROOT
ATOM      1  C   UNL A   1      33.882  28.799  27.138  1.00  0.00     0.023 C 
ENDROOT
BRANCH   1   2
ATOM      2  C   UNL A   1      32.430  28.322  27.216  1.00  0.00     0.116 C 
BRANCH   2   3
ATOM      3  N   UNL A   1      31.614  28.848  26.137  1.00  0.00    -0.356 N 
ATOM      4  C   UNL A   1      31.430  28.402  24.862  1.00  0.00     0.224 C 
ATOM      5  O   UNL A   1      30.626  29.004  24.146  1.00  0.00    -0.275 OA
ATOM      6  H   UNL A   1      31.109  29.662  26.362  1.00  0.00     0.163 HD
BRANCH   4   7
ATOM      7  C   UNL A   1      32.142  27.154  24.330  1.00  0.00     0.095 C 
ATOM      8  C   UNL A   1      31.205  25.931  24.326  1.00  0.00     0.095 C 
ATOM      9  C   UNL A   1      31.286  24.934  23.162  1.00  0.00     0.041 C 
ATOM     10  C   UNL A   1      32.210  25.300  22.045  1.00  0.00    -0.030 C 
ATOM     11  C   UNL A   1      32.853  27.516  23.016  1.00  0.00     0.041 C 
ATOM     12  C   UNL A   1      32.905  26.440  21.981  1.00  0.00    -0.030 C 
BRANCH   8  13
ATOM     13  C   UNL A   1      31.141  25.303  25.715  1.00  0.00     0.228 C 
ATOM     14  N   UNL A   1      32.056  24.468  26.265  1.00  0.00    -0.326 N 
ATOM     15  H   UNL A   1      31.780  24.148  27.155  1.00  0.00     0.169 HD
ATOM     16  O   UNL A   1      30.149  25.539  26.419  1.00  0.00    -0.274 OA
BRANCH  14  17
ATOM     17  C   UNL A   1      33.296  23.948  25.876  1.00  0.00     0.042 A 
ATOM     18  C   UNL A   1      35.622  22.756  24.857  1.00  0.00     0.137 A 
ATOM     19  C   UNL A   1      35.622  24.102  25.215  1.00  0.00     0.050 A 
ATOM     20  C   UNL A   1      34.494  21.974  25.108  1.00  0.00     0.085 A 
ATOM     21  C   UNL A   1      34.463  24.690  25.731  1.00  0.00     0.030 A 
ATOM     22  C   UNL A   1      33.338  22.571  25.618  1.00  0.00     0.050 A 
ATOM     23  Cl  UNL A   1      34.466  20.276  24.808  1.00  0.00    -0.080 Cl
BRANCH  18  24
ATOM     24  O   UNL A   1      36.778  22.264  24.313  1.00  0.00    -0.495 OA
ATOM     25  C   UNL A   1      37.755  22.011  25.327  1.00  0.00     0.278 C 
ENDBRANCH  18  24
ENDBRANCH  14  17
ENDBRANCH   8  13
ENDBRANCH   4   7
ENDBRANCH   2   3
ENDBRANCH   1   2
BRANCH   1  26
ATOM     26  C   UNL A   1      34.081  30.294  27.375  1.00  0.00     0.023 C 
BRANCH  26  27
ATOM     27  C   UNL A   1      35.440  30.681  27.939  1.00  0.00     0.116 C 
BRANCH  27  28
ATOM     28  N   UNL A   1      35.399  31.008  29.355  1.00  0.00    -0.352 N 
ATOM     29  C   UNL A   1      36.343  30.752  30.326  1.00  0.00     0.251 C 
ATOM     30  H   UNL A   1      34.588  31.475  29.661  1.00  0.00     0.163 HD
ATOM     31  O   UNL A   1      36.105  30.991  31.498  1.00  0.00    -0.269 OA
BRANCH  29  32
ATOM     32  C   UNL A   1      37.631  30.148  29.922  1.00  0.00     0.039 A 
ATOM     33  C   UNL A   1      38.002  30.192  28.577  1.00  0.00     0.014 A 
ATOM     34  C   UNL A   1      38.487  29.597  30.879  1.00  0.00     0.014 A 
ATOM     35  C   UNL A   1      39.270  29.747  28.202  1.00  0.00     0.010 A 
ATOM     36  C   UNL A   1      39.775  29.224  30.515  1.00  0.00     0.010 A 
ATOM     37  C   UNL A   1      40.179  29.298  29.173  1.00  0.00    -0.014 A 
BRANCH  37  38
ATOM     38  C   UNL A   1      41.562  28.899  28.811  1.00  0.00     0.031 A 
ATOM     39  C   UNL A   1      42.661  29.925  28.806  1.00  0.00     0.074 A 
ATOM     40  C   UNL A   1      41.810  27.634  28.420  1.00  0.00     0.049 A 
ATOM     41  N   UNL A   1      43.908  29.796  28.437  1.00  0.00    -0.248 NA
ATOM     42  C   UNL A   1      42.301  31.283  29.247  1.00  0.00     0.031 C 
ATOM     43  C   UNL A   1      40.814  26.563  28.332  1.00  0.00     0.029 A 
ATOM     44  N   UNL A   1      42.975  27.036  28.011  1.00  0.00    -0.354 N 
ATOM     45  C   UNL A   1      44.479  31.054  28.589  1.00  0.00     0.074 A 
ATOM     46  C   UNL A   1      43.427  31.945  29.029  1.00  0.00     0.031 C 
ATOM     47  C   UNL A   1      41.415  25.436  27.919  1.00  0.00     0.029 A 
ATOM     48  C   UNL A   1      42.829  25.710  27.679  1.00  0.00     0.049 A 
ATOM     49  H   UNL A   1      43.835  27.512  27.960  1.00  0.00     0.167 HD
ATOM     50  C   UNL A   1      45.767  31.426  28.406  1.00  0.00     0.037 A 
ATOM     51  C   UNL A   1      43.731  24.817  27.227  1.00  0.00     0.037 A 
ATOM     52  C   UNL A   1      46.813  30.528  27.992  1.00  0.00     0.049 A 
ATOM     53  C   UNL A   1      45.160  25.250  27.043  1.00  0.00     0.074 A 
ATOM     54  C   UNL A   1      48.158  30.799  27.814  1.00  0.00     0.029 A 
ATOM     55  N   UNL A   1      46.632  29.185  27.697  1.00  0.00    -0.354 N 
ATOM     56  N   UNL A   1      45.692  26.434  27.231  1.00  0.00    -0.248 NA
ATOM     57  C   UNL A   1      46.112  24.226  26.593  1.00  0.00     0.031 C 
ATOM     58  C   UNL A   1      48.786  29.624  27.383  1.00  0.00     0.029 A 
ATOM     59  C   UNL A   1      47.839  28.613  27.332  1.00  0.00     0.049 A 
ATOM     60  H   UNL A   1      45.771  28.708  27.741  1.00  0.00     0.167 HD
ATOM     61  C   UNL A   1      47.044  26.294  26.944  1.00  0.00     0.074 A 
ATOM     62  C   UNL A   1      47.251  24.906  26.581  1.00  0.00     0.031 C 
ATOM     63  C   UNL A   1      48.026  27.228  26.980  1.00  0.00     0.037 A 
BRANCH  50  64
ATOM     64  C   UNL A   1      46.115  32.865  28.668  1.00  0.00     0.058 A 
ATOM     65  C   UNL A   1      46.059  33.829  27.648  1.00  0.00     0.135 A 
ATOM     66  C   UNL A   1      46.489  33.292  29.952  1.00  0.00     0.135 A 
ATOM     67  F   UNL A   1      45.726  33.471  26.397  1.00  0.00    -0.206 F 
ATOM     68  C   UNL A   1      46.391  35.159  27.883  1.00  0.00     0.059 A 
ATOM     69  C   UNL A   1      46.799  34.623  30.217  1.00  0.00     0.059 A 
ATOM     70  F   UNL A   1      46.561  32.412  30.963  1.00  0.00    -0.206 F 
ATOM     71  C   UNL A   1      46.763  35.545  29.172  1.00  0.00     0.060 A 
BRANCH  71  72
ATOM     72  S   UNL A   1      47.190  37.275  29.461  1.00  0.00     0.124 S 
ATOM     73  O   UNL A   1      48.261  37.148  30.445  1.00  0.00    -0.237 OA
ATOM     74  O   UNL A   1      47.599  37.724  28.134  1.00  0.00    -0.237 OA
ATOM     75  O   UNL A   1      45.945  37.853  29.959  1.00  0.00    -0.744 OA
ENDBRANCH  71  72
ENDBRANCH  50  64
BRANCH  51  76
ATOM     76  C   UNL A   1      43.311  23.418  26.952  1.00  0.00     0.058 A 
ATOM     77  C   UNL A   1      43.138  22.967  25.636  1.00  0.00     0.135 A 
ATOM     78  C   UNL A   1      43.109  22.499  27.992  1.00  0.00     0.135 A 
ATOM     79  F   UNL A   1      43.315  23.811  24.608  1.00  0.00    -0.206 F 
ATOM     80  C   UNL A   1      42.771  21.654  25.358  1.00  0.00     0.059 A 
ATOM     81  C   UNL A   1      42.762  21.174  27.739  1.00  0.00     0.059 A 
ATOM     82  F   UNL A   1      43.278  22.878  29.268  1.00  0.00    -0.206 F 
ATOM     83  C   UNL A   1      42.589  20.763  26.418  1.00  0.00     0.060 A 
BRANCH  83  84
ATOM     84  S   UNL A   1      42.180  19.045  26.043  1.00  0.00     0.124 S 
ATOM     85  O   UNL A   1      43.012  18.794  24.872  1.00  0.00    -0.237 OA
ATOM     86  O   UNL A   1      42.577  18.360  27.268  1.00  0.00    -0.237 OA
ATOM     87  O   UNL A   1      40.741  19.090  25.799  1.00  0.00    -0.744 OA
ENDBRANCH  83  84
ENDBRANCH  51  76
BRANCH  63  88
ATOM     88  C   UNL A   1      49.420  26.778  26.643  1.00  0.00     0.058 A 
ATOM     89  C   UNL A   1      49.906  26.813  25.328  1.00  0.00     0.135 A 
ATOM     90  C   UNL A   1      50.296  26.363  27.660  1.00  0.00     0.135 A 
ATOM     91  F   UNL A   1      49.106  27.198  24.321  1.00  0.00    -0.206 F 
ATOM     92  C   UNL A   1      51.211  26.434  25.028  1.00  0.00     0.059 A 
ATOM     93  C   UNL A   1      51.611  26.001  27.385  1.00  0.00     0.059 A 
ATOM     94  F   UNL A   1      49.881  26.321  28.936  1.00  0.00    -0.206 F 
ATOM     95  C   UNL A   1      52.056  26.031  26.064  1.00  0.00     0.060 A 
BRANCH  95  96
ATOM     96  S   UNL A   1      53.757  25.576  25.667  1.00  0.00     0.124 S 
ATOM     97  O   UNL A   1      53.557  24.507  24.695  1.00  0.00    -0.237 OA
ATOM     98  O   UNL A   1      54.299  26.823  25.136  1.00  0.00    -0.237 OA
ATOM     99  O   UNL A   1      54.306  25.161  26.954  1.00  0.00    -0.744 OA
ENDBRANCH  95  96
ENDBRANCH  63  88
ENDBRANCH  37  38
ENDBRANCH  29  32
ENDBRANCH  27  28
ENDBRANCH  26  27
ENDBRANCH   1  26
TORSDOF 17
ENDMDL
