MODEL 1
REMARK VINA RESULT:     -11.4      0.000      0.000
REMARK SMILES CC(C)(C)[NH2+]CC(=O)N[C@](C)(C(=O)NCCCCNC(=O)c1ccc(-c2c3nc(c(-c4c(F)cc(S(=O)(=O)[O-])cc4F)c4ccc([nH]4)c(-c4c(F)cc(S(=O)(=O)[O-])cc4F)c4nc(c(-c5c(F)cc(S(=O)(=O)[O-])cc5F)c5ccc2[nH]5)C=C4)C=C3)cc1)C1CC1
REMARK SMILES IDX 16 1 15 2 14 3 12 4 13 5 10 7 11 8 9 9 7 10 8 11 6 13 5 14
REMARK SMILES IDX 2 17 1 18 3 19 4 20 88 21 89 22 90 23 17 24 18 25 19 26
REMARK SMILES IDX 20 27 21 29 22 30 23 31 87 32 24 33 86 34 25 35 26 36 27 37
REMARK SMILES IDX 80 38 28 39 85 40 79 41 81 42 29 43 84 44 78 45 77 46 30 48
REMARK SMILES IDX 64 49 43 50 63 51 44 52 47 53 62 54 82 55 45 56 46 57 61 59
REMARK SMILES IDX 83 60 48 61 31 62 32 63 41 64 33 65 34 66 40 67 42 68 35 69
REMARK SMILES IDX 36 70 37 71 38 72 39 73 65 74 66 75 75 76 67 77 68 78 74 79
REMARK SMILES IDX 76 80 69 81 70 82 71 83 72 84 73 85 49 86 50 87 59 88 51 89
REMARK SMILES IDX 52 90 58 91 60 92 53 93 54 94 55 95 56 96 57 97
REMARK H PARENT 14 6 9 12 5 15 5 16 19 28 81 47 47 58
REMARK Flexibility Score: inf
ROOT
ATOM      1  C   UNL A   1      36.878  23.712  25.747  1.00  0.00     0.023 C 
ENDROOT
BRANCH   1   2
ATOM      2  C   UNL A   1      36.434  23.177  24.372  1.00  0.00     0.116 C 
BRANCH   2   3
ATOM      3  N   UNL A   1      34.941  23.067  24.167  1.00  0.00    -0.354 N 
ATOM      4  C   UNL A   1      33.684  22.840  24.630  1.00  0.00     0.245 C 
ATOM      5  O   UNL A   1      32.883  23.140  23.711  1.00  0.00    -0.272 OA
ATOM      6  H   UNL A   1      34.815  23.255  23.209  1.00  0.00     0.163 HD
BRANCH   4   7
ATOM      7  C   UNL A   1      32.966  22.133  25.968  1.00  0.00     0.119 C 
ATOM      8  C   UNL A   1      33.789  22.423  27.242  1.00  0.00     0.046 C 
BRANCH   7   9
ATOM      9  N   UNL A   1      31.522  22.234  26.325  1.00  0.00    -0.337 N 
ATOM     10  C   UNL A   1      30.761  23.275  26.785  1.00  0.00     0.275 C 
ATOM     11  O   UNL A   1      29.809  23.043  27.531  1.00  0.00    -0.268 OA
ATOM     12  H   UNL A   1      31.022  21.395  26.207  1.00  0.00     0.164 HD
BRANCH  10  13
ATOM     13  C   UNL A   1      31.021  24.629  26.197  1.00  0.00     0.362 C 
BRANCH  13  14
ATOM     14  N   UNL A   1      31.447  25.762  27.021  1.00  0.00    -0.334 N 
ATOM     15  H   UNL A   1      30.701  25.904  27.701  1.00  0.00     0.347 HD
ATOM     16  H   UNL A   1      32.372  25.448  27.315  1.00  0.00     0.347 HD
BRANCH  14  17
ATOM     17  C   UNL A   1      31.761  27.096  26.488  1.00  0.00     0.088 C 
ATOM     18  C   UNL A   1      31.637  28.308  27.444  1.00  0.00     0.078 C 
ATOM     19  C   UNL A   1      31.019  27.310  25.159  1.00  0.00     0.078 C 
ATOM     20  C   UNL A   1      33.270  27.054  26.161  1.00  0.00     0.078 C 
ENDBRANCH  14  17
ENDBRANCH  13  14
ENDBRANCH  10  13
ENDBRANCH   7   9
BRANCH   7  21
ATOM     21  C   UNL A   1      33.143  20.560  25.727  1.00  0.00     0.024 C 
ATOM     22  C   UNL A   1      32.838  19.861  24.399  1.00  0.00     0.007 C 
ATOM     23  C   UNL A   1      34.257  19.966  24.870  1.00  0.00     0.007 C 
ENDBRANCH   7  21
ENDBRANCH   4   7
ENDBRANCH   2   3
ENDBRANCH   1   2
BRANCH   1  24
ATOM     24  C   UNL A   1      38.238  23.243  26.278  1.00  0.00     0.023 C 
BRANCH  24  25
ATOM     25  C   UNL A   1      39.199  24.318  26.769  1.00  0.00     0.116 C 
BRANCH  25  26
ATOM     26  N   UNL A   1      40.095  24.890  25.769  1.00  0.00    -0.352 N 
ATOM     27  C   UNL A   1      41.057  25.872  25.963  1.00  0.00     0.251 C 
ATOM     28  H   UNL A   1      40.008  24.542  24.853  1.00  0.00     0.163 HD
ATOM     29  O   UNL A   1      41.745  26.282  25.032  1.00  0.00    -0.269 OA
BRANCH  27  30
ATOM     30  C   UNL A   1      41.201  26.469  27.315  1.00  0.00     0.039 A 
ATOM     31  C   UNL A   1      42.075  27.542  27.508  1.00  0.00     0.014 A 
ATOM     32  C   UNL A   1      40.341  26.072  28.340  1.00  0.00     0.014 A 
ATOM     33  C   UNL A   1      41.982  28.300  28.680  1.00  0.00     0.010 A 
ATOM     34  C   UNL A   1      40.166  26.902  29.442  1.00  0.00     0.010 A 
ATOM     35  C   UNL A   1      40.974  28.033  29.624  1.00  0.00    -0.014 A 
BRANCH  35  36
ATOM     36  C   UNL A   1      40.734  28.939  30.784  1.00  0.00     0.031 A 
ATOM     37  C   UNL A   1      41.560  28.803  32.038  1.00  0.00     0.074 A 
ATOM     38  C   UNL A   1      39.720  29.831  30.742  1.00  0.00     0.049 A 
ATOM     39  N   UNL A   1      41.484  29.481  33.156  1.00  0.00    -0.248 NA
ATOM     40  C   UNL A   1      42.572  27.735  32.060  1.00  0.00     0.031 C 
ATOM     41  C   UNL A   1      38.769  29.987  29.636  1.00  0.00     0.029 A 
ATOM     42  N   UNL A   1      39.315  30.777  31.653  1.00  0.00    -0.354 N 
ATOM     43  C   UNL A   1      42.420  28.907  34.010  1.00  0.00     0.074 A 
ATOM     44  C   UNL A   1      42.989  27.775  33.315  1.00  0.00     0.031 C 
ATOM     45  C   UNL A   1      37.932  31.001  29.908  1.00  0.00     0.029 A 
ATOM     46  C   UNL A   1      38.262  31.553  31.218  1.00  0.00     0.049 A 
ATOM     47  H   UNL A   1      39.738  30.891  32.534  1.00  0.00     0.167 HD
ATOM     48  C   UNL A   1      42.808  29.312  35.243  1.00  0.00     0.037 A 
ATOM     49  C   UNL A   1      37.647  32.601  31.801  1.00  0.00     0.037 A 
ATOM     50  C   UNL A   1      42.277  30.472  35.908  1.00  0.00     0.049 A 
ATOM     51  C   UNL A   1      38.140  33.078  33.140  1.00  0.00     0.074 A 
ATOM     52  C   UNL A   1      42.659  31.023  37.117  1.00  0.00     0.029 A 
ATOM     53  N   UNL A   1      41.252  31.264  35.411  1.00  0.00    -0.354 N 
ATOM     54  N   UNL A   1      39.098  32.584  33.890  1.00  0.00    -0.248 NA
ATOM     55  C   UNL A   1      37.484  34.264  33.707  1.00  0.00     0.031 C 
ATOM     56  C   UNL A   1      41.839  32.129  37.369  1.00  0.00     0.029 A 
ATOM     57  C   UNL A   1      40.976  32.291  36.296  1.00  0.00     0.049 A 
ATOM     58  H   UNL A   1      40.788  31.115  34.555  1.00  0.00     0.167 HD
ATOM     59  C   UNL A   1      39.170  33.407  35.008  1.00  0.00     0.074 A 
ATOM     60  C   UNL A   1      38.176  34.446  34.823  1.00  0.00     0.031 C 
ATOM     61  C   UNL A   1      39.978  33.311  36.093  1.00  0.00     0.037 A 
BRANCH  48  62
ATOM     62  C   UNL A   1      43.879  28.509  35.931  1.00  0.00     0.058 A 
ATOM     63  C   UNL A   1      43.562  27.441  36.788  1.00  0.00     0.135 A 
ATOM     64  C   UNL A   1      45.238  28.802  35.732  1.00  0.00     0.135 A 
ATOM     65  F   UNL A   1      42.279  27.127  37.031  1.00  0.00    -0.206 F 
ATOM     66  C   UNL A   1      44.549  26.721  37.453  1.00  0.00     0.059 A 
ATOM     67  C   UNL A   1      46.244  28.074  36.361  1.00  0.00     0.059 A 
ATOM     68  F   UNL A   1      45.600  29.812  34.925  1.00  0.00    -0.206 F 
ATOM     69  C   UNL A   1      45.887  27.047  37.235  1.00  0.00     0.060 A 
BRANCH  69  70
ATOM     70  S   UNL A   1      47.155  26.102  38.106  1.00  0.00     0.124 S 
ATOM     71  O   UNL A   1      46.350  25.084  38.775  1.00  0.00    -0.237 OA
ATOM     72  O   UNL A   1      47.998  25.627  37.013  1.00  0.00    -0.237 OA
ATOM     73  O   UNL A   1      47.772  27.091  38.985  1.00  0.00    -0.744 OA
ENDBRANCH  69  70
ENDBRANCH  48  62
BRANCH  49  74
ATOM     74  C   UNL A   1      36.540  33.308  31.098  1.00  0.00     0.058 A 
ATOM     75  C   UNL A   1      35.210  33.177  31.530  1.00  0.00     0.135 A 
ATOM     76  C   UNL A   1      36.784  34.134  29.990  1.00  0.00     0.135 A 
ATOM     77  F   UNL A   1      34.921  32.394  32.580  1.00  0.00    -0.206 F 
ATOM     78  C   UNL A   1      34.162  33.825  30.882  1.00  0.00     0.059 A 
ATOM     79  C   UNL A   1      35.755  34.812  29.340  1.00  0.00     0.059 A 
ATOM     80  F   UNL A   1      38.038  34.309  29.544  1.00  0.00    -0.206 F 
ATOM     81  C   UNL A   1      34.445  34.644  29.788  1.00  0.00     0.060 A 
BRANCH  81  82
ATOM     82  S   UNL A   1      33.085  35.524  28.988  1.00  0.00     0.124 S 
ATOM     83  O   UNL A   1      32.456  34.458  28.218  1.00  0.00    -0.237 OA
ATOM     84  O   UNL A   1      32.325  36.021  30.132  1.00  0.00    -0.237 OA
ATOM     85  O   UNL A   1      33.766  36.552  28.205  1.00  0.00    -0.744 OA
ENDBRANCH  81  82
ENDBRANCH  49  74
BRANCH  61  86
ATOM     86  C   UNL A   1      39.827  34.364  37.154  1.00  0.00     0.058 A 
ATOM     87  C   UNL A   1      40.524  35.581  37.084  1.00  0.00     0.135 A 
ATOM     88  C   UNL A   1      38.957  34.167  38.238  1.00  0.00     0.135 A 
ATOM     89  F   UNL A   1      41.370  35.818  36.069  1.00  0.00    -0.206 F 
ATOM     90  C   UNL A   1      40.391  36.551  38.071  1.00  0.00     0.059 A 
ATOM     91  C   UNL A   1      38.786  35.135  39.221  1.00  0.00     0.059 A 
ATOM     92  F   UNL A   1      38.256  33.026  38.344  1.00  0.00    -0.206 F 
ATOM     93  C   UNL A   1      39.522  36.316  39.140  1.00  0.00     0.060 A 
BRANCH  93  94
ATOM     94  S   UNL A   1      39.355  37.583  40.412  1.00  0.00     0.124 S 
ATOM     95  O   UNL A   1      40.666  38.223  40.363  1.00  0.00    -0.237 OA
ATOM     96  O   UNL A   1      38.240  38.383  39.916  1.00  0.00    -0.237 OA
ATOM     97  O   UNL A   1      39.076  36.813  41.622  1.00  0.00    -0.744 OA
ENDBRANCH  93  94
ENDBRANCH  61  86
ENDBRANCH  35  36
ENDBRANCH  27  30
ENDBRANCH  25  26
ENDBRANCH  24  25
ENDBRANCH   1  24
TORSDOF 19
ENDMDL
MODEL 2
REMARK VINA RESULT:     -11.2      6.894     12.487
REMARK SMILES CC(C)(C)[NH2+]CC(=O)N[C@](C)(C(=O)NCCCCNC(=O)c1ccc(-c2c3nc(c(-c4c(F)cc(S(=O)(=O)[O-])cc4F)c4ccc([nH]4)c(-c4c(F)cc(S(=O)(=O)[O-])cc4F)c4nc(c(-c5c(F)cc(S(=O)(=O)[O-])cc5F)c5ccc2[nH]5)C=C4)C=C3)cc1)C1CC1
REMARK SMILES IDX 16 1 15 2 14 3 12 4 13 5 10 7 11 8 9 9 7 10 8 11 6 13 5 14
REMARK SMILES IDX 2 17 1 18 3 19 4 20 88 21 89 22 90 23 17 24 18 25 19 26
REMARK SMILES IDX 20 27 21 29 22 30 23 31 87 32 24 33 86 34 25 35 26 36 27 37
REMARK SMILES IDX 80 38 28 39 85 40 79 41 81 42 29 43 84 44 78 45 77 46 30 48
REMARK SMILES IDX 64 49 43 50 63 51 44 52 47 53 62 54 82 55 45 56 46 57 61 59
REMARK SMILES IDX 83 60 48 61 31 62 32 63 41 64 33 65 34 66 40 67 42 68 35 69
REMARK SMILES IDX 36 70 37 71 38 72 39 73 65 74 66 75 75 76 67 77 68 78 74 79
REMARK SMILES IDX 76 80 69 81 70 82 71 83 72 84 73 85 49 86 50 87 59 88 51 89
REMARK SMILES IDX 52 90 58 91 60 92 53 93 54 94 55 95 56 96 57 97
REMARK H PARENT 14 6 9 12 5 15 5 16 19 28 81 47 47 58
REMARK Flexibility Score: inf
ROOT
ATOM      1  C   UNL A   1      33.603  29.418  27.214  1.00  0.00     0.023 C 
ENDROOT
BRANCH   1   2
ATOM      2  C   UNL A   1      32.107  29.514  26.854  1.00  0.00     0.116 C 
BRANCH   2   3
ATOM      3  N   UNL A   1      31.583  28.421  25.954  1.00  0.00    -0.354 N 
ATOM      4  C   UNL A   1      31.539  27.773  24.761  1.00  0.00     0.245 C 
ATOM      5  O   UNL A   1      30.866  26.725  24.924  1.00  0.00    -0.272 OA
ATOM      6  H   UNL A   1      30.946  27.927  26.520  1.00  0.00     0.163 HD
BRANCH   4   7
ATOM      7  C   UNL A   1      31.972  28.073  23.171  1.00  0.00     0.119 C 
ATOM      8  C   UNL A   1      33.231  28.966  23.111  1.00  0.00     0.046 C 
BRANCH   7   9
ATOM      9  N   UNL A   1      32.092  27.042  22.100  1.00  0.00    -0.337 N 
ATOM     10  C   UNL A   1      33.042  26.088  21.848  1.00  0.00     0.275 C 
ATOM     11  O   UNL A   1      33.266  25.753  20.685  1.00  0.00    -0.268 OA
ATOM     12  H   UNL A   1      31.350  27.048  21.455  1.00  0.00     0.164 HD
BRANCH  10  13
ATOM     13  C   UNL A   1      33.622  25.368  23.027  1.00  0.00     0.362 C 
BRANCH  13  14
ATOM     14  N   UNL A   1      32.782  24.632  23.974  1.00  0.00    -0.334 N 
ATOM     15  H   UNL A   1      33.392  24.395  24.756  1.00  0.00     0.347 HD
ATOM     16  H   UNL A   1      32.008  25.286  24.093  1.00  0.00     0.347 HD
BRANCH  14  17
ATOM     17  C   UNL A   1      32.056  23.396  23.645  1.00  0.00     0.088 C 
ATOM     18  C   UNL A   1      32.740  22.382  22.695  1.00  0.00     0.078 C 
ATOM     19  C   UNL A   1      30.621  23.740  23.212  1.00  0.00     0.078 C 
ATOM     20  C   UNL A   1      31.952  22.622  24.978  1.00  0.00     0.078 C 
ENDBRANCH  14  17
ENDBRANCH  13  14
ENDBRANCH  10  13
ENDBRANCH   7   9
BRANCH   7  21
ATOM     21  C   UNL A   1      30.796  29.003  22.610  1.00  0.00     0.024 C 
ATOM     22  C   UNL A   1      29.307  28.677  22.758  1.00  0.00     0.007 C 
ATOM     23  C   UNL A   1      29.887  29.836  23.511  1.00  0.00     0.007 C 
ENDBRANCH   7  21
ENDBRANCH   4   7
ENDBRANCH   2   3
ENDBRANCH   1   2
BRANCH   1  24
ATOM     24  C   UNL A   1      34.394  30.730  27.290  1.00  0.00     0.023 C 
BRANCH  24  25
ATOM     25  C   UNL A   1      35.650  30.733  28.151  1.00  0.00     0.116 C 
BRANCH  25  26
ATOM     26  N   UNL A   1      35.513  30.185  29.498  1.00  0.00    -0.352 N 
ATOM     27  C   UNL A   1      36.533  29.800  30.357  1.00  0.00     0.251 C 
ATOM     28  H   UNL A   1      34.595  30.073  29.833  1.00  0.00     0.163 HD
ATOM     29  O   UNL A   1      36.286  29.337  31.469  1.00  0.00    -0.269 OA
BRANCH  27  30
ATOM     30  C   UNL A   1      37.937  29.900  29.886  1.00  0.00     0.039 A 
ATOM     31  C   UNL A   1      38.982  29.863  30.812  1.00  0.00     0.014 A 
ATOM     32  C   UNL A   1      38.211  29.857  28.519  1.00  0.00     0.014 A 
ATOM     33  C   UNL A   1      40.288  29.640  30.364  1.00  0.00     0.010 A 
ATOM     34  C   UNL A   1      39.487  29.509  28.090  1.00  0.00     0.010 A 
ATOM     35  C   UNL A   1      40.542  29.384  29.005  1.00  0.00    -0.014 A 
BRANCH  35  36
ATOM     36  C   UNL A   1      41.891  28.959  28.531  1.00  0.00     0.031 A 
ATOM     37  C   UNL A   1      43.010  29.962  28.425  1.00  0.00     0.074 A 
ATOM     38  C   UNL A   1      42.087  27.687  28.120  1.00  0.00     0.049 A 
ATOM     39  N   UNL A   1      44.241  29.788  28.012  1.00  0.00    -0.248 NA
ATOM     40  C   UNL A   1      42.696  31.356  28.780  1.00  0.00     0.031 C 
ATOM     41  C   UNL A   1      41.059  26.642  28.060  1.00  0.00     0.029 A 
ATOM     42  N   UNL A   1      43.221  27.051  27.672  1.00  0.00    -0.354 N 
ATOM     43  C   UNL A   1      44.832  31.046  28.043  1.00  0.00     0.074 A 
ATOM     44  C   UNL A   1      43.805  31.987  28.429  1.00  0.00     0.031 C 
ATOM     45  C   UNL A   1      41.618  25.490  27.657  1.00  0.00     0.029 A 
ATOM     46  C   UNL A   1      43.037  25.712  27.401  1.00  0.00     0.049 A 
ATOM     47  H   UNL A   1      44.084  27.509  27.555  1.00  0.00     0.167 HD
ATOM     48  C   UNL A   1      46.123  31.386  27.818  1.00  0.00     0.037 A 
ATOM     49  C   UNL A   1      43.917  24.769  27.009  1.00  0.00     0.037 A 
ATOM     50  C   UNL A   1      47.154  30.438  27.487  1.00  0.00     0.049 A 
ATOM     51  C   UNL A   1      45.361  25.154  26.832  1.00  0.00     0.074 A 
ATOM     52  C   UNL A   1      48.509  30.659  27.324  1.00  0.00     0.029 A 
ATOM     53  N   UNL A   1      46.939  29.083  27.276  1.00  0.00    -0.354 N 
ATOM     54  N   UNL A   1      45.923  26.333  26.965  1.00  0.00    -0.248 NA
ATOM     55  C   UNL A   1      46.296  24.080  26.469  1.00  0.00     0.031 C 
ATOM     56  C   UNL A   1      49.109  29.442  26.979  1.00  0.00     0.029 A 
ATOM     57  C   UNL A   1      48.134  28.457  26.969  1.00  0.00     0.049 A 
ATOM     58  H   UNL A   1      46.064  28.635  27.335  1.00  0.00     0.167 HD
ATOM     59  C   UNL A   1      47.277  26.140  26.718  1.00  0.00     0.074 A 
ATOM     60  C   UNL A   1      47.454  24.725  26.454  1.00  0.00     0.031 C 
ATOM     61  C   UNL A   1      48.284  27.049  26.704  1.00  0.00     0.037 A 
BRANCH  48  62
ATOM     62  C   UNL A   1      46.493  32.839  27.955  1.00  0.00     0.058 A 
ATOM     63  C   UNL A   1      46.279  33.755  26.911  1.00  0.00     0.135 A 
ATOM     64  C   UNL A   1      47.061  33.327  29.142  1.00  0.00     0.135 A 
ATOM     65  F   UNL A   1      45.755  33.341  25.745  1.00  0.00    -0.206 F 
ATOM     66  C   UNL A   1      46.652  35.090  27.022  1.00  0.00     0.059 A 
ATOM     67  C   UNL A   1      47.413  34.666  29.288  1.00  0.00     0.059 A 
ATOM     68  F   UNL A   1      47.290  32.498  30.173  1.00  0.00    -0.206 F 
ATOM     69  C   UNL A   1      47.220  35.536  28.215  1.00  0.00     0.060 A 
BRANCH  69  70
ATOM     70  S   UNL A   1      47.699  37.271  28.343  1.00  0.00     0.124 S 
ATOM     71  O   UNL A   1      46.924  37.702  29.502  1.00  0.00    -0.237 OA
ATOM     72  O   UNL A   1      49.143  37.184  28.542  1.00  0.00    -0.237 OA
ATOM     73  O   UNL A   1      47.280  37.834  27.063  1.00  0.00    -0.744 OA
ENDBRANCH  69  70
ENDBRANCH  48  62
BRANCH  49  74
ATOM     74  C   UNL A   1      43.472  23.360  26.817  1.00  0.00     0.058 A 
ATOM     75  C   UNL A   1      43.381  22.801  25.532  1.00  0.00     0.135 A 
ATOM     76  C   UNL A   1      43.138  22.542  27.906  1.00  0.00     0.135 A 
ATOM     77  F   UNL A   1      43.681  23.543  24.455  1.00  0.00    -0.206 F 
ATOM     78  C   UNL A   1      42.961  21.488  25.332  1.00  0.00     0.059 A 
ATOM     79  C   UNL A   1      42.739  21.218  27.734  1.00  0.00     0.059 A 
ATOM     80  F   UNL A   1      43.223  23.020  29.158  1.00  0.00    -0.206 F 
ATOM     81  C   UNL A   1      42.644  20.703  26.442  1.00  0.00     0.060 A 
BRANCH  81  82
ATOM     82  S   UNL A   1      42.153  18.984  26.176  1.00  0.00     0.124 S 
ATOM     83  O   UNL A   1      40.746  19.131  25.825  1.00  0.00    -0.237 OA
ATOM     84  O   UNL A   1      43.043  18.575  25.093  1.00  0.00    -0.237 OA
ATOM     85  O   UNL A   1      42.422  18.357  27.467  1.00  0.00    -0.744 OA
ENDBRANCH  81  82
ENDBRANCH  49  74
BRANCH  61  86
ATOM     86  C   UNL A   1      49.665  26.535  26.405  1.00  0.00     0.058 A 
ATOM     87  C   UNL A   1      50.452  25.929  27.397  1.00  0.00     0.135 A 
ATOM     88  C   UNL A   1      50.195  26.626  25.109  1.00  0.00     0.135 A 
ATOM     89  F   UNL A   1      49.991  25.821  28.654  1.00  0.00    -0.206 F 
ATOM     90  C   UNL A   1      51.733  25.464  27.122  1.00  0.00     0.059 A 
ATOM     91  C   UNL A   1      51.462  26.140  24.805  1.00  0.00     0.059 A 
ATOM     92  F   UNL A   1      49.476  27.183  24.121  1.00  0.00    -0.206 F 
ATOM     93  C   UNL A   1      52.231  25.578  25.822  1.00  0.00     0.060 A 
BRANCH  93  94
ATOM     94  S   UNL A   1      53.893  24.966  25.477  1.00  0.00     0.124 S 
ATOM     95  O   UNL A   1      53.630  23.565  25.165  1.00  0.00    -0.237 OA
ATOM     96  O   UNL A   1      54.309  25.800  24.354  1.00  0.00    -0.237 OA
ATOM     97  O   UNL A   1      54.609  25.208  26.727  1.00  0.00    -0.744 OA
ENDBRANCH  93  94
ENDBRANCH  61  86
ENDBRANCH  35  36
ENDBRANCH  27  30
ENDBRANCH  25  26
ENDBRANCH  24  25
ENDBRANCH   1  24
TORSDOF 19
ENDMDL
MODEL 3
REMARK VINA RESULT:     -11.2      5.067     10.543
REMARK SMILES CC(C)(C)[NH2+]CC(=O)N[C@](C)(C(=O)NCCCCNC(=O)c1ccc(-c2c3nc(c(-c4c(F)cc(S(=O)(=O)[O-])cc4F)c4ccc([nH]4)c(-c4c(F)cc(S(=O)(=O)[O-])cc4F)c4nc(c(-c5c(F)cc(S(=O)(=O)[O-])cc5F)c5ccc2[nH]5)C=C4)C=C3)cc1)C1CC1
REMARK SMILES IDX 16 1 15 2 14 3 12 4 13 5 10 7 11 8 9 9 7 10 8 11 6 13 5 14
REMARK SMILES IDX 2 17 1 18 3 19 4 20 88 21 89 22 90 23 17 24 18 25 19 26
REMARK SMILES IDX 20 27 21 29 22 30 23 31 87 32 24 33 86 34 25 35 26 36 27 37
REMARK SMILES IDX 80 38 28 39 85 40 79 41 81 42 29 43 84 44 78 45 77 46 30 48
REMARK SMILES IDX 64 49 43 50 63 51 44 52 47 53 62 54 82 55 45 56 46 57 61 59
REMARK SMILES IDX 83 60 48 61 31 62 32 63 41 64 33 65 34 66 40 67 42 68 35 69
REMARK SMILES IDX 36 70 37 71 38 72 39 73 65 74 66 75 75 76 67 77 68 78 74 79
REMARK SMILES IDX 76 80 69 81 70 82 71 83 72 84 73 85 49 86 50 87 59 88 51 89
REMARK SMILES IDX 52 90 58 91 60 92 53 93 54 94 55 95 56 96 57 97
REMARK H PARENT 14 6 9 12 5 15 5 16 19 28 81 47 47 58
REMARK Flexibility Score: inf
ROOT
ATOM      1  C   UNL A   1      31.590  29.284  26.333  1.00  0.00     0.023 C 
ENDROOT
BRANCH   1   2
ATOM      2  C   UNL A   1      31.456  28.176  27.395  1.00  0.00     0.116 C 
BRANCH   2   3
ATOM      3  N   UNL A   1      30.891  26.865  26.901  1.00  0.00    -0.354 N 
ATOM      4  C   UNL A   1      30.879  25.818  26.035  1.00  0.00     0.245 C 
ATOM      5  O   UNL A   1      30.078  24.963  26.486  1.00  0.00    -0.272 OA
ATOM      6  H   UNL A   1      30.154  26.670  27.525  1.00  0.00     0.163 HD
BRANCH   4   7
ATOM      7  C   UNL A   1      31.484  25.462  24.514  1.00  0.00     0.119 C 
ATOM      8  C   UNL A   1      30.771  24.226  23.923  1.00  0.00     0.046 C 
BRANCH   7   9
ATOM      9  N   UNL A   1      31.678  26.447  23.411  1.00  0.00    -0.337 N 
ATOM     10  C   UNL A   1      30.800  27.251  22.734  1.00  0.00     0.275 C 
ATOM     11  O   UNL A   1      31.025  27.531  21.556  1.00  0.00    -0.268 OA
ATOM     12  H   UNL A   1      32.612  26.537  23.116  1.00  0.00     0.164 HD
BRANCH  10  13
ATOM     13  C   UNL A   1      29.709  27.901  23.530  1.00  0.00     0.362 C 
BRANCH  13  14
ATOM     14  N   UNL A   1      29.392  29.323  23.390  1.00  0.00    -0.334 N 
ATOM     15  H   UNL A   1      29.612  29.745  24.292  1.00  0.00     0.347 HD
ATOM     16  H   UNL A   1      29.931  29.559  22.556  1.00  0.00     0.347 HD
BRANCH  14  17
ATOM     17  C   UNL A   1      28.065  29.840  23.020  1.00  0.00     0.088 C 
ATOM     18  C   UNL A   1      27.608  31.181  23.644  1.00  0.00     0.078 C 
ATOM     19  C   UNL A   1      27.017  28.726  23.174  1.00  0.00     0.078 C 
ATOM     20  C   UNL A   1      28.164  30.162  21.513  1.00  0.00     0.078 C 
ENDBRANCH  14  17
ENDBRANCH  13  14
ENDBRANCH  10  13
ENDBRANCH   7   9
BRANCH   7  21
ATOM     21  C   UNL A   1      32.981  24.967  24.789  1.00  0.00     0.024 C 
ATOM     22  C   UNL A   1      34.003  25.758  25.611  1.00  0.00     0.007 C 
ATOM     23  C   UNL A   1      33.459  24.470  26.151  1.00  0.00     0.007 C 
ENDBRANCH   7  21
ENDBRANCH   4   7
ENDBRANCH   2   3
ENDBRANCH   1   2
BRANCH   1  24
ATOM     24  C   UNL A   1      32.895  29.334  25.529  1.00  0.00     0.023 C 
BRANCH  24  25
ATOM     25  C   UNL A   1      34.166  29.688  26.291  1.00  0.00     0.116 C 
BRANCH  25  26
ATOM     26  N   UNL A   1      34.025  30.666  27.366  1.00  0.00    -0.352 N 
ATOM     27  C   UNL A   1      34.929  30.934  28.384  1.00  0.00     0.251 C 
ATOM     28  H   UNL A   1      33.194  31.194  27.370  1.00  0.00     0.163 HD
ATOM     29  O   UNL A   1      34.687  31.779  29.242  1.00  0.00    -0.269 OA
BRANCH  27  30
ATOM     30  C   UNL A   1      36.178  30.135  28.456  1.00  0.00     0.039 A 
ATOM     31  C   UNL A   1      37.054  30.120  27.368  1.00  0.00     0.014 A 
ATOM     32  C   UNL A   1      36.551  29.546  29.664  1.00  0.00     0.014 A 
ATOM     33  C   UNL A   1      38.356  29.638  27.542  1.00  0.00     0.010 A 
ATOM     34  C   UNL A   1      37.880  29.189  29.866  1.00  0.00     0.010 A 
ATOM     35  C   UNL A   1      38.804  29.240  28.813  1.00  0.00    -0.014 A 
BRANCH  35  36
ATOM     36  C   UNL A   1      40.236  28.903  29.064  1.00  0.00     0.031 A 
ATOM     37  C   UNL A   1      41.153  29.910  29.708  1.00  0.00     0.074 A 
ATOM     38  C   UNL A   1      40.731  27.720  28.638  1.00  0.00     0.049 A 
ATOM     39  N   UNL A   1      42.429  29.809  29.984  1.00  0.00    -0.248 NA
ATOM     40  C   UNL A   1      40.576  31.223  30.042  1.00  0.00     0.031 C 
ATOM     41  C   UNL A   1      39.981  26.700  27.897  1.00  0.00     0.029 A 
ATOM     42  N   UNL A   1      41.984  27.170  28.767  1.00  0.00    -0.354 N 
ATOM     43  C   UNL A   1      42.803  31.045  30.502  1.00  0.00     0.074 A 
ATOM     44  C   UNL A   1      41.645  31.905  30.422  1.00  0.00     0.031 C 
ATOM     45  C   UNL A   1      40.769  25.633  27.686  1.00  0.00     0.029 A 
ATOM     46  C   UNL A   1      42.089  25.897  28.250  1.00  0.00     0.049 A 
ATOM     47  H   UNL A   1      42.737  27.642  29.189  1.00  0.00     0.167 HD
ATOM     48  C   UNL A   1      43.987  31.419  31.041  1.00  0.00     0.037 A 
ATOM     49  C   UNL A   1      43.125  25.035  28.247  1.00  0.00     0.037 A 
ATOM     50  C   UNL A   1      45.120  30.541  31.169  1.00  0.00     0.049 A 
ATOM     51  C   UNL A   1      44.411  25.445  28.914  1.00  0.00     0.074 A 
ATOM     52  C   UNL A   1      46.338  30.787  31.777  1.00  0.00     0.029 A 
ATOM     53  N   UNL A   1      45.169  29.242  30.683  1.00  0.00    -0.354 N 
ATOM     54  N   UNL A   1      44.714  26.585  29.491  1.00  0.00    -0.248 NA
ATOM     55  C   UNL A   1      45.490  24.449  28.946  1.00  0.00     0.031 C 
ATOM     56  C   UNL A   1      47.137  29.648  31.628  1.00  0.00     0.029 A 
ATOM     57  C   UNL A   1      46.401  28.678  30.964  1.00  0.00     0.049 A 
ATOM     58  H   UNL A   1      44.435  28.789  30.208  1.00  0.00     0.167 HD
ATOM     59  C   UNL A   1      46.011  26.437  29.968  1.00  0.00     0.074 A 
ATOM     60  C   UNL A   1      46.425  25.088  29.635  1.00  0.00     0.031 C 
ATOM     61  C   UNL A   1      46.793  27.335  30.617  1.00  0.00     0.037 A 
BRANCH  48  62
ATOM     62  C   UNL A   1      44.099  32.827  31.561  1.00  0.00     0.058 A 
ATOM     63  C   UNL A   1      43.795  33.145  32.896  1.00  0.00     0.135 A 
ATOM     64  C   UNL A   1      44.520  33.871  30.722  1.00  0.00     0.135 A 
ATOM     65  F   UNL A   1      43.370  32.190  33.739  1.00  0.00    -0.206 F 
ATOM     66  C   UNL A   1      43.864  34.452  33.368  1.00  0.00     0.059 A 
ATOM     67  C   UNL A   1      44.627  35.181  31.182  1.00  0.00     0.059 A 
ATOM     68  F   UNL A   1      44.822  33.627  29.437  1.00  0.00    -0.206 F 
ATOM     69  C   UNL A   1      44.279  35.463  32.503  1.00  0.00     0.060 A 
BRANCH  69  70
ATOM     70  S   UNL A   1      44.362  37.153  33.133  1.00  0.00     0.124 S 
ATOM     71  O   UNL A   1      43.008  37.338  33.647  1.00  0.00    -0.237 OA
ATOM     72  O   UNL A   1      45.415  37.060  34.140  1.00  0.00    -0.237 OA
ATOM     73  O   UNL A   1      44.697  37.941  31.951  1.00  0.00    -0.744 OA
ENDBRANCH  69  70
ENDBRANCH  48  62
BRANCH  49  74
ATOM     74  C   UNL A   1      42.972  23.679  27.648  1.00  0.00     0.058 A 
ATOM     75  C   UNL A   1      42.533  22.593  28.422  1.00  0.00     0.135 A 
ATOM     76  C   UNL A   1      43.250  23.441  26.294  1.00  0.00     0.135 A 
ATOM     77  F   UNL A   1      42.260  22.765  29.725  1.00  0.00    -0.206 F 
ATOM     78  C   UNL A   1      42.390  21.318  27.881  1.00  0.00     0.059 A 
ATOM     79  C   UNL A   1      43.092  22.180  25.723  1.00  0.00     0.059 A 
ATOM     80  F   UNL A   1      43.657  24.446  25.503  1.00  0.00    -0.206 F 
ATOM     81  C   UNL A   1      42.670  21.121  26.528  1.00  0.00     0.060 A 
BRANCH  81  82
ATOM     82  S   UNL A   1      42.429  19.476  25.822  1.00  0.00     0.124 S 
ATOM     83  O   UNL A   1      42.756  18.619  26.955  1.00  0.00    -0.237 OA
ATOM     84  O   UNL A   1      41.022  19.512  25.433  1.00  0.00    -0.237 OA
ATOM     85  O   UNL A   1      43.376  19.446  24.711  1.00  0.00    -0.744 OA
ENDBRANCH  81  82
ENDBRANCH  49  74
BRANCH  61  86
ATOM     86  C   UNL A   1      48.168  26.881  31.019  1.00  0.00     0.058 A 
ATOM     87  C   UNL A   1      48.421  26.345  32.291  1.00  0.00     0.135 A 
ATOM     88  C   UNL A   1      49.237  26.957  30.113  1.00  0.00     0.135 A 
ATOM     89  F   UNL A   1      47.432  26.254  33.195  1.00  0.00    -0.206 F 
ATOM     90  C   UNL A   1      49.696  25.935  32.665  1.00  0.00     0.059 A 
ATOM     91  C   UNL A   1      50.514  26.525  30.455  1.00  0.00     0.059 A 
ATOM     92  F   UNL A   1      49.045  27.448  28.878  1.00  0.00    -0.206 F 
ATOM     93  C   UNL A   1      50.738  26.033  31.740  1.00  0.00     0.060 A 
BRANCH  93  94
ATOM     94  S   UNL A   1      52.386  25.493  32.235  1.00  0.00     0.124 S 
ATOM     95  O   UNL A   1      52.549  26.180  33.512  1.00  0.00    -0.237 OA
ATOM     96  O   UNL A   1      52.235  24.044  32.309  1.00  0.00    -0.237 OA
ATOM     97  O   UNL A   1      53.239  25.973  31.151  1.00  0.00    -0.744 OA
ENDBRANCH  93  94
ENDBRANCH  61  86
ENDBRANCH  35  36
ENDBRANCH  27  30
ENDBRANCH  25  26
ENDBRANCH  24  25
ENDBRANCH   1  24
TORSDOF 19
ENDMDL
