MODEL 1
REMARK VINA RESULT:     -13.4      0.000      0.000
REMARK SMILES O=C(NCCCCNC(=O)[C@H]1[C@H]2CC[C@H](CC2)[C@@H]1C(=O)Nc1ccc(Cc2ccncc2)cc1)c1ccc(-c2c3nc(c(-c4c(F)cc(S(=O)(=O)[O-])cc4F)c4ccc([nH]4)c(-c4c(F)cc(S(=O)(=O)[O-])cc4F)c4nc(c(-c5c(F)cc(S(=O)(=O)[O-])cc5F)c5ccc2[nH]5)C=C4)C=C3)cc1
REMARK SMILES IDX 6 1 5 2 4 3 3 4 1 5 2 6 35 8 36 9 100 10 37 11 99 12 38 13
REMARK SMILES IDX 39 14 40 15 93 16 41 17 98 18 92 19 94 20 42 21 97 22 91 23
REMARK SMILES IDX 90 24 43 26 77 27 56 28 76 29 57 30 60 31 75 32 95 33 58 34
REMARK SMILES IDX 59 35 74 37 96 38 61 39 44 40 45 41 54 42 46 43 47 44 53 45
REMARK SMILES IDX 55 46 48 47 49 48 50 49 51 50 52 51 78 52 79 53 88 54 80 55
REMARK SMILES IDX 81 56 87 57 89 58 82 59 83 60 84 61 85 62 86 63 62 64 63 65
REMARK SMILES IDX 72 66 64 67 65 68 71 69 73 70 66 71 67 72 68 73 69 74 70 75
REMARK SMILES IDX 7 76 8 77 9 78 10 80 11 81 12 82 18 83 13 84 17 85 15 86
REMARK SMILES IDX 14 87 16 88 19 89 20 90 21 91 22 93 23 94 34 95 24 96 33 97
REMARK SMILES IDX 25 98 26 99 27 100 28 101 32 102 29 103 31 104 30 105
REMARK H PARENT 3 7 94 25 60 36 8 79 21 92
REMARK Flexibility Score: inf
ROOT
ATOM      1  C   UNL A   1      36.990  23.437  24.675  1.00  0.00     0.023 C 
ENDROOT
BRANCH   1   2
ATOM      2  C   UNL A   1      37.852  22.834  25.800  1.00  0.00     0.023 C 
BRANCH   2   3
ATOM      3  C   UNL A   1      38.774  23.777  26.582  1.00  0.00     0.116 C 
BRANCH   3   4
ATOM      4  N   UNL A   1      40.171  23.693  26.189  1.00  0.00    -0.352 N 
ATOM      5  O   UNL A   1      42.338  24.220  25.974  1.00  0.00    -0.269 OA
ATOM      6  C   UNL A   1      41.268  24.459  26.533  1.00  0.00     0.251 C 
ATOM      7  H   UNL A   1      40.372  22.959  25.565  1.00  0.00     0.163 HD
BRANCH   6   8
ATOM      8  C   UNL A   1      41.204  25.569  27.526  1.00  0.00     0.039 A 
ATOM      9  C   UNL A   1      42.104  26.637  27.532  1.00  0.00     0.014 A 
ATOM     10  C   UNL A   1      40.170  25.559  28.477  1.00  0.00     0.014 A 
ATOM     11  C   UNL A   1      42.053  27.597  28.560  1.00  0.00     0.010 A 
ATOM     12  C   UNL A   1      40.088  26.549  29.473  1.00  0.00     0.010 A 
ATOM     13  C   UNL A   1      41.054  27.560  29.559  1.00  0.00    -0.014 A 
BRANCH  13  14
ATOM     14  C   UNL A   1      40.984  28.607  30.630  1.00  0.00     0.031 A 
ATOM     15  C   UNL A   1      41.839  28.576  31.884  1.00  0.00     0.074 A 
ATOM     16  C   UNL A   1      40.094  29.608  30.480  1.00  0.00     0.049 A 
ATOM     17  N   UNL A   1      41.849  29.405  32.904  1.00  0.00    -0.248 NA
ATOM     18  C   UNL A   1      42.822  27.495  32.007  1.00  0.00     0.031 C 
ATOM     19  C   UNL A   1      39.208  29.776  29.327  1.00  0.00     0.029 A 
ATOM     20  N   UNL A   1      39.767  30.653  31.307  1.00  0.00    -0.354 N 
ATOM     21  C   UNL A   1      42.842  28.951  33.775  1.00  0.00     0.074 A 
ATOM     22  C   UNL A   1      43.415  27.773  33.161  1.00  0.00     0.031 C 
ATOM     23  C   UNL A   1      38.436  30.850  29.521  1.00  0.00     0.029 A 
ATOM     24  C   UNL A   1      38.704  31.392  30.847  1.00  0.00     0.049 A 
ATOM     25  H   UNL A   1      40.244  30.853  32.145  1.00  0.00     0.167 HD
ATOM     26  C   UNL A   1      43.221  29.445  34.982  1.00  0.00     0.037 A 
ATOM     27  C   UNL A   1      37.969  32.352  31.438  1.00  0.00     0.037 A 
ATOM     28  C   UNL A   1      42.593  30.575  35.627  1.00  0.00     0.049 A 
ATOM     29  C   UNL A   1      38.321  32.816  32.816  1.00  0.00     0.074 A 
ATOM     30  C   UNL A   1      42.912  31.161  36.842  1.00  0.00     0.029 A 
ATOM     31  N   UNL A   1      41.490  31.260  35.137  1.00  0.00    -0.354 N 
ATOM     32  N   UNL A   1      39.282  32.396  33.601  1.00  0.00    -0.248 NA
ATOM     33  C   UNL A   1      37.493  33.885  33.388  1.00  0.00     0.031 C 
ATOM     34  C   UNL A   1      41.958  32.146  37.119  1.00  0.00     0.029 A 
ATOM     35  C   UNL A   1      41.093  32.232  36.042  1.00  0.00     0.049 A 
ATOM     36  H   UNL A   1      41.054  31.081  34.272  1.00  0.00     0.167 HD
ATOM     37  C   UNL A   1      39.195  33.170  34.752  1.00  0.00     0.074 A 
ATOM     38  C   UNL A   1      38.084  34.080  34.561  1.00  0.00     0.031 C 
ATOM     39  C   UNL A   1      39.982  33.135  35.856  1.00  0.00     0.037 A 
BRANCH  26  40
ATOM     40  C   UNL A   1      44.330  28.740  35.732  1.00  0.00     0.058 A 
ATOM     41  C   UNL A   1      45.681  29.091  35.574  1.00  0.00     0.135 A 
ATOM     42  C   UNL A   1      44.029  27.742  36.676  1.00  0.00     0.135 A 
ATOM     43  F   UNL A   1      46.037  30.039  34.693  1.00  0.00    -0.206 F 
ATOM     44  C   UNL A   1      46.692  28.457  36.298  1.00  0.00     0.059 A 
ATOM     45  C   UNL A   1      45.020  27.115  37.430  1.00  0.00     0.059 A 
ATOM     46  F   UNL A   1      42.756  27.372  36.884  1.00  0.00    -0.206 F 
ATOM     47  C   UNL A   1      46.352  27.465  37.220  1.00  0.00     0.060 A 
BRANCH  47  48
ATOM     48  S   UNL A   1      47.674  26.636  38.130  1.00  0.00     0.124 S 
ATOM     49  O   UNL A   1      48.689  27.685  38.192  1.00  0.00    -0.237 OA
ATOM     50  O   UNL A   1      47.028  26.308  39.396  1.00  0.00    -0.237 OA
ATOM     51  O   UNL A   1      48.009  25.493  37.285  1.00  0.00    -0.744 OA
ENDBRANCH  47  48
ENDBRANCH  26  40
BRANCH  27  52
ATOM     52  C   UNL A   1      36.797  32.887  30.700  1.00  0.00     0.058 A 
ATOM     53  C   UNL A   1      35.492  32.535  31.063  1.00  0.00     0.135 A 
ATOM     54  C   UNL A   1      36.966  33.871  29.711  1.00  0.00     0.135 A 
ATOM     55  F   UNL A   1      35.284  31.597  31.999  1.00  0.00    -0.206 F 
ATOM     56  C   UNL A   1      34.391  33.161  30.489  1.00  0.00     0.059 A 
ATOM     57  C   UNL A   1      35.882  34.532  29.146  1.00  0.00     0.059 A 
ATOM     58  F   UNL A   1      38.201  34.256  29.349  1.00  0.00    -0.206 F 
ATOM     59  C   UNL A   1      34.597  34.171  29.547  1.00  0.00     0.060 A 
BRANCH  59  60
ATOM     60  S   UNL A   1      33.165  35.068  28.912  1.00  0.00     0.124 S 
ATOM     61  O   UNL A   1      32.654  34.133  27.915  1.00  0.00    -0.237 OA
ATOM     62  O   UNL A   1      32.350  35.227  30.113  1.00  0.00    -0.237 OA
ATOM     63  O   UNL A   1      33.742  36.299  28.389  1.00  0.00    -0.744 OA
ENDBRANCH  59  60
ENDBRANCH  27  52
BRANCH  39  64
ATOM     64  C   UNL A   1      39.709  34.144  36.937  1.00  0.00     0.058 A 
ATOM     65  C   UNL A   1      39.055  33.802  38.131  1.00  0.00     0.135 A 
ATOM     66  C   UNL A   1      40.165  35.465  36.795  1.00  0.00     0.135 A 
ATOM     67  F   UNL A   1      38.586  32.557  38.313  1.00  0.00    -0.206 F 
ATOM     68  C   UNL A   1      38.852  34.737  39.141  1.00  0.00     0.059 A 
ATOM     69  C   UNL A   1      39.998  36.409  37.804  1.00  0.00     0.059 A 
ATOM     70  F   UNL A   1      40.799  35.845  35.674  1.00  0.00    -0.206 F 
ATOM     71  C   UNL A   1      39.334  36.037  38.971  1.00  0.00     0.060 A 
BRANCH  71  72
ATOM     72  S   UNL A   1      39.111  37.227  40.311  1.00  0.00     0.124 S 
ATOM     73  O   UNL A   1      38.542  38.368  39.601  1.00  0.00    -0.237 OA
ATOM     74  O   UNL A   1      38.202  36.519  41.206  1.00  0.00    -0.237 OA
ATOM     75  O   UNL A   1      40.464  37.419  40.824  1.00  0.00    -0.744 OA
ENDBRANCH  71  72
ENDBRANCH  39  64
ENDBRANCH  13  14
ENDBRANCH   6   8
ENDBRANCH   3   4
ENDBRANCH   2   3
ENDBRANCH   1   2
BRANCH   1  76
ATOM     76  C   UNL A   1      35.641  24.058  25.069  1.00  0.00     0.116 C 
BRANCH  76  77
ATOM     77  N   UNL A   1      34.747  24.326  23.955  1.00  0.00    -0.356 N 
ATOM     78  C   UNL A   1      33.622  25.089  23.837  1.00  0.00     0.224 C 
ATOM     79  H   UNL A   1      35.003  23.868  23.122  1.00  0.00     0.163 HD
ATOM     80  O   UNL A   1      33.131  25.162  22.707  1.00  0.00    -0.275 OA
BRANCH  78  81
ATOM     81  C   UNL A   1      32.947  25.757  25.050  1.00  0.00     0.094 C 
ATOM     82  C   UNL A   1      33.703  27.105  25.266  1.00  0.00     0.002 C 
ATOM     83  C   UNL A   1      31.410  26.060  24.907  1.00  0.00     0.094 C 
ATOM     84  C   UNL A   1      33.292  28.183  24.225  1.00  0.00     0.005 C 
ATOM     85  C   UNL A   1      33.311  27.630  26.650  1.00  0.00     0.005 C 
ATOM     86  C   UNL A   1      31.143  27.545  25.338  1.00  0.00     0.002 C 
ATOM     87  C   UNL A   1      31.783  28.446  24.268  1.00  0.00     0.005 C 
ATOM     88  C   UNL A   1      31.806  27.907  26.686  1.00  0.00     0.005 C 
BRANCH  83  89
ATOM     89  C   UNL A   1      30.481  25.125  25.724  1.00  0.00     0.228 C 
ATOM     90  O   UNL A   1      29.497  25.580  26.321  1.00  0.00    -0.274 OA
ATOM     91  N   UNL A   1      30.629  23.762  25.778  1.00  0.00    -0.326 N 
ATOM     92  H   UNL A   1      29.831  23.297  26.121  1.00  0.00     0.169 HD
BRANCH  91  93
ATOM     93  C   UNL A   1      31.681  22.892  25.449  1.00  0.00     0.041 A 
ATOM     94  C   UNL A   1      31.772  22.333  24.177  1.00  0.00     0.026 A 
ATOM     95  C   UNL A   1      32.615  22.486  26.375  1.00  0.00     0.026 A 
ATOM     96  C   UNL A   1      32.781  21.394  23.892  1.00  0.00     0.006 A 
ATOM     97  C   UNL A   1      33.587  21.533  26.136  1.00  0.00     0.006 A 
ATOM     98  C   UNL A   1      33.675  20.960  24.884  1.00  0.00    -0.043 A 
BRANCH  98  99
ATOM     99  C   UNL A   1      34.665  19.842  24.682  1.00  0.00     0.071 C 
BRANCH  99 100
ATOM    100  C   UNL A   1      34.002  18.493  24.661  1.00  0.00    -0.041 A 
ATOM    101  C   UNL A   1      32.937  18.189  25.519  1.00  0.00     0.024 A 
ATOM    102  C   UNL A   1      34.447  17.509  23.789  1.00  0.00     0.024 A 
ATOM    103  C   UNL A   1      32.399  16.916  25.513  1.00  0.00     0.111 A 
ATOM    104  C   UNL A   1      33.817  16.287  23.843  1.00  0.00     0.111 A 
ATOM    105  N   UNL A   1      32.828  15.946  24.694  1.00  0.00    -0.265 NA
ENDBRANCH  99 100
ENDBRANCH  98  99
ENDBRANCH  91  93
ENDBRANCH  83  89
ENDBRANCH  78  81
ENDBRANCH  76  77
ENDBRANCH   1  76
TORSDOF 18
ENDMDL
MODEL 2
REMARK VINA RESULT:     -13.3      6.167     11.199
REMARK SMILES O=C(NCCCCNC(=O)[C@H]1[C@H]2CC[C@H](CC2)[C@@H]1C(=O)Nc1ccc(Cc2ccncc2)cc1)c1ccc(-c2c3nc(c(-c4c(F)cc(S(=O)(=O)[O-])cc4F)c4ccc([nH]4)c(-c4c(F)cc(S(=O)(=O)[O-])cc4F)c4nc(c(-c5c(F)cc(S(=O)(=O)[O-])cc5F)c5ccc2[nH]5)C=C4)C=C3)cc1
REMARK SMILES IDX 6 1 5 2 4 3 3 4 1 5 2 6 35 8 36 9 100 10 37 11 99 12 38 13
REMARK SMILES IDX 39 14 40 15 93 16 41 17 98 18 92 19 94 20 42 21 97 22 91 23
REMARK SMILES IDX 90 24 43 26 77 27 56 28 76 29 57 30 60 31 75 32 95 33 58 34
REMARK SMILES IDX 59 35 74 37 96 38 61 39 44 40 45 41 54 42 46 43 47 44 53 45
REMARK SMILES IDX 55 46 48 47 49 48 50 49 51 50 52 51 78 52 79 53 88 54 80 55
REMARK SMILES IDX 81 56 87 57 89 58 82 59 83 60 84 61 85 62 86 63 62 64 63 65
REMARK SMILES IDX 72 66 64 67 65 68 71 69 73 70 66 71 67 72 68 73 69 74 70 75
REMARK SMILES IDX 7 76 8 77 9 78 10 80 11 81 12 82 18 83 13 84 17 85 15 86
REMARK SMILES IDX 14 87 16 88 19 89 20 90 21 91 22 93 23 94 34 95 24 96 33 97
REMARK SMILES IDX 25 98 26 99 27 100 28 101 32 102 29 103 31 104 30 105
REMARK H PARENT 3 7 94 25 60 36 8 79 21 92
REMARK Flexibility Score: inf
ROOT
ATOM      1  C   UNL A   1      33.032  30.658  27.222  1.00  0.00     0.023 C 
ENDROOT
BRANCH   1   2
ATOM      2  C   UNL A   1      34.559  30.465  27.283  1.00  0.00     0.023 C 
BRANCH   2   3
ATOM      3  C   UNL A   1      35.374  31.448  28.131  1.00  0.00     0.116 C 
BRANCH   3   4
ATOM      4  N   UNL A   1      35.319  31.180  29.559  1.00  0.00    -0.352 N 
ATOM      5  O   UNL A   1      35.909  30.451  31.594  1.00  0.00    -0.269 OA
ATOM      6  C   UNL A   1      36.256  30.661  30.431  1.00  0.00     0.251 C 
ATOM      7  H   UNL A   1      34.459  31.409  29.980  1.00  0.00     0.163 HD
BRANCH   6   8
ATOM      8  C   UNL A   1      37.649  30.324  30.021  1.00  0.00     0.039 A 
ATOM      9  C   UNL A   1      38.020  30.107  28.692  1.00  0.00     0.014 A 
ATOM     10  C   UNL A   1      38.641  30.258  31.014  1.00  0.00     0.014 A 
ATOM     11  C   UNL A   1      39.328  29.690  28.385  1.00  0.00     0.010 A 
ATOM     12  C   UNL A   1      39.962  29.892  30.698  1.00  0.00     0.010 A 
ATOM     13  C   UNL A   1      40.319  29.558  29.385  1.00  0.00    -0.014 A 
BRANCH  13  14
ATOM     14  C   UNL A   1      41.720  29.149  29.044  1.00  0.00     0.031 A 
ATOM     15  C   UNL A   1      42.879  30.125  28.963  1.00  0.00     0.074 A 
ATOM     16  C   UNL A   1      41.950  27.850  28.766  1.00  0.00     0.049 A 
ATOM     17  N   UNL A   1      44.135  29.902  28.644  1.00  0.00    -0.248 NA
ATOM     18  C   UNL A   1      42.609  31.526  29.303  1.00  0.00     0.031 C 
ATOM     19  C   UNL A   1      40.939  26.793  28.807  1.00  0.00     0.029 A 
ATOM     20  N   UNL A   1      43.093  27.203  28.368  1.00  0.00    -0.354 N 
ATOM     21  C   UNL A   1      44.796  31.126  28.757  1.00  0.00     0.074 A 
ATOM     22  C   UNL A   1      43.803  32.090  29.178  1.00  0.00     0.031 C 
ATOM     23  C   UNL A   1      41.500  25.635  28.444  1.00  0.00     0.029 A 
ATOM     24  C   UNL A   1      42.884  25.882  28.056  1.00  0.00     0.049 A 
ATOM     25  H   UNL A   1      43.974  27.641  28.312  1.00  0.00     0.167 HD
ATOM     26  C   UNL A   1      46.097  31.428  28.507  1.00  0.00     0.037 A 
ATOM     27  C   UNL A   1      43.679  24.975  27.458  1.00  0.00     0.037 A 
ATOM     28  C   UNL A   1      47.067  30.480  28.011  1.00  0.00     0.049 A 
ATOM     29  C   UNL A   1      45.077  25.347  27.079  1.00  0.00     0.074 A 
ATOM     30  C   UNL A   1      48.411  30.683  27.739  1.00  0.00     0.029 A 
ATOM     31  N   UNL A   1      46.791  29.163  27.669  1.00  0.00    -0.354 N 
ATOM     32  N   UNL A   1      45.688  26.497  27.228  1.00  0.00    -0.248 NA
ATOM     33  C   UNL A   1      45.896  24.300  26.455  1.00  0.00     0.031 C 
ATOM     34  C   UNL A   1      48.925  29.516  27.163  1.00  0.00     0.029 A 
ATOM     35  C   UNL A   1      47.926  28.558  27.151  1.00  0.00     0.049 A 
ATOM     36  H   UNL A   1      45.916  28.724  27.778  1.00  0.00     0.167 HD
ATOM     37  C   UNL A   1      46.976  26.305  26.742  1.00  0.00     0.074 A 
ATOM     38  C   UNL A   1      47.053  24.930  26.292  1.00  0.00     0.031 C 
ATOM     39  C   UNL A   1      48.002  27.191  26.695  1.00  0.00     0.037 A 
BRANCH  26  40
ATOM     40  C   UNL A   1      46.553  32.858  28.699  1.00  0.00     0.058 A 
ATOM     41  C   UNL A   1      47.101  33.313  29.910  1.00  0.00     0.135 A 
ATOM     42  C   UNL A   1      46.504  33.772  27.630  1.00  0.00     0.135 A 
ATOM     43  F   UNL A   1      47.181  32.491  30.968  1.00  0.00    -0.206 F 
ATOM     44  C   UNL A   1      47.551  34.624  30.063  1.00  0.00     0.059 A 
ATOM     45  C   UNL A   1      46.973  35.079  27.753  1.00  0.00     0.059 A 
ATOM     46  F   UNL A   1      46.006  33.394  26.442  1.00  0.00    -0.206 F 
ATOM     47  C   UNL A   1      47.478  35.503  28.980  1.00  0.00     0.060 A 
BRANCH  47  48
ATOM     48  S   UNL A   1      48.040  37.206  29.203  1.00  0.00     0.124 S 
ATOM     49  O   UNL A   1      47.606  37.479  30.571  1.00  0.00    -0.237 OA
ATOM     50  O   UNL A   1      49.481  37.089  29.009  1.00  0.00    -0.237 OA
ATOM     51  O   UNL A   1      47.326  37.942  28.163  1.00  0.00    -0.744 OA
ENDBRANCH  47  48
ENDBRANCH  26  40
BRANCH  27  52
ATOM     52  C   UNL A   1      43.108  23.637  27.158  1.00  0.00     0.058 A 
ATOM     53  C   UNL A   1      42.748  23.280  25.854  1.00  0.00     0.135 A 
ATOM     54  C   UNL A   1      43.050  22.648  28.155  1.00  0.00     0.135 A 
ATOM     55  F   UNL A   1      42.785  24.194  24.872  1.00  0.00    -0.206 F 
ATOM     56  C   UNL A   1      42.375  21.979  25.540  1.00  0.00     0.059 A 
ATOM     57  C   UNL A   1      42.709  21.334  27.859  1.00  0.00     0.059 A 
ATOM     58  F   UNL A   1      43.409  22.942  29.415  1.00  0.00    -0.206 F 
ATOM     59  C   UNL A   1      42.378  21.009  26.545  1.00  0.00     0.060 A 
BRANCH  59  60
ATOM     60  S   UNL A   1      42.024  19.296  26.097  1.00  0.00     0.124 S 
ATOM     61  O   UNL A   1      42.860  19.127  24.911  1.00  0.00    -0.237 OA
ATOM     62  O   UNL A   1      42.457  18.574  27.290  1.00  0.00    -0.237 OA
ATOM     63  O   UNL A   1      40.586  19.298  25.862  1.00  0.00    -0.744 OA
ENDBRANCH  59  60
ENDBRANCH  27  52
BRANCH  39  64
ATOM     64  C   UNL A   1      49.326  26.695  26.182  1.00  0.00     0.058 A 
ATOM     65  C   UNL A   1      49.793  27.005  24.896  1.00  0.00     0.135 A 
ATOM     66  C   UNL A   1      50.166  25.942  27.020  1.00  0.00     0.135 A 
ATOM     67  F   UNL A   1      49.024  27.710  24.049  1.00  0.00    -0.206 F 
ATOM     68  C   UNL A   1      51.040  26.578  24.454  1.00  0.00     0.059 A 
ATOM     69  C   UNL A   1      51.429  25.529  26.608  1.00  0.00     0.059 A 
ATOM     70  F   UNL A   1      49.770  25.620  28.261  1.00  0.00    -0.206 F 
ATOM     71  C   UNL A   1      51.855  25.846  25.321  1.00  0.00     0.060 A 
BRANCH  71  72
ATOM     72  S   UNL A   1      53.494  25.342  24.752  1.00  0.00     0.124 S 
ATOM     73  O   UNL A   1      54.352  26.304  25.436  1.00  0.00    -0.237 OA
ATOM     74  O   UNL A   1      53.578  23.966  25.228  1.00  0.00    -0.237 OA
ATOM     75  O   UNL A   1      53.412  25.494  23.302  1.00  0.00    -0.744 OA
ENDBRANCH  71  72
ENDBRANCH  39  64
ENDBRANCH  13  14
ENDBRANCH   6   8
ENDBRANCH   3   4
ENDBRANCH   2   3
ENDBRANCH   1   2
BRANCH   1  76
ATOM     76  C   UNL A   1      32.153  29.403  27.331  1.00  0.00     0.116 C 
BRANCH  76  77
ATOM     77  N   UNL A   1      32.855  28.148  27.124  1.00  0.00    -0.356 N 
ATOM     78  C   UNL A   1      32.889  27.270  26.081  1.00  0.00     0.224 C 
ATOM     79  H   UNL A   1      33.417  27.878  27.887  1.00  0.00     0.163 HD
ATOM     80  O   UNL A   1      33.662  26.315  26.199  1.00  0.00    -0.275 OA
BRANCH  78  81
ATOM     81  C   UNL A   1      31.961  27.405  24.858  1.00  0.00     0.094 C 
ATOM     82  C   UNL A   1      32.580  28.536  23.980  1.00  0.00     0.002 C 
ATOM     83  C   UNL A   1      31.793  26.116  23.971  1.00  0.00     0.094 C 
ATOM     84  C   UNL A   1      33.832  28.055  23.195  1.00  0.00     0.005 C 
ATOM     85  C   UNL A   1      31.522  28.945  22.952  1.00  0.00     0.005 C 
ATOM     86  C   UNL A   1      32.007  26.505  22.466  1.00  0.00     0.002 C 
ATOM     87  C   UNL A   1      33.494  26.858  22.299  1.00  0.00     0.005 C 
ATOM     88  C   UNL A   1      31.198  27.753  22.048  1.00  0.00     0.005 C 
BRANCH  83  89
ATOM     89  C   UNL A   1      30.427  25.397  24.116  1.00  0.00     0.228 C 
ATOM     90  O   UNL A   1      29.374  26.046  24.148  1.00  0.00    -0.274 OA
ATOM     91  N   UNL A   1      30.283  24.032  24.139  1.00  0.00    -0.326 N 
ATOM     92  H   UNL A   1      29.357  23.736  23.983  1.00  0.00     0.169 HD
BRANCH  91  93
ATOM     93  C   UNL A   1      31.180  22.971  24.340  1.00  0.00     0.041 A 
ATOM     94  C   UNL A   1      31.616  22.639  25.619  1.00  0.00     0.026 A 
ATOM     95  C   UNL A   1      31.735  22.271  23.292  1.00  0.00     0.026 A 
ATOM     96  C   UNL A   1      32.585  21.633  25.793  1.00  0.00     0.006 A 
ATOM     97  C   UNL A   1      32.720  21.311  23.430  1.00  0.00     0.006 A 
ATOM     98  C   UNL A   1      33.171  20.986  24.693  1.00  0.00    -0.043 A 
BRANCH  98  99
ATOM     99  C   UNL A   1      34.324  20.023  24.809  1.00  0.00     0.071 C 
BRANCH  99 100
ATOM    100  C   UNL A   1      33.875  18.589  24.735  1.00  0.00    -0.041 A 
ATOM    101  C   UNL A   1      32.762  18.134  25.454  1.00  0.00     0.024 A 
ATOM    102  C   UNL A   1      34.572  17.678  23.954  1.00  0.00     0.024 A 
ATOM    103  C   UNL A   1      32.423  16.795  25.409  1.00  0.00     0.111 A 
ATOM    104  C   UNL A   1      34.127  16.376  23.955  1.00  0.00     0.111 A 
ATOM    105  N   UNL A   1      33.095  15.896  24.678  1.00  0.00    -0.265 NA
ENDBRANCH  99 100
ENDBRANCH  98  99
ENDBRANCH  91  93
ENDBRANCH  83  89
ENDBRANCH  78  81
ENDBRANCH  76  77
ENDBRANCH   1  76
TORSDOF 18
ENDMDL
MODEL 3
REMARK VINA RESULT:     -12.8      6.080     11.158
REMARK SMILES O=C(NCCCCNC(=O)[C@H]1[C@H]2CC[C@H](CC2)[C@@H]1C(=O)Nc1ccc(Cc2ccncc2)cc1)c1ccc(-c2c3nc(c(-c4c(F)cc(S(=O)(=O)[O-])cc4F)c4ccc([nH]4)c(-c4c(F)cc(S(=O)(=O)[O-])cc4F)c4nc(c(-c5c(F)cc(S(=O)(=O)[O-])cc5F)c5ccc2[nH]5)C=C4)C=C3)cc1
REMARK SMILES IDX 6 1 5 2 4 3 3 4 1 5 2 6 35 8 36 9 100 10 37 11 99 12 38 13
REMARK SMILES IDX 39 14 40 15 93 16 41 17 98 18 92 19 94 20 42 21 97 22 91 23
REMARK SMILES IDX 90 24 43 26 77 27 56 28 76 29 57 30 60 31 75 32 95 33 58 34
REMARK SMILES IDX 59 35 74 37 96 38 61 39 44 40 45 41 54 42 46 43 47 44 53 45
REMARK SMILES IDX 55 46 48 47 49 48 50 49 51 50 52 51 78 52 79 53 88 54 80 55
REMARK SMILES IDX 81 56 87 57 89 58 82 59 83 60 84 61 85 62 86 63 62 64 63 65
REMARK SMILES IDX 72 66 64 67 65 68 71 69 73 70 66 71 67 72 68 73 69 74 70 75
REMARK SMILES IDX 7 76 8 77 9 78 10 80 11 81 12 82 18 83 13 84 17 85 15 86
REMARK SMILES IDX 14 87 16 88 19 89 20 90 21 91 22 93 23 94 34 95 24 96 33 97
REMARK SMILES IDX 25 98 26 99 27 100 28 101 32 102 29 103 31 104 30 105
REMARK H PARENT 3 7 94 25 60 36 8 79 21 92
REMARK Flexibility Score: inf
ROOT
ATOM      1  C   UNL A   1      33.025  30.794  27.209  1.00  0.00     0.023 C 
ENDROOT
BRANCH   1   2
ATOM      2  C   UNL A   1      34.486  30.311  27.250  1.00  0.00     0.023 C 
BRANCH   2   3
ATOM      3  C   UNL A   1      35.518  31.200  27.954  1.00  0.00     0.116 C 
BRANCH   3   4
ATOM      4  N   UNL A   1      35.372  31.238  29.400  1.00  0.00    -0.352 N 
ATOM      5  O   UNL A   1      35.810  30.922  31.575  1.00  0.00    -0.269 OA
ATOM      6  C   UNL A   1      36.229  30.869  30.418  1.00  0.00     0.251 C 
ATOM      7  H   UNL A   1      34.505  31.589  29.710  1.00  0.00     0.163 HD
BRANCH   6   8
ATOM      8  C   UNL A   1      37.620  30.390  30.176  1.00  0.00     0.039 A 
ATOM      9  C   UNL A   1      38.503  30.063  31.208  1.00  0.00     0.014 A 
ATOM     10  C   UNL A   1      38.050  30.226  28.849  1.00  0.00     0.014 A 
ATOM     11  C   UNL A   1      39.835  29.718  30.914  1.00  0.00     0.010 A 
ATOM     12  C   UNL A   1      39.367  29.829  28.555  1.00  0.00     0.010 A 
ATOM     13  C   UNL A   1      40.296  29.611  29.581  1.00  0.00    -0.014 A 
BRANCH  13  14
ATOM     14  C   UNL A   1      41.707  29.207  29.275  1.00  0.00     0.031 A 
ATOM     15  C   UNL A   1      42.869  30.184  29.255  1.00  0.00     0.074 A 
ATOM     16  C   UNL A   1      41.944  27.915  28.974  1.00  0.00     0.049 A 
ATOM     17  N   UNL A   1      44.134  29.966  28.972  1.00  0.00    -0.248 NA
ATOM     18  C   UNL A   1      42.589  31.576  29.619  1.00  0.00     0.031 C 
ATOM     19  C   UNL A   1      40.931  26.859  28.957  1.00  0.00     0.029 A 
ATOM     20  N   UNL A   1      43.099  27.276  28.598  1.00  0.00    -0.354 N 
ATOM     21  C   UNL A   1      44.792  31.186  29.134  1.00  0.00     0.074 A 
ATOM     22  C   UNL A   1      43.787  32.141  29.546  1.00  0.00     0.031 C 
ATOM     23  C   UNL A   1      41.503  25.709  28.585  1.00  0.00     0.029 A 
ATOM     24  C   UNL A   1      42.899  25.963  28.247  1.00  0.00     0.049 A 
ATOM     25  H   UNL A   1      43.981  27.714  28.580  1.00  0.00     0.167 HD
ATOM     26  C   UNL A   1      46.101  31.492  28.933  1.00  0.00     0.037 A 
ATOM     27  C   UNL A   1      43.711  25.070  27.653  1.00  0.00     0.037 A 
ATOM     28  C   UNL A   1      47.085  30.554  28.446  1.00  0.00     0.049 A 
ATOM     29  C   UNL A   1      45.121  25.448  27.328  1.00  0.00     0.074 A 
ATOM     30  C   UNL A   1      48.437  30.761  28.223  1.00  0.00     0.029 A 
ATOM     31  N   UNL A   1      46.819  29.246  28.064  1.00  0.00    -0.354 N 
ATOM     32  N   UNL A   1      45.728  26.593  27.524  1.00  0.00    -0.248 NA
ATOM     33  C   UNL A   1      45.959  24.415  26.707  1.00  0.00     0.031 C 
ATOM     34  C   UNL A   1      48.969  29.608  27.635  1.00  0.00     0.029 A 
ATOM     35  C   UNL A   1      47.969  28.652  27.569  1.00  0.00     0.049 A 
ATOM     36  H   UNL A   1      45.941  28.806  28.135  1.00  0.00     0.167 HD
ATOM     37  C   UNL A   1      47.031  26.411  27.076  1.00  0.00     0.074 A 
ATOM     38  C   UNL A   1      47.121  25.047  26.595  1.00  0.00     0.031 C 
ATOM     39  C   UNL A   1      48.059  27.295  27.083  1.00  0.00     0.037 A 
BRANCH  26  40
ATOM     40  C   UNL A   1      46.552  32.916  29.174  1.00  0.00     0.058 A 
ATOM     41  C   UNL A   1      46.510  33.895  28.167  1.00  0.00     0.135 A 
ATOM     42  C   UNL A   1      46.971  33.324  30.453  1.00  0.00     0.135 A 
ATOM     43  F   UNL A   1      46.116  33.573  26.925  1.00  0.00    -0.206 F 
ATOM     44  C   UNL A   1      46.896  35.213  28.411  1.00  0.00     0.059 A 
ATOM     45  C   UNL A   1      47.335  34.642  30.726  1.00  0.00     0.059 A 
ATOM     46  F   UNL A   1      47.019  32.440  31.462  1.00  0.00    -0.206 F 
ATOM     47  C   UNL A   1      47.312  35.577  29.693  1.00  0.00     0.060 A 
BRANCH  47  48
ATOM     48  S   UNL A   1      47.834  37.282  29.986  1.00  0.00     0.124 S 
ATOM     49  O   UNL A   1      49.026  37.085  30.807  1.00  0.00    -0.237 OA
ATOM     50  O   UNL A   1      48.073  37.775  28.634  1.00  0.00    -0.237 OA
ATOM     51  O   UNL A   1      46.692  37.876  30.675  1.00  0.00    -0.744 OA
ENDBRANCH  47  48
ENDBRANCH  26  40
BRANCH  27  52
ATOM     52  C   UNL A   1      43.149  23.740  27.303  1.00  0.00     0.058 A 
ATOM     53  C   UNL A   1      42.752  23.445  25.995  1.00  0.00     0.135 A 
ATOM     54  C   UNL A   1      43.137  22.701  28.250  1.00  0.00     0.135 A 
ATOM     55  F   UNL A   1      42.744  24.408  25.061  1.00  0.00    -0.206 F 
ATOM     56  C   UNL A   1      42.386  22.156  25.627  1.00  0.00     0.059 A 
ATOM     57  C   UNL A   1      42.805  21.399  27.898  1.00  0.00     0.059 A 
ATOM     58  F   UNL A   1      43.533  22.935  29.512  1.00  0.00    -0.206 F 
ATOM     59  C   UNL A   1      42.435  21.136  26.580  1.00  0.00     0.060 A 
BRANCH  59  60
ATOM     60  S   UNL A   1      42.090  19.443  26.056  1.00  0.00     0.124 S 
ATOM     61  O   UNL A   1      42.531  18.682  27.221  1.00  0.00    -0.237 OA
ATOM     62  O   UNL A   1      40.649  19.483  25.828  1.00  0.00    -0.237 OA
ATOM     63  O   UNL A   1      42.902  19.289  24.855  1.00  0.00    -0.744 OA
ENDBRANCH  59  60
ENDBRANCH  27  52
BRANCH  39  64
ATOM     64  C   UNL A   1      49.398  26.810  26.600  1.00  0.00     0.058 A 
ATOM     65  C   UNL A   1      50.290  26.123  27.438  1.00  0.00     0.135 A 
ATOM     66  C   UNL A   1      49.765  26.986  25.255  1.00  0.00     0.135 A 
ATOM     67  F   UNL A   1      49.995  25.940  28.735  1.00  0.00    -0.206 F 
ATOM     68  C   UNL A   1      51.505  25.639  26.963  1.00  0.00     0.059 A 
ATOM     69  C   UNL A   1      50.962  26.485  24.753  1.00  0.00     0.059 A 
ATOM     70  F   UNL A   1      48.947  27.633  24.410  1.00  0.00    -0.206 F 
ATOM     71  C   UNL A   1      51.829  25.818  25.616  1.00  0.00     0.060 A 
BRANCH  71  72
ATOM     72  S   UNL A   1      53.384  25.138  25.000  1.00  0.00     0.124 S 
ATOM     73  O   UNL A   1      54.358  25.811  25.854  1.00  0.00    -0.237 OA
ATOM     74  O   UNL A   1      53.213  23.709  25.236  1.00  0.00    -0.237 OA
ATOM     75  O   UNL A   1      53.398  25.539  23.596  1.00  0.00    -0.744 OA
ENDBRANCH  71  72
ENDBRANCH  39  64
ENDBRANCH  13  14
ENDBRANCH   6   8
ENDBRANCH   3   4
ENDBRANCH   2   3
ENDBRANCH   1   2
BRANCH   1  76
ATOM     76  C   UNL A   1      31.922  29.728  27.285  1.00  0.00     0.116 C 
BRANCH  76  77
ATOM     77  N   UNL A   1      32.391  28.358  27.165  1.00  0.00    -0.356 N 
ATOM     78  C   UNL A   1      32.254  27.418  26.186  1.00  0.00     0.224 C 
ATOM     79  H   UNL A   1      32.908  28.046  27.943  1.00  0.00     0.163 HD
ATOM     80  O   UNL A   1      32.850  26.352  26.368  1.00  0.00    -0.275 OA
BRANCH  78  81
ATOM     81  C   UNL A   1      31.346  27.630  24.959  1.00  0.00     0.094 C 
ATOM     82  C   UNL A   1      31.835  28.953  24.294  1.00  0.00     0.002 C 
ATOM     83  C   UNL A   1      31.366  26.487  23.878  1.00  0.00     0.094 C 
ATOM     84  C   UNL A   1      33.156  28.761  23.499  1.00  0.00     0.005 C 
ATOM     85  C   UNL A   1      30.757  29.386  23.296  1.00  0.00     0.005 C 
ATOM     86  C   UNL A   1      31.564  27.132  22.462  1.00  0.00     0.002 C 
ATOM     87  C   UNL A   1      32.996  27.688  22.416  1.00  0.00     0.005 C 
ATOM     88  C   UNL A   1      30.611  28.321  22.206  1.00  0.00     0.005 C 
BRANCH  83  89
ATOM     89  C   UNL A   1      30.101  25.591  23.850  1.00  0.00     0.228 C 
ATOM     90  O   UNL A   1      28.974  26.095  23.774  1.00  0.00    -0.274 OA
ATOM     91  N   UNL A   1      30.139  24.219  23.830  1.00  0.00    -0.326 N 
ATOM     92  H   UNL A   1      29.284  23.809  23.562  1.00  0.00     0.169 HD
BRANCH  91  93
ATOM     93  C   UNL A   1      31.143  23.278  24.112  1.00  0.00     0.041 A 
ATOM     94  C   UNL A   1      31.532  23.023  25.424  1.00  0.00     0.026 A 
ATOM     95  C   UNL A   1      31.844  22.632  23.118  1.00  0.00     0.026 A 
ATOM     96  C   UNL A   1      32.601  22.144  25.682  1.00  0.00     0.006 A 
ATOM     97  C   UNL A   1      32.926  21.801  23.341  1.00  0.00     0.006 A 
ATOM     98  C   UNL A   1      33.330  21.555  24.637  1.00  0.00    -0.043 A 
BRANCH  98  99
ATOM     99  C   UNL A   1      34.580  20.740  24.848  1.00  0.00     0.071 C 
BRANCH  99 100
ATOM    100  C   UNL A   1      35.769  21.600  25.180  1.00  0.00    -0.041 A 
ATOM    101  C   UNL A   1      37.072  21.086  25.152  1.00  0.00     0.024 A 
ATOM    102  C   UNL A   1      35.592  22.929  25.536  1.00  0.00     0.024 A 
ATOM    103  C   UNL A   1      38.130  21.892  25.527  1.00  0.00     0.111 A 
ATOM    104  C   UNL A   1      36.719  23.651  25.858  1.00  0.00     0.111 A 
ATOM    105  N   UNL A   1      37.979  23.171  25.895  1.00  0.00    -0.265 NA
ENDBRANCH  99 100
ENDBRANCH  98  99
ENDBRANCH  91  93
ENDBRANCH  83  89
ENDBRANCH  78  81
ENDBRANCH  76  77
ENDBRANCH   1  76
TORSDOF 18
ENDMDL
