MODEL 1
REMARK VINA RESULT:     -11.5      0.000      0.000
REMARK SMILES CN(C(=O)N[C@@H]1C=C[C@@H](C(=O)NCCCCNC(=O)c2ccc(-c3c4nc(c(-c5c(F)cc(S(=O)(=O)[O-])cc5F)c5ccc([nH]5)c(-c5c(F)cc(S(=O)(=O)[O-])cc5F)c5nc(c(-c6c(F)cc(S(=O)(=O)[O-])cc6F)c6ccc3[nH]6)C=C5)C=C4)cc2)C1)[C@H]1CCS(=O)(=O)C1
REMARK SMILES IDX 14 1 13 2 12 3 10 4 11 5 9 7 6 8 7 9 86 10 8 11 5 12 3 13
REMARK SMILES IDX 4 14 2 16 1 17 87 18 88 19 93 20 89 21 90 22 91 23 92 24
REMARK SMILES IDX 15 25 16 26 17 27 18 28 19 30 20 31 21 32 85 33 22 34 84 35
REMARK SMILES IDX 23 36 24 37 25 38 78 39 26 40 83 41 77 42 79 43 27 44 82 45
REMARK SMILES IDX 76 46 75 47 28 49 62 50 41 51 61 52 42 53 45 54 60 55 80 56
REMARK SMILES IDX 43 57 44 58 59 60 81 61 46 62 29 63 30 64 39 65 31 66 32 67
REMARK SMILES IDX 38 68 40 69 33 70 34 71 35 72 36 73 37 74 63 75 64 76 73 77
REMARK SMILES IDX 65 78 66 79 72 80 74 81 67 82 68 83 69 84 70 85 71 86 47 87
REMARK SMILES IDX 48 88 57 89 49 90 50 91 56 92 58 93 51 94 52 95 53 96 54 97
REMARK SMILES IDX 55 98
REMARK H PARENT 12 6 5 15 17 29 79 48 45 59
REMARK Flexibility Score: inf
ROOT
ATOM      1  C   UNL A   1      33.042  29.171  24.855  1.00  0.00     0.023 C 
ENDROOT
BRANCH   1   2
ATOM      2  C   UNL A   1      31.515  29.219  24.815  1.00  0.00     0.116 C 
BRANCH   2   3
ATOM      3  N   UNL A   1      31.016  29.781  23.579  1.00  0.00    -0.356 N 
ATOM      4  C   UNL A   1      30.294  29.232  22.566  1.00  0.00     0.227 C 
ATOM      5  O   UNL A   1      29.913  29.998  21.676  1.00  0.00    -0.274 OA
ATOM      6  H   UNL A   1      31.239  30.730  23.448  1.00  0.00     0.163 HD
BRANCH   4   7
ATOM      7  C   UNL A   1      29.944  27.741  22.486  1.00  0.00     0.103 C 
ATOM      8  C   UNL A   1      31.224  25.844  23.397  1.00  0.00     0.107 C 
ATOM      9  C   UNL A   1      29.958  26.092  24.159  1.00  0.00    -0.006 C 
ATOM     10  C   UNL A   1      31.118  26.801  22.200  1.00  0.00     0.047 C 
ATOM     11  C   UNL A   1      29.296  27.162  23.704  1.00  0.00    -0.016 C 
BRANCH   8  12
ATOM     12  N   UNL A   1      31.317  24.460  23.019  1.00  0.00    -0.332 N 
ATOM     13  C   UNL A   1      31.899  23.363  23.534  1.00  0.00     0.317 C 
ATOM     14  O   UNL A   1      31.714  22.340  22.869  1.00  0.00    -0.249 OA
ATOM     15  H   UNL A   1      30.838  24.269  22.181  1.00  0.00     0.165 HD
BRANCH  13  16
ATOM     16  N   UNL A   1      32.664  23.358  24.673  1.00  0.00    -0.324 N 
ATOM     17  C   UNL A   1      32.202  23.300  26.057  1.00  0.00     0.149 C 
BRANCH  16  18
ATOM     18  C   UNL A   1      34.139  23.278  24.579  1.00  0.00     0.102 C 
ATOM     19  C   UNL A   1      34.843  23.836  25.825  1.00  0.00     0.042 C 
ATOM     20  C   UNL A   1      34.818  21.929  24.306  1.00  0.00     0.162 C 
ATOM     21  C   UNL A   1      36.340  23.737  25.550  1.00  0.00     0.139 C 
ATOM     22  S   UNL A   1      36.552  22.309  24.498  1.00  0.00     0.152 S 
ATOM     23  O   UNL A   1      37.065  22.762  23.218  1.00  0.00    -0.229 OA
ATOM     24  O   UNL A   1      37.200  21.260  25.254  1.00  0.00    -0.229 OA
ENDBRANCH  16  18
ENDBRANCH  13  16
ENDBRANCH   8  12
ENDBRANCH   4   7
ENDBRANCH   2   3
ENDBRANCH   1   2
BRANCH   1  25
ATOM     25  C   UNL A   1      33.617  28.099  25.780  1.00  0.00     0.023 C 
BRANCH  25  26
ATOM     26  C   UNL A   1      33.481  28.391  27.270  1.00  0.00     0.116 C 
BRANCH  26  27
ATOM     27  N   UNL A   1      33.417  29.815  27.566  1.00  0.00    -0.352 N 
ATOM     28  C   UNL A   1      34.389  30.625  28.103  1.00  0.00     0.251 C 
ATOM     29  H   UNL A   1      32.562  30.256  27.353  1.00  0.00     0.163 HD
ATOM     30  O   UNL A   1      34.118  31.778  28.422  1.00  0.00    -0.269 OA
BRANCH  28  31
ATOM     31  C   UNL A   1      35.747  30.083  28.321  1.00  0.00     0.039 A 
ATOM     32  C   UNL A   1      36.663  30.103  27.267  1.00  0.00     0.014 A 
ATOM     33  C   UNL A   1      36.125  29.592  29.575  1.00  0.00     0.014 A 
ATOM     34  C   UNL A   1      37.980  29.699  27.492  1.00  0.00     0.010 A 
ATOM     35  C   UNL A   1      37.457  29.271  29.817  1.00  0.00     0.010 A 
ATOM     36  C   UNL A   1      38.399  29.320  28.779  1.00  0.00    -0.014 A 
BRANCH  36  37
ATOM     37  C   UNL A   1      39.819  28.980  29.059  1.00  0.00     0.031 A 
ATOM     38  C   UNL A   1      40.738  30.007  29.662  1.00  0.00     0.074 A 
ATOM     39  C   UNL A   1      40.293  27.765  28.715  1.00  0.00     0.049 A 
ATOM     40  N   UNL A   1      42.017  29.917  29.925  1.00  0.00    -0.248 NA
ATOM     41  C   UNL A   1      40.151  31.316  29.989  1.00  0.00     0.031 C 
ATOM     42  C   UNL A   1      39.513  26.700  28.080  1.00  0.00     0.029 A 
ATOM     43  N   UNL A   1      41.547  27.223  28.843  1.00  0.00    -0.354 N 
ATOM     44  C   UNL A   1      42.387  31.153  30.440  1.00  0.00     0.074 A 
ATOM     45  C   UNL A   1      41.213  31.998  30.393  1.00  0.00     0.031 C 
ATOM     46  C   UNL A   1      40.296  25.625  27.903  1.00  0.00     0.029 A 
ATOM     47  C   UNL A   1      41.644  25.935  28.369  1.00  0.00     0.049 A 
ATOM     48  H   UNL A   1      42.307  27.709  29.238  1.00  0.00     0.167 HD
ATOM     49  C   UNL A   1      43.586  31.542  30.934  1.00  0.00     0.037 A 
ATOM     50  C   UNL A   1      42.701  25.100  28.310  1.00  0.00     0.037 A 
ATOM     51  C   UNL A   1      44.748  30.692  30.990  1.00  0.00     0.049 A 
ATOM     52  C   UNL A   1      44.030  25.563  28.843  1.00  0.00     0.074 A 
ATOM     53  C   UNL A   1      45.997  30.976  31.512  1.00  0.00     0.029 A 
ATOM     54  N   UNL A   1      44.804  29.393  30.505  1.00  0.00    -0.354 N 
ATOM     55  N   UNL A   1      44.345  26.717  29.383  1.00  0.00    -0.248 NA
ATOM     56  C   UNL A   1      45.145  24.610  28.766  1.00  0.00     0.031 C 
ATOM     57  C   UNL A   1      46.824  29.870  31.295  1.00  0.00     0.029 A 
ATOM     58  C   UNL A   1      46.073  28.872  30.694  1.00  0.00     0.049 A 
ATOM     59  H   UNL A   1      44.052  28.912  30.088  1.00  0.00     0.167 HD
ATOM     60  C   UNL A   1      45.686  26.616  29.738  1.00  0.00     0.074 A 
ATOM     61  C   UNL A   1      46.117  25.285  29.362  1.00  0.00     0.031 C 
ATOM     62  C   UNL A   1      46.488  27.541  30.322  1.00  0.00     0.037 A 
BRANCH  49  63
ATOM     63  C   UNL A   1      43.704  32.949  31.457  1.00  0.00     0.058 A 
ATOM     64  C   UNL A   1      43.389  33.268  32.789  1.00  0.00     0.135 A 
ATOM     65  C   UNL A   1      44.173  33.984  30.632  1.00  0.00     0.135 A 
ATOM     66  F   UNL A   1      42.920  32.322  33.619  1.00  0.00    -0.206 F 
ATOM     67  C   UNL A   1      43.505  34.567  33.273  1.00  0.00     0.059 A 
ATOM     68  C   UNL A   1      44.328  35.284  31.105  1.00  0.00     0.059 A 
ATOM     69  F   UNL A   1      44.489  33.737  29.350  1.00  0.00    -0.206 F 
ATOM     70  C   UNL A   1      43.976  35.568  32.424  1.00  0.00     0.060 A 
BRANCH  70  71
ATOM     71  S   UNL A   1      44.126  37.246  33.074  1.00  0.00     0.124 S 
ATOM     72  O   UNL A   1      43.931  38.043  31.866  1.00  0.00    -0.237 OA
ATOM     73  O   UNL A   1      43.043  37.299  34.050  1.00  0.00    -0.237 OA
ATOM     74  O   UNL A   1      45.474  37.275  33.633  1.00  0.00    -0.744 OA
ENDBRANCH  70  71
ENDBRANCH  49  63
BRANCH  50  75
ATOM     75  C   UNL A   1      42.539  23.732  27.746  1.00  0.00     0.058 A 
ATOM     76  C   UNL A   1      42.463  22.610  28.584  1.00  0.00     0.135 A 
ATOM     77  C   UNL A   1      42.449  23.518  26.361  1.00  0.00     0.135 A 
ATOM     78  F   UNL A   1      42.551  22.761  29.915  1.00  0.00    -0.206 F 
ATOM     79  C   UNL A   1      42.321  21.324  28.073  1.00  0.00     0.059 A 
ATOM     80  C   UNL A   1      42.277  22.245  25.826  1.00  0.00     0.059 A 
ATOM     81  F   UNL A   1      42.499  24.559  25.515  1.00  0.00    -0.206 F 
ATOM     82  C   UNL A   1      42.225  21.153  26.691  1.00  0.00     0.060 A 
BRANCH  82  83
ATOM     83  S   UNL A   1      41.991  19.484  26.041  1.00  0.00     0.124 S 
ATOM     84  O   UNL A   1      42.869  19.496  24.877  1.00  0.00    -0.237 OA
ATOM     85  O   UNL A   1      42.427  18.658  27.161  1.00  0.00    -0.237 OA
ATOM     86  O   UNL A   1      40.560  19.434  25.754  1.00  0.00    -0.744 OA
ENDBRANCH  82  83
ENDBRANCH  50  75
BRANCH  62  87
ATOM     87  C   UNL A   1      47.904  27.137  30.633  1.00  0.00     0.058 A 
ATOM     88  C   UNL A   1      48.939  27.284  29.696  1.00  0.00     0.135 A 
ATOM     89  C   UNL A   1      48.237  26.643  31.905  1.00  0.00     0.135 A 
ATOM     90  F   UNL A   1      48.675  27.745  28.463  1.00  0.00    -0.206 F 
ATOM     91  C   UNL A   1      50.250  26.931  30.001  1.00  0.00     0.059 A 
ATOM     92  C   UNL A   1      49.547  26.315  32.242  1.00  0.00     0.059 A 
ATOM     93  F   UNL A   1      47.289  26.493  32.842  1.00  0.00    -0.206 F 
ATOM     94  C   UNL A   1      50.545  26.449  31.278  1.00  0.00     0.060 A 
BRANCH  94  95
ATOM     95  S   UNL A   1      52.255  26.027  31.670  1.00  0.00     0.124 S 
ATOM     96  O   UNL A   1      52.135  24.616  32.025  1.00  0.00    -0.237 OA
ATOM     97  O   UNL A   1      52.941  26.308  30.412  1.00  0.00    -0.237 OA
ATOM     98  O   UNL A   1      52.584  26.926  32.772  1.00  0.00    -0.744 OA
ENDBRANCH  94  95
ENDBRANCH  62  87
ENDBRANCH  36  37
ENDBRANCH  28  31
ENDBRANCH  26  27
ENDBRANCH  25  26
ENDBRANCH   1  25
TORSDOF 17
ENDMDL
MODEL 2
REMARK VINA RESULT:     -11.3      3.028      4.006
REMARK SMILES CN(C(=O)N[C@@H]1C=C[C@@H](C(=O)NCCCCNC(=O)c2ccc(-c3c4nc(c(-c5c(F)cc(S(=O)(=O)[O-])cc5F)c5ccc([nH]5)c(-c5c(F)cc(S(=O)(=O)[O-])cc5F)c5nc(c(-c6c(F)cc(S(=O)(=O)[O-])cc6F)c6ccc3[nH]6)C=C5)C=C4)cc2)C1)[C@H]1CCS(=O)(=O)C1
REMARK SMILES IDX 14 1 13 2 12 3 10 4 11 5 9 7 6 8 7 9 86 10 8 11 5 12 3 13
REMARK SMILES IDX 4 14 2 16 1 17 87 18 88 19 93 20 89 21 90 22 91 23 92 24
REMARK SMILES IDX 15 25 16 26 17 27 18 28 19 30 20 31 21 32 85 33 22 34 84 35
REMARK SMILES IDX 23 36 24 37 25 38 78 39 26 40 83 41 77 42 79 43 27 44 82 45
REMARK SMILES IDX 76 46 75 47 28 49 62 50 41 51 61 52 42 53 45 54 60 55 80 56
REMARK SMILES IDX 43 57 44 58 59 60 81 61 46 62 29 63 30 64 39 65 31 66 32 67
REMARK SMILES IDX 38 68 40 69 33 70 34 71 35 72 36 73 37 74 63 75 64 76 73 77
REMARK SMILES IDX 65 78 66 79 72 80 74 81 67 82 68 83 69 84 70 85 71 86 47 87
REMARK SMILES IDX 48 88 57 89 49 90 50 91 56 92 58 93 51 94 52 95 53 96 54 97
REMARK SMILES IDX 55 98
REMARK H PARENT 12 6 5 15 17 29 79 48 45 59
REMARK Flexibility Score: inf
ROOT
ATOM      1  C   UNL A   1      34.052  31.686  27.829  1.00  0.00     0.023 C 
ENDROOT
BRANCH   1   2
ATOM      2  C   UNL A   1      33.717  30.466  26.973  1.00  0.00     0.116 C 
BRANCH   2   3
ATOM      3  N   UNL A   1      32.730  29.612  27.597  1.00  0.00    -0.356 N 
ATOM      4  C   UNL A   1      32.130  28.468  27.172  1.00  0.00     0.227 C 
ATOM      5  O   UNL A   1      31.396  27.891  27.981  1.00  0.00    -0.274 OA
ATOM      6  H   UNL A   1      32.441  29.912  28.489  1.00  0.00     0.163 HD
BRANCH   4   7
ATOM      7  C   UNL A   1      32.320  27.882  25.768  1.00  0.00     0.103 C 
ATOM      8  C   UNL A   1      32.894  25.562  25.173  1.00  0.00     0.107 C 
ATOM      9  C   UNL A   1      31.475  25.899  24.832  1.00  0.00    -0.006 C 
ATOM     10  C   UNL A   1      33.491  26.908  25.612  1.00  0.00     0.047 C 
ATOM     11  C   UNL A   1      31.145  27.138  25.214  1.00  0.00    -0.016 C 
BRANCH   8  12
ATOM     12  N   UNL A   1      33.558  24.983  24.036  1.00  0.00    -0.332 N 
ATOM     13  C   UNL A   1      34.214  23.836  23.792  1.00  0.00     0.317 C 
ATOM     14  O   UNL A   1      34.632  23.735  22.635  1.00  0.00    -0.249 OA
ATOM     15  H   UNL A   1      33.523  25.569  23.246  1.00  0.00     0.165 HD
BRANCH  13  16
ATOM     16  N   UNL A   1      34.444  22.863  24.731  1.00  0.00    -0.324 N 
ATOM     17  C   UNL A   1      34.956  23.036  26.088  1.00  0.00     0.149 C 
BRANCH  16  18
ATOM     18  C   UNL A   1      34.042  21.463  24.467  1.00  0.00     0.102 C 
ATOM     19  C   UNL A   1      35.058  20.443  25.005  1.00  0.00     0.042 C 
ATOM     20  C   UNL A   1      32.674  20.956  24.944  1.00  0.00     0.162 C 
ATOM     21  C   UNL A   1      34.533  19.068  24.607  1.00  0.00     0.139 C 
ATOM     22  S   UNL A   1      32.752  19.207  24.591  1.00  0.00     0.152 S 
ATOM     23  O   UNL A   1      32.294  18.995  23.230  1.00  0.00    -0.229 OA
ATOM     24  O   UNL A   1      32.212  18.460  25.705  1.00  0.00    -0.229 OA
ENDBRANCH  16  18
ENDBRANCH  13  16
ENDBRANCH   8  12
ENDBRANCH   4   7
ENDBRANCH   2   3
ENDBRANCH   1   2
BRANCH   1  25
ATOM     25  C   UNL A   1      35.500  32.164  27.711  1.00  0.00     0.023 C 
BRANCH  25  26
ATOM     26  C   UNL A   1      36.182  32.489  29.035  1.00  0.00     0.116 C 
BRANCH  26  27
ATOM     27  N   UNL A   1      35.827  31.562  30.099  1.00  0.00    -0.352 N 
ATOM     28  C   UNL A   1      36.548  30.498  30.587  1.00  0.00     0.251 C 
ATOM     29  H   UNL A   1      34.952  31.718  30.526  1.00  0.00     0.163 HD
ATOM     30  O   UNL A   1      36.034  29.728  31.393  1.00  0.00    -0.269 OA
BRANCH  28  31
ATOM     31  C   UNL A   1      37.927  30.274  30.106  1.00  0.00     0.039 A 
ATOM     32  C   UNL A   1      38.983  30.341  31.019  1.00  0.00     0.014 A 
ATOM     33  C   UNL A   1      38.173  29.961  28.766  1.00  0.00     0.014 A 
ATOM     34  C   UNL A   1      40.276  30.021  30.601  1.00  0.00     0.010 A 
ATOM     35  C   UNL A   1      39.446  29.561  28.373  1.00  0.00     0.010 A 
ATOM     36  C   UNL A   1      40.511  29.587  29.285  1.00  0.00    -0.014 A 
BRANCH  36  37
ATOM     37  C   UNL A   1      41.864  29.149  28.848  1.00  0.00     0.031 A 
ATOM     38  C   UNL A   1      42.993  30.141  28.777  1.00  0.00     0.074 A 
ATOM     39  C   UNL A   1      42.058  27.873  28.458  1.00  0.00     0.049 A 
ATOM     40  N   UNL A   1      44.223  29.963  28.367  1.00  0.00    -0.248 NA
ATOM     41  C   UNL A   1      42.696  31.519  29.198  1.00  0.00     0.031 C 
ATOM     42  C   UNL A   1      41.030  26.829  28.436  1.00  0.00     0.029 A 
ATOM     43  N   UNL A   1      43.184  27.237  27.999  1.00  0.00    -0.354 N 
ATOM     44  C   UNL A   1      44.842  31.203  28.474  1.00  0.00     0.074 A 
ATOM     45  C   UNL A   1      43.836  32.139  28.926  1.00  0.00     0.031 C 
ATOM     46  C   UNL A   1      41.580  25.679  28.017  1.00  0.00     0.029 A 
ATOM     47  C   UNL A   1      42.985  25.909  27.698  1.00  0.00     0.049 A 
ATOM     48  H   UNL A   1      44.052  27.688  27.895  1.00  0.00     0.167 HD
ATOM     49  C   UNL A   1      46.136  31.527  28.244  1.00  0.00     0.037 A 
ATOM     50  C   UNL A   1      43.836  24.984  27.213  1.00  0.00     0.037 A 
ATOM     51  C   UNL A   1      47.136  30.587  27.807  1.00  0.00     0.049 A 
ATOM     52  C   UNL A   1      45.265  25.374  26.943  1.00  0.00     0.074 A 
ATOM     53  C   UNL A   1      48.485  30.806  27.589  1.00  0.00     0.029 A 
ATOM     54  N   UNL A   1      46.897  29.251  27.519  1.00  0.00    -0.354 N 
ATOM     55  N   UNL A   1      45.847  26.538  27.108  1.00  0.00    -0.248 NA
ATOM     56  C   UNL A   1      46.154  24.324  26.427  1.00  0.00     0.031 C 
ATOM     57  C   UNL A   1      49.051  29.617  27.118  1.00  0.00     0.029 A 
ATOM     58  C   UNL A   1      48.068  28.640  27.101  1.00  0.00     0.049 A 
ATOM     59  H   UNL A   1      46.023  28.803  27.598  1.00  0.00     0.167 HD
ATOM     60  C   UNL A   1      47.177  26.352  26.747  1.00  0.00     0.074 A 
ATOM     61  C   UNL A   1      47.314  24.961  26.366  1.00  0.00     0.031 C 
ATOM     62  C   UNL A   1      48.193  27.250  26.732  1.00  0.00     0.037 A 
BRANCH  49  63
ATOM     63  C   UNL A   1      46.548  32.958  28.465  1.00  0.00     0.058 A 
ATOM     64  C   UNL A   1      47.041  33.400  29.705  1.00  0.00     0.135 A 
ATOM     65  C   UNL A   1      46.487  33.892  27.418  1.00  0.00     0.135 A 
ATOM     66  F   UNL A   1      47.106  32.555  30.747  1.00  0.00    -0.206 F 
ATOM     67  C   UNL A   1      47.428  34.721  29.906  1.00  0.00     0.059 A 
ATOM     68  C   UNL A   1      46.900  35.210  27.588  1.00  0.00     0.059 A 
ATOM     69  F   UNL A   1      46.024  33.526  26.212  1.00  0.00    -0.206 F 
ATOM     70  C   UNL A   1      47.355  35.619  28.841  1.00  0.00     0.060 A 
BRANCH  70  71
ATOM     71  S   UNL A   1      47.868  37.326  29.120  1.00  0.00     0.124 S 
ATOM     72  O   UNL A   1      47.354  37.983  27.922  1.00  0.00    -0.237 OA
ATOM     73  O   UNL A   1      47.185  37.656  30.366  1.00  0.00    -0.237 OA
ATOM     74  O   UNL A   1      49.322  37.234  29.210  1.00  0.00    -0.744 OA
ENDBRANCH  70  71
ENDBRANCH  49  63
BRANCH  50  75
ATOM     75  C   UNL A   1      43.367  23.591  26.975  1.00  0.00     0.058 A 
ATOM     76  C   UNL A   1      43.128  23.122  25.675  1.00  0.00     0.135 A 
ATOM     77  C   UNL A   1      43.156  22.700  28.039  1.00  0.00     0.135 A 
ATOM     78  F   UNL A   1      43.308  23.937  24.625  1.00  0.00    -0.206 F 
ATOM     79  C   UNL A   1      42.680  21.827  25.437  1.00  0.00     0.059 A 
ATOM     80  C   UNL A   1      42.737  21.390  27.825  1.00  0.00     0.059 A 
ATOM     81  F   UNL A   1      43.386  23.093  29.302  1.00  0.00    -0.206 F 
ATOM     82  C   UNL A   1      42.492  20.966  26.520  1.00  0.00     0.060 A 
BRANCH  82  83
ATOM     83  S   UNL A   1      41.958  19.272  26.195  1.00  0.00     0.124 S 
ATOM     84  O   UNL A   1      42.279  18.615  27.457  1.00  0.00    -0.237 OA
ATOM     85  O   UNL A   1      40.539  19.449  25.910  1.00  0.00    -0.237 OA
ATOM     86  O   UNL A   1      42.775  18.877  25.051  1.00  0.00    -0.744 OA
ENDBRANCH  82  83
ENDBRANCH  50  75
BRANCH  62  87
ATOM     87  C   UNL A   1      49.556  26.753  26.331  1.00  0.00     0.058 A 
ATOM     88  C   UNL A   1      50.048  26.912  25.025  1.00  0.00     0.135 A 
ATOM     89  C   UNL A   1      50.400  26.155  27.281  1.00  0.00     0.135 A 
ATOM     90  F   UNL A   1      49.280  27.472  24.077  1.00  0.00    -0.206 F 
ATOM     91  C   UNL A   1      51.319  26.471  24.670  1.00  0.00     0.059 A 
ATOM     92  C   UNL A   1      51.686  25.737  26.955  1.00  0.00     0.059 A 
ATOM     93  F   UNL A   1      49.984  25.989  28.546  1.00  0.00    -0.206 F 
ATOM     94  C   UNL A   1      52.132  25.887  25.644  1.00  0.00     0.060 A 
BRANCH  94  95
ATOM     95  S   UNL A   1      53.791  25.351  25.176  1.00  0.00     0.124 S 
ATOM     96  O   UNL A   1      53.673  23.900  25.287  1.00  0.00    -0.237 OA
ATOM     97  O   UNL A   1      53.916  25.874  23.819  1.00  0.00    -0.237 OA
ATOM     98  O   UNL A   1      54.648  25.988  26.170  1.00  0.00    -0.744 OA
ENDBRANCH  94  95
ENDBRANCH  62  87
ENDBRANCH  36  37
ENDBRANCH  28  31
ENDBRANCH  26  27
ENDBRANCH  25  26
ENDBRANCH   1  25
TORSDOF 17
ENDMDL
MODEL 3
REMARK VINA RESULT:     -11.3      4.716     10.518
REMARK SMILES CN(C(=O)N[C@@H]1C=C[C@@H](C(=O)NCCCCNC(=O)c2ccc(-c3c4nc(c(-c5c(F)cc(S(=O)(=O)[O-])cc5F)c5ccc([nH]5)c(-c5c(F)cc(S(=O)(=O)[O-])cc5F)c5nc(c(-c6c(F)cc(S(=O)(=O)[O-])cc6F)c6ccc3[nH]6)C=C5)C=C4)cc2)C1)[C@H]1CCS(=O)(=O)C1
REMARK SMILES IDX 14 1 13 2 12 3 10 4 11 5 9 7 6 8 7 9 86 10 8 11 5 12 3 13
REMARK SMILES IDX 4 14 2 16 1 17 87 18 88 19 93 20 89 21 90 22 91 23 92 24
REMARK SMILES IDX 15 25 16 26 17 27 18 28 19 30 20 31 21 32 85 33 22 34 84 35
REMARK SMILES IDX 23 36 24 37 25 38 78 39 26 40 83 41 77 42 79 43 27 44 82 45
REMARK SMILES IDX 76 46 75 47 28 49 62 50 41 51 61 52 42 53 45 54 60 55 80 56
REMARK SMILES IDX 43 57 44 58 59 60 81 61 46 62 29 63 30 64 39 65 31 66 32 67
REMARK SMILES IDX 38 68 40 69 33 70 34 71 35 72 36 73 37 74 63 75 64 76 73 77
REMARK SMILES IDX 65 78 66 79 72 80 74 81 67 82 68 83 69 84 70 85 71 86 47 87
REMARK SMILES IDX 48 88 57 89 49 90 50 91 56 92 58 93 51 94 52 95 53 96 54 97
REMARK SMILES IDX 55 98
REMARK H PARENT 12 6 5 15 17 29 79 48 45 59
REMARK Flexibility Score: inf
ROOT
ATOM      1  C   UNL A   1      39.660  21.686  26.050  1.00  0.00     0.023 C 
ENDROOT
BRANCH   1   2
ATOM      2  C   UNL A   1      38.182  22.044  25.906  1.00  0.00     0.116 C 
BRANCH   2   3
ATOM      3  N   UNL A   1      37.839  22.423  24.552  1.00  0.00    -0.356 N 
ATOM      4  C   UNL A   1      36.637  22.569  23.935  1.00  0.00     0.227 C 
ATOM      5  O   UNL A   1      36.653  23.017  22.784  1.00  0.00    -0.274 OA
ATOM      6  H   UNL A   1      38.615  22.609  23.976  1.00  0.00     0.163 HD
BRANCH   4   7
ATOM      7  C   UNL A   1      35.298  22.208  24.589  1.00  0.00     0.103 C 
ATOM      8  C   UNL A   1      33.351  23.675  24.937  1.00  0.00     0.107 C 
ATOM      9  C   UNL A   1      33.102  22.646  23.877  1.00  0.00    -0.006 C 
ATOM     10  C   UNL A   1      34.712  23.270  25.523  1.00  0.00     0.047 C 
ATOM     11  C   UNL A   1      34.181  21.891  23.643  1.00  0.00    -0.016 C 
BRANCH   8  12
ATOM     12  N   UNL A   1      32.285  23.668  25.902  1.00  0.00    -0.332 N 
ATOM     13  C   UNL A   1      31.470  24.593  26.437  1.00  0.00     0.317 C 
ATOM     14  O   UNL A   1      30.662  24.138  27.251  1.00  0.00    -0.249 OA
ATOM     15  H   UNL A   1      32.109  22.767  26.256  1.00  0.00     0.165 HD
BRANCH  13  16
ATOM     16  N   UNL A   1      31.531  25.933  26.150  1.00  0.00    -0.324 N 
ATOM     17  C   UNL A   1      32.288  26.964  26.855  1.00  0.00     0.149 C 
BRANCH  16  18
ATOM     18  C   UNL A   1      30.882  26.463  24.929  1.00  0.00     0.102 C 
ATOM     19  C   UNL A   1      29.368  26.200  24.901  1.00  0.00     0.042 C 
ATOM     20  C   UNL A   1      31.037  27.945  24.560  1.00  0.00     0.162 C 
ATOM     21  C   UNL A   1      28.865  26.749  23.570  1.00  0.00     0.139 C 
ATOM     22  S   UNL A   1      29.927  28.130  23.174  1.00  0.00     0.152 S 
ATOM     23  O   UNL A   1      30.653  27.809  21.960  1.00  0.00    -0.229 OA
ATOM     24  O   UNL A   1      29.174  29.357  23.314  1.00  0.00    -0.229 OA
ENDBRANCH  16  18
ENDBRANCH  13  16
ENDBRANCH   8  12
ENDBRANCH   4   7
ENDBRANCH   2   3
ENDBRANCH   1   2
BRANCH   1  25
ATOM     25  C   UNL A   1      40.264  22.030  27.412  1.00  0.00     0.023 C 
BRANCH  25  26
ATOM     26  C   UNL A   1      41.438  23.002  27.371  1.00  0.00     0.116 C 
BRANCH  26  27
ATOM     27  N   UNL A   1      41.434  23.845  26.184  1.00  0.00    -0.352 N 
ATOM     28  C   UNL A   1      41.270  25.208  26.099  1.00  0.00     0.251 C 
ATOM     29  H   UNL A   1      41.566  23.377  25.327  1.00  0.00     0.163 HD
ATOM     30  O   UNL A   1      41.148  25.743  25.002  1.00  0.00    -0.269 OA
BRANCH  28  31
ATOM     31  C   UNL A   1      41.208  26.010  27.339  1.00  0.00     0.039 A 
ATOM     32  C   UNL A   1      42.245  26.902  27.623  1.00  0.00     0.014 A 
ATOM     33  C   UNL A   1      40.110  25.910  28.199  1.00  0.00     0.014 A 
ATOM     34  C   UNL A   1      42.144  27.746  28.730  1.00  0.00     0.010 A 
ATOM     35  C   UNL A   1      39.973  26.809  29.252  1.00  0.00     0.010 A 
ATOM     36  C   UNL A   1      40.988  27.737  29.529  1.00  0.00    -0.014 A 
BRANCH  36  37
ATOM     37  C   UNL A   1      40.820  28.694  30.654  1.00  0.00     0.031 A 
ATOM     38  C   UNL A   1      41.673  28.568  31.888  1.00  0.00     0.074 A 
ATOM     39  C   UNL A   1      39.859  29.638  30.589  1.00  0.00     0.049 A 
ATOM     40  N   UNL A   1      41.635  29.269  32.992  1.00  0.00    -0.248 NA
ATOM     41  C   UNL A   1      42.684  27.499  31.892  1.00  0.00     0.031 C 
ATOM     42  C   UNL A   1      38.937  29.831  29.467  1.00  0.00     0.029 A 
ATOM     43  N   UNL A   1      39.493  30.609  31.487  1.00  0.00    -0.354 N 
ATOM     44  C   UNL A   1      42.608  28.724  33.821  1.00  0.00     0.074 A 
ATOM     45  C   UNL A   1      43.176  27.594  33.119  1.00  0.00     0.031 C 
ATOM     46  C   UNL A   1      38.134  30.873  29.731  1.00  0.00     0.029 A 
ATOM     47  C   UNL A   1      38.451  31.396  31.056  1.00  0.00     0.049 A 
ATOM     48  H   UNL A   1      39.935  30.731  32.358  1.00  0.00     0.167 HD
ATOM     49  C   UNL A   1      43.013  29.143  35.044  1.00  0.00     0.037 A 
ATOM     50  C   UNL A   1      37.817  32.420  31.662  1.00  0.00     0.037 A 
ATOM     51  C   UNL A   1      42.453  30.278  35.732  1.00  0.00     0.049 A 
ATOM     52  C   UNL A   1      38.269  32.853  33.031  1.00  0.00     0.074 A 
ATOM     53  C   UNL A   1      42.823  30.811  36.953  1.00  0.00     0.029 A 
ATOM     54  N   UNL A   1      41.403  31.053  35.260  1.00  0.00    -0.354 N 
ATOM     55  N   UNL A   1      39.232  32.362  33.774  1.00  0.00    -0.248 NA
ATOM     56  C   UNL A   1      37.553  33.981  33.641  1.00  0.00     0.031 C 
ATOM     57  C   UNL A   1      41.963  31.875  37.246  1.00  0.00     0.029 A 
ATOM     58  C   UNL A   1      41.097  32.044  36.178  1.00  0.00     0.049 A 
ATOM     59  H   UNL A   1      40.943  30.918  34.399  1.00  0.00     0.167 HD
ATOM     60  C   UNL A   1      39.258  33.142  34.926  1.00  0.00     0.074 A 
ATOM     61  C   UNL A   1      38.222  34.144  34.773  1.00  0.00     0.031 C 
ATOM     62  C   UNL A   1      40.067  33.041  36.010  1.00  0.00     0.037 A 
BRANCH  49  63
ATOM     63  C   UNL A   1      44.118  28.373  35.716  1.00  0.00     0.058 A 
ATOM     64  C   UNL A   1      43.846  27.363  36.656  1.00  0.00     0.135 A 
ATOM     65  C   UNL A   1      45.462  28.617  35.393  1.00  0.00     0.135 A 
ATOM     66  F   UNL A   1      42.579  27.097  37.016  1.00  0.00    -0.206 F 
ATOM     67  C   UNL A   1      44.867  26.647  37.271  1.00  0.00     0.059 A 
ATOM     68  C   UNL A   1      46.498  27.891  35.972  1.00  0.00     0.059 A 
ATOM     69  F   UNL A   1      45.781  29.570  34.502  1.00  0.00    -0.206 F 
ATOM     70  C   UNL A   1      46.191  26.917  36.922  1.00  0.00     0.060 A 
BRANCH  70  71
ATOM     71  S   UNL A   1      47.501  25.972  37.727  1.00  0.00     0.124 S 
ATOM     72  O   UNL A   1      47.615  26.667  39.006  1.00  0.00    -0.237 OA
ATOM     73  O   UNL A   1      46.928  24.632  37.783  1.00  0.00    -0.237 OA
ATOM     74  O   UNL A   1      48.637  26.130  36.825  1.00  0.00    -0.744 OA
ENDBRANCH  70  71
ENDBRANCH  49  63
BRANCH  50  75
ATOM     75  C   UNL A   1      36.704  33.123  30.968  1.00  0.00     0.058 A 
ATOM     76  C   UNL A   1      36.954  33.982  29.888  1.00  0.00     0.135 A 
ATOM     77  C   UNL A   1      35.368  32.945  31.363  1.00  0.00     0.135 A 
ATOM     78  F   UNL A   1      38.214  34.191  29.476  1.00  0.00    -0.206 F 
ATOM     79  C   UNL A   1      35.925  34.653  29.235  1.00  0.00     0.059 A 
ATOM     80  C   UNL A   1      34.319  33.582  30.707  1.00  0.00     0.059 A 
ATOM     81  F   UNL A   1      35.071  32.121  32.380  1.00  0.00    -0.206 F 
ATOM     82  C   UNL A   1      34.609  34.443  29.650  1.00  0.00     0.060 A 
BRANCH  82  83
ATOM     83  S   UNL A   1      33.278  35.281  28.763  1.00  0.00     0.124 S 
ATOM     84  O   UNL A   1      32.487  35.822  29.862  1.00  0.00    -0.237 OA
ATOM     85  O   UNL A   1      34.012  36.257  27.964  1.00  0.00    -0.237 OA
ATOM     86  O   UNL A   1      32.651  34.204  28.003  1.00  0.00    -0.744 OA
ENDBRANCH  82  83
ENDBRANCH  50  75
BRANCH  62  87
ATOM     87  C   UNL A   1      39.896  34.061  37.103  1.00  0.00     0.058 A 
ATOM     88  C   UNL A   1      40.554  35.300  37.071  1.00  0.00     0.135 A 
ATOM     89  C   UNL A   1      39.019  33.812  38.173  1.00  0.00     0.135 A 
ATOM     90  F   UNL A   1      41.407  35.587  36.074  1.00  0.00    -0.206 F 
ATOM     91  C   UNL A   1      40.370  36.247  38.074  1.00  0.00     0.059 A 
ATOM     92  C   UNL A   1      38.795  34.757  39.169  1.00  0.00     0.059 A 
ATOM     93  F   UNL A   1      38.356  32.648  38.247  1.00  0.00    -0.206 F 
ATOM     94  C   UNL A   1      39.486  35.967  39.118  1.00  0.00     0.060 A 
BRANCH  94  95
ATOM     95  S   UNL A   1      39.232  37.218  40.394  1.00  0.00     0.124 S 
ATOM     96  O   UNL A   1      38.432  38.208  39.680  1.00  0.00    -0.237 OA
ATOM     97  O   UNL A   1      38.533  36.467  41.432  1.00  0.00    -0.237 OA
ATOM     98  O   UNL A   1      40.588  37.636  40.736  1.00  0.00    -0.744 OA
ENDBRANCH  94  95
ENDBRANCH  62  87
ENDBRANCH  36  37
ENDBRANCH  28  31
ENDBRANCH  26  27
ENDBRANCH  25  26
ENDBRANCH   1  25
TORSDOF 17
ENDMDL
