MODEL 1
REMARK VINA RESULT:     -13.0      0.000      0.000
REMARK SMILES C[C@@H]1CC[C@@H](C(=O)NCCCCNC(=O)c2ccc(-c3c4nc(c(-c5c(F)cc(S(=O)(=O)[O-])cc5F)c5ccc([nH]5)c(-c5c(F)cc(S(=O)(=O)[O-])cc5F)c5nc(c(-c6c(F)cc(S(=O)(=O)[O-])cc6F)c6ccc3[nH]6)C=C5)C=C4)cc2)[C@H]2C(=O)N(c3ccccc3)C(=O)[C@@H]21
REMARK SMILES IDX 11 1 10 2 9 3 8 4 6 5 7 6 5 8 1 9 2 10 3 11 94 12 4 13 82 14
REMARK SMILES IDX 92 15 83 16 85 17 93 18 84 19 86 20 87 21 91 22 88 23 90 24
REMARK SMILES IDX 89 25 12 26 13 27 14 28 15 30 16 31 17 32 81 33 18 34 80 35
REMARK SMILES IDX 19 36 20 37 21 38 74 39 22 40 79 41 73 42 75 43 23 44 78 45
REMARK SMILES IDX 72 46 71 47 24 49 58 50 37 51 57 52 38 53 41 54 56 55 76 56
REMARK SMILES IDX 39 57 40 58 55 60 77 61 42 62 25 63 26 64 35 65 27 66 28 67
REMARK SMILES IDX 34 68 36 69 29 70 30 71 31 72 32 73 33 74 59 75 60 76 69 77
REMARK SMILES IDX 61 78 62 79 68 80 70 81 63 82 64 83 65 84 66 85 67 86 43 87
REMARK SMILES IDX 44 88 53 89 45 90 46 91 52 92 54 93 47 94 48 95 49 96 50 97
REMARK SMILES IDX 51 98
REMARK H PARENT 8 7 13 29 75 48 41 59
REMARK Flexibility Score: inf
ROOT
ATOM      1  C   UNL A   1      40.261  21.814  26.612  1.00  0.00     0.023 C 
ENDROOT
BRANCH   1   2
ATOM      2  C   UNL A   1      38.830  22.022  26.107  1.00  0.00     0.023 C 
BRANCH   2   3
ATOM      3  C   UNL A   1      38.270  23.431  26.299  1.00  0.00     0.116 C 
BRANCH   3   4
ATOM      4  N   UNL A   1      36.894  23.410  26.761  1.00  0.00    -0.356 N 
ATOM      5  C   UNL A   1      35.733  23.269  26.067  1.00  0.00     0.223 C 
ATOM      6  O   UNL A   1      34.679  23.259  26.704  1.00  0.00    -0.275 OA
ATOM      7  H   UNL A   1      36.785  23.516  27.734  1.00  0.00     0.163 HD
BRANCH   5   8
ATOM      8  C   UNL A   1      35.764  23.128  24.547  1.00  0.00     0.092 C 
ATOM      9  C   UNL A   1      32.970  23.273  21.882  1.00  0.00     0.008 C 
ATOM     10  C   UNL A   1      32.938  23.438  23.400  1.00  0.00    -0.001 C 
ATOM     11  C   UNL A   1      33.786  24.649  23.856  1.00  0.00     0.005 C 
ATOM     12  C   UNL A   1      33.414  22.218  24.177  1.00  0.00     0.095 C 
ATOM     13  C   UNL A   1      35.307  24.409  23.817  1.00  0.00     0.014 C 
ATOM     14  C   UNL A   1      34.907  21.975  24.041  1.00  0.00     0.104 C 
ATOM     15  C   UNL A   1      32.888  20.836  23.883  1.00  0.00     0.237 C 
ATOM     16  C   UNL A   1      35.040  20.610  24.664  1.00  0.00     0.238 C 
ATOM     17  N   UNL A   1      33.838  19.961  24.398  1.00  0.00    -0.250 N 
ATOM     18  O   UNL A   1      31.801  20.602  23.380  1.00  0.00    -0.274 OA
ATOM     19  O   UNL A   1      36.089  20.164  25.102  1.00  0.00    -0.274 OA
BRANCH  17  20
ATOM     20  C   UNL A   1      33.630  18.575  24.587  1.00  0.00     0.052 A 
ATOM     21  C   UNL A   1      34.183  17.635  23.705  1.00  0.00     0.027 A 
ATOM     22  C   UNL A   1      32.852  18.109  25.656  1.00  0.00     0.027 A 
ATOM     23  C   UNL A   1      33.977  16.265  23.898  1.00  0.00     0.002 A 
ATOM     24  C   UNL A   1      32.612  16.743  25.824  1.00  0.00     0.002 A 
ATOM     25  C   UNL A   1      33.182  15.820  24.950  1.00  0.00     0.000 A 
ENDBRANCH  17  20
ENDBRANCH   5   8
ENDBRANCH   3   4
ENDBRANCH   2   3
ENDBRANCH   1   2
BRANCH   1  26
ATOM     26  C   UNL A   1      40.966  23.064  27.127  1.00  0.00     0.116 C 
BRANCH  26  27
ATOM     27  N   UNL A   1      41.520  23.881  26.061  1.00  0.00    -0.352 N 
ATOM     28  C   UNL A   1      41.799  25.227  26.048  1.00  0.00     0.251 C 
ATOM     29  H   UNL A   1      41.725  23.401  25.226  1.00  0.00     0.163 HD
ATOM     30  O   UNL A   1      42.142  25.766  24.999  1.00  0.00    -0.269 OA
BRANCH  28  31
ATOM     31  C   UNL A   1      41.655  26.030  27.284  1.00  0.00     0.039 A 
ATOM     32  C   UNL A   1      42.693  26.891  27.649  1.00  0.00     0.014 A 
ATOM     33  C   UNL A   1      40.508  25.941  28.077  1.00  0.00     0.014 A 
ATOM     34  C   UNL A   1      42.549  27.718  28.766  1.00  0.00     0.010 A 
ATOM     35  C   UNL A   1      40.338  26.811  29.154  1.00  0.00     0.010 A 
ATOM     36  C   UNL A   1      41.354  27.715  29.505  1.00  0.00    -0.014 A 
BRANCH  36  37
ATOM     37  C   UNL A   1      41.138  28.668  30.626  1.00  0.00     0.031 A 
ATOM     38  C   UNL A   1      41.957  28.562  31.885  1.00  0.00     0.074 A 
ATOM     39  C   UNL A   1      40.151  29.582  30.537  1.00  0.00     0.049 A 
ATOM     40  N   UNL A   1      41.858  29.252  32.991  1.00  0.00    -0.248 NA
ATOM     41  C   UNL A   1      43.009  27.532  31.912  1.00  0.00     0.031 C 
ATOM     42  C   UNL A   1      39.254  29.753  29.391  1.00  0.00     0.029 A 
ATOM     43  N   UNL A   1      39.724  30.533  31.432  1.00  0.00    -0.354 N 
ATOM     44  C   UNL A   1      42.815  28.728  33.853  1.00  0.00     0.074 A 
ATOM     45  C   UNL A   1      43.463  27.641  33.153  1.00  0.00     0.031 C 
ATOM     46  C   UNL A   1      38.397  30.756  29.646  1.00  0.00     0.029 A 
ATOM     47  C   UNL A   1      38.656  31.276  30.984  1.00  0.00     0.049 A 
ATOM     48  H   UNL A   1      40.144  30.672  32.311  1.00  0.00     0.167 HD
ATOM     49  C   UNL A   1      43.134  29.130  35.106  1.00  0.00     0.037 A 
ATOM     50  C   UNL A   1      37.955  32.256  31.588  1.00  0.00     0.037 A 
ATOM     51  C   UNL A   1      42.518  30.242  35.783  1.00  0.00     0.049 A 
ATOM     52  C   UNL A   1      38.341  32.686  32.978  1.00  0.00     0.074 A 
ATOM     53  C   UNL A   1      42.839  30.780  37.017  1.00  0.00     0.029 A 
ATOM     54  N   UNL A   1      41.457  30.984  35.287  1.00  0.00    -0.354 N 
ATOM     55  N   UNL A   1      39.305  32.233  33.744  1.00  0.00    -0.248 NA
ATOM     56  C   UNL A   1      37.545  33.763  33.586  1.00  0.00     0.031 C 
ATOM     57  C   UNL A   1      41.945  31.821  37.287  1.00  0.00     0.029 A 
ATOM     58  C   UNL A   1      41.095  31.958  36.202  1.00  0.00     0.049 A 
ATOM     59  H   UNL A   1      41.025  30.839  34.414  1.00  0.00     0.167 HD
ATOM     60  C   UNL A   1      39.248  32.988  34.910  1.00  0.00     0.074 A 
ATOM     61  C   UNL A   1      38.166  33.935  34.745  1.00  0.00     0.031 C 
ATOM     62  C   UNL A   1      40.024  32.905  36.018  1.00  0.00     0.037 A 
BRANCH  49  63
ATOM     63  C   UNL A   1      44.208  28.375  35.840  1.00  0.00     0.058 A 
ATOM     64  C   UNL A   1      45.561  28.731  35.733  1.00  0.00     0.135 A 
ATOM     65  C   UNL A   1      43.870  27.342  36.730  1.00  0.00     0.135 A 
ATOM     66  F   UNL A   1      45.941  29.701  34.886  1.00  0.00    -0.206 F 
ATOM     67  C   UNL A   1      46.543  28.082  36.474  1.00  0.00     0.059 A 
ATOM     68  C   UNL A   1      44.833  26.696  37.498  1.00  0.00     0.059 A 
ATOM     69  F   UNL A   1      42.589  26.963  36.868  1.00  0.00    -0.206 F 
ATOM     70  C   UNL A   1      46.168  27.070  37.359  1.00  0.00     0.060 A 
BRANCH  70  71
ATOM     71  S   UNL A   1      47.451  26.270  38.348  1.00  0.00     0.124 S 
ATOM     72  O   UNL A   1      46.667  25.306  39.114  1.00  0.00    -0.237 OA
ATOM     73  O   UNL A   1      48.326  25.706  37.326  1.00  0.00    -0.237 OA
ATOM     74  O   UNL A   1      48.020  27.369  39.120  1.00  0.00    -0.744 OA
ENDBRANCH  70  71
ENDBRANCH  49  63
BRANCH  50  75
ATOM     75  C   UNL A   1      36.819  32.912  30.886  1.00  0.00     0.058 A 
ATOM     76  C   UNL A   1      37.046  33.870  29.888  1.00  0.00     0.135 A 
ATOM     77  C   UNL A   1      35.488  32.619  31.221  1.00  0.00     0.135 A 
ATOM     78  F   UNL A   1      38.302  34.188  29.537  1.00  0.00    -0.206 F 
ATOM     79  C   UNL A   1      35.996  34.540  29.268  1.00  0.00     0.059 A 
ATOM     80  C   UNL A   1      34.421  33.259  30.598  1.00  0.00     0.059 A 
ATOM     81  F   UNL A   1      35.216  31.698  32.158  1.00  0.00    -0.206 F 
ATOM     82  C   UNL A   1      34.686  34.232  29.635  1.00  0.00     0.060 A 
BRANCH  82  83
ATOM     83  S   UNL A   1      33.328  35.099  28.819  1.00  0.00     0.124 S 
ATOM     84  O   UNL A   1      32.542  35.550  29.961  1.00  0.00    -0.237 OA
ATOM     85  O   UNL A   1      34.029  36.139  28.073  1.00  0.00    -0.237 OA
ATOM     86  O   UNL A   1      32.713  34.059  28.000  1.00  0.00    -0.744 OA
ENDBRANCH  82  83
ENDBRANCH  50  75
BRANCH  62  87
ATOM     87  C   UNL A   1      39.760  33.887  37.125  1.00  0.00     0.058 A 
ATOM     88  C   UNL A   1      38.938  33.563  38.216  1.00  0.00     0.135 A 
ATOM     89  C   UNL A   1      40.375  35.149  37.118  1.00  0.00     0.135 A 
ATOM     90  F   UNL A   1      38.320  32.372  38.266  1.00  0.00    -0.206 F 
ATOM     91  C   UNL A   1      38.718  34.465  39.252  1.00  0.00     0.059 A 
ATOM     92  C   UNL A   1      40.191  36.057  38.156  1.00  0.00     0.059 A 
ATOM     93  F   UNL A   1      41.178  35.503  36.102  1.00  0.00    -0.206 F 
ATOM     94  C   UNL A   1      39.351  35.709  39.213  1.00  0.00     0.060 A 
BRANCH  94  95
ATOM     95  S   UNL A   1      39.086  36.859  40.580  1.00  0.00     0.124 S 
ATOM     96  O   UNL A   1      40.456  37.212  40.937  1.00  0.00    -0.237 OA
ATOM     97  O   UNL A   1      38.301  37.917  39.953  1.00  0.00    -0.237 OA
ATOM     98  O   UNL A   1      38.367  36.054  41.565  1.00  0.00    -0.744 OA
ENDBRANCH  94  95
ENDBRANCH  62  87
ENDBRANCH  36  37
ENDBRANCH  28  31
ENDBRANCH  26  27
ENDBRANCH   1  26
TORSDOF 15
ENDMDL
MODEL 2
REMARK VINA RESULT:     -12.8      6.519     11.800
REMARK SMILES C[C@@H]1CC[C@@H](C(=O)NCCCCNC(=O)c2ccc(-c3c4nc(c(-c5c(F)cc(S(=O)(=O)[O-])cc5F)c5ccc([nH]5)c(-c5c(F)cc(S(=O)(=O)[O-])cc5F)c5nc(c(-c6c(F)cc(S(=O)(=O)[O-])cc6F)c6ccc3[nH]6)C=C5)C=C4)cc2)[C@H]2C(=O)N(c3ccccc3)C(=O)[C@@H]21
REMARK SMILES IDX 11 1 10 2 9 3 8 4 6 5 7 6 5 8 1 9 2 10 3 11 94 12 4 13 82 14
REMARK SMILES IDX 92 15 83 16 85 17 93 18 84 19 86 20 87 21 91 22 88 23 90 24
REMARK SMILES IDX 89 25 12 26 13 27 14 28 15 30 16 31 17 32 81 33 18 34 80 35
REMARK SMILES IDX 19 36 20 37 21 38 74 39 22 40 79 41 73 42 75 43 23 44 78 45
REMARK SMILES IDX 72 46 71 47 24 49 58 50 37 51 57 52 38 53 41 54 56 55 76 56
REMARK SMILES IDX 39 57 40 58 55 60 77 61 42 62 25 63 26 64 35 65 27 66 28 67
REMARK SMILES IDX 34 68 36 69 29 70 30 71 31 72 32 73 33 74 59 75 60 76 69 77
REMARK SMILES IDX 61 78 62 79 68 80 70 81 63 82 64 83 65 84 66 85 67 86 43 87
REMARK SMILES IDX 44 88 53 89 45 90 46 91 52 92 54 93 47 94 48 95 49 96 50 97
REMARK SMILES IDX 51 98
REMARK H PARENT 8 7 13 29 75 48 41 59
REMARK Flexibility Score: inf
ROOT
ATOM      1  C   UNL A   1      33.957  30.627  27.188  1.00  0.00     0.023 C 
ENDROOT
BRANCH   1   2
ATOM      2  C   UNL A   1      32.801  29.635  27.031  1.00  0.00     0.023 C 
BRANCH   2   3
ATOM      3  C   UNL A   1      33.185  28.161  27.160  1.00  0.00     0.116 C 
BRANCH   3   4
ATOM      4  N   UNL A   1      32.110  27.282  26.740  1.00  0.00    -0.356 N 
ATOM      5  C   UNL A   1      31.821  26.763  25.516  1.00  0.00     0.223 C 
ATOM      6  O   UNL A   1      30.851  26.011  25.423  1.00  0.00    -0.275 OA
ATOM      7  H   UNL A   1      31.488  27.019  27.457  1.00  0.00     0.163 HD
BRANCH   5   8
ATOM      8  C   UNL A   1      32.690  27.119  24.312  1.00  0.00     0.092 C 
ATOM      9  C   UNL A   1      32.604  25.953  20.629  1.00  0.00     0.008 C 
ATOM     10  C   UNL A   1      31.717  25.613  21.826  1.00  0.00    -0.001 C 
ATOM     11  C   UNL A   1      30.996  26.868  22.371  1.00  0.00     0.005 C 
ATOM     12  C   UNL A   1      32.451  24.957  22.987  1.00  0.00     0.095 C 
ATOM     13  C   UNL A   1      31.897  27.815  23.185  1.00  0.00     0.014 C 
ATOM     14  C   UNL A   1      33.389  25.908  23.707  1.00  0.00     0.104 C 
ATOM     15  C   UNL A   1      33.367  23.778  22.782  1.00  0.00     0.237 C 
ATOM     16  C   UNL A   1      34.147  24.956  24.596  1.00  0.00     0.238 C 
ATOM     17  N   UNL A   1      34.197  23.755  23.897  1.00  0.00    -0.250 N 
ATOM     18  O   UNL A   1      33.283  22.990  21.853  1.00  0.00    -0.274 OA
ATOM     19  O   UNL A   1      34.746  25.301  25.604  1.00  0.00    -0.274 OA
BRANCH  17  20
ATOM     20  C   UNL A   1      35.026  22.666  24.256  1.00  0.00     0.052 A 
ATOM     21  C   UNL A   1      34.477  21.447  24.676  1.00  0.00     0.027 A 
ATOM     22  C   UNL A   1      36.422  22.789  24.212  1.00  0.00     0.027 A 
ATOM     23  C   UNL A   1      35.302  20.373  25.027  1.00  0.00     0.002 A 
ATOM     24  C   UNL A   1      37.246  21.730  24.602  1.00  0.00     0.002 A 
ATOM     25  C   UNL A   1      36.686  20.519  25.001  1.00  0.00     0.000 A 
ENDBRANCH  17  20
ENDBRANCH   5   8
ENDBRANCH   3   4
ENDBRANCH   2   3
ENDBRANCH   1   2
BRANCH   1  26
ATOM     26  C   UNL A   1      35.138  30.135  28.019  1.00  0.00     0.116 C 
BRANCH  26  27
ATOM     27  N   UNL A   1      35.231  30.790  29.312  1.00  0.00    -0.352 N 
ATOM     28  C   UNL A   1      36.281  30.825  30.200  1.00  0.00     0.251 C 
ATOM     29  H   UNL A   1      34.426  31.283  29.594  1.00  0.00     0.163 HD
ATOM     30  O   UNL A   1      36.120  31.323  31.310  1.00  0.00    -0.269 OA
BRANCH  28  31
ATOM     31  C   UNL A   1      37.588  30.232  29.832  1.00  0.00     0.039 A 
ATOM     32  C   UNL A   1      37.953  30.199  28.484  1.00  0.00     0.014 A 
ATOM     33  C   UNL A   1      38.450  29.718  30.804  1.00  0.00     0.014 A 
ATOM     34  C   UNL A   1      39.213  29.719  28.118  1.00  0.00     0.010 A 
ATOM     35  C   UNL A   1      39.730  29.298  30.444  1.00  0.00     0.010 A 
ATOM     36  C   UNL A   1      40.128  29.302  29.098  1.00  0.00    -0.014 A 
BRANCH  36  37
ATOM     37  C   UNL A   1      41.513  28.896  28.737  1.00  0.00     0.031 A 
ATOM     38  C   UNL A   1      42.619  29.916  28.693  1.00  0.00     0.074 A 
ATOM     39  C   UNL A   1      41.756  27.620  28.376  1.00  0.00     0.049 A 
ATOM     40  N   UNL A   1      43.865  29.764  28.327  1.00  0.00    -0.248 NA
ATOM     41  C   UNL A   1      42.275  31.292  29.091  1.00  0.00     0.031 C 
ATOM     42  C   UNL A   1      40.758  26.547  28.328  1.00  0.00     0.029 A 
ATOM     43  N   UNL A   1      42.915  27.008  27.966  1.00  0.00    -0.354 N 
ATOM     44  C   UNL A   1      44.448  31.022  28.427  1.00  0.00     0.074 A 
ATOM     45  C   UNL A   1      43.411  31.934  28.857  1.00  0.00     0.031 C 
ATOM     46  C   UNL A   1      41.351  25.410  27.928  1.00  0.00     0.029 A 
ATOM     47  C   UNL A   1      42.760  25.676  27.656  1.00  0.00     0.049 A 
ATOM     48  H   UNL A   1      43.778  27.478  27.900  1.00  0.00     0.167 HD
ATOM     49  C   UNL A   1      45.734  31.378  28.198  1.00  0.00     0.037 A 
ATOM     50  C   UNL A   1      43.648  24.775  27.192  1.00  0.00     0.037 A 
ATOM     51  C   UNL A   1      46.774  30.459  27.814  1.00  0.00     0.049 A 
ATOM     52  C   UNL A   1      45.072  25.200  26.956  1.00  0.00     0.074 A 
ATOM     53  C   UNL A   1      48.125  30.711  27.649  1.00  0.00     0.029 A 
ATOM     54  N   UNL A   1      46.582  29.115  27.534  1.00  0.00    -0.354 N 
ATOM     55  N   UNL A   1      45.622  26.377  27.138  1.00  0.00    -0.248 NA
ATOM     56  C   UNL A   1      45.998  24.174  26.454  1.00  0.00     0.031 C 
ATOM     57  C   UNL A   1      48.743  29.530  27.227  1.00  0.00     0.029 A 
ATOM     58  C   UNL A   1      47.785  28.532  27.172  1.00  0.00     0.049 A 
ATOM     59  H   UNL A   1      45.718  28.645  27.585  1.00  0.00     0.167 HD
ATOM     60  C   UNL A   1      46.962  26.224  26.799  1.00  0.00     0.074 A 
ATOM     61  C   UNL A   1      47.143  24.840  26.416  1.00  0.00     0.031 C 
ATOM     62  C   UNL A   1      47.954  27.148  26.807  1.00  0.00     0.037 A 
BRANCH  49  63
ATOM     63  C   UNL A   1      46.109  32.825  28.363  1.00  0.00     0.058 A 
ATOM     64  C   UNL A   1      46.018  33.735  27.298  1.00  0.00     0.135 A 
ATOM     65  C   UNL A   1      46.478  33.325  29.623  1.00  0.00     0.135 A 
ATOM     66  F   UNL A   1      45.683  33.308  26.070  1.00  0.00    -0.206 F 
ATOM     67  C   UNL A   1      46.289  35.087  27.474  1.00  0.00     0.059 A 
ATOM     68  C   UNL A   1      46.731  34.677  29.826  1.00  0.00     0.059 A 
ATOM     69  F   UNL A   1      46.582  32.496  30.674  1.00  0.00    -0.206 F 
ATOM     70  C   UNL A   1      46.639  35.551  28.744  1.00  0.00     0.060 A 
BRANCH  70  71
ATOM     71  S   UNL A   1      46.941  37.317  28.964  1.00  0.00     0.124 S 
ATOM     72  O   UNL A   1      46.774  37.812  27.601  1.00  0.00    -0.237 OA
ATOM     73  O   UNL A   1      45.896  37.698  29.909  1.00  0.00    -0.237 OA
ATOM     74  O   UNL A   1      48.302  37.367  29.487  1.00  0.00    -0.744 OA
ENDBRANCH  70  71
ENDBRANCH  49  63
BRANCH  50  75
ATOM     75  C   UNL A   1      43.227  23.373  26.925  1.00  0.00     0.058 A 
ATOM     76  C   UNL A   1      43.008  22.473  27.978  1.00  0.00     0.135 A 
ATOM     77  C   UNL A   1      43.068  22.897  25.614  1.00  0.00     0.135 A 
ATOM     78  F   UNL A   1      43.154  22.880  29.248  1.00  0.00    -0.206 F 
ATOM     79  C   UNL A   1      42.680  21.142  27.744  1.00  0.00     0.059 A 
ATOM     80  C   UNL A   1      42.715  21.576  25.355  1.00  0.00     0.059 A 
ATOM     81  F   UNL A   1      43.249  23.721  24.571  1.00  0.00    -0.206 F 
ATOM     82  C   UNL A   1      42.541  20.700  26.427  1.00  0.00     0.060 A 
BRANCH  82  83
ATOM     83  S   UNL A   1      42.104  18.974  26.130  1.00  0.00     0.124 S 
ATOM     84  O   UNL A   1      43.029  18.618  25.061  1.00  0.00    -0.237 OA
ATOM     85  O   UNL A   1      42.363  18.362  27.430  1.00  0.00    -0.237 OA
ATOM     86  O   UNL A   1      40.696  19.047  25.752  1.00  0.00    -0.744 OA
ENDBRANCH  82  83
ENDBRANCH  50  75
BRANCH  62  87
ATOM     87  C   UNL A   1      49.333  26.687  26.427  1.00  0.00     0.058 A 
ATOM     88  C   UNL A   1      50.178  26.051  27.350  1.00  0.00     0.135 A 
ATOM     89  C   UNL A   1      49.796  26.841  25.110  1.00  0.00     0.135 A 
ATOM     90  F   UNL A   1      49.785  25.887  28.623  1.00  0.00    -0.206 F 
ATOM     91  C   UNL A   1      51.442  25.601  26.985  1.00  0.00     0.059 A 
ATOM     92  C   UNL A   1      51.047  26.375  24.717  1.00  0.00     0.059 A 
ATOM     93  F   UNL A   1      49.023  27.434  24.187  1.00  0.00    -0.206 F 
ATOM     94  C   UNL A   1      51.867  25.766  25.665  1.00  0.00     0.060 A 
BRANCH  94  95
ATOM     95  S   UNL A   1      53.497  25.148  25.195  1.00  0.00     0.124 S 
ATOM     96  O   UNL A   1      53.597  25.601  23.812  1.00  0.00    -0.237 OA
ATOM     97  O   UNL A   1      54.374  25.820  26.148  1.00  0.00    -0.237 OA
ATOM     98  O   UNL A   1      53.376  23.703  25.376  1.00  0.00    -0.744 OA
ENDBRANCH  94  95
ENDBRANCH  62  87
ENDBRANCH  36  37
ENDBRANCH  28  31
ENDBRANCH  26  27
ENDBRANCH   1  26
TORSDOF 15
ENDMDL
MODEL 3
REMARK VINA RESULT:     -12.8      4.796     10.110
REMARK SMILES C[C@@H]1CC[C@@H](C(=O)NCCCCNC(=O)c2ccc(-c3c4nc(c(-c5c(F)cc(S(=O)(=O)[O-])cc5F)c5ccc([nH]5)c(-c5c(F)cc(S(=O)(=O)[O-])cc5F)c5nc(c(-c6c(F)cc(S(=O)(=O)[O-])cc6F)c6ccc3[nH]6)C=C5)C=C4)cc2)[C@H]2C(=O)N(c3ccccc3)C(=O)[C@@H]21
REMARK SMILES IDX 11 1 10 2 9 3 8 4 6 5 7 6 5 8 1 9 2 10 3 11 94 12 4 13 82 14
REMARK SMILES IDX 92 15 83 16 85 17 93 18 84 19 86 20 87 21 91 22 88 23 90 24
REMARK SMILES IDX 89 25 12 26 13 27 14 28 15 30 16 31 17 32 81 33 18 34 80 35
REMARK SMILES IDX 19 36 20 37 21 38 74 39 22 40 79 41 73 42 75 43 23 44 78 45
REMARK SMILES IDX 72 46 71 47 24 49 58 50 37 51 57 52 38 53 41 54 56 55 76 56
REMARK SMILES IDX 39 57 40 58 55 60 77 61 42 62 25 63 26 64 35 65 27 66 28 67
REMARK SMILES IDX 34 68 36 69 29 70 30 71 31 72 32 73 33 74 59 75 60 76 69 77
REMARK SMILES IDX 61 78 62 79 68 80 70 81 63 82 64 83 65 84 66 85 67 86 43 87
REMARK SMILES IDX 44 88 53 89 45 90 46 91 52 92 54 93 47 94 48 95 49 96 50 97
REMARK SMILES IDX 51 98
REMARK H PARENT 8 7 13 29 75 48 41 59
REMARK Flexibility Score: inf
ROOT
ATOM      1  C   UNL A   1      33.689  28.045  25.793  1.00  0.00     0.023 C 
ENDROOT
BRANCH   1   2
ATOM      2  C   UNL A   1      32.666  27.163  25.071  1.00  0.00     0.023 C 
BRANCH   2   3
ATOM      3  C   UNL A   1      32.697  25.683  25.455  1.00  0.00     0.116 C 
BRANCH   3   4
ATOM      4  N   UNL A   1      33.145  24.847  24.357  1.00  0.00    -0.356 N 
ATOM      5  C   UNL A   1      34.044  23.827  24.334  1.00  0.00     0.223 C 
ATOM      6  O   UNL A   1      34.236  23.251  23.263  1.00  0.00    -0.275 OA
ATOM      7  H   UNL A   1      32.731  25.053  23.487  1.00  0.00     0.163 HD
BRANCH   5   8
ATOM      8  C   UNL A   1      34.780  23.430  25.611  1.00  0.00     0.092 C 
ATOM      9  C   UNL A   1      38.239  21.813  26.204  1.00  0.00     0.008 C 
ATOM     10  C   UNL A   1      37.517  22.231  24.925  1.00  0.00    -0.001 C 
ATOM     11  C   UNL A   1      37.248  23.754  24.898  1.00  0.00     0.005 C 
ATOM     12  C   UNL A   1      36.191  21.521  24.689  1.00  0.00     0.095 C 
ATOM     13  C   UNL A   1      36.097  24.212  25.813  1.00  0.00     0.014 C 
ATOM     14  C   UNL A   1      35.110  21.944  25.668  1.00  0.00     0.104 C 
ATOM     15  C   UNL A   1      36.067  20.021  24.784  1.00  0.00     0.237 C 
ATOM     16  C   UNL A   1      34.038  20.925  25.381  1.00  0.00     0.238 C 
ATOM     17  N   UNL A   1      34.715  19.773  24.992  1.00  0.00    -0.250 N 
ATOM     18  O   UNL A   1      36.988  19.238  24.609  1.00  0.00    -0.274 OA
ATOM     19  O   UNL A   1      32.860  21.083  25.662  1.00  0.00    -0.274 OA
BRANCH  17  20
ATOM     20  C   UNL A   1      34.106  18.503  24.871  1.00  0.00     0.052 A 
ATOM     21  C   UNL A   1      33.132  18.078  25.786  1.00  0.00     0.027 A 
ATOM     22  C   UNL A   1      34.475  17.630  23.838  1.00  0.00     0.027 A 
ATOM     23  C   UNL A   1      32.531  16.822  25.660  1.00  0.00     0.002 A 
ATOM     24  C   UNL A   1      33.904  16.359  23.736  1.00  0.00     0.002 A 
ATOM     25  C   UNL A   1      32.926  15.958  24.643  1.00  0.00     0.000 A 
ENDBRANCH  17  20
ENDBRANCH   5   8
ENDBRANCH   3   4
ENDBRANCH   2   3
ENDBRANCH   1   2
BRANCH   1  26
ATOM     26  C   UNL A   1      33.371  28.364  27.250  1.00  0.00     0.116 C 
BRANCH  26  27
ATOM     27  N   UNL A   1      33.334  29.791  27.520  1.00  0.00    -0.352 N 
ATOM     28  C   UNL A   1      34.314  30.608  28.035  1.00  0.00     0.251 C 
ATOM     29  H   UNL A   1      32.485  30.239  27.303  1.00  0.00     0.163 HD
ATOM     30  O   UNL A   1      34.046  31.772  28.318  1.00  0.00    -0.269 OA
BRANCH  28  31
ATOM     31  C   UNL A   1      35.674  30.077  28.280  1.00  0.00     0.039 A 
ATOM     32  C   UNL A   1      36.598  30.092  27.231  1.00  0.00     0.014 A 
ATOM     33  C   UNL A   1      36.042  29.572  29.529  1.00  0.00     0.014 A 
ATOM     34  C   UNL A   1      37.911  29.671  27.457  1.00  0.00     0.010 A 
ATOM     35  C   UNL A   1      37.368  29.212  29.771  1.00  0.00     0.010 A 
ATOM     36  C   UNL A   1      38.318  29.265  28.739  1.00  0.00    -0.014 A 
BRANCH  36  37
ATOM     37  C   UNL A   1      39.737  28.924  29.025  1.00  0.00     0.031 A 
ATOM     38  C   UNL A   1      40.670  29.957  29.598  1.00  0.00     0.074 A 
ATOM     39  C   UNL A   1      40.203  27.701  28.696  1.00  0.00     0.049 A 
ATOM     40  N   UNL A   1      41.952  29.865  29.840  1.00  0.00    -0.248 NA
ATOM     41  C   UNL A   1      40.091  31.272  29.921  1.00  0.00     0.031 C 
ATOM     42  C   UNL A   1      39.412  26.628  28.087  1.00  0.00     0.029 A 
ATOM     43  N   UNL A   1      41.459  27.157  28.814  1.00  0.00    -0.354 N 
ATOM     44  C   UNL A   1      42.339  31.111  30.320  1.00  0.00     0.074 A 
ATOM     45  C   UNL A   1      41.162  31.953  30.306  1.00  0.00     0.031 C 
ATOM     46  C   UNL A   1      40.196  25.553  27.901  1.00  0.00     0.029 A 
ATOM     47  C   UNL A   1      41.552  25.869  28.341  1.00  0.00     0.049 A 
ATOM     48  H   UNL A   1      42.222  27.643  29.202  1.00  0.00     0.167 HD
ATOM     49  C   UNL A   1      43.559  31.510  30.750  1.00  0.00     0.037 A 
ATOM     50  C   UNL A   1      42.610  25.039  28.257  1.00  0.00     0.037 A 
ATOM     51  C   UNL A   1      44.717  30.655  30.805  1.00  0.00     0.049 A 
ATOM     52  C   UNL A   1      43.952  25.509  28.752  1.00  0.00     0.074 A 
ATOM     53  C   UNL A   1      45.974  30.944  31.312  1.00  0.00     0.029 A 
ATOM     54  N   UNL A   1      44.765  29.350  30.340  1.00  0.00    -0.354 N 
ATOM     55  N   UNL A   1      44.278  26.664  29.281  1.00  0.00    -0.248 NA
ATOM     56  C   UNL A   1      45.071  24.561  28.641  1.00  0.00     0.031 C 
ATOM     57  C   UNL A   1      46.793  29.828  31.114  1.00  0.00     0.029 A 
ATOM     58  C   UNL A   1      46.035  28.830  30.524  1.00  0.00     0.049 A 
ATOM     59  H   UNL A   1      44.008  28.866  29.938  1.00  0.00     0.167 HD
ATOM     60  C   UNL A   1      45.631  26.570  29.591  1.00  0.00     0.074 A 
ATOM     61  C   UNL A   1      46.059  25.243  29.203  1.00  0.00     0.031 C 
ATOM     62  C   UNL A   1      46.445  27.501  30.147  1.00  0.00     0.037 A 
BRANCH  49  63
ATOM     63  C   UNL A   1      43.720  32.932  31.209  1.00  0.00     0.058 A 
ATOM     64  C   UNL A   1      43.475  33.308  32.539  1.00  0.00     0.135 A 
ATOM     65  C   UNL A   1      44.208  33.912  30.329  1.00  0.00     0.135 A 
ATOM     66  F   UNL A   1      42.994  32.414  33.417  1.00  0.00    -0.206 F 
ATOM     67  C   UNL A   1      43.701  34.608  32.978  1.00  0.00     0.059 A 
ATOM     68  C   UNL A   1      44.463  35.213  30.753  1.00  0.00     0.059 A 
ATOM     69  F   UNL A   1      44.456  33.605  29.046  1.00  0.00    -0.206 F 
ATOM     70  C   UNL A   1      44.201  35.552  32.080  1.00  0.00     0.060 A 
BRANCH  70  71
ATOM     71  S   UNL A   1      44.532  37.223  32.679  1.00  0.00     0.124 S 
ATOM     72  O   UNL A   1      45.989  37.274  32.608  1.00  0.00    -0.237 OA
ATOM     73  O   UNL A   1      43.821  38.049  31.709  1.00  0.00    -0.237 OA
ATOM     74  O   UNL A   1      43.970  37.220  34.026  1.00  0.00    -0.744 OA
ENDBRANCH  70  71
ENDBRANCH  49  63
BRANCH  50  75
ATOM     75  C   UNL A   1      42.454  23.672  27.691  1.00  0.00     0.058 A 
ATOM     76  C   UNL A   1      42.323  22.557  28.530  1.00  0.00     0.135 A 
ATOM     77  C   UNL A   1      42.465  23.452  26.305  1.00  0.00     0.135 A 
ATOM     78  F   UNL A   1      42.313  22.717  29.863  1.00  0.00    -0.206 F 
ATOM     79  C   UNL A   1      42.242  21.265  28.019  1.00  0.00     0.059 A 
ATOM     80  C   UNL A   1      42.360  22.171  25.769  1.00  0.00     0.059 A 
ATOM     81  F   UNL A   1      42.571  24.487  25.459  1.00  0.00    -0.206 F 
ATOM     82  C   UNL A   1      42.267  21.082  26.636  1.00  0.00     0.060 A 
BRANCH  82  83
ATOM     83  S   UNL A   1      42.152  19.404  25.978  1.00  0.00     0.124 S 
ATOM     84  O   UNL A   1      40.719  19.284  25.736  1.00  0.00    -0.237 OA
ATOM     85  O   UNL A   1      42.998  19.479  24.790  1.00  0.00    -0.237 OA
ATOM     86  O   UNL A   1      42.681  18.584  27.064  1.00  0.00    -0.744 OA
ENDBRANCH  82  83
ENDBRANCH  50  75
BRANCH  62  87
ATOM     87  C   UNL A   1      47.871  27.106  30.408  1.00  0.00     0.058 A 
ATOM     88  C   UNL A   1      48.889  27.365  29.477  1.00  0.00     0.135 A 
ATOM     89  C   UNL A   1      48.232  26.506  31.626  1.00  0.00     0.135 A 
ATOM     90  F   UNL A   1      48.595  27.930  28.295  1.00  0.00    -0.206 F 
ATOM     91  C   UNL A   1      50.212  27.024  29.734  1.00  0.00     0.059 A 
ATOM     92  C   UNL A   1      49.553  26.181  31.916  1.00  0.00     0.059 A 
ATOM     93  F   UNL A   1      47.297  26.247  32.554  1.00  0.00    -0.206 F 
ATOM     94  C   UNL A   1      50.534  26.433  30.958  1.00  0.00     0.060 A 
BRANCH  94  95
ATOM     95  S   UNL A   1      52.261  26.026  31.296  1.00  0.00     0.124 S 
ATOM     96  O   UNL A   1      52.628  27.069  32.248  1.00  0.00    -0.237 OA
ATOM     97  O   UNL A   1      52.163  24.675  31.841  1.00  0.00    -0.237 OA
ATOM     98  O   UNL A   1      52.894  26.120  29.984  1.00  0.00    -0.744 OA
ENDBRANCH  94  95
ENDBRANCH  62  87
ENDBRANCH  36  37
ENDBRANCH  28  31
ENDBRANCH  26  27
ENDBRANCH   1  26
TORSDOF 15
ENDMDL
