MODEL 1
REMARK VINA RESULT:     -12.4      0.000      0.000
REMARK SMILES Cc1ccc(N2CC[C@H]([NH+]3CCOCC3)[C@H](CCC(=O)NCCCCNC(=O)c3ccc(-c4c5nc(c(-c6c(F)cc(S(=O)(=O)[O-])cc6F)c6ccc([nH]6)c(-c6c(F)cc(S(=O)(=O)[O-])cc6F)c6nc(c(-c7c(F)cc(S(=O)(=O)[O-])cc7F)c7ccc4[nH]7)C=C6)C=C5)cc3)C2)nc1
REMARK SMILES IDX 23 1 22 2 21 3 19 4 20 5 18 7 17 8 16 9 6 10 7 11 95 12 8 13
REMARK SMILES IDX 9 14 5 15 1 16 2 17 3 18 97 19 4 20 96 21 10 22 11 23 15 24
REMARK SMILES IDX 12 26 14 27 13 28 24 29 25 30 26 31 27 32 28 34 29 35 30 36
REMARK SMILES IDX 94 37 31 38 93 39 32 40 33 41 34 42 87 43 35 44 92 45 86 46
REMARK SMILES IDX 88 47 36 48 91 49 85 50 84 51 37 53 71 54 50 55 70 56 51 57
REMARK SMILES IDX 54 58 69 59 89 60 52 61 53 62 68 64 90 65 55 66 38 67 39 68
REMARK SMILES IDX 48 69 40 70 41 71 47 72 49 73 42 74 43 75 44 76 45 77 46 78
REMARK SMILES IDX 72 79 73 80 82 81 74 82 75 83 81 84 83 85 76 86 77 87 78 88
REMARK SMILES IDX 79 89 80 90 56 91 57 92 66 93 58 94 59 95 65 96 67 97 60 98
REMARK SMILES IDX 61 99 62 100 63 101 64 102
REMARK H PARENT 21 6 10 25 26 33 88 52 54 63
REMARK Flexibility Score: inf
ROOT
ATOM      1  C   UNL A   1      39.741  21.810  26.166  1.00  0.00     0.023 C 
ENDROOT
BRANCH   1   2
ATOM      2  C   UNL A   1      38.322  22.391  26.126  1.00  0.00     0.116 C 
BRANCH   2   3
ATOM      3  N   UNL A   1      37.931  22.639  24.750  1.00  0.00    -0.356 N 
ATOM      4  C   UNL A   1      36.704  22.938  24.234  1.00  0.00     0.220 C 
ATOM      5  O   UNL A   1      36.556  22.900  23.011  1.00  0.00    -0.275 OA
ATOM      6  H   UNL A   1      38.660  22.582  24.090  1.00  0.00     0.163 HD
BRANCH   4   7
ATOM      7  C   UNL A   1      35.564  23.365  25.145  1.00  0.00     0.100 C 
BRANCH   7   8
ATOM      8  C   UNL A   1      34.616  24.442  24.576  1.00  0.00     0.021 C 
BRANCH   8   9
ATOM      9  C   UNL A   1      33.439  24.814  25.502  1.00  0.00     0.067 C 
ATOM     10  N   UNL A   1      32.051  22.779  25.873  1.00  0.00    -0.356 N 
ATOM     11  C   UNL A   1      30.852  23.396  25.342  1.00  0.00     0.124 C 
ATOM     12  C   UNL A   1      33.065  23.644  26.452  1.00  0.00     0.127 C 
ATOM     13  C   UNL A   1      31.213  24.435  24.289  1.00  0.00     0.087 C 
ATOM     14  C   UNL A   1      32.143  25.479  24.912  1.00  0.00     0.190 C 
BRANCH  10  15
ATOM     15  C   UNL A   1      32.406  21.545  25.369  1.00  0.00     0.128 A 
ATOM     16  C   UNL A   1      33.761  17.821  23.808  1.00  0.00     0.046 C 
ATOM     17  C   UNL A   1      33.274  19.138  24.314  1.00  0.00    -0.033 A 
ATOM     18  C   UNL A   1      32.545  20.012  23.514  1.00  0.00     0.009 A 
ATOM     19  C   UNL A   1      33.513  19.529  25.622  1.00  0.00     0.117 A 
ATOM     20  C   UNL A   1      32.099  21.219  24.050  1.00  0.00     0.047 A 
ATOM     21  N   UNL A   1      33.118  20.707  26.150  1.00  0.00    -0.239 NA
ENDBRANCH  10  15
BRANCH  14  22
ATOM     22  N   UNL A   1      32.334  26.730  24.150  1.00  0.00    -0.328 N 
ATOM     23  C   UNL A   1      31.280  27.748  24.384  1.00  0.00     0.291 C 
ATOM     24  C   UNL A   1      32.616  26.645  22.709  1.00  0.00     0.291 C 
ATOM     25  H   UNL A   1      33.215  27.028  24.566  1.00  0.00     0.348 HD
ATOM     26  C   UNL A   1      30.111  27.762  23.379  1.00  0.00     0.221 C 
ATOM     27  C   UNL A   1      31.411  26.675  21.765  1.00  0.00     0.221 C 
ATOM     28  O   UNL A   1      30.572  27.802  22.027  1.00  0.00    -0.370 OA
ENDBRANCH  14  22
ENDBRANCH   8   9
ENDBRANCH   7   8
ENDBRANCH   4   7
ENDBRANCH   2   3
ENDBRANCH   1   2
BRANCH   1  29
ATOM     29  C   UNL A   1      40.526  22.179  27.410  1.00  0.00     0.023 C 
BRANCH  29  30
ATOM     30  C   UNL A   1      41.774  22.982  27.087  1.00  0.00     0.116 C 
BRANCH  30  31
ATOM     31  N   UNL A   1      41.582  23.933  25.993  1.00  0.00    -0.352 N 
ATOM     32  C   UNL A   1      41.384  25.296  26.077  1.00  0.00     0.251 C 
ATOM     33  H   UNL A   1      41.597  23.554  25.084  1.00  0.00     0.163 HD
ATOM     34  O   UNL A   1      41.153  25.967  25.088  1.00  0.00    -0.269 OA
BRANCH  32  35
ATOM     35  C   UNL A   1      41.409  25.902  27.425  1.00  0.00     0.039 A 
ATOM     36  C   UNL A   1      42.532  26.632  27.815  1.00  0.00     0.014 A 
ATOM     37  C   UNL A   1      40.245  25.901  28.195  1.00  0.00     0.014 A 
ATOM     38  C   UNL A   1      42.444  27.465  28.930  1.00  0.00     0.010 A 
ATOM     39  C   UNL A   1      40.131  26.804  29.242  1.00  0.00     0.010 A 
ATOM     40  C   UNL A   1      41.222  27.609  29.609  1.00  0.00    -0.014 A 
BRANCH  40  41
ATOM     41  C   UNL A   1      41.041  28.617  30.683  1.00  0.00     0.031 A 
ATOM     42  C   UNL A   1      41.875  28.530  31.931  1.00  0.00     0.074 A 
ATOM     43  C   UNL A   1      40.057  29.535  30.585  1.00  0.00     0.049 A 
ATOM     44  N   UNL A   1      41.780  29.220  33.036  1.00  0.00    -0.248 NA
ATOM     45  C   UNL A   1      42.928  27.502  31.952  1.00  0.00     0.031 C 
ATOM     46  C   UNL A   1      39.137  29.679  29.454  1.00  0.00     0.029 A 
ATOM     47  N   UNL A   1      39.654  30.513  31.461  1.00  0.00    -0.354 N 
ATOM     48  C   UNL A   1      42.739  28.693  33.891  1.00  0.00     0.074 A 
ATOM     49  C   UNL A   1      43.368  27.591  33.197  1.00  0.00     0.031 C 
ATOM     50  C   UNL A   1      38.294  30.697  29.695  1.00  0.00     0.029 A 
ATOM     51  C   UNL A   1      38.584  31.252  31.013  1.00  0.00     0.049 A 
ATOM     52  H   UNL A   1      40.091  30.671  32.329  1.00  0.00     0.167 HD
ATOM     53  C   UNL A   1      43.083  29.107  35.133  1.00  0.00     0.037 A 
ATOM     54  C   UNL A   1      37.905  32.256  31.602  1.00  0.00     0.037 A 
ATOM     55  C   UNL A   1      42.488  30.235  35.796  1.00  0.00     0.049 A 
ATOM     56  C   UNL A   1      38.316  32.711  32.976  1.00  0.00     0.074 A 
ATOM     57  C   UNL A   1      42.830  30.793  37.015  1.00  0.00     0.029 A 
ATOM     58  N   UNL A   1      41.429  30.977  35.297  1.00  0.00    -0.354 N 
ATOM     59  N   UNL A   1      39.278  32.250  33.741  1.00  0.00    -0.248 NA
ATOM     60  C   UNL A   1      37.551  33.816  33.571  1.00  0.00     0.031 C 
ATOM     61  C   UNL A   1      41.953  31.852  37.270  1.00  0.00     0.029 A 
ATOM     62  C   UNL A   1      41.088  31.975  36.193  1.00  0.00     0.049 A 
ATOM     63  H   UNL A   1      40.985  30.818  34.433  1.00  0.00     0.167 HD
ATOM     64  C   UNL A   1      39.243  33.016  34.899  1.00  0.00     0.074 A 
ATOM     65  C   UNL A   1      38.175  33.981  34.730  1.00  0.00     0.031 C 
ATOM     66  C   UNL A   1      40.022  32.928  36.005  1.00  0.00     0.037 A 
BRANCH  53  67
ATOM     67  C   UNL A   1      44.166  28.344  35.842  1.00  0.00     0.058 A 
ATOM     68  C   UNL A   1      43.869  27.279  36.707  1.00  0.00     0.135 A 
ATOM     69  C   UNL A   1      45.517  28.668  35.640  1.00  0.00     0.135 A 
ATOM     70  F   UNL A   1      42.592  26.941  36.949  1.00  0.00    -0.206 F 
ATOM     71  C   UNL A   1      44.871  26.583  37.373  1.00  0.00     0.059 A 
ATOM     72  C   UNL A   1      46.538  27.968  36.275  1.00  0.00     0.059 A 
ATOM     73  F   UNL A   1      45.855  29.680  34.825  1.00  0.00    -0.206 F 
ATOM     74  C   UNL A   1      46.203  26.937  37.153  1.00  0.00     0.060 A 
BRANCH  74  75
ATOM     75  S   UNL A   1      47.492  26.026  38.027  1.00  0.00     0.124 S 
ATOM     76  O   UNL A   1      48.421  25.724  36.943  1.00  0.00    -0.237 OA
ATOM     77  O   UNL A   1      47.958  27.004  39.006  1.00  0.00    -0.237 OA
ATOM     78  O   UNL A   1      46.780  24.880  38.582  1.00  0.00    -0.744 OA
ENDBRANCH  74  75
ENDBRANCH  53  67
BRANCH  54  79
ATOM     79  C   UNL A   1      36.774  32.910  30.891  1.00  0.00     0.058 A 
ATOM     80  C   UNL A   1      35.447  32.663  31.271  1.00  0.00     0.135 A 
ATOM     81  C   UNL A   1      36.996  33.805  29.832  1.00  0.00     0.135 A 
ATOM     82  F   UNL A   1      35.185  31.809  32.272  1.00  0.00    -0.206 F 
ATOM     83  C   UNL A   1      34.378  33.272  30.623  1.00  0.00     0.059 A 
ATOM     84  C   UNL A   1      35.943  34.444  29.182  1.00  0.00     0.059 A 
ATOM     85  F   UNL A   1      38.248  34.087  29.441  1.00  0.00    -0.206 F 
ATOM     86  C   UNL A   1      34.636  34.164  29.580  1.00  0.00     0.060 A 
BRANCH  86  87
ATOM     87  S   UNL A   1      33.243  34.993  28.783  1.00  0.00     0.124 S 
ATOM     88  O   UNL A   1      32.441  35.391  29.935  1.00  0.00    -0.237 OA
ATOM     89  O   UNL A   1      33.903  36.077  28.061  1.00  0.00    -0.237 OA
ATOM     90  O   UNL A   1      32.670  33.949  27.942  1.00  0.00    -0.744 OA
ENDBRANCH  86  87
ENDBRANCH  54  79
BRANCH  66  91
ATOM     91  C   UNL A   1      39.762  33.902  37.117  1.00  0.00     0.058 A 
ATOM     92  C   UNL A   1      39.027  33.533  38.253  1.00  0.00     0.135 A 
ATOM     93  C   UNL A   1      40.325  35.188  37.084  1.00  0.00     0.135 A 
ATOM     94  F   UNL A   1      38.463  32.317  38.327  1.00  0.00    -0.206 F 
ATOM     95  C   UNL A   1      38.852  34.409  39.319  1.00  0.00     0.059 A 
ATOM     96  C   UNL A   1      40.181  36.072  38.148  1.00  0.00     0.059 A 
ATOM     97  F   UNL A   1      41.043  35.585  36.022  1.00  0.00    -0.206 F 
ATOM     98  C   UNL A   1      39.439  35.674  39.259  1.00  0.00     0.060 A 
BRANCH  98  99
ATOM     99  S   UNL A   1      39.259  36.778  40.677  1.00  0.00     0.124 S 
ATOM    100  O   UNL A   1      38.787  38.002  40.038  1.00  0.00    -0.237 OA
ATOM    101  O   UNL A   1      38.279  36.075  41.499  1.00  0.00    -0.237 OA
ATOM    102  O   UNL A   1      40.607  36.839  41.233  1.00  0.00    -0.744 OA
ENDBRANCH  98  99
ENDBRANCH  66  91
ENDBRANCH  40  41
ENDBRANCH  32  35
ENDBRANCH  30  31
ENDBRANCH  29  30
ENDBRANCH   1  29
TORSDOF 18
ENDMDL
MODEL 2
REMARK VINA RESULT:     -12.3      0.904      8.109
REMARK SMILES Cc1ccc(N2CC[C@H]([NH+]3CCOCC3)[C@H](CCC(=O)NCCCCNC(=O)c3ccc(-c4c5nc(c(-c6c(F)cc(S(=O)(=O)[O-])cc6F)c6ccc([nH]6)c(-c6c(F)cc(S(=O)(=O)[O-])cc6F)c6nc(c(-c7c(F)cc(S(=O)(=O)[O-])cc7F)c7ccc4[nH]7)C=C6)C=C5)cc3)C2)nc1
REMARK SMILES IDX 23 1 22 2 21 3 19 4 20 5 18 7 17 8 16 9 6 10 7 11 95 12 8 13
REMARK SMILES IDX 9 14 5 15 1 16 2 17 3 18 97 19 4 20 96 21 10 22 11 23 15 24
REMARK SMILES IDX 12 26 14 27 13 28 24 29 25 30 26 31 27 32 28 34 29 35 30 36
REMARK SMILES IDX 94 37 31 38 93 39 32 40 33 41 34 42 87 43 35 44 92 45 86 46
REMARK SMILES IDX 88 47 36 48 91 49 85 50 84 51 37 53 71 54 50 55 70 56 51 57
REMARK SMILES IDX 54 58 69 59 89 60 52 61 53 62 68 64 90 65 55 66 38 67 39 68
REMARK SMILES IDX 48 69 40 70 41 71 47 72 49 73 42 74 43 75 44 76 45 77 46 78
REMARK SMILES IDX 72 79 73 80 82 81 74 82 75 83 81 84 83 85 76 86 77 87 78 88
REMARK SMILES IDX 79 89 80 90 56 91 57 92 66 93 58 94 59 95 65 96 67 97 60 98
REMARK SMILES IDX 61 99 62 100 63 101 64 102
REMARK H PARENT 21 6 10 25 26 33 88 52 54 63
REMARK Flexibility Score: inf
ROOT
ATOM      1  C   UNL A   1      39.578  21.857  26.142  1.00  0.00     0.023 C 
ENDROOT
BRANCH   1   2
ATOM      2  C   UNL A   1      38.138  22.367  26.002  1.00  0.00     0.116 C 
BRANCH   2   3
ATOM      3  N   UNL A   1      37.878  22.726  24.619  1.00  0.00    -0.356 N 
ATOM      4  C   UNL A   1      36.696  23.016  24.003  1.00  0.00     0.220 C 
ATOM      5  O   UNL A   1      36.676  23.088  22.773  1.00  0.00    -0.275 OA
ATOM      6  H   UNL A   1      38.673  22.766  24.039  1.00  0.00     0.163 HD
BRANCH   4   7
ATOM      7  C   UNL A   1      35.446  23.302  24.820  1.00  0.00     0.100 C 
BRANCH   7   8
ATOM      8  C   UNL A   1      34.850  24.717  24.666  1.00  0.00     0.021 C 
BRANCH   8   9
ATOM      9  C   UNL A   1      33.816  25.098  25.747  1.00  0.00     0.067 C 
ATOM     10  N   UNL A   1      31.993  23.401  25.733  1.00  0.00    -0.356 N 
ATOM     11  C   UNL A   1      30.963  24.384  25.465  1.00  0.00     0.124 C 
ATOM     12  C   UNL A   1      33.197  23.843  26.417  1.00  0.00     0.127 C 
ATOM     13  C   UNL A   1      31.537  25.545  24.664  1.00  0.00     0.087 C 
ATOM     14  C   UNL A   1      32.702  26.164  25.441  1.00  0.00     0.190 C 
BRANCH  10  15
ATOM     15  C   UNL A   1      32.033  22.286  24.922  1.00  0.00     0.128 A 
ATOM     16  C   UNL A   1      32.421  18.820  22.477  1.00  0.00     0.046 C 
ATOM     17  C   UNL A   1      32.288  20.060  23.297  1.00  0.00    -0.033 A 
ATOM     18  C   UNL A   1      32.111  21.313  22.719  1.00  0.00     0.009 A 
ATOM     19  C   UNL A   1      32.313  20.001  24.682  1.00  0.00     0.117 A 
ATOM     20  C   UNL A   1      31.971  22.431  23.538  1.00  0.00     0.047 A 
ATOM     21  N   UNL A   1      32.212  21.076  25.493  1.00  0.00    -0.239 NA
ENDBRANCH  10  15
BRANCH  14  22
ATOM     22  N   UNL A   1      33.167  27.490  24.985  1.00  0.00    -0.328 N 
ATOM     23  C   UNL A   1      33.652  28.369  26.079  1.00  0.00     0.291 C 
ATOM     24  C   UNL A   1      32.310  28.269  24.080  1.00  0.00     0.291 C 
ATOM     25  H   UNL A   1      33.946  27.185  24.402  1.00  0.00     0.348 HD
ATOM     26  C   UNL A   1      32.624  29.354  26.669  1.00  0.00     0.221 C 
ATOM     27  C   UNL A   1      31.317  29.237  24.730  1.00  0.00     0.221 C 
ATOM     28  O   UNL A   1      31.972  30.114  25.649  1.00  0.00    -0.370 OA
ENDBRANCH  14  22
ENDBRANCH   8   9
ENDBRANCH   7   8
ENDBRANCH   4   7
ENDBRANCH   2   3
ENDBRANCH   1   2
BRANCH   1  29
ATOM     29  C   UNL A   1      40.273  22.309  27.412  1.00  0.00     0.023 C 
BRANCH  29  30
ATOM     30  C   UNL A   1      41.545  23.088  27.127  1.00  0.00     0.116 C 
BRANCH  30  31
ATOM     31  N   UNL A   1      41.373  24.125  26.110  1.00  0.00    -0.352 N 
ATOM     32  C   UNL A   1      41.188  25.479  26.301  1.00  0.00     0.251 C 
ATOM     33  H   UNL A   1      41.391  23.818  25.174  1.00  0.00     0.163 HD
ATOM     34  O   UNL A   1      40.972  26.229  25.366  1.00  0.00    -0.269 OA
BRANCH  32  35
ATOM     35  C   UNL A   1      41.209  25.976  27.692  1.00  0.00     0.039 A 
ATOM     36  C   UNL A   1      42.328  26.679  28.140  1.00  0.00     0.014 A 
ATOM     37  C   UNL A   1      40.044  25.909  28.458  1.00  0.00     0.014 A 
ATOM     38  C   UNL A   1      42.235  27.420  29.318  1.00  0.00     0.010 A 
ATOM     39  C   UNL A   1      39.924  26.726  29.573  1.00  0.00     0.010 A 
ATOM     40  C   UNL A   1      41.011  27.504  30.004  1.00  0.00    -0.014 A 
BRANCH  40  41
ATOM     41  C   UNL A   1      40.823  28.423  31.154  1.00  0.00     0.031 A 
ATOM     42  C   UNL A   1      39.774  29.498  31.081  1.00  0.00     0.074 A 
ATOM     43  C   UNL A   1      41.664  28.363  32.208  1.00  0.00     0.049 A 
ATOM     44  N   UNL A   1      39.542  30.480  31.910  1.00  0.00    -0.248 NA
ATOM     45  C   UNL A   1      38.898  29.488  29.899  1.00  0.00     0.031 C 
ATOM     46  C   UNL A   1      42.764  27.408  32.365  1.00  0.00     0.029 A 
ATOM     47  N   UNL A   1      41.735  29.135  33.342  1.00  0.00    -0.354 N 
ATOM     48  C   UNL A   1      38.515  31.220  31.337  1.00  0.00     0.074 A 
ATOM     49  C   UNL A   1      38.206  30.604  30.066  1.00  0.00     0.031 C 
ATOM     50  C   UNL A   1      43.384  27.636  33.535  1.00  0.00     0.029 A 
ATOM     51  C   UNL A   1      42.756  28.778  34.192  1.00  0.00     0.049 A 
ATOM     52  H   UNL A   1      41.113  29.874  33.529  1.00  0.00     0.167 HD
ATOM     53  C   UNL A   1      37.870  32.299  31.837  1.00  0.00     0.037 A 
ATOM     54  C   UNL A   1      43.149  29.317  35.363  1.00  0.00     0.037 A 
ATOM     55  C   UNL A   1      38.149  32.876  33.125  1.00  0.00     0.049 A 
ATOM     56  C   UNL A   1      42.406  30.506  35.908  1.00  0.00     0.074 A 
ATOM     57  C   UNL A   1      37.490  33.911  33.763  1.00  0.00     0.029 A 
ATOM     58  N   UNL A   1      39.169  32.466  33.969  1.00  0.00    -0.354 N 
ATOM     59  N   UNL A   1      41.386  31.146  35.388  1.00  0.00    -0.248 NA
ATOM     60  C   UNL A   1      42.867  31.049  37.193  1.00  0.00     0.031 C 
ATOM     61  C   UNL A   1      38.135  34.152  34.980  1.00  0.00     0.029 A 
ATOM     62  C   UNL A   1      39.173  33.243  35.114  1.00  0.00     0.049 A 
ATOM     63  H   UNL A   1      39.797  31.732  33.782  1.00  0.00     0.167 HD
ATOM     64  C   UNL A   1      41.074  32.158  36.287  1.00  0.00     0.074 A 
ATOM     65  C   UNL A   1      42.003  32.037  37.392  1.00  0.00     0.031 C 
ATOM     66  C   UNL A   1      40.107  33.105  36.204  1.00  0.00     0.037 A 
BRANCH  53  67
ATOM     67  C   UNL A   1      36.787  32.911  30.994  1.00  0.00     0.058 A 
ATOM     68  C   UNL A   1      35.429  32.679  31.261  1.00  0.00     0.135 A 
ATOM     69  C   UNL A   1      37.111  33.753  29.918  1.00  0.00     0.135 A 
ATOM     70  F   UNL A   1      35.067  31.867  32.267  1.00  0.00    -0.206 F 
ATOM     71  C   UNL A   1      34.428  33.233  30.471  1.00  0.00     0.059 A 
ATOM     72  C   UNL A   1      36.125  34.340  29.130  1.00  0.00     0.059 A 
ATOM     73  F   UNL A   1      38.394  34.004  29.618  1.00  0.00    -0.206 F 
ATOM     74  C   UNL A   1      34.787  34.061  29.406  1.00  0.00     0.060 A 
BRANCH  74  75
ATOM     75  S   UNL A   1      33.477  34.771  28.389  1.00  0.00     0.124 S 
ATOM     76  O   UNL A   1      32.568  35.289  29.406  1.00  0.00    -0.237 OA
ATOM     77  O   UNL A   1      34.194  35.776  27.610  1.00  0.00    -0.237 OA
ATOM     78  O   UNL A   1      32.981  33.630  27.627  1.00  0.00    -0.744 OA
ENDBRANCH  74  75
ENDBRANCH  53  67
BRANCH  54  79
ATOM     79  C   UNL A   1      44.295  28.728  36.107  1.00  0.00     0.058 A 
ATOM     80  C   UNL A   1      45.588  29.252  35.966  1.00  0.00     0.135 A 
ATOM     81  C   UNL A   1      44.119  27.647  36.985  1.00  0.00     0.135 A 
ATOM     82  F   UNL A   1      45.807  30.280  35.132  1.00  0.00    -0.206 F 
ATOM     83  C   UNL A   1      46.669  28.720  36.660  1.00  0.00     0.059 A 
ATOM     84  C   UNL A   1      45.181  27.111  37.707  1.00  0.00     0.059 A 
ATOM     85  F   UNL A   1      42.898  27.121  37.168  1.00  0.00    -0.206 F 
ATOM     86  C   UNL A   1      46.456  27.650  37.532  1.00  0.00     0.060 A 
BRANCH  86  87
ATOM     87  S   UNL A   1      47.856  27.004  38.472  1.00  0.00     0.124 S 
ATOM     88  O   UNL A   1      48.150  25.771  37.751  1.00  0.00    -0.237 OA
ATOM     89  O   UNL A   1      48.839  28.074  38.334  1.00  0.00    -0.237 OA
ATOM     90  O   UNL A   1      47.308  26.838  39.814  1.00  0.00    -0.744 OA
ENDBRANCH  86  87
ENDBRANCH  54  79
BRANCH  66  91
ATOM     91  C   UNL A   1      39.992  34.081  37.340  1.00  0.00     0.058 A 
ATOM     92  C   UNL A   1      40.642  35.323  37.302  1.00  0.00     0.135 A 
ATOM     93  C   UNL A   1      39.159  33.804  38.435  1.00  0.00     0.135 A 
ATOM     94  F   UNL A   1      41.456  35.629  36.280  1.00  0.00    -0.206 F 
ATOM     95  C   UNL A   1      40.473  36.259  38.317  1.00  0.00     0.059 A 
ATOM     96  C   UNL A   1      38.959  34.735  39.450  1.00  0.00     0.059 A 
ATOM     97  F   UNL A   1      38.510  32.633  38.513  1.00  0.00    -0.206 F 
ATOM     98  C   UNL A   1      39.625  35.958  39.383  1.00  0.00     0.060 A 
BRANCH  98  99
ATOM     99  S   UNL A   1      39.364  37.208  40.661  1.00  0.00     0.124 S 
ATOM    100  O   UNL A   1      40.689  37.812  40.755  1.00  0.00    -0.237 OA
ATOM    101  O   UNL A   1      38.326  38.047  40.071  1.00  0.00    -0.237 OA
ATOM    102  O   UNL A   1      38.945  36.426  41.820  1.00  0.00    -0.744 OA
ENDBRANCH  98  99
ENDBRANCH  66  91
ENDBRANCH  40  41
ENDBRANCH  32  35
ENDBRANCH  30  31
ENDBRANCH  29  30
ENDBRANCH   1  29
TORSDOF 18
ENDMDL
MODEL 3
REMARK VINA RESULT:     -12.2      6.156     11.169
REMARK SMILES Cc1ccc(N2CC[C@H]([NH+]3CCOCC3)[C@H](CCC(=O)NCCCCNC(=O)c3ccc(-c4c5nc(c(-c6c(F)cc(S(=O)(=O)[O-])cc6F)c6ccc([nH]6)c(-c6c(F)cc(S(=O)(=O)[O-])cc6F)c6nc(c(-c7c(F)cc(S(=O)(=O)[O-])cc7F)c7ccc4[nH]7)C=C6)C=C5)cc3)C2)nc1
REMARK SMILES IDX 23 1 22 2 21 3 19 4 20 5 18 7 17 8 16 9 6 10 7 11 95 12 8 13
REMARK SMILES IDX 9 14 5 15 1 16 2 17 3 18 97 19 4 20 96 21 10 22 11 23 15 24
REMARK SMILES IDX 12 26 14 27 13 28 24 29 25 30 26 31 27 32 28 34 29 35 30 36
REMARK SMILES IDX 94 37 31 38 93 39 32 40 33 41 34 42 87 43 35 44 92 45 86 46
REMARK SMILES IDX 88 47 36 48 91 49 85 50 84 51 37 53 71 54 50 55 70 56 51 57
REMARK SMILES IDX 54 58 69 59 89 60 52 61 53 62 68 64 90 65 55 66 38 67 39 68
REMARK SMILES IDX 48 69 40 70 41 71 47 72 49 73 42 74 43 75 44 76 45 77 46 78
REMARK SMILES IDX 72 79 73 80 82 81 74 82 75 83 81 84 83 85 76 86 77 87 78 88
REMARK SMILES IDX 79 89 80 90 56 91 57 92 66 93 58 94 59 95 65 96 67 97 60 98
REMARK SMILES IDX 61 99 62 100 63 101 64 102
REMARK H PARENT 21 6 10 25 26 33 88 52 54 63
REMARK Flexibility Score: inf
ROOT
ATOM      1  C   UNL A   1      33.017  28.498  27.283  1.00  0.00     0.023 C 
ENDROOT
BRANCH   1   2
ATOM      2  C   UNL A   1      31.534  28.113  27.203  1.00  0.00     0.116 C 
BRANCH   2   3
ATOM      3  N   UNL A   1      31.409  26.679  27.012  1.00  0.00    -0.356 N 
ATOM      4  C   UNL A   1      30.583  25.980  26.181  1.00  0.00     0.220 C 
ATOM      5  O   UNL A   1      30.493  24.760  26.332  1.00  0.00    -0.275 OA
ATOM      6  H   UNL A   1      32.010  26.128  27.564  1.00  0.00     0.163 HD
BRANCH   4   7
ATOM      7  C   UNL A   1      29.838  26.684  25.058  1.00  0.00     0.100 C 
BRANCH   7   8
ATOM      8  C   UNL A   1      29.930  26.019  23.669  1.00  0.00     0.021 C 
BRANCH   8   9
ATOM      9  C   UNL A   1      30.415  26.955  22.541  1.00  0.00     0.067 C 
ATOM     10  N   UNL A   1      32.901  26.847  22.437  1.00  0.00    -0.356 N 
ATOM     11  C   UNL A   1      33.058  28.269  22.666  1.00  0.00     0.124 C 
ATOM     12  C   UNL A   1      31.667  26.387  21.822  1.00  0.00     0.127 C 
ATOM     13  C   UNL A   1      31.907  28.799  23.512  1.00  0.00     0.087 C 
ATOM     14  C   UNL A   1      30.584  28.495  22.805  1.00  0.00     0.190 C 
BRANCH  10  15
ATOM     15  C   UNL A   1      33.634  25.991  23.233  1.00  0.00     0.128 A 
ATOM     16  C   UNL A   1      35.680  23.183  25.696  1.00  0.00     0.046 C 
ATOM     17  C   UNL A   1      34.954  24.192  24.869  1.00  0.00    -0.033 A 
ATOM     18  C   UNL A   1      34.537  25.412  25.391  1.00  0.00     0.009 A 
ATOM     19  C   UNL A   1      34.690  23.954  23.529  1.00  0.00     0.117 A 
ATOM     20  C   UNL A   1      33.882  26.321  24.564  1.00  0.00     0.047 A 
ATOM     21  N   UNL A   1      34.029  24.808  22.719  1.00  0.00    -0.239 NA
ENDBRANCH  10  15
BRANCH  14  22
ATOM     22  N   UNL A   1      29.392  29.212  23.303  1.00  0.00    -0.328 N 
ATOM     23  C   UNL A   1      28.195  29.068  22.437  1.00  0.00     0.291 C 
ATOM     24  C   UNL A   1      29.530  30.618  23.711  1.00  0.00     0.291 C 
ATOM     25  H   UNL A   1      29.263  28.703  24.176  1.00  0.00     0.348 HD
ATOM     26  C   UNL A   1      27.965  30.186  21.400  1.00  0.00     0.221 C 
ATOM     27  C   UNL A   1      29.278  31.679  22.635  1.00  0.00     0.221 C 
ATOM     28  O   UNL A   1      28.014  31.483  21.998  1.00  0.00    -0.370 OA
ENDBRANCH  14  22
ENDBRANCH   8   9
ENDBRANCH   7   8
ENDBRANCH   4   7
ENDBRANCH   2   3
ENDBRANCH   1   2
BRANCH   1  29
ATOM     29  C   UNL A   1      33.270  29.993  27.240  1.00  0.00     0.023 C 
BRANCH  29  30
ATOM     30  C   UNL A   1      34.679  30.352  27.681  1.00  0.00     0.116 C 
BRANCH  30  31
ATOM     31  N   UNL A   1      34.721  31.057  28.962  1.00  0.00    -0.352 N 
ATOM     32  C   UNL A   1      35.716  31.023  29.917  1.00  0.00     0.251 C 
ATOM     33  H   UNL A   1      33.943  31.625  29.167  1.00  0.00     0.163 HD
ATOM     34  O   UNL A   1      35.591  31.594  30.985  1.00  0.00    -0.269 OA
BRANCH  32  35
ATOM     35  C   UNL A   1      36.918  30.219  29.615  1.00  0.00     0.039 A 
ATOM     36  C   UNL A   1      37.453  30.266  28.327  1.00  0.00     0.014 A 
ATOM     37  C   UNL A   1      37.603  29.596  30.659  1.00  0.00     0.014 A 
ATOM     38  C   UNL A   1      38.744  29.782  28.112  1.00  0.00     0.010 A 
ATOM     39  C   UNL A   1      38.921  29.209  30.463  1.00  0.00     0.010 A 
ATOM     40  C   UNL A   1      39.511  29.315  29.193  1.00  0.00    -0.014 A 
BRANCH  40  41
ATOM     41  C   UNL A   1      40.945  28.964  29.037  1.00  0.00     0.031 A 
ATOM     42  C   UNL A   1      41.992  30.032  29.199  1.00  0.00     0.074 A 
ATOM     43  C   UNL A   1      41.296  27.722  28.644  1.00  0.00     0.049 A 
ATOM     44  N   UNL A   1      43.277  29.967  28.971  1.00  0.00    -0.248 NA
ATOM     45  C   UNL A   1      41.523  31.357  29.634  1.00  0.00     0.031 C 
ATOM     46  C   UNL A   1      40.367  26.617  28.389  1.00  0.00     0.029 A 
ATOM     47  N   UNL A   1      42.529  27.183  28.371  1.00  0.00    -0.354 N 
ATOM     48  C   UNL A   1      43.765  31.246  29.209  1.00  0.00     0.074 A 
ATOM     49  C   UNL A   1      42.630  32.078  29.545  1.00  0.00     0.031 C 
ATOM     50  C   UNL A   1      41.064  25.529  28.020  1.00  0.00     0.029 A 
ATOM     51  C   UNL A   1      42.483  25.868  27.970  1.00  0.00     0.049 A 
ATOM     52  H   UNL A   1      43.368  27.690  28.455  1.00  0.00     0.167 HD
ATOM     53  C   UNL A   1      45.045  31.682  29.175  1.00  0.00     0.037 A 
ATOM     54  C   UNL A   1      43.470  25.032  27.593  1.00  0.00     0.037 A 
ATOM     55  C   UNL A   1      46.173  30.837  28.889  1.00  0.00     0.049 A 
ATOM     56  C   UNL A   1      44.889  25.534  27.580  1.00  0.00     0.074 A 
ATOM     57  C   UNL A   1      47.518  31.160  28.922  1.00  0.00     0.029 A 
ATOM     58  N   UNL A   1      46.088  29.504  28.519  1.00  0.00    -0.354 N 
ATOM     59  N   UNL A   1      45.341  26.728  27.882  1.00  0.00    -0.248 NA
ATOM     60  C   UNL A   1      45.930  24.581  27.172  1.00  0.00     0.031 C 
ATOM     61  C   UNL A   1      48.246  30.030  28.536  1.00  0.00     0.029 A 
ATOM     62  C   UNL A   1      47.356  28.994  28.298  1.00  0.00     0.049 A 
ATOM     63  H   UNL A   1      45.250  28.995  28.427  1.00  0.00     0.167 HD
ATOM     64  C   UNL A   1      46.719  26.666  27.714  1.00  0.00     0.074 A 
ATOM     65  C   UNL A   1      47.029  25.314  27.299  1.00  0.00     0.031 C 
ATOM     66  C   UNL A   1      47.643  27.643  27.886  1.00  0.00     0.037 A 
BRANCH  53  67
ATOM     67  C   UNL A   1      45.291  33.134  29.474  1.00  0.00     0.058 A 
ATOM     68  C   UNL A   1      45.518  33.586  30.783  1.00  0.00     0.135 A 
ATOM     69  C   UNL A   1      45.317  34.081  28.439  1.00  0.00     0.135 A 
ATOM     70  F   UNL A   1      45.484  32.723  31.812  1.00  0.00    -0.206 F 
ATOM     71  C   UNL A   1      45.730  34.931  31.061  1.00  0.00     0.059 A 
ATOM     72  C   UNL A   1      45.554  35.429  28.690  1.00  0.00     0.059 A 
ATOM     73  F   UNL A   1      45.102  33.702  27.169  1.00  0.00    -0.206 F 
ATOM     74  C   UNL A   1      45.744  35.846  30.007  1.00  0.00     0.060 A 
BRANCH  74  75
ATOM     75  S   UNL A   1      46.018  37.589  30.383  1.00  0.00     0.124 S 
ATOM     76  O   UNL A   1      45.632  37.647  31.789  1.00  0.00    -0.237 OA
ATOM     77  O   UNL A   1      47.444  37.748  30.111  1.00  0.00    -0.237 OA
ATOM     78  O   UNL A   1      45.127  38.281  29.458  1.00  0.00    -0.744 OA
ENDBRANCH  74  75
ENDBRANCH  53  67
BRANCH  54  79
ATOM     79  C   UNL A   1      43.155  23.630  27.211  1.00  0.00     0.058 A 
ATOM     80  C   UNL A   1      42.930  22.652  28.191  1.00  0.00     0.135 A 
ATOM     81  C   UNL A   1      43.054  23.243  25.866  1.00  0.00     0.135 A 
ATOM     82  F   UNL A   1      43.023  22.972  29.491  1.00  0.00    -0.206 F 
ATOM     83  C   UNL A   1      42.626  21.338  27.853  1.00  0.00     0.059 A 
ATOM     84  C   UNL A   1      42.730  21.939  25.501  1.00  0.00     0.059 A 
ATOM     85  F   UNL A   1      43.244  24.145  24.890  1.00  0.00    -0.206 F 
ATOM     86  C   UNL A   1      42.525  20.991  26.504  1.00  0.00     0.060 A 
BRANCH  86  87
ATOM     87  S   UNL A   1      42.073  19.295  26.075  1.00  0.00     0.124 S 
ATOM     88  O   UNL A   1      42.866  19.075  24.872  1.00  0.00    -0.237 OA
ATOM     89  O   UNL A   1      42.494  18.556  27.261  1.00  0.00    -0.237 OA
ATOM     90  O   UNL A   1      40.629  19.375  25.877  1.00  0.00    -0.744 OA
ENDBRANCH  86  87
ENDBRANCH  54  79
BRANCH  66  91
ATOM     91  C   UNL A   1      49.081  27.288  27.637  1.00  0.00     0.058 A 
ATOM     92  C   UNL A   1      49.899  26.792  28.662  1.00  0.00     0.135 A 
ATOM     93  C   UNL A   1      49.620  27.367  26.342  1.00  0.00     0.135 A 
ATOM     94  F   UNL A   1      49.430  26.707  29.918  1.00  0.00    -0.206 F 
ATOM     95  C   UNL A   1      51.207  26.390  28.415  1.00  0.00     0.059 A 
ATOM     96  C   UNL A   1      50.919  26.949  26.069  1.00  0.00     0.059 A 
ATOM     97  F   UNL A   1      48.875  27.828  25.326  1.00  0.00    -0.206 F 
ATOM     98  C   UNL A   1      51.705  26.466  27.114  1.00  0.00     0.060 A 
BRANCH  98  99
ATOM     99  S   UNL A   1      53.383  25.880  26.795  1.00  0.00     0.124 S 
ATOM    100  O   UNL A   1      53.942  25.841  28.142  1.00  0.00    -0.237 OA
ATOM    101  O   UNL A   1      53.148  24.583  26.169  1.00  0.00    -0.237 OA
ATOM    102  O   UNL A   1      53.938  26.903  25.914  1.00  0.00    -0.744 OA
ENDBRANCH  98  99
ENDBRANCH  66  91
ENDBRANCH  40  41
ENDBRANCH  32  35
ENDBRANCH  30  31
ENDBRANCH  29  30
ENDBRANCH   1  29
TORSDOF 18
ENDMDL
