MODEL 1
REMARK VINA RESULT:     -11.7      0.000      0.000
REMARK SMILES C[C@@](NC(=O)c1ccc[nH]c1=O)(C(=O)NCCCCNC(=O)c1ccc(-c2c3nc(c(-c4c(F)cc(S(=O)(=O)[O-])cc4F)c4ccc([nH]4)c(-c4c(F)cc(S(=O)(=O)[O-])cc4F)c4nc(c(-c5c(F)cc(S(=O)(=O)[O-])cc5F)c5ccc2[nH]5)C=C4)C=C3)cc1)C(F)(F)F
REMARK SMILES IDX 18 1 17 2 16 3 15 4 13 5 14 6 2 8 1 9 3 10 4 11 5 13 6 14
REMARK SMILES IDX 7 15 11 16 8 17 10 18 12 19 9 20 89 22 90 23 91 24 92 25
REMARK SMILES IDX 19 26 20 27 21 28 22 30 23 31 24 32 88 33 25 34 87 35 26 36
REMARK SMILES IDX 27 37 28 38 81 39 29 40 86 41 80 42 82 43 30 44 85 45 79 46
REMARK SMILES IDX 78 47 31 49 65 50 44 51 64 52 45 53 48 54 63 55 83 56 46 57
REMARK SMILES IDX 47 58 62 60 84 61 49 62 32 63 33 64 42 65 34 66 35 67 41 68
REMARK SMILES IDX 43 69 36 70 37 71 38 72 39 73 40 74 66 75 67 76 76 77 68 78
REMARK SMILES IDX 69 79 75 80 77 81 70 82 71 83 72 84 73 85 74 86 50 87 51 88
REMARK SMILES IDX 60 89 52 90 53 91 59 92 61 93 54 94 55 95 56 96 57 97 58 98
REMARK H PARENT 15 7 3 12 10 21 20 29 82 48 48 59
REMARK Flexibility Score: inf
ROOT
ATOM      1  C   UNL A   1      37.430  23.595  25.885  1.00  0.00     0.023 C 
ENDROOT
BRANCH   1   2
ATOM      2  C   UNL A   1      37.751  22.151  25.484  1.00  0.00     0.023 C 
BRANCH   2   3
ATOM      3  C   UNL A   1      36.561  21.197  25.559  1.00  0.00     0.116 C 
BRANCH   3   4
ATOM      4  N   UNL A   1      35.575  21.638  26.536  1.00  0.00    -0.354 N 
ATOM      5  C   UNL A   1      34.213  21.780  26.459  1.00  0.00     0.254 C 
ATOM      6  O   UNL A   1      33.668  22.280  27.443  1.00  0.00    -0.272 OA
ATOM      7  H   UNL A   1      35.956  21.880  27.411  1.00  0.00     0.163 HD
BRANCH   5   8
ATOM      8  C   UNL A   1      33.444  21.457  25.168  1.00  0.00     0.212 C 
ATOM      9  C   UNL A   1      31.998  21.994  25.376  1.00  0.00     0.056 C 
BRANCH   8  10
ATOM     10  N   UNL A   1      34.023  22.122  23.947  1.00  0.00    -0.330 N 
ATOM     11  C   UNL A   1      34.395  23.418  23.703  1.00  0.00     0.257 C 
ATOM     12  H   UNL A   1      34.159  21.514  23.185  1.00  0.00     0.165 HD
ATOM     13  O   UNL A   1      35.223  23.605  22.808  1.00  0.00    -0.269 OA
BRANCH  11  14
ATOM     14  C   UNL A   1      33.635  24.564  24.257  1.00  0.00     0.104 A 
ATOM     15  C   UNL A   1      34.161  25.170  25.342  1.00  0.00     0.021 A 
ATOM     16  C   UNL A   1      32.325  25.056  23.756  1.00  0.00     0.260 A 
ATOM     17  C   UNL A   1      33.565  26.362  25.905  1.00  0.00     0.019 A 
ATOM     18  N   UNL A   1      31.869  26.238  24.296  1.00  0.00    -0.328 N 
ATOM     19  O   UNL A   1      31.670  24.451  22.920  1.00  0.00    -0.269 OA
ATOM     20  C   UNL A   1      32.465  26.879  25.348  1.00  0.00     0.086 A 
ATOM     21  H   UNL A   1      31.066  26.647  23.900  1.00  0.00     0.169 HD
ENDBRANCH  11  14
ENDBRANCH   8  10
BRANCH   8  22
ATOM     22  C   UNL A   1      33.254  19.926  24.992  1.00  0.00     0.420 C 
ATOM     23  F   UNL A   1      33.013  19.288  26.161  1.00  0.00    -0.168 F 
ATOM     24  F   UNL A   1      32.142  19.712  24.223  1.00  0.00    -0.168 F 
ATOM     25  F   UNL A   1      34.250  19.291  24.363  1.00  0.00    -0.168 F 
ENDBRANCH   8  22
ENDBRANCH   5   8
ENDBRANCH   3   4
ENDBRANCH   2   3
ENDBRANCH   1   2
BRANCH   1  26
ATOM     26  C   UNL A   1      38.510  24.308  26.697  1.00  0.00     0.116 C 
BRANCH  26  27
ATOM     27  N   UNL A   1      39.795  24.361  26.017  1.00  0.00    -0.352 N 
ATOM     28  C   UNL A   1      40.879  25.160  26.287  1.00  0.00     0.251 C 
ATOM     29  H   UNL A   1      39.901  23.740  25.259  1.00  0.00     0.163 HD
ATOM     30  O   UNL A   1      41.841  25.171  25.522  1.00  0.00    -0.269 OA
BRANCH  28  31
ATOM     31  C   UNL A   1      40.869  26.026  27.484  1.00  0.00     0.039 A 
ATOM     32  C   UNL A   1      41.791  27.072  27.569  1.00  0.00     0.014 A 
ATOM     33  C   UNL A   1      39.936  25.820  28.506  1.00  0.00     0.014 A 
ATOM     34  C   UNL A   1      41.733  27.956  28.649  1.00  0.00     0.010 A 
ATOM     35  C   UNL A   1      39.847  26.732  29.554  1.00  0.00     0.010 A 
ATOM     36  C   UNL A   1      40.739  27.813  29.631  1.00  0.00    -0.014 A 
BRANCH  36  37
ATOM     37  C   UNL A   1      40.608  28.795  30.738  1.00  0.00     0.031 A 
ATOM     38  C   UNL A   1      41.462  28.669  31.968  1.00  0.00     0.074 A 
ATOM     39  C   UNL A   1      39.671  29.761  30.661  1.00  0.00     0.049 A 
ATOM     40  N   UNL A   1      41.441  29.383  33.063  1.00  0.00    -0.248 NA
ATOM     41  C   UNL A   1      42.451  27.579  31.979  1.00  0.00     0.031 C 
ATOM     42  C   UNL A   1      38.746  29.955  29.541  1.00  0.00     0.029 A 
ATOM     43  N   UNL A   1      39.332  30.753  31.547  1.00  0.00    -0.354 N 
ATOM     44  C   UNL A   1      42.401  28.826  33.898  1.00  0.00     0.074 A 
ATOM     45  C   UNL A   1      42.955  27.685  33.200  1.00  0.00     0.031 C 
ATOM     46  C   UNL A   1      37.955  31.009  29.803  1.00  0.00     0.029 A 
ATOM     47  C   UNL A   1      38.297  31.547  31.116  1.00  0.00     0.049 A 
ATOM     48  H   UNL A   1      39.789  30.882  32.409  1.00  0.00     0.167 HD
ATOM     49  C   UNL A   1      42.800  29.239  35.125  1.00  0.00     0.037 A 
ATOM     50  C   UNL A   1      37.688  32.590  31.714  1.00  0.00     0.037 A 
ATOM     51  C   UNL A   1      42.267  30.391  35.804  1.00  0.00     0.049 A 
ATOM     52  C   UNL A   1      38.164  33.045  33.065  1.00  0.00     0.074 A 
ATOM     53  C   UNL A   1      42.644  30.921  37.027  1.00  0.00     0.029 A 
ATOM     54  N   UNL A   1      41.247  31.194  35.318  1.00  0.00    -0.354 N 
ATOM     55  N   UNL A   1      39.112  32.538  33.817  1.00  0.00    -0.248 NA
ATOM     56  C   UNL A   1      37.495  34.217  33.647  1.00  0.00     0.031 C 
ATOM     57  C   UNL A   1      41.831  32.029  37.292  1.00  0.00     0.029 A 
ATOM     58  C   UNL A   1      40.972  32.209  36.220  1.00  0.00     0.049 A 
ATOM     59  H   UNL A   1      40.785  31.063  34.460  1.00  0.00     0.167 HD
ATOM     60  C   UNL A   1      39.166  33.340  34.951  1.00  0.00     0.074 A 
ATOM     61  C   UNL A   1      38.164  34.373  34.781  1.00  0.00     0.031 C 
ATOM     62  C   UNL A   1      39.975  33.233  36.033  1.00  0.00     0.037 A 
BRANCH  49  63
ATOM     63  C   UNL A   1      43.875  28.441  35.806  1.00  0.00     0.058 A 
ATOM     64  C   UNL A   1      45.236  28.717  35.598  1.00  0.00     0.135 A 
ATOM     65  C   UNL A   1      43.545  27.400  36.689  1.00  0.00     0.135 A 
ATOM     66  F   UNL A   1      45.605  29.691  34.751  1.00  0.00    -0.206 F 
ATOM     67  C   UNL A   1      46.233  27.970  36.216  1.00  0.00     0.059 A 
ATOM     68  C   UNL A   1      44.526  26.655  37.337  1.00  0.00     0.059 A 
ATOM     69  F   UNL A   1      42.259  27.094  36.922  1.00  0.00    -0.206 F 
ATOM     70  C   UNL A   1      45.867  26.937  37.079  1.00  0.00     0.060 A 
BRANCH  70  71
ATOM     71  S   UNL A   1      47.170  25.966  37.867  1.00  0.00     0.124 S 
ATOM     72  O   UNL A   1      48.287  26.191  36.954  1.00  0.00    -0.237 OA
ATOM     73  O   UNL A   1      47.286  26.597  39.177  1.00  0.00    -0.237 OA
ATOM     74  O   UNL A   1      46.627  24.611  37.872  1.00  0.00    -0.744 OA
ENDBRANCH  70  71
ENDBRANCH  49  63
BRANCH  50  75
ATOM     75  C   UNL A   1      36.576  33.291  31.021  1.00  0.00     0.058 A 
ATOM     76  C   UNL A   1      36.825  34.113  29.912  1.00  0.00     0.135 A 
ATOM     77  C   UNL A   1      35.245  33.134  31.437  1.00  0.00     0.135 A 
ATOM     78  F   UNL A   1      38.082  34.296  29.482  1.00  0.00    -0.206 F 
ATOM     79  C   UNL A   1      35.794  34.767  29.245  1.00  0.00     0.059 A 
ATOM     80  C   UNL A   1      34.195  33.761  30.773  1.00  0.00     0.059 A 
ATOM     81  F   UNL A   1      34.956  32.343  32.481  1.00  0.00    -0.206 F 
ATOM     82  C   UNL A   1      34.482  34.582  29.683  1.00  0.00     0.060 A 
BRANCH  82  83
ATOM     83  S   UNL A   1      33.142  35.383  28.774  1.00  0.00     0.124 S 
ATOM     84  O   UNL A   1      32.557  34.255  28.059  1.00  0.00    -0.237 OA
ATOM     85  O   UNL A   1      32.333  35.947  29.851  1.00  0.00    -0.237 OA
ATOM     86  O   UNL A   1      33.840  36.364  27.949  1.00  0.00    -0.744 OA
ENDBRANCH  82  83
ENDBRANCH  50  75
BRANCH  62  87
ATOM     87  C   UNL A   1      39.829  34.271  37.109  1.00  0.00     0.058 A 
ATOM     88  C   UNL A   1      39.001  34.061  38.223  1.00  0.00     0.135 A 
ATOM     89  C   UNL A   1      40.562  35.466  37.049  1.00  0.00     0.135 A 
ATOM     90  F   UNL A   1      38.273  32.937  38.322  1.00  0.00    -0.206 F 
ATOM     91  C   UNL A   1      38.892  35.010  39.234  1.00  0.00     0.059 A 
ATOM     92  C   UNL A   1      40.485  36.418  38.059  1.00  0.00     0.059 A 
ATOM     93  F   UNL A   1      41.374  35.709  36.008  1.00  0.00    -0.206 F 
ATOM     94  C   UNL A   1      39.639  36.187  39.143  1.00  0.00     0.060 A 
BRANCH  94  95
ATOM     95  S   UNL A   1      39.520  37.396  40.478  1.00  0.00     0.124 S 
ATOM     96  O   UNL A   1      40.917  37.781  40.651  1.00  0.00    -0.237 OA
ATOM     97  O   UNL A   1      38.648  38.416  39.904  1.00  0.00    -0.237 OA
ATOM     98  O   UNL A   1      38.939  36.629  41.577  1.00  0.00    -0.744 OA
ENDBRANCH  94  95
ENDBRANCH  62  87
ENDBRANCH  36  37
ENDBRANCH  28  31
ENDBRANCH  26  27
ENDBRANCH   1  26
TORSDOF 17
ENDMDL
MODEL 2
REMARK VINA RESULT:     -11.7      4.374      6.846
REMARK SMILES C[C@@](NC(=O)c1ccc[nH]c1=O)(C(=O)NCCCCNC(=O)c1ccc(-c2c3nc(c(-c4c(F)cc(S(=O)(=O)[O-])cc4F)c4ccc([nH]4)c(-c4c(F)cc(S(=O)(=O)[O-])cc4F)c4nc(c(-c5c(F)cc(S(=O)(=O)[O-])cc5F)c5ccc2[nH]5)C=C4)C=C3)cc1)C(F)(F)F
REMARK SMILES IDX 18 1 17 2 16 3 15 4 13 5 14 6 2 8 1 9 3 10 4 11 5 13 6 14
REMARK SMILES IDX 7 15 11 16 8 17 10 18 12 19 9 20 89 22 90 23 91 24 92 25
REMARK SMILES IDX 19 26 20 27 21 28 22 30 23 31 24 32 88 33 25 34 87 35 26 36
REMARK SMILES IDX 27 37 28 38 81 39 29 40 86 41 80 42 82 43 30 44 85 45 79 46
REMARK SMILES IDX 78 47 31 49 65 50 44 51 64 52 45 53 48 54 63 55 83 56 46 57
REMARK SMILES IDX 47 58 62 60 84 61 49 62 32 63 33 64 42 65 34 66 35 67 41 68
REMARK SMILES IDX 43 69 36 70 37 71 38 72 39 73 40 74 66 75 67 76 76 77 68 78
REMARK SMILES IDX 69 79 75 80 77 81 70 82 71 83 72 84 73 85 74 86 50 87 51 88
REMARK SMILES IDX 60 89 52 90 53 91 59 92 61 93 54 94 55 95 56 96 57 97 58 98
REMARK H PARENT 15 7 3 12 10 21 20 29 82 48 48 59
REMARK Flexibility Score: inf
ROOT
ATOM      1  C   UNL A   1      40.409  20.139  26.199  1.00  0.00     0.023 C 
ENDROOT
BRANCH   1   2
ATOM      2  C   UNL A   1      41.920  19.892  26.116  1.00  0.00     0.023 C 
BRANCH   2   3
ATOM      3  C   UNL A   1      42.773  21.148  26.273  1.00  0.00     0.116 C 
BRANCH   3   4
ATOM      4  N   UNL A   1      43.043  21.781  24.990  1.00  0.00    -0.354 N 
ATOM      5  C   UNL A   1      44.218  22.103  24.359  1.00  0.00     0.254 C 
ATOM      6  O   UNL A   1      44.108  22.734  23.307  1.00  0.00    -0.272 OA
ATOM      7  H   UNL A   1      42.235  22.023  24.482  1.00  0.00     0.163 HD
BRANCH   5   8
ATOM      8  C   UNL A   1      45.582  21.809  25.004  1.00  0.00     0.212 C 
ATOM      9  C   UNL A   1      46.629  22.640  24.207  1.00  0.00     0.056 C 
BRANCH   8  10
ATOM     10  N   UNL A   1      45.658  22.218  26.451  1.00  0.00    -0.330 N 
ATOM     11  C   UNL A   1      45.297  23.373  27.094  1.00  0.00     0.257 C 
ATOM     12  H   UNL A   1      46.036  21.529  27.043  1.00  0.00     0.165 HD
ATOM     13  O   UNL A   1      45.058  23.291  28.302  1.00  0.00    -0.269 OA
BRANCH  11  14
ATOM     14  C   UNL A   1      45.474  24.703  26.464  1.00  0.00     0.104 A 
ATOM     15  C   UNL A   1      46.653  25.322  26.680  1.00  0.00     0.021 A 
ATOM     16  C   UNL A   1      44.447  25.427  25.671  1.00  0.00     0.260 A 
ATOM     17  C   UNL A   1      46.980  26.572  26.031  1.00  0.00     0.019 A 
ATOM     18  N   UNL A   1      44.866  26.569  25.026  1.00  0.00    -0.328 N 
ATOM     19  O   UNL A   1      43.286  25.050  25.595  1.00  0.00    -0.269 OA
ATOM     20  C   UNL A   1      46.098  27.139  25.200  1.00  0.00     0.086 A 
ATOM     21  H   UNL A   1      44.240  27.002  24.402  1.00  0.00     0.169 HD
ENDBRANCH  11  14
ENDBRANCH   8  10
BRANCH   8  22
ATOM     22  C   UNL A   1      46.013  20.336  24.766  1.00  0.00     0.420 C 
ATOM     23  F   UNL A   1      47.260  20.228  24.252  1.00  0.00    -0.168 F 
ATOM     24  F   UNL A   1      46.058  19.696  25.975  1.00  0.00    -0.168 F 
ATOM     25  F   UNL A   1      45.182  19.609  24.009  1.00  0.00    -0.168 F 
ENDBRANCH   8  22
ENDBRANCH   5   8
ENDBRANCH   3   4
ENDBRANCH   2   3
ENDBRANCH   1   2
BRANCH   1  26
ATOM     26  C   UNL A   1      39.994  21.549  26.616  1.00  0.00     0.116 C 
BRANCH  26  27
ATOM     27  N   UNL A   1      38.918  22.091  25.800  1.00  0.00    -0.352 N 
ATOM     28  C   UNL A   1      38.393  23.361  25.802  1.00  0.00     0.251 C 
ATOM     29  H   UNL A   1      38.511  21.463  25.159  1.00  0.00     0.163 HD
ATOM     30  O   UNL A   1      37.389  23.612  25.140  1.00  0.00    -0.269 OA
BRANCH  28  31
ATOM     31  C   UNL A   1      39.022  24.411  26.629  1.00  0.00     0.039 A 
ATOM     32  C   UNL A   1      39.899  25.313  26.022  1.00  0.00     0.014 A 
ATOM     33  C   UNL A   1      38.729  24.517  27.992  1.00  0.00     0.014 A 
ATOM     34  C   UNL A   1      40.430  26.367  26.770  1.00  0.00     0.010 A 
ATOM     35  C   UNL A   1      39.218  25.598  28.722  1.00  0.00     0.010 A 
ATOM     36  C   UNL A   1      40.066  26.537  28.115  1.00  0.00    -0.014 A 
BRANCH  36  37
ATOM     37  C   UNL A   1      40.551  27.702  28.899  1.00  0.00     0.031 A 
ATOM     38  C   UNL A   1      41.911  27.672  29.538  1.00  0.00     0.074 A 
ATOM     39  C   UNL A   1      39.737  28.759  29.091  1.00  0.00     0.049 A 
ATOM     40  N   UNL A   1      42.476  28.559  30.315  1.00  0.00    -0.248 NA
ATOM     41  C   UNL A   1      42.732  26.476  29.292  1.00  0.00     0.031 C 
ATOM     42  C   UNL A   1      38.374  28.884  28.565  1.00  0.00     0.029 A 
ATOM     43  N   UNL A   1      39.931  29.924  29.789  1.00  0.00    -0.354 N 
ATOM     44  C   UNL A   1      43.712  28.027  30.662  1.00  0.00     0.074 A 
ATOM     45  C   UNL A   1      43.794  26.719  30.046  1.00  0.00     0.031 C 
ATOM     46  C   UNL A   1      37.862  30.065  28.950  1.00  0.00     0.029 A 
ATOM     47  C   UNL A   1      38.845  30.767  29.769  1.00  0.00     0.049 A 
ATOM     48  H   UNL A   1      40.768  30.135  30.261  1.00  0.00     0.167 HD
ATOM     49  C   UNL A   1      44.696  28.585  31.407  1.00  0.00     0.037 A 
ATOM     50  C   UNL A   1      38.661  31.969  30.348  1.00  0.00     0.037 A 
ATOM     51  C   UNL A   1      44.622  29.898  31.994  1.00  0.00     0.049 A 
ATOM     52  C   UNL A   1      39.776  32.579  31.151  1.00  0.00     0.074 A 
ATOM     53  C   UNL A   1      45.588  30.571  32.721  1.00  0.00     0.029 A 
ATOM     54  N   UNL A   1      43.521  30.737  31.918  1.00  0.00    -0.354 N 
ATOM     55  N   UNL A   1      40.960  32.083  31.423  1.00  0.00    -0.248 NA
ATOM     56  C   UNL A   1      39.536  33.913  31.719  1.00  0.00     0.031 C 
ATOM     57  C   UNL A   1      45.060  31.809  33.108  1.00  0.00     0.029 A 
ATOM     58  C   UNL A   1      43.779  31.918  32.593  1.00  0.00     0.049 A 
ATOM     59  H   UNL A   1      42.680  30.525  31.453  1.00  0.00     0.167 HD
ATOM     60  C   UNL A   1      41.613  33.052  32.176  1.00  0.00     0.074 A 
ATOM     61  C   UNL A   1      40.697  34.167  32.307  1.00  0.00     0.031 C 
ATOM     62  C   UNL A   1      42.858  33.022  32.709  1.00  0.00     0.037 A 
BRANCH  49  63
ATOM     63  C   UNL A   1      45.944  27.776  31.619  1.00  0.00     0.058 A 
ATOM     64  C   UNL A   1      46.087  26.927  32.729  1.00  0.00     0.135 A 
ATOM     65  C   UNL A   1      47.002  27.833  30.698  1.00  0.00     0.135 A 
ATOM     66  F   UNL A   1      45.111  26.848  33.648  1.00  0.00    -0.206 F 
ATOM     67  C   UNL A   1      47.246  26.189  32.936  1.00  0.00     0.059 A 
ATOM     68  C   UNL A   1      48.162  27.084  30.872  1.00  0.00     0.059 A 
ATOM     69  F   UNL A   1      46.916  28.629  29.620  1.00  0.00    -0.206 F 
ATOM     70  C   UNL A   1      48.281  26.279  32.004  1.00  0.00     0.060 A 
BRANCH  70  71
ATOM     71  S   UNL A   1      49.786  25.324  32.290  1.00  0.00     0.124 S 
ATOM     72  O   UNL A   1      49.294  24.264  33.165  1.00  0.00    -0.237 OA
ATOM     73  O   UNL A   1      50.158  24.910  30.942  1.00  0.00    -0.237 OA
ATOM     74  O   UNL A   1      50.685  26.288  32.917  1.00  0.00    -0.744 OA
ENDBRANCH  70  71
ENDBRANCH  49  63
BRANCH  50  75
ATOM     75  C   UNL A   1      37.372  32.687  30.165  1.00  0.00     0.058 A 
ATOM     76  C   UNL A   1      37.207  33.614  29.126  1.00  0.00     0.135 A 
ATOM     77  C   UNL A   1      36.278  32.442  31.008  1.00  0.00     0.135 A 
ATOM     78  F   UNL A   1      38.229  33.882  28.299  1.00  0.00    -0.206 F 
ATOM     79  C   UNL A   1      36.004  34.285  28.934  1.00  0.00     0.059 A 
ATOM     80  C   UNL A   1      35.057  33.086  30.823  1.00  0.00     0.059 A 
ATOM     81  F   UNL A   1      36.381  31.551  32.005  1.00  0.00    -0.206 F 
ATOM     82  C   UNL A   1      34.934  34.011  29.787  1.00  0.00     0.060 A 
BRANCH  82  83
ATOM     83  S   UNL A   1      33.356  34.839  29.493  1.00  0.00     0.124 S 
ATOM     84  O   UNL A   1      33.789  36.077  28.855  1.00  0.00    -0.237 OA
ATOM     85  O   UNL A   1      32.662  33.885  28.633  1.00  0.00    -0.237 OA
ATOM     86  O   UNL A   1      32.798  34.978  30.835  1.00  0.00    -0.744 OA
ENDBRANCH  82  83
ENDBRANCH  50  75
BRANCH  62  87
ATOM     87  C   UNL A   1      43.316  34.237  33.463  1.00  0.00     0.058 A 
ATOM     88  C   UNL A   1      43.934  35.316  32.810  1.00  0.00     0.135 A 
ATOM     89  C   UNL A   1      43.091  34.345  34.844  1.00  0.00     0.135 A 
ATOM     90  F   UNL A   1      44.179  35.256  31.491  1.00  0.00    -0.206 F 
ATOM     91  C   UNL A   1      44.329  36.454  33.505  1.00  0.00     0.059 A 
ATOM     92  C   UNL A   1      43.458  35.483  35.554  1.00  0.00     0.059 A 
ATOM     93  F   UNL A   1      42.496  33.344  35.511  1.00  0.00    -0.206 F 
ATOM     94  C   UNL A   1      44.086  36.528  34.879  1.00  0.00     0.060 A 
BRANCH  94  95
ATOM     95  S   UNL A   1      44.567  38.025  35.765  1.00  0.00     0.124 S 
ATOM     96  O   UNL A   1      44.149  39.066  34.832  1.00  0.00    -0.237 OA
ATOM     97  O   UNL A   1      43.788  37.927  36.996  1.00  0.00    -0.237 OA
ATOM     98  O   UNL A   1      46.010  37.870  35.931  1.00  0.00    -0.744 OA
ENDBRANCH  94  95
ENDBRANCH  62  87
ENDBRANCH  36  37
ENDBRANCH  28  31
ENDBRANCH  26  27
ENDBRANCH   1  26
TORSDOF 17
ENDMDL
MODEL 3
REMARK VINA RESULT:     -11.7      1.754      2.604
REMARK SMILES C[C@@](NC(=O)c1ccc[nH]c1=O)(C(=O)NCCCCNC(=O)c1ccc(-c2c3nc(c(-c4c(F)cc(S(=O)(=O)[O-])cc4F)c4ccc([nH]4)c(-c4c(F)cc(S(=O)(=O)[O-])cc4F)c4nc(c(-c5c(F)cc(S(=O)(=O)[O-])cc5F)c5ccc2[nH]5)C=C4)C=C3)cc1)C(F)(F)F
REMARK SMILES IDX 18 1 17 2 16 3 15 4 13 5 14 6 2 8 1 9 3 10 4 11 5 13 6 14
REMARK SMILES IDX 7 15 11 16 8 17 10 18 12 19 9 20 89 22 90 23 91 24 92 25
REMARK SMILES IDX 19 26 20 27 21 28 22 30 23 31 24 32 88 33 25 34 87 35 26 36
REMARK SMILES IDX 27 37 28 38 81 39 29 40 86 41 80 42 82 43 30 44 85 45 79 46
REMARK SMILES IDX 78 47 31 49 65 50 44 51 64 52 45 53 48 54 63 55 83 56 46 57
REMARK SMILES IDX 47 58 62 60 84 61 49 62 32 63 33 64 42 65 34 66 35 67 41 68
REMARK SMILES IDX 43 69 36 70 37 71 38 72 39 73 40 74 66 75 67 76 76 77 68 78
REMARK SMILES IDX 69 79 75 80 77 81 70 82 71 83 72 84 73 85 74 86 50 87 51 88
REMARK SMILES IDX 60 89 52 90 53 91 59 92 61 93 54 94 55 95 56 96 57 97 58 98
REMARK H PARENT 15 7 3 12 10 21 20 29 82 48 48 59
REMARK Flexibility Score: inf
ROOT
ATOM      1  C   UNL A   1      37.403  23.582  25.399  1.00  0.00     0.023 C 
ENDROOT
BRANCH   1   2
ATOM      2  C   UNL A   1      35.937  23.436  25.820  1.00  0.00     0.023 C 
BRANCH   2   3
ATOM      3  C   UNL A   1      34.940  24.097  24.870  1.00  0.00     0.116 C 
BRANCH   3   4
ATOM      4  N   UNL A   1      33.748  23.282  24.685  1.00  0.00    -0.354 N 
ATOM      5  C   UNL A   1      32.513  23.574  24.163  1.00  0.00     0.254 C 
ATOM      6  O   UNL A   1      31.672  22.679  24.240  1.00  0.00    -0.272 OA
ATOM      7  H   UNL A   1      33.846  22.351  24.991  1.00  0.00     0.163 HD
BRANCH   5   8
ATOM      8  C   UNL A   1      32.174  24.980  23.643  1.00  0.00     0.212 C 
ATOM      9  C   UNL A   1      30.647  24.977  23.342  1.00  0.00     0.056 C 
BRANCH   8  10
ATOM     10  N   UNL A   1      32.456  26.070  24.642  1.00  0.00    -0.330 N 
ATOM     11  C   UNL A   1      31.824  27.259  24.901  1.00  0.00     0.257 C 
ATOM     12  H   UNL A   1      33.238  25.897  25.215  1.00  0.00     0.165 HD
ATOM     13  O   UNL A   1      31.980  27.744  26.024  1.00  0.00    -0.269 OA
BRANCH  11  14
ATOM     14  C   UNL A   1      31.237  28.080  23.816  1.00  0.00     0.104 A 
ATOM     15  C   UNL A   1      29.892  28.057  23.700  1.00  0.00     0.021 A 
ATOM     16  C   UNL A   1      32.004  28.872  22.819  1.00  0.00     0.260 A 
ATOM     17  C   UNL A   1      29.201  28.900  22.749  1.00  0.00     0.019 A 
ATOM     18  N   UNL A   1      31.270  29.703  22.003  1.00  0.00    -0.328 N 
ATOM     19  O   UNL A   1      33.219  28.792  22.709  1.00  0.00    -0.269 OA
ATOM     20  C   UNL A   1      29.902  29.719  21.958  1.00  0.00     0.086 A 
ATOM     21  H   UNL A   1      31.760  30.324  21.417  1.00  0.00     0.169 HD
ENDBRANCH  11  14
ENDBRANCH   8  10
BRANCH   8  22
ATOM     22  C   UNL A   1      32.828  25.242  22.258  1.00  0.00     0.420 C 
ATOM     23  F   UNL A   1      33.120  24.102  21.590  1.00  0.00    -0.168 F 
ATOM     24  F   UNL A   1      31.927  25.907  21.472  1.00  0.00    -0.168 F 
ATOM     25  F   UNL A   1      33.922  26.011  22.276  1.00  0.00    -0.168 F 
ENDBRANCH   8  22
ENDBRANCH   5   8
ENDBRANCH   3   4
ENDBRANCH   2   3
ENDBRANCH   1   2
BRANCH   1  26
ATOM     26  C   UNL A   1      38.346  24.121  26.474  1.00  0.00     0.116 C 
BRANCH  26  27
ATOM     27  N   UNL A   1      39.751  23.975  26.126  1.00  0.00    -0.352 N 
ATOM     28  C   UNL A   1      40.818  24.750  26.511  1.00  0.00     0.251 C 
ATOM     29  H   UNL A   1      39.967  23.218  25.533  1.00  0.00     0.163 HD
ATOM     30  O   UNL A   1      41.925  24.565  26.011  1.00  0.00    -0.269 OA
BRANCH  28  31
ATOM     31  C   UNL A   1      40.619  25.825  27.504  1.00  0.00     0.039 A 
ATOM     32  C   UNL A   1      39.657  25.654  28.502  1.00  0.00     0.014 A 
ATOM     33  C   UNL A   1      41.397  26.987  27.463  1.00  0.00     0.014 A 
ATOM     34  C   UNL A   1      39.521  26.620  29.502  1.00  0.00     0.010 A 
ATOM     35  C   UNL A   1      41.297  27.922  28.490  1.00  0.00     0.010 A 
ATOM     36  C   UNL A   1      40.363  27.743  29.524  1.00  0.00    -0.014 A 
BRANCH  36  37
ATOM     37  C   UNL A   1      40.293  28.733  30.628  1.00  0.00     0.031 A 
ATOM     38  C   UNL A   1      41.168  28.580  31.840  1.00  0.00     0.074 A 
ATOM     39  C   UNL A   1      39.390  29.733  30.568  1.00  0.00     0.049 A 
ATOM     40  N   UNL A   1      41.198  29.299  32.932  1.00  0.00    -0.248 NA
ATOM     41  C   UNL A   1      42.116  27.454  31.834  1.00  0.00     0.031 C 
ATOM     42  C   UNL A   1      38.449  29.957  29.468  1.00  0.00     0.029 A 
ATOM     43  N   UNL A   1      39.108  30.740  31.456  1.00  0.00    -0.354 N 
ATOM     44  C   UNL A   1      42.155  28.709  33.748  1.00  0.00     0.074 A 
ATOM     45  C   UNL A   1      42.651  27.546  33.043  1.00  0.00     0.031 C 
ATOM     46  C   UNL A   1      37.704  31.041  29.742  1.00  0.00     0.029 A 
ATOM     47  C   UNL A   1      38.094  31.571  31.045  1.00  0.00     0.049 A 
ATOM     48  H   UNL A   1      39.588  30.855  32.308  1.00  0.00     0.167 HD
ATOM     49  C   UNL A   1      42.596  29.112  34.964  1.00  0.00     0.037 A 
ATOM     50  C   UNL A   1      37.537  32.637  31.652  1.00  0.00     0.037 A 
ATOM     51  C   UNL A   1      42.122  30.286  35.650  1.00  0.00     0.049 A 
ATOM     52  C   UNL A   1      38.059  33.079  32.990  1.00  0.00     0.074 A 
ATOM     53  C   UNL A   1      42.544  30.805  36.862  1.00  0.00     0.029 A 
ATOM     54  N   UNL A   1      41.120  31.124  35.183  1.00  0.00    -0.354 N 
ATOM     55  N   UNL A   1      39.004  32.540  33.724  1.00  0.00    -0.248 NA
ATOM     56  C   UNL A   1      37.447  34.277  33.581  1.00  0.00     0.031 C 
ATOM     57  C   UNL A   1      41.779  31.944  37.140  1.00  0.00     0.029 A 
ATOM     58  C   UNL A   1      40.904  32.151  36.086  1.00  0.00     0.049 A 
ATOM     59  H   UNL A   1      40.635  31.006  34.335  1.00  0.00     0.167 HD
ATOM     60  C   UNL A   1      39.113  33.344  34.852  1.00  0.00     0.074 A 
ATOM     61  C   UNL A   1      38.146  34.413  34.699  1.00  0.00     0.031 C 
ATOM     62  C   UNL A   1      39.941  33.211  35.917  1.00  0.00     0.037 A 
BRANCH  49  63
ATOM     63  C   UNL A   1      43.656  28.277  35.625  1.00  0.00     0.058 A 
ATOM     64  C   UNL A   1      45.020  28.483  35.364  1.00  0.00     0.135 A 
ATOM     65  C   UNL A   1      43.308  27.272  36.542  1.00  0.00     0.135 A 
ATOM     66  F   UNL A   1      45.405  29.421  34.484  1.00  0.00    -0.206 F 
ATOM     67  C   UNL A   1      46.001  27.702  35.964  1.00  0.00     0.059 A 
ATOM     68  C   UNL A   1      44.275  26.493  37.172  1.00  0.00     0.059 A 
ATOM     69  F   UNL A   1      42.018  27.033  36.825  1.00  0.00    -0.206 F 
ATOM     70  C   UNL A   1      45.618  26.705  36.861  1.00  0.00     0.060 A 
BRANCH  70  71
ATOM     71  S   UNL A   1      46.901  25.689  37.624  1.00  0.00     0.124 S 
ATOM     72  O   UNL A   1      46.101  24.762  38.418  1.00  0.00    -0.237 OA
ATOM     73  O   UNL A   1      47.576  25.112  36.467  1.00  0.00    -0.237 OA
ATOM     74  O   UNL A   1      47.687  26.653  38.389  1.00  0.00    -0.744 OA
ENDBRANCH  70  71
ENDBRANCH  49  63
BRANCH  50  75
ATOM     75  C   UNL A   1      36.437  33.376  30.980  1.00  0.00     0.058 A 
ATOM     76  C   UNL A   1      36.691  34.186  29.863  1.00  0.00     0.135 A 
ATOM     77  C   UNL A   1      35.110  33.270  31.426  1.00  0.00     0.135 A 
ATOM     78  F   UNL A   1      37.945  34.321  29.405  1.00  0.00    -0.206 F 
ATOM     79  C   UNL A   1      35.671  34.874  29.216  1.00  0.00     0.059 A 
ATOM     80  C   UNL A   1      34.070  33.933  30.782  1.00  0.00     0.059 A 
ATOM     81  F   UNL A   1      34.815  32.493  32.479  1.00  0.00    -0.206 F 
ATOM     82  C   UNL A   1      34.362  34.739  29.682  1.00  0.00     0.060 A 
BRANCH  82  83
ATOM     83  S   UNL A   1      33.033  35.586  28.800  1.00  0.00     0.124 S 
ATOM     84  O   UNL A   1      32.475  34.502  28.000  1.00  0.00    -0.237 OA
ATOM     85  O   UNL A   1      32.196  36.071  29.894  1.00  0.00    -0.237 OA
ATOM     86  O   UNL A   1      33.738  36.625  28.055  1.00  0.00    -0.744 OA
ENDBRANCH  82  83
ENDBRANCH  50  75
BRANCH  62  87
ATOM     87  C   UNL A   1      39.857  34.257  36.991  1.00  0.00     0.058 A 
ATOM     88  C   UNL A   1      40.551  35.473  36.887  1.00  0.00     0.135 A 
ATOM     89  C   UNL A   1      39.037  34.061  38.113  1.00  0.00     0.135 A 
ATOM     90  F   UNL A   1      41.355  35.704  35.837  1.00  0.00    -0.206 F 
ATOM     91  C   UNL A   1      40.446  36.453  37.868  1.00  0.00     0.059 A 
ATOM     92  C   UNL A   1      38.901  35.036  39.094  1.00  0.00     0.059 A 
ATOM     93  F   UNL A   1      38.347  32.917  38.253  1.00  0.00    -0.206 F 
ATOM     94  C   UNL A   1      39.618  36.225  38.970  1.00  0.00     0.060 A 
BRANCH  94  95
ATOM     95  S   UNL A   1      39.459  37.518  40.219  1.00  0.00     0.124 S 
ATOM     96  O   UNL A   1      40.823  38.035  40.280  1.00  0.00    -0.237 OA
ATOM     97  O   UNL A   1      38.469  38.411  39.625  1.00  0.00    -0.237 OA
ATOM     98  O   UNL A   1      39.008  36.791  41.402  1.00  0.00    -0.744 OA
ENDBRANCH  94  95
ENDBRANCH  62  87
ENDBRANCH  36  37
ENDBRANCH  28  31
ENDBRANCH  26  27
ENDBRANCH   1  26
TORSDOF 17
ENDMDL
