MODEL 1
REMARK VINA RESULT:     -12.9      0.000      0.000
REMARK SMILES CS(=O)(=O)Nc1ccc(-c2cc(Cl)cc3c2O[C@H](C(F)(F)F)C(C(=O)NCCCCNC(=O)c2ccc(-c4c5nc(c(-c6c(F)cc(S(=O)(=O)[O-])cc6F)c6ccc([nH]6)c(-c6c(F)cc(S(=O)(=O)[O-])cc6F)c6nc(c(-c7c(F)cc(S(=O)(=O)[O-])cc7F)c7ccc4[nH]7)C=C6)C=C5)cc2)=C3)cc1
REMARK SMILES IDX 28 1 27 2 26 3 24 4 25 5 23 7 10 8 11 9 16 10 12 11 15 12
REMARK SMILES IDX 17 13 13 14 14 15 100 16 18 17 9 18 6 19 7 20 102 21 8 22
REMARK SMILES IDX 101 23 5 24 2 26 1 27 3 28 4 29 19 30 20 31 21 32 22 33
REMARK SMILES IDX 29 34 30 35 31 36 32 37 33 39 34 40 35 41 99 42 36 43 98 44
REMARK SMILES IDX 37 45 38 46 39 47 92 48 40 49 97 50 91 51 93 52 41 53 96 54
REMARK SMILES IDX 90 55 89 56 42 58 76 59 55 60 75 61 56 62 59 63 74 64 94 65
REMARK SMILES IDX 57 66 58 67 73 69 95 70 60 71 43 72 44 73 53 74 45 75 46 76
REMARK SMILES IDX 52 77 54 78 47 79 48 80 49 81 50 82 51 83 77 84 78 85 87 86
REMARK SMILES IDX 79 87 80 88 86 89 88 90 81 91 82 92 83 93 84 94 85 95 61 96
REMARK SMILES IDX 62 97 71 98 63 99 64 100 70 101 72 102 65 103 66 104 67 105
REMARK SMILES IDX 68 106 69 107
REMARK H PARENT 26 6 5 25 31 38 93 57 59 68
REMARK Flexibility Score: inf
ROOT
ATOM      1  C   UNL A   1      31.744  30.754  26.767  1.00  0.00     0.023 C 
ENDROOT
BRANCH   1   2
ATOM      2  C   UNL A   1      32.682  30.080  25.756  1.00  0.00     0.116 C 
BRANCH   2   3
ATOM      3  N   UNL A   1      33.123  28.802  26.274  1.00  0.00    -0.352 N 
ATOM      4  C   UNL A   1      32.673  27.560  25.982  1.00  0.00     0.251 C 
ATOM      5  O   UNL A   1      32.701  26.705  26.862  1.00  0.00    -0.270 OA
ATOM      6  H   UNL A   1      33.854  28.843  26.932  1.00  0.00     0.163 HD
BRANCH   4   7
ATOM      7  C   UNL A   1      32.266  27.255  24.576  1.00  0.00     0.067 C 
ATOM      8  C   UNL A   1      32.890  23.227  24.598  1.00  0.00     0.026 A 
ATOM      9  C   UNL A   1      34.141  23.023  25.240  1.00  0.00     0.033 A 
ATOM     10  C   UNL A   1      32.601  24.549  24.217  1.00  0.00     0.135 A 
ATOM     11  C   UNL A   1      35.116  24.013  25.324  1.00  0.00     0.042 A 
ATOM     12  C   UNL A   1      33.647  25.507  24.199  1.00  0.00     0.019 A 
ATOM     13  O   UNL A   1      31.321  24.995  23.919  1.00  0.00    -0.475 OA
ATOM     14  Cl  UNL A   1      36.592  23.685  26.140  1.00  0.00    -0.084 Cl
ATOM     15  C   UNL A   1      34.906  25.238  24.728  1.00  0.00     0.032 A 
ATOM     16  C   UNL A   1      33.309  26.892  23.803  1.00  0.00     0.025 C 
ATOM     17  C   UNL A   1      31.032  26.367  24.448  1.00  0.00     0.314 C 
BRANCH   8  18
ATOM     18  C   UNL A   1      32.187  21.969  24.213  1.00  0.00    -0.014 A 
ATOM     19  C   UNL A   1      32.258  19.245  23.387  1.00  0.00     0.048 A 
ATOM     20  C   UNL A   1      32.128  19.580  24.738  1.00  0.00     0.027 A 
ATOM     21  C   UNL A   1      32.154  20.264  22.444  1.00  0.00     0.027 A 
ATOM     22  C   UNL A   1      32.060  20.922  25.146  1.00  0.00     0.011 A 
ATOM     23  C   UNL A   1      32.114  21.614  22.853  1.00  0.00     0.011 A 
BRANCH  19  24
ATOM     24  N   UNL A   1      32.650  17.905  23.102  1.00  0.00    -0.284 N 
ATOM     25  H   UNL A   1      32.075  17.412  22.473  1.00  0.00     0.180 HD
BRANCH  24  26
ATOM     26  S   UNL A   1      33.956  17.074  23.700  1.00  0.00     0.229 S 
ATOM     27  C   UNL A   1      33.278  16.041  24.990  1.00  0.00     0.183 C 
ATOM     28  O   UNL A   1      34.897  18.003  24.287  1.00  0.00    -0.207 OA
ATOM     29  O   UNL A   1      34.360  16.193  22.624  1.00  0.00    -0.207 OA
ENDBRANCH  24  26
ENDBRANCH  19  24
ENDBRANCH   8  18
BRANCH  17  30
ATOM     30  C   UNL A   1      29.995  27.105  23.572  1.00  0.00     0.429 C 
ATOM     31  F   UNL A   1      29.920  28.425  23.853  1.00  0.00    -0.167 F 
ATOM     32  F   UNL A   1      30.289  26.984  22.254  1.00  0.00    -0.167 F 
ATOM     33  F   UNL A   1      28.737  26.610  23.723  1.00  0.00    -0.167 F 
ENDBRANCH  17  30
ENDBRANCH   4   7
ENDBRANCH   2   3
ENDBRANCH   1   2
BRANCH   1  34
ATOM     34  C   UNL A   1      31.795  32.289  26.787  1.00  0.00     0.023 C 
BRANCH  34  35
ATOM     35  C   UNL A   1      32.977  32.884  27.542  1.00  0.00     0.116 C 
BRANCH  35  36
ATOM     36  N   UNL A   1      32.760  34.283  27.873  1.00  0.00    -0.352 N 
ATOM     37  C   UNL A   1      33.309  35.028  28.890  1.00  0.00     0.251 C 
ATOM     38  H   UNL A   1      32.133  34.764  27.287  1.00  0.00     0.163 HD
ATOM     39  O   UNL A   1      32.858  36.142  29.142  1.00  0.00    -0.269 OA
BRANCH  37  40
ATOM     40  C   UNL A   1      34.421  34.474  29.692  1.00  0.00     0.039 A 
ATOM     41  C   UNL A   1      34.150  33.950  30.959  1.00  0.00     0.014 A 
ATOM     42  C   UNL A   1      35.727  34.464  29.193  1.00  0.00     0.014 A 
ATOM     43  C   UNL A   1      35.177  33.353  31.695  1.00  0.00     0.010 A 
ATOM     44  C   UNL A   1      36.732  33.804  29.898  1.00  0.00     0.010 A 
ATOM     45  C   UNL A   1      36.469  33.239  31.155  1.00  0.00    -0.014 A 
BRANCH  45  46
ATOM     46  C   UNL A   1      37.552  32.522  31.880  1.00  0.00     0.031 A 
ATOM     47  C   UNL A   1      38.054  33.045  33.200  1.00  0.00     0.074 A 
ATOM     48  C   UNL A   1      38.139  31.448  31.311  1.00  0.00     0.049 A 
ATOM     49  N   UNL A   1      39.048  32.614  33.933  1.00  0.00    -0.248 NA
ATOM     50  C   UNL A   1      37.368  34.223  33.756  1.00  0.00     0.031 C 
ATOM     51  C   UNL A   1      37.780  30.879  30.009  1.00  0.00     0.029 A 
ATOM     52  N   UNL A   1      39.175  30.656  31.741  1.00  0.00    -0.354 N 
ATOM     53  C   UNL A   1      39.124  33.479  35.019  1.00  0.00     0.074 A 
ATOM     54  C   UNL A   1      38.099  34.483  34.831  1.00  0.00     0.031 C 
ATOM     55  C   UNL A   1      38.576  29.828  29.752  1.00  0.00     0.029 A 
ATOM     56  C   UNL A   1      39.529  29.672  30.847  1.00  0.00     0.049 A 
ATOM     57  H   UNL A   1      39.623  30.781  32.609  1.00  0.00     0.167 HD
ATOM     58  C   UNL A   1      39.962  33.431  36.081  1.00  0.00     0.037 A 
ATOM     59  C   UNL A   1      40.520  28.760  30.892  1.00  0.00     0.037 A 
ATOM     60  C   UNL A   1      40.952  32.404  36.282  1.00  0.00     0.049 A 
ATOM     61  C   UNL A   1      41.426  28.719  32.095  1.00  0.00     0.074 A 
ATOM     62  C   UNL A   1      41.782  32.218  37.373  1.00  0.00     0.029 A 
ATOM     63  N   UNL A   1      41.251  31.400  35.374  1.00  0.00    -0.354 N 
ATOM     64  N   UNL A   1      41.420  29.490  33.156  1.00  0.00    -0.248 NA
ATOM     65  C   UNL A   1      42.467  27.682  32.113  1.00  0.00     0.031 C 
ATOM     66  C   UNL A   1      42.623  31.135  37.101  1.00  0.00     0.029 A 
ATOM     67  C   UNL A   1      42.276  30.609  35.867  1.00  0.00     0.049 A 
ATOM     68  H   UNL A   1      40.801  31.268  34.508  1.00  0.00     0.167 HD
ATOM     69  C   UNL A   1      42.435  29.012  33.978  1.00  0.00     0.074 A 
ATOM     70  C   UNL A   1      43.024  27.877  33.299  1.00  0.00     0.031 C 
ATOM     71  C   UNL A   1      42.842  29.471  35.188  1.00  0.00     0.037 A 
BRANCH  58  72
ATOM     72  C   UNL A   1      39.855  34.515  37.119  1.00  0.00     0.058 A 
ATOM     73  C   UNL A   1      40.556  35.725  37.004  1.00  0.00     0.135 A 
ATOM     74  C   UNL A   1      38.976  34.369  38.205  1.00  0.00     0.135 A 
ATOM     75  F   UNL A   1      41.421  35.913  35.993  1.00  0.00    -0.206 F 
ATOM     76  C   UNL A   1      40.400  36.748  37.934  1.00  0.00     0.059 A 
ATOM     77  C   UNL A   1      38.782  35.390  39.132  1.00  0.00     0.059 A 
ATOM     78  F   UNL A   1      38.283  33.231  38.366  1.00  0.00    -0.206 F 
ATOM     79  C   UNL A   1      39.505  36.573  38.992  1.00  0.00     0.060 A 
BRANCH  79  80
ATOM     80  S   UNL A   1      39.286  37.925  40.167  1.00  0.00     0.124 S 
ATOM     81  O   UNL A   1      38.108  38.595  39.624  1.00  0.00    -0.237 OA
ATOM     82  O   UNL A   1      39.086  37.213  41.425  1.00  0.00    -0.237 OA
ATOM     83  O   UNL A   1      40.535  38.673  40.065  1.00  0.00    -0.744 OA
ENDBRANCH  79  80
ENDBRANCH  58  72
BRANCH  59  84
ATOM     84  C   UNL A   1      40.718  27.810  29.761  1.00  0.00     0.058 A 
ATOM     85  C   UNL A   1      41.790  27.958  28.869  1.00  0.00     0.135 A 
ATOM     86  C   UNL A   1      39.829  26.747  29.541  1.00  0.00     0.135 A 
ATOM     87  F   UNL A   1      42.666  28.961  29.031  1.00  0.00    -0.206 F 
ATOM     88  C   UNL A   1      41.956  27.107  27.780  1.00  0.00     0.059 A 
ATOM     89  C   UNL A   1      39.990  25.864  28.478  1.00  0.00     0.059 A 
ATOM     90  F   UNL A   1      38.797  26.549  30.376  1.00  0.00    -0.206 F 
ATOM     91  C   UNL A   1      41.049  26.062  27.593  1.00  0.00     0.060 A 
BRANCH  91  92
ATOM     92  S   UNL A   1      41.283  24.951  26.189  1.00  0.00     0.124 S 
ATOM     93  O   UNL A   1      40.199  23.996  26.388  1.00  0.00    -0.237 OA
ATOM     94  O   UNL A   1      41.136  25.856  25.053  1.00  0.00    -0.237 OA
ATOM     95  O   UNL A   1      42.631  24.430  26.395  1.00  0.00    -0.744 OA
ENDBRANCH  91  92
ENDBRANCH  59  84
BRANCH  71  96
ATOM     96  C   UNL A   1      43.950  28.726  35.882  1.00  0.00     0.058 A 
ATOM     97  C   UNL A   1      43.695  27.630  36.719  1.00  0.00     0.135 A 
ATOM     98  C   UNL A   1      45.291  29.076  35.650  1.00  0.00     0.135 A 
ATOM     99  F   UNL A   1      42.431  27.258  36.979  1.00  0.00    -0.206 F 
ATOM    100  C   UNL A   1      44.729  26.918  37.318  1.00  0.00     0.059 A 
ATOM    101  C   UNL A   1      46.341  28.360  36.213  1.00  0.00     0.059 A 
ATOM    102  F   UNL A   1      45.591  30.110  34.849  1.00  0.00    -0.206 F 
ATOM    103  C   UNL A   1      46.049  27.287  37.055  1.00  0.00     0.060 A 
BRANCH 103 104
ATOM    104  S   UNL A   1      47.382  26.327  37.803  1.00  0.00     0.124 S 
ATOM    105  O   UNL A   1      48.560  27.071  37.370  1.00  0.00    -0.237 OA
ATOM    106  O   UNL A   1      47.067  26.412  39.226  1.00  0.00    -0.237 OA
ATOM    107  O   UNL A   1      47.222  25.003  37.210  1.00  0.00    -0.744 OA
ENDBRANCH 103 104
ENDBRANCH  71  96
ENDBRANCH  45  46
ENDBRANCH  37  40
ENDBRANCH  35  36
ENDBRANCH  34  35
ENDBRANCH   1  34
TORSDOF 18
ENDMDL
MODEL 2
REMARK VINA RESULT:     -12.7      5.874      7.830
REMARK SMILES CS(=O)(=O)Nc1ccc(-c2cc(Cl)cc3c2O[C@H](C(F)(F)F)C(C(=O)NCCCCNC(=O)c2ccc(-c4c5nc(c(-c6c(F)cc(S(=O)(=O)[O-])cc6F)c6ccc([nH]6)c(-c6c(F)cc(S(=O)(=O)[O-])cc6F)c6nc(c(-c7c(F)cc(S(=O)(=O)[O-])cc7F)c7ccc4[nH]7)C=C6)C=C5)cc2)=C3)cc1
REMARK SMILES IDX 28 1 27 2 26 3 24 4 25 5 23 7 10 8 11 9 16 10 12 11 15 12
REMARK SMILES IDX 17 13 13 14 14 15 100 16 18 17 9 18 6 19 7 20 102 21 8 22
REMARK SMILES IDX 101 23 5 24 2 26 1 27 3 28 4 29 19 30 20 31 21 32 22 33
REMARK SMILES IDX 29 34 30 35 31 36 32 37 33 39 34 40 35 41 99 42 36 43 98 44
REMARK SMILES IDX 37 45 38 46 39 47 92 48 40 49 97 50 91 51 93 52 41 53 96 54
REMARK SMILES IDX 90 55 89 56 42 58 76 59 55 60 75 61 56 62 59 63 74 64 94 65
REMARK SMILES IDX 57 66 58 67 73 69 95 70 60 71 43 72 44 73 53 74 45 75 46 76
REMARK SMILES IDX 52 77 54 78 47 79 48 80 49 81 50 82 51 83 77 84 78 85 87 86
REMARK SMILES IDX 79 87 80 88 86 89 88 90 81 91 82 92 83 93 84 94 85 95 61 96
REMARK SMILES IDX 62 97 71 98 63 99 64 100 70 101 72 102 65 103 66 104 67 105
REMARK SMILES IDX 68 106 69 107
REMARK H PARENT 26 6 5 25 31 38 93 57 59 68
REMARK Flexibility Score: inf
ROOT
ATOM      1  C   UNL A   1      33.169  29.620  27.324  1.00  0.00     0.023 C 
ENDROOT
BRANCH   1   2
ATOM      2  C   UNL A   1      33.079  29.085  25.887  1.00  0.00     0.116 C 
BRANCH   2   3
ATOM      3  N   UNL A   1      33.943  27.933  25.740  1.00  0.00    -0.352 N 
ATOM      4  C   UNL A   1      33.613  26.638  25.528  1.00  0.00     0.251 C 
ATOM      5  O   UNL A   1      34.336  25.766  25.998  1.00  0.00    -0.270 OA
ATOM      6  H   UNL A   1      34.908  28.119  25.802  1.00  0.00     0.163 HD
BRANCH   4   7
ATOM      7  C   UNL A   1      32.449  26.329  24.641  1.00  0.00     0.067 C 
ATOM      8  C   UNL A   1      33.118  22.346  24.089  1.00  0.00     0.026 A 
ATOM      9  C   UNL A   1      34.509  22.209  23.833  1.00  0.00     0.033 A 
ATOM     10  C   UNL A   1      32.605  23.653  24.024  1.00  0.00     0.135 A 
ATOM     11  C   UNL A   1      35.295  23.255  23.358  1.00  0.00     0.042 A 
ATOM     12  C   UNL A   1      33.387  24.673  23.423  1.00  0.00     0.019 A 
ATOM     13  O   UNL A   1      31.390  24.025  24.583  1.00  0.00    -0.475 OA
ATOM     14  Cl  UNL A   1      36.975  23.006  23.098  1.00  0.00    -0.084 Cl
ATOM     15  C   UNL A   1      34.719  24.474  23.070  1.00  0.00     0.032 A 
ATOM     16  C   UNL A   1      32.824  26.041  23.378  1.00  0.00     0.025 C 
ATOM     17  C   UNL A   1      31.427  25.370  25.243  1.00  0.00     0.314 C 
BRANCH   8  18
ATOM     18  C   UNL A   1      32.375  21.053  24.148  1.00  0.00    -0.014 A 
ATOM     19  C   UNL A   1      32.358  18.207  24.175  1.00  0.00     0.048 A 
ATOM     20  C   UNL A   1      32.333  18.934  25.369  1.00  0.00     0.027 A 
ATOM     21  C   UNL A   1      32.194  18.900  22.979  1.00  0.00     0.027 A 
ATOM     22  C   UNL A   1      32.308  20.337  25.358  1.00  0.00     0.011 A 
ATOM     23  C   UNL A   1      32.198  20.312  22.965  1.00  0.00     0.011 A 
BRANCH  19  24
ATOM     24  N   UNL A   1      32.714  16.831  24.279  1.00  0.00    -0.284 N 
ATOM     25  H   UNL A   1      31.974  16.205  24.451  1.00  0.00     0.180 HD
BRANCH  24  26
ATOM     26  S   UNL A   1      34.223  16.153  24.144  1.00  0.00     0.229 S 
ATOM     27  C   UNL A   1      35.339  17.433  24.699  1.00  0.00     0.183 C 
ATOM     28  O   UNL A   1      34.501  15.857  22.755  1.00  0.00    -0.207 OA
ATOM     29  O   UNL A   1      34.251  15.107  25.144  1.00  0.00    -0.207 OA
ENDBRANCH  24  26
ENDBRANCH  19  24
ENDBRANCH   8  18
BRANCH  17  30
ATOM     30  C   UNL A   1      30.043  26.056  25.209  1.00  0.00     0.429 C 
ATOM     31  F   UNL A   1      29.256  25.697  26.249  1.00  0.00    -0.167 F 
ATOM     32  F   UNL A   1      30.163  27.406  25.236  1.00  0.00    -0.167 F 
ATOM     33  F   UNL A   1      29.342  25.764  24.081  1.00  0.00    -0.167 F 
ENDBRANCH  17  30
ENDBRANCH   4   7
ENDBRANCH   2   3
ENDBRANCH   1   2
BRANCH   1  34
ATOM     34  C   UNL A   1      33.961  30.925  27.490  1.00  0.00     0.023 C 
BRANCH  34  35
ATOM     35  C   UNL A   1      35.345  30.763  28.107  1.00  0.00     0.116 C 
BRANCH  35  36
ATOM     36  N   UNL A   1      35.356  31.123  29.516  1.00  0.00    -0.352 N 
ATOM     37  C   UNL A   1      36.305  30.850  30.472  1.00  0.00     0.251 C 
ATOM     38  H   UNL A   1      34.575  31.633  29.828  1.00  0.00     0.163 HD
ATOM     39  O   UNL A   1      36.054  31.057  31.656  1.00  0.00    -0.269 OA
BRANCH  37  40
ATOM     40  C   UNL A   1      37.612  30.285  30.074  1.00  0.00     0.039 A 
ATOM     41  C   UNL A   1      37.988  30.323  28.729  1.00  0.00     0.014 A 
ATOM     42  C   UNL A   1      38.470  29.727  31.026  1.00  0.00     0.014 A 
ATOM     43  C   UNL A   1      39.252  29.866  28.350  1.00  0.00     0.010 A 
ATOM     44  C   UNL A   1      39.757  29.340  30.656  1.00  0.00     0.010 A 
ATOM     45  C   UNL A   1      40.164  29.406  29.315  1.00  0.00    -0.014 A 
BRANCH  45  46
ATOM     46  C   UNL A   1      41.548  29.005  28.946  1.00  0.00     0.031 A 
ATOM     47  C   UNL A   1      42.642  30.038  28.877  1.00  0.00     0.074 A 
ATOM     48  C   UNL A   1      41.801  27.727  28.595  1.00  0.00     0.049 A 
ATOM     49  N   UNL A   1      43.883  29.899  28.487  1.00  0.00    -0.248 NA
ATOM     50  C   UNL A   1      42.288  31.412  29.270  1.00  0.00     0.031 C 
ATOM     51  C   UNL A   1      40.814  26.645  28.567  1.00  0.00     0.029 A 
ATOM     52  N   UNL A   1      42.961  27.124  28.172  1.00  0.00    -0.354 N 
ATOM     53  C   UNL A   1      44.450  31.167  28.562  1.00  0.00     0.074 A 
ATOM     54  C   UNL A   1      43.408  32.069  28.999  1.00  0.00     0.031 C 
ATOM     55  C   UNL A   1      41.409  25.513  28.158  1.00  0.00     0.029 A 
ATOM     56  C   UNL A   1      42.810  25.794  27.854  1.00  0.00     0.049 A 
ATOM     57  H   UNL A   1      43.820  27.599  28.104  1.00  0.00     0.167 HD
ATOM     58  C   UNL A   1      45.725  31.539  28.303  1.00  0.00     0.037 A 
ATOM     59  C   UNL A   1      43.691  24.904  27.355  1.00  0.00     0.037 A 
ATOM     60  C   UNL A   1      46.768  30.626  27.909  1.00  0.00     0.049 A 
ATOM     61  C   UNL A   1      45.108  25.342  27.094  1.00  0.00     0.074 A 
ATOM     62  C   UNL A   1      48.111  30.893  27.717  1.00  0.00     0.029 A 
ATOM     63  N   UNL A   1      46.584  29.279  27.638  1.00  0.00    -0.354 N 
ATOM     64  N   UNL A   1      45.646  26.526  27.261  1.00  0.00    -0.248 NA
ATOM     65  C   UNL A   1      46.039  24.325  26.585  1.00  0.00     0.031 C 
ATOM     66  C   UNL A   1      48.730  29.721  27.275  1.00  0.00     0.029 A 
ATOM     67  C   UNL A   1      47.785  28.709  27.250  1.00  0.00     0.049 A 
ATOM     68  H   UNL A   1      45.728  28.799  27.712  1.00  0.00     0.167 HD
ATOM     69  C   UNL A   1      46.984  26.388  26.905  1.00  0.00     0.074 A 
ATOM     70  C   UNL A   1      47.176  25.003  26.529  1.00  0.00     0.031 C 
ATOM     71  C   UNL A   1      47.966  27.323  26.893  1.00  0.00     0.037 A 
BRANCH  58  72
ATOM     72  C   UNL A   1      46.082  32.994  28.437  1.00  0.00     0.058 A 
ATOM     73  C   UNL A   1      45.913  33.900  27.378  1.00  0.00     0.135 A 
ATOM     74  C   UNL A   1      46.524  33.504  29.669  1.00  0.00     0.135 A 
ATOM     75  F   UNL A   1      45.507  33.466  26.174  1.00  0.00    -0.206 F 
ATOM     76  C   UNL A   1      46.182  35.256  27.531  1.00  0.00     0.059 A 
ATOM     77  C   UNL A   1      46.771  34.862  29.854  1.00  0.00     0.059 A 
ATOM     78  F   UNL A   1      46.705  32.682  30.714  1.00  0.00    -0.206 F 
ATOM     79  C   UNL A   1      46.605  35.729  28.775  1.00  0.00     0.060 A 
BRANCH  79  80
ATOM     80  S   UNL A   1      46.912  37.497  28.967  1.00  0.00     0.124 S 
ATOM     81  O   UNL A   1      48.370  37.546  28.920  1.00  0.00    -0.237 OA
ATOM     82  O   UNL A   1      46.221  38.059  27.811  1.00  0.00    -0.237 OA
ATOM     83  O   UNL A   1      46.315  37.809  30.262  1.00  0.00    -0.744 OA
ENDBRANCH  79  80
ENDBRANCH  58  72
BRANCH  59  84
ATOM     84  C   UNL A   1      43.262  23.508  27.059  1.00  0.00     0.058 A 
ATOM     85  C   UNL A   1      43.025  23.084  25.743  1.00  0.00     0.135 A 
ATOM     86  C   UNL A   1      43.064  22.575  28.089  1.00  0.00     0.135 A 
ATOM     87  F   UNL A   1      43.194  23.938  24.722  1.00  0.00    -0.206 F 
ATOM     88  C   UNL A   1      42.576  21.797  25.460  1.00  0.00     0.059 A 
ATOM     89  C   UNL A   1      42.646  21.275  27.830  1.00  0.00     0.059 A 
ATOM     90  F   UNL A   1      43.295  22.923  29.365  1.00  0.00    -0.206 F 
ATOM     91  C   UNL A   1      42.389  20.899  26.512  1.00  0.00     0.060 A 
BRANCH  91  92
ATOM     92  S   UNL A   1      41.826  19.226  26.135  1.00  0.00     0.124 S 
ATOM     93  O   UNL A   1      42.645  18.896  24.975  1.00  0.00    -0.237 OA
ATOM     94  O   UNL A   1      42.144  18.510  27.367  1.00  0.00    -0.237 OA
ATOM     95  O   UNL A   1      40.401  19.402  25.873  1.00  0.00    -0.744 OA
ENDBRANCH  91  92
ENDBRANCH  59  84
BRANCH  71  96
ATOM     96  C   UNL A   1      49.349  26.880  26.502  1.00  0.00     0.058 A 
ATOM     97  C   UNL A   1      50.284  26.440  27.451  1.00  0.00     0.135 A 
ATOM     98  C   UNL A   1      49.720  26.834  25.147  1.00  0.00     0.135 A 
ATOM     99  F   UNL A   1      49.983  26.470  28.759  1.00  0.00    -0.206 F 
ATOM    100  C   UNL A   1      51.544  25.987  27.074  1.00  0.00     0.059 A 
ATOM    101  C   UNL A   1      50.962  26.356  24.745  1.00  0.00     0.059 A 
ATOM    102  F   UNL A   1      48.860  27.234  24.197  1.00  0.00    -0.206 F 
ATOM    103  C   UNL A   1      51.872  25.944  25.717  1.00  0.00     0.060 A 
BRANCH 103 104
ATOM    104  S   UNL A   1      53.494  25.312  25.239  1.00  0.00     0.124 S 
ATOM    105  O   UNL A   1      53.301  23.872  25.378  1.00  0.00    -0.237 OA
ATOM    106  O   UNL A   1      53.630  25.803  23.871  1.00  0.00    -0.237 OA
ATOM    107  O   UNL A   1      54.397  25.921  26.210  1.00  0.00    -0.744 OA
ENDBRANCH 103 104
ENDBRANCH  71  96
ENDBRANCH  45  46
ENDBRANCH  37  40
ENDBRANCH  35  36
ENDBRANCH  34  35
ENDBRANCH   1  34
TORSDOF 18
ENDMDL
MODEL 3
REMARK VINA RESULT:     -12.6      3.273      9.155
REMARK SMILES CS(=O)(=O)Nc1ccc(-c2cc(Cl)cc3c2O[C@H](C(F)(F)F)C(C(=O)NCCCCNC(=O)c2ccc(-c4c5nc(c(-c6c(F)cc(S(=O)(=O)[O-])cc6F)c6ccc([nH]6)c(-c6c(F)cc(S(=O)(=O)[O-])cc6F)c6nc(c(-c7c(F)cc(S(=O)(=O)[O-])cc7F)c7ccc4[nH]7)C=C6)C=C5)cc2)=C3)cc1
REMARK SMILES IDX 28 1 27 2 26 3 24 4 25 5 23 7 10 8 11 9 16 10 12 11 15 12
REMARK SMILES IDX 17 13 13 14 14 15 100 16 18 17 9 18 6 19 7 20 102 21 8 22
REMARK SMILES IDX 101 23 5 24 2 26 1 27 3 28 4 29 19 30 20 31 21 32 22 33
REMARK SMILES IDX 29 34 30 35 31 36 32 37 33 39 34 40 35 41 99 42 36 43 98 44
REMARK SMILES IDX 37 45 38 46 39 47 92 48 40 49 97 50 91 51 93 52 41 53 96 54
REMARK SMILES IDX 90 55 89 56 42 58 76 59 55 60 75 61 56 62 59 63 74 64 94 65
REMARK SMILES IDX 57 66 58 67 73 69 95 70 60 71 43 72 44 73 53 74 45 75 46 76
REMARK SMILES IDX 52 77 54 78 47 79 48 80 49 81 50 82 51 83 77 84 78 85 87 86
REMARK SMILES IDX 79 87 80 88 86 89 88 90 81 91 82 92 83 93 84 94 85 95 61 96
REMARK SMILES IDX 62 97 71 98 63 99 64 100 70 101 72 102 65 103 66 104 67 105
REMARK SMILES IDX 68 106 69 107
REMARK H PARENT 26 6 5 25 31 38 93 57 59 68
REMARK Flexibility Score: inf
ROOT
ATOM      1  C   UNL A   1      38.143  23.407  26.618  1.00  0.00     0.023 C 
ENDROOT
BRANCH   1   2
ATOM      2  C   UNL A   1      36.851  22.858  25.995  1.00  0.00     0.116 C 
BRANCH   2   3
ATOM      3  N   UNL A   1      36.507  23.633  24.821  1.00  0.00    -0.352 N 
ATOM      4  C   UNL A   1      35.514  23.432  23.925  1.00  0.00     0.251 C 
ATOM      5  O   UNL A   1      35.701  23.762  22.759  1.00  0.00    -0.270 OA
ATOM      6  H   UNL A   1      37.077  24.417  24.652  1.00  0.00     0.163 HD
BRANCH   4   7
ATOM      7  C   UNL A   1      34.197  22.920  24.415  1.00  0.00     0.067 C 
ATOM      8  C   UNL A   1      31.952  26.267  23.805  1.00  0.00     0.026 A 
ATOM      9  C   UNL A   1      32.729  27.358  24.279  1.00  0.00     0.033 A 
ATOM     10  C   UNL A   1      32.397  24.986  24.175  1.00  0.00     0.135 A 
ATOM     11  C   UNL A   1      33.755  27.206  25.209  1.00  0.00     0.042 A 
ATOM     12  C   UNL A   1      33.358  24.861  25.211  1.00  0.00     0.019 A 
ATOM     13  O   UNL A   1      31.999  23.824  23.529  1.00  0.00    -0.475 OA
ATOM     14  Cl  UNL A   1      34.659  28.578  25.709  1.00  0.00    -0.084 Cl
ATOM     15  C   UNL A   1      34.020  25.964  25.744  1.00  0.00     0.032 A 
ATOM     16  C   UNL A   1      33.814  23.500  25.571  1.00  0.00     0.025 C 
ATOM     17  C   UNL A   1      33.109  22.834  23.349  1.00  0.00     0.314 C 
BRANCH   8  18
ATOM     18  C   UNL A   1      30.650  26.663  23.193  1.00  0.00    -0.014 A 
ATOM     19  C   UNL A   1      28.428  28.434  23.029  1.00  0.00     0.048 A 
ATOM     20  C   UNL A   1      29.527  28.586  22.179  1.00  0.00     0.027 A 
ATOM     21  C   UNL A   1      28.358  27.288  23.817  1.00  0.00     0.027 A 
ATOM     22  C   UNL A   1      30.610  27.694  22.235  1.00  0.00     0.011 A 
ATOM     23  C   UNL A   1      29.458  26.407  23.895  1.00  0.00     0.011 A 
BRANCH  19  24
ATOM     24  N   UNL A   1      27.551  29.552  23.134  1.00  0.00    -0.284 N 
ATOM     25  H   UNL A   1      26.588  29.353  23.073  1.00  0.00     0.180 HD
BRANCH  24  26
ATOM     26  S   UNL A   1      27.952  31.149  23.348  1.00  0.00     0.229 S 
ATOM     27  C   UNL A   1      28.092  31.801  21.690  1.00  0.00     0.183 C 
ATOM     28  O   UNL A   1      29.239  31.244  24.001  1.00  0.00    -0.207 OA
ATOM     29  O   UNL A   1      26.776  31.751  23.939  1.00  0.00    -0.207 OA
ENDBRANCH  24  26
ENDBRANCH  19  24
ENDBRANCH   8  18
BRANCH  17  30
ATOM     30  C   UNL A   1      32.577  21.384  23.318  1.00  0.00     0.429 C 
ATOM     31  F   UNL A   1      33.497  20.480  23.723  1.00  0.00    -0.167 F 
ATOM     32  F   UNL A   1      31.489  21.243  24.115  1.00  0.00    -0.167 F 
ATOM     33  F   UNL A   1      32.184  20.998  22.075  1.00  0.00    -0.167 F 
ENDBRANCH  17  30
ENDBRANCH   4   7
ENDBRANCH   2   3
ENDBRANCH   1   2
BRANCH   1  34
ATOM     34  C   UNL A   1      39.349  22.456  26.571  1.00  0.00     0.023 C 
BRANCH  34  35
ATOM     35  C   UNL A   1      40.657  23.052  27.075  1.00  0.00     0.116 C 
BRANCH  35  36
ATOM     36  N   UNL A   1      41.375  23.752  26.023  1.00  0.00    -0.352 N 
ATOM     37  C   UNL A   1      41.778  25.066  25.976  1.00  0.00     0.251 C 
ATOM     38  H   UNL A   1      41.606  23.211  25.235  1.00  0.00     0.163 HD
ATOM     39  O   UNL A   1      42.196  25.538  24.922  1.00  0.00    -0.269 OA
BRANCH  37  40
ATOM     40  C   UNL A   1      41.681  25.912  27.185  1.00  0.00     0.039 A 
ATOM     41  C   UNL A   1      42.725  26.791  27.484  1.00  0.00     0.014 A 
ATOM     42  C   UNL A   1      40.560  25.845  28.018  1.00  0.00     0.014 A 
ATOM     43  C   UNL A   1      42.613  27.652  28.579  1.00  0.00     0.010 A 
ATOM     44  C   UNL A   1      40.420  26.754  29.064  1.00  0.00     0.010 A 
ATOM     45  C   UNL A   1      41.442  27.669  29.356  1.00  0.00    -0.014 A 
BRANCH  45  46
ATOM     46  C   UNL A   1      41.262  28.644  30.465  1.00  0.00     0.031 A 
ATOM     47  C   UNL A   1      42.107  28.541  31.708  1.00  0.00     0.074 A 
ATOM     48  C   UNL A   1      40.283  29.570  30.388  1.00  0.00     0.049 A 
ATOM     49  N   UNL A   1      42.033  29.236  32.814  1.00  0.00    -0.248 NA
ATOM     50  C   UNL A   1      43.151  27.503  31.721  1.00  0.00     0.031 C 
ATOM     51  C   UNL A   1      39.362  29.735  29.261  1.00  0.00     0.029 A 
ATOM     52  N   UNL A   1      39.884  30.533  31.282  1.00  0.00    -0.354 N 
ATOM     53  C   UNL A   1      43.000  28.705  33.662  1.00  0.00     0.074 A 
ATOM     54  C   UNL A   1      43.621  27.606  32.956  1.00  0.00     0.031 C 
ATOM     55  C   UNL A   1      38.513  30.740  29.528  1.00  0.00     0.029 A 
ATOM     56  C   UNL A   1      38.798  31.266  30.860  1.00  0.00     0.049 A 
ATOM     57  H   UNL A   1      40.333  30.685  32.145  1.00  0.00     0.167 HD
ATOM     58  C   UNL A   1      43.345  29.108  34.907  1.00  0.00     0.037 A 
ATOM     59  C   UNL A   1      38.099  32.237  31.480  1.00  0.00     0.037 A 
ATOM     60  C   UNL A   1      42.750  30.231  35.586  1.00  0.00     0.049 A 
ATOM     61  C   UNL A   1      38.517  32.676  32.858  1.00  0.00     0.074 A 
ATOM     62  C   UNL A   1      43.100  30.774  36.809  1.00  0.00     0.029 A 
ATOM     63  N   UNL A   1      41.683  30.974  35.107  1.00  0.00    -0.354 N 
ATOM     64  N   UNL A   1      39.495  32.222  33.605  1.00  0.00    -0.248 NA
ATOM     65  C   UNL A   1      37.745  33.764  33.476  1.00  0.00     0.031 C 
ATOM     66  C   UNL A   1      42.206  31.810  37.097  1.00  0.00     0.029 A 
ATOM     67  C   UNL A   1      41.340  31.952  36.026  1.00  0.00     0.049 A 
ATOM     68  H   UNL A   1      41.236  30.829  34.242  1.00  0.00     0.167 HD
ATOM     69  C   UNL A   1      39.473  32.988  34.766  1.00  0.00     0.074 A 
ATOM     70  C   UNL A   1      38.395  33.943  34.617  1.00  0.00     0.031 C 
ATOM     71  C   UNL A   1      40.274  32.908  35.858  1.00  0.00     0.037 A 
BRANCH  58  72
ATOM     72  C   UNL A   1      44.418  28.340  35.630  1.00  0.00     0.058 A 
ATOM     73  C   UNL A   1      45.776  28.669  35.510  1.00  0.00     0.135 A 
ATOM     74  C   UNL A   1      44.071  27.309  36.519  1.00  0.00     0.135 A 
ATOM     75  F   UNL A   1      46.166  29.637  34.663  1.00  0.00    -0.206 F 
ATOM     76  C   UNL A   1      46.756  27.997  36.234  1.00  0.00     0.059 A 
ATOM     77  C   UNL A   1      45.031  26.641  37.276  1.00  0.00     0.059 A 
ATOM     78  F   UNL A   1      42.787  26.951  36.671  1.00  0.00    -0.206 F 
ATOM     79  C   UNL A   1      46.372  26.988  37.120  1.00  0.00     0.060 A 
BRANCH  79  80
ATOM     80  S   UNL A   1      47.651  26.152  38.080  1.00  0.00     0.124 S 
ATOM     81  O   UNL A   1      48.824  26.965  37.772  1.00  0.00    -0.237 OA
ATOM     82  O   UNL A   1      47.141  26.266  39.443  1.00  0.00    -0.237 OA
ATOM     83  O   UNL A   1      47.663  24.801  37.529  1.00  0.00    -0.744 OA
ENDBRANCH  79  80
ENDBRANCH  58  72
BRANCH  59  84
ATOM     84  C   UNL A   1      36.922  32.858  30.810  1.00  0.00     0.058 A 
ATOM     85  C   UNL A   1      37.078  33.919  29.906  1.00  0.00     0.135 A 
ATOM     86  C   UNL A   1      35.617  32.414  31.074  1.00  0.00     0.135 A 
ATOM     87  F   UNL A   1      38.303  34.385  29.622  1.00  0.00    -0.206 F 
ATOM     88  C   UNL A   1      35.981  34.539  29.313  1.00  0.00     0.059 A 
ATOM     89  C   UNL A   1      34.508  32.997  30.471  1.00  0.00     0.059 A 
ATOM     90  F   UNL A   1      35.413  31.389  31.918  1.00  0.00    -0.206 F 
ATOM     91  C   UNL A   1      34.699  34.071  29.603  1.00  0.00     0.060 A 
BRANCH  91  92
ATOM     92  S   UNL A   1      33.284  34.868  28.814  1.00  0.00     0.124 S 
ATOM     93  O   UNL A   1      32.757  33.784  27.994  1.00  0.00    -0.237 OA
ATOM     94  O   UNL A   1      32.470  35.254  29.963  1.00  0.00    -0.237 OA
ATOM     95  O   UNL A   1      33.889  35.978  28.084  1.00  0.00    -0.744 OA
ENDBRANCH  91  92
ENDBRANCH  59  84
BRANCH  71  96
ATOM     96  C   UNL A   1      40.050  33.903  36.963  1.00  0.00     0.058 A 
ATOM     97  C   UNL A   1      40.628  35.182  36.939  1.00  0.00     0.135 A 
ATOM     98  C   UNL A   1      39.190  33.593  38.030  1.00  0.00     0.135 A 
ATOM     99  F   UNL A   1      41.463  35.527  35.945  1.00  0.00    -0.206 F 
ATOM    100  C   UNL A   1      40.376  36.112  37.942  1.00  0.00     0.059 A 
ATOM    101  C   UNL A   1      38.900  34.518  39.028  1.00  0.00     0.059 A 
ATOM    102  F   UNL A   1      38.603  32.388  38.097  1.00  0.00    -0.206 F 
ATOM    103  C   UNL A   1      39.507  35.772  38.981  1.00  0.00     0.060 A 
BRANCH 103 104
ATOM    104  S   UNL A   1      39.154  37.004  40.252  1.00  0.00     0.124 S 
ATOM    105  O   UNL A   1      38.301  36.249  41.165  1.00  0.00    -0.237 OA
ATOM    106  O   UNL A   1      40.487  37.328  40.752  1.00  0.00    -0.237 OA
ATOM    107  O   UNL A   1      38.491  38.075  39.514  1.00  0.00    -0.744 OA
ENDBRANCH 103 104
ENDBRANCH  71  96
ENDBRANCH  45  46
ENDBRANCH  37  40
ENDBRANCH  35  36
ENDBRANCH  34  35
ENDBRANCH   1  34
TORSDOF 18
ENDMDL
