MODEL 1
REMARK VINA RESULT:      -9.6      0.000      0.000
REMARK SMILES CCCCOCc1cc(C(=O)NCCCCNC(=O)c2ccc(-c3c4nc(c(-c5c(F)cc(S(=O)(=O)[O-])cc5F)c5ccc([nH]5)c(-c5c(F)cc(S(=O)(=O)[O-])cc5F)c5nc(c(-c6c(F)cc(S(=O)(=O)[O-])cc6F)c6ccc3[nH]6)C=C5)C=C4)cc2)[nH]n1
REMARK SMILES IDX 13 1 12 2 10 3 11 4 9 6 7 7 8 8 87 9 86 10 6 12 5 13 4 14
REMARK SMILES IDX 3 15 2 16 1 17 14 18 15 19 16 20 17 21 18 22 19 24 20 25
REMARK SMILES IDX 21 26 85 27 22 28 84 29 23 30 24 31 25 32 78 33 26 34 83 35
REMARK SMILES IDX 77 36 79 37 27 38 82 39 76 40 75 41 28 43 62 44 41 45 61 46
REMARK SMILES IDX 42 47 45 48 60 49 80 50 43 51 44 52 59 54 81 55 46 56 29 57
REMARK SMILES IDX 30 58 39 59 31 60 32 61 38 62 40 63 33 64 34 65 35 66 36 67
REMARK SMILES IDX 37 68 63 69 64 70 73 71 65 72 66 73 72 74 74 75 67 76 68 77
REMARK SMILES IDX 69 78 70 79 71 80 47 81 48 82 57 83 49 84 50 85 56 86 58 87
REMARK SMILES IDX 51 88 52 89 53 90 54 91 55 92
REMARK H PARENT 12 5 86 11 17 23 79 42 45 53
REMARK Flexibility Score: inf
ROOT
ATOM      1  C   UNL A   1      43.574  18.935  26.049  1.00  0.00     0.116 C 
ENDROOT
BRANCH   1   2
ATOM      2  N   UNL A   1      44.193  18.533  24.800  1.00  0.00    -0.351 N 
ATOM      3  C   UNL A   1      44.957  19.262  23.929  1.00  0.00     0.269 C 
ATOM      4  O   UNL A   1      45.494  18.672  22.990  1.00  0.00    -0.268 OA
ATOM      5  H   UNL A   1      44.041  17.595  24.541  1.00  0.00     0.163 HD
BRANCH   3   6
ATOM      6  C   UNL A   1      45.168  20.664  24.154  1.00  0.00     0.123 A 
ATOM      7  C   UNL A   1      45.823  22.738  24.633  1.00  0.00     0.089 A 
ATOM      8  C   UNL A   1      45.964  21.387  25.016  1.00  0.00     0.061 A 
ATOM      9  N   UNL A   1      44.905  22.875  23.668  1.00  0.00    -0.178 NA
ATOM     10  N   UNL A   1      44.486  21.615  23.444  1.00  0.00    -0.273 N 
ATOM     11  H   UNL A   1      43.752  21.396  22.824  1.00  0.00     0.190 HD
BRANCH   7  12
ATOM     12  C   UNL A   1      46.582  23.907  25.175  1.00  0.00     0.218 C 
BRANCH  12  13
ATOM     13  O   UNL A   1      47.067  23.770  26.518  1.00  0.00    -0.375 OA
BRANCH  13  14
ATOM     14  C   UNL A   1      46.167  24.077  27.579  1.00  0.00     0.160 C 
BRANCH  14  15
ATOM     15  C   UNL A   1      46.618  25.193  28.521  1.00  0.00     0.028 C 
BRANCH  15  16
ATOM     16  C   UNL A   1      46.934  26.553  27.893  1.00  0.00    -0.001 C 
ATOM     17  C   UNL A   1      45.746  27.245  27.244  1.00  0.00     0.004 C 
ENDBRANCH  15  16
ENDBRANCH  14  15
ENDBRANCH  13  14
ENDBRANCH  12  13
ENDBRANCH   7  12
ENDBRANCH   3   6
ENDBRANCH   1   2
BRANCH   1  18
ATOM     18  C   UNL A   1      42.367  19.837  25.795  1.00  0.00     0.023 C 
BRANCH  18  19
ATOM     19  C   UNL A   1      42.212  20.942  26.842  1.00  0.00     0.023 C 
BRANCH  19  20
ATOM     20  C   UNL A   1      41.620  22.242  26.307  1.00  0.00     0.116 C 
BRANCH  20  21
ATOM     21  N   UNL A   1      40.258  22.093  25.814  1.00  0.00    -0.352 N 
ATOM     22  C   UNL A   1      39.192  22.935  26.020  1.00  0.00     0.251 C 
ATOM     23  H   UNL A   1      40.080  21.294  25.268  1.00  0.00     0.163 HD
ATOM     24  O   UNL A   1      38.066  22.619  25.650  1.00  0.00    -0.269 OA
BRANCH  22  25
ATOM     25  C   UNL A   1      39.425  24.207  26.733  1.00  0.00     0.039 A 
ATOM     26  C   UNL A   1      38.959  24.344  28.040  1.00  0.00     0.014 A 
ATOM     27  C   UNL A   1      40.170  25.224  26.130  1.00  0.00     0.014 A 
ATOM     28  C   UNL A   1      39.299  25.483  28.771  1.00  0.00     0.010 A 
ATOM     29  C   UNL A   1      40.575  26.317  26.886  1.00  0.00     0.010 A 
ATOM     30  C   UNL A   1      40.144  26.459  28.213  1.00  0.00    -0.014 A 
BRANCH  30  31
ATOM     31  C   UNL A   1      40.588  27.633  29.006  1.00  0.00     0.031 A 
ATOM     32  C   UNL A   1      41.926  27.614  29.694  1.00  0.00     0.074 A 
ATOM     33  C   UNL A   1      39.761  28.687  29.158  1.00  0.00     0.049 A 
ATOM     34  N   UNL A   1      42.465  28.515  30.473  1.00  0.00    -0.248 NA
ATOM     35  C   UNL A   1      42.755  26.413  29.503  1.00  0.00     0.031 C 
ATOM     36  C   UNL A   1      38.418  28.799  28.583  1.00  0.00     0.029 A 
ATOM     37  N   UNL A   1      39.924  29.864  29.845  1.00  0.00    -0.354 N 
ATOM     38  C   UNL A   1      43.688  27.987  30.872  1.00  0.00     0.074 A 
ATOM     39  C   UNL A   1      43.783  26.663  30.300  1.00  0.00     0.031 C 
ATOM     40  C   UNL A   1      37.892  29.988  28.919  1.00  0.00     0.029 A 
ATOM     41  C   UNL A   1      38.838  30.706  29.767  1.00  0.00     0.049 A 
ATOM     42  H   UNL A   1      40.741  30.085  30.348  1.00  0.00     0.167 HD
ATOM     43  C   UNL A   1      44.655  28.565  31.624  1.00  0.00     0.037 A 
ATOM     44  C   UNL A   1      38.627  31.915  30.321  1.00  0.00     0.037 A 
ATOM     45  C   UNL A   1      44.558  29.892  32.174  1.00  0.00     0.049 A 
ATOM     46  C   UNL A   1      39.711  32.531  31.164  1.00  0.00     0.074 A 
ATOM     47  C   UNL A   1      45.504  30.591  32.902  1.00  0.00     0.029 A 
ATOM     48  N   UNL A   1      43.449  30.719  32.061  1.00  0.00    -0.354 N 
ATOM     49  N   UNL A   1      40.892  32.048  31.472  1.00  0.00    -0.248 NA
ATOM     50  C   UNL A   1      39.440  33.860  31.729  1.00  0.00     0.031 C 
ATOM     51  C   UNL A   1      44.947  31.818  33.278  1.00  0.00     0.029 A 
ATOM     52  C   UNL A   1      43.677  31.911  32.730  1.00  0.00     0.049 A 
ATOM     53  H   UNL A   1      42.622  30.492  31.578  1.00  0.00     0.167 HD
ATOM     54  C   UNL A   1      41.515  33.025  32.242  1.00  0.00     0.074 A 
ATOM     55  C   UNL A   1      40.586  34.132  32.340  1.00  0.00     0.031 C 
ATOM     56  C   UNL A   1      42.745  33.008  32.813  1.00  0.00     0.037 A 
BRANCH  43  57
ATOM     57  C   UNL A   1      45.901  27.766  31.894  1.00  0.00     0.058 A 
ATOM     58  C   UNL A   1      45.934  26.756  32.870  1.00  0.00     0.135 A 
ATOM     59  C   UNL A   1      47.068  27.986  31.143  1.00  0.00     0.135 A 
ATOM     60  F   UNL A   1      44.855  26.513  33.630  1.00  0.00    -0.206 F 
ATOM     61  C   UNL A   1      47.087  26.016  33.113  1.00  0.00     0.059 A 
ATOM     62  C   UNL A   1      48.222  27.236  31.346  1.00  0.00     0.059 A 
ATOM     63  F   UNL A   1      47.093  28.940  30.198  1.00  0.00    -0.206 F 
ATOM     64  C   UNL A   1      48.226  26.262  32.343  1.00  0.00     0.060 A 
BRANCH  64  65
ATOM     65  S   UNL A   1      49.708  25.284  32.666  1.00  0.00     0.124 S 
ATOM     66  O   UNL A   1      50.600  26.288  33.238  1.00  0.00    -0.237 OA
ATOM     67  O   UNL A   1      49.216  24.271  33.594  1.00  0.00    -0.237 OA
ATOM     68  O   UNL A   1      50.085  24.791  31.346  1.00  0.00    -0.744 OA
ENDBRANCH  64  65
ENDBRANCH  43  57
BRANCH  44  69
ATOM     69  C   UNL A   1      37.343  32.631  30.084  1.00  0.00     0.058 A 
ATOM     70  C   UNL A   1      37.243  33.632  29.105  1.00  0.00     0.135 A 
ATOM     71  C   UNL A   1      36.189  32.322  30.821  1.00  0.00     0.135 A 
ATOM     72  F   UNL A   1      38.319  33.967  28.377  1.00  0.00    -0.206 F 
ATOM     73  C   UNL A   1      36.052  34.315  28.880  1.00  0.00     0.059 A 
ATOM     74  C   UNL A   1      34.979  32.972  30.594  1.00  0.00     0.059 A 
ATOM     75  F   UNL A   1      36.225  31.361  31.758  1.00  0.00    -0.206 F 
ATOM     76  C   UNL A   1      34.924  33.975  29.628  1.00  0.00     0.060 A 
BRANCH  76  77
ATOM     77  S   UNL A   1      33.373  34.837  29.296  1.00  0.00     0.124 S 
ATOM     78  O   UNL A   1      32.790  34.919  30.629  1.00  0.00    -0.237 OA
ATOM     79  O   UNL A   1      33.840  36.097  28.724  1.00  0.00    -0.237 OA
ATOM     80  O   UNL A   1      32.689  33.949  28.360  1.00  0.00    -0.744 OA
ENDBRANCH  76  77
ENDBRANCH  44  69
BRANCH  56  81
ATOM     81  C   UNL A   1      43.179  34.237  33.565  1.00  0.00     0.058 A 
ATOM     82  C   UNL A   1      43.073  34.328  34.961  1.00  0.00     0.135 A 
ATOM     83  C   UNL A   1      43.761  35.317  32.880  1.00  0.00     0.135 A 
ATOM     84  F   UNL A   1      42.519  33.328  35.664  1.00  0.00    -0.206 F 
ATOM     85  C   UNL A   1      43.506  35.457  35.650  1.00  0.00     0.059 A 
ATOM     86  C   UNL A   1      44.229  36.441  33.552  1.00  0.00     0.059 A 
ATOM     87  F   UNL A   1      43.896  35.278  31.545  1.00  0.00    -0.206 F 
ATOM     88  C   UNL A   1      44.086  36.508  34.937  1.00  0.00     0.060 A 
BRANCH  88  89
ATOM     89  S   UNL A   1      44.675  37.950  35.848  1.00  0.00     0.124 S 
ATOM     90  O   UNL A   1      43.594  38.153  36.807  1.00  0.00    -0.237 OA
ATOM     91  O   UNL A   1      45.936  37.472  36.406  1.00  0.00    -0.237 OA
ATOM     92  O   UNL A   1      44.801  38.976  34.817  1.00  0.00    -0.744 OA
ENDBRANCH  88  89
ENDBRANCH  56  81
ENDBRANCH  30  31
ENDBRANCH  22  25
ENDBRANCH  20  21
ENDBRANCH  19  20
ENDBRANCH  18  19
ENDBRANCH   1  18
TORSDOF 19
ENDMDL
MODEL 2
REMARK VINA RESULT:      -9.4      4.304     11.033
REMARK SMILES CCCCOCc1cc(C(=O)NCCCCNC(=O)c2ccc(-c3c4nc(c(-c5c(F)cc(S(=O)(=O)[O-])cc5F)c5ccc([nH]5)c(-c5c(F)cc(S(=O)(=O)[O-])cc5F)c5nc(c(-c6c(F)cc(S(=O)(=O)[O-])cc6F)c6ccc3[nH]6)C=C5)C=C4)cc2)[nH]n1
REMARK SMILES IDX 13 1 12 2 10 3 11 4 9 6 7 7 8 8 87 9 86 10 6 12 5 13 4 14
REMARK SMILES IDX 3 15 2 16 1 17 14 18 15 19 16 20 17 21 18 22 19 24 20 25
REMARK SMILES IDX 21 26 85 27 22 28 84 29 23 30 24 31 25 32 78 33 26 34 83 35
REMARK SMILES IDX 77 36 79 37 27 38 82 39 76 40 75 41 28 43 62 44 41 45 61 46
REMARK SMILES IDX 42 47 45 48 60 49 80 50 43 51 44 52 59 54 81 55 46 56 29 57
REMARK SMILES IDX 30 58 39 59 31 60 32 61 38 62 40 63 33 64 34 65 35 66 36 67
REMARK SMILES IDX 37 68 63 69 64 70 73 71 65 72 66 73 72 74 74 75 67 76 68 77
REMARK SMILES IDX 69 78 70 79 71 80 47 81 48 82 57 83 49 84 50 85 56 86 58 87
REMARK SMILES IDX 51 88 52 89 53 90 54 91 55 92
REMARK H PARENT 12 5 86 11 17 23 79 42 45 53
REMARK Flexibility Score: inf
ROOT
ATOM      1  C   UNL A   1      32.344  28.961  24.606  1.00  0.00     0.116 C 
ENDROOT
BRANCH   1   2
ATOM      2  N   UNL A   1      31.499  29.254  23.464  1.00  0.00    -0.351 N 
ATOM      3  C   UNL A   1      30.952  28.403  22.540  1.00  0.00     0.269 C 
ATOM      4  O   UNL A   1      30.149  28.865  21.727  1.00  0.00    -0.268 OA
ATOM      5  H   UNL A   1      31.287  30.206  23.333  1.00  0.00     0.163 HD
BRANCH   3   6
ATOM      6  C   UNL A   1      31.266  27.003  22.574  1.00  0.00     0.123 A 
ATOM      7  C   UNL A   1      32.100  24.938  22.576  1.00  0.00     0.089 A 
ATOM      8  C   UNL A   1      32.293  26.239  22.063  1.00  0.00     0.061 A 
ATOM      9  N   UNL A   1      30.957  24.855  23.270  1.00  0.00    -0.178 NA
ATOM     10  N   UNL A   1      30.449  26.100  23.199  1.00  0.00    -0.273 N 
ATOM     11  H   UNL A   1      29.566  26.340  23.564  1.00  0.00     0.190 HD
BRANCH   7  12
ATOM     12  C   UNL A   1      33.019  23.768  22.422  1.00  0.00     0.218 C 
BRANCH  12  13
ATOM     13  O   UNL A   1      34.391  23.999  22.773  1.00  0.00    -0.375 OA
BRANCH  13  14
ATOM     14  C   UNL A   1      35.067  22.976  23.498  1.00  0.00     0.160 C 
BRANCH  14  15
ATOM     15  C   UNL A   1      36.516  23.287  23.874  1.00  0.00     0.028 C 
BRANCH  15  16
ATOM     16  C   UNL A   1      36.819  23.517  25.357  1.00  0.00    -0.001 C 
ATOM     17  C   UNL A   1      38.052  22.792  25.873  1.00  0.00     0.004 C 
ENDBRANCH  15  16
ENDBRANCH  14  15
ENDBRANCH  13  14
ENDBRANCH  12  13
ENDBRANCH   7  12
ENDBRANCH   3   6
ENDBRANCH   1   2
BRANCH   1  18
ATOM     18  C   UNL A   1      31.513  28.456  25.785  1.00  0.00     0.023 C 
BRANCH  18  19
ATOM     19  C   UNL A   1      32.367  27.916  26.933  1.00  0.00     0.023 C 
BRANCH  19  20
ATOM     20  C   UNL A   1      33.705  28.625  27.115  1.00  0.00     0.116 C 
BRANCH  20  21
ATOM     21  N   UNL A   1      33.573  29.974  27.647  1.00  0.00    -0.352 N 
ATOM     22  C   UNL A   1      34.514  30.704  28.332  1.00  0.00     0.251 C 
ATOM     23  H   UNL A   1      32.706  30.415  27.497  1.00  0.00     0.163 HD
ATOM     24  O   UNL A   1      34.221  31.784  28.835  1.00  0.00    -0.269 OA
BRANCH  22  25
ATOM     25  C   UNL A   1      35.869  30.141  28.486  1.00  0.00     0.039 A 
ATOM     26  C   UNL A   1      36.744  30.178  27.400  1.00  0.00     0.014 A 
ATOM     27  C   UNL A   1      36.291  29.649  29.724  1.00  0.00     0.014 A 
ATOM     28  C   UNL A   1      38.070  29.781  27.576  1.00  0.00     0.010 A 
ATOM     29  C   UNL A   1      37.630  29.334  29.918  1.00  0.00     0.010 A 
ATOM     30  C   UNL A   1      38.533  29.395  28.846  1.00  0.00    -0.014 A 
BRANCH  30  31
ATOM     31  C   UNL A   1      39.961  29.055  29.072  1.00  0.00     0.031 A 
ATOM     32  C   UNL A   1      40.904  30.092  29.617  1.00  0.00     0.074 A 
ATOM     33  C   UNL A   1      40.419  27.835  28.727  1.00  0.00     0.049 A 
ATOM     34  N   UNL A   1      42.192  30.005  29.831  1.00  0.00    -0.248 NA
ATOM     35  C   UNL A   1      40.331  31.409  29.940  1.00  0.00     0.031 C 
ATOM     36  C   UNL A   1      39.611  26.763  28.139  1.00  0.00     0.029 A 
ATOM     37  N   UNL A   1      41.676  27.291  28.813  1.00  0.00    -0.354 N 
ATOM     38  C   UNL A   1      42.582  31.254  30.302  1.00  0.00     0.074 A 
ATOM     39  C   UNL A   1      41.409  32.098  30.284  1.00  0.00     0.031 C 
ATOM     40  C   UNL A   1      40.386  25.684  27.943  1.00  0.00     0.029 A 
ATOM     41  C   UNL A   1      41.752  25.997  28.350  1.00  0.00     0.049 A 
ATOM     42  H   UNL A   1      42.451  27.780  29.172  1.00  0.00     0.167 HD
ATOM     43  C   UNL A   1      43.802  31.651  30.735  1.00  0.00     0.037 A 
ATOM     44  C   UNL A   1      42.804  25.161  28.256  1.00  0.00     0.037 A 
ATOM     45  C   UNL A   1      44.960  30.796  30.766  1.00  0.00     0.049 A 
ATOM     46  C   UNL A   1      44.153  25.631  28.733  1.00  0.00     0.074 A 
ATOM     47  C   UNL A   1      46.228  31.085  31.239  1.00  0.00     0.029 A 
ATOM     48  N   UNL A   1      44.995  29.489  30.303  1.00  0.00    -0.354 N 
ATOM     49  N   UNL A   1      44.490  26.792  29.243  1.00  0.00    -0.248 NA
ATOM     50  C   UNL A   1      45.264  24.675  28.629  1.00  0.00     0.031 C 
ATOM     51  C   UNL A   1      47.043  29.972  31.010  1.00  0.00     0.029 A 
ATOM     52  C   UNL A   1      46.269  28.967  30.453  1.00  0.00     0.049 A 
ATOM     53  H   UNL A   1      44.227  29.004  29.922  1.00  0.00     0.167 HD
ATOM     54  C   UNL A   1      45.843  26.697  29.547  1.00  0.00     0.074 A 
ATOM     55  C   UNL A   1      46.259  25.358  29.178  1.00  0.00     0.031 C 
ATOM     56  C   UNL A   1      46.667  27.630  30.087  1.00  0.00     0.037 A 
BRANCH  43  57
ATOM     57  C   UNL A   1      43.946  33.071  31.212  1.00  0.00     0.058 A 
ATOM     58  C   UNL A   1      44.327  34.107  30.344  1.00  0.00     0.135 A 
ATOM     59  C   UNL A   1      43.662  33.409  32.547  1.00  0.00     0.135 A 
ATOM     60  F   UNL A   1      44.627  33.841  29.063  1.00  0.00    -0.206 F 
ATOM     61  C   UNL A   1      44.453  35.420  30.788  1.00  0.00     0.059 A 
ATOM     62  C   UNL A   1      43.749  34.720  33.004  1.00  0.00     0.059 A 
ATOM     63  F   UNL A   1      43.294  32.458  33.420  1.00  0.00    -0.206 F 
ATOM     64  C   UNL A   1      44.160  35.717  32.121  1.00  0.00     0.060 A 
BRANCH  64  65
ATOM     65  S   UNL A   1      44.319  37.427  32.675  1.00  0.00     0.124 S 
ATOM     66  O   UNL A   1      43.905  38.159  31.482  1.00  0.00    -0.237 OA
ATOM     67  O   UNL A   1      43.394  37.476  33.802  1.00  0.00    -0.237 OA
ATOM     68  O   UNL A   1      45.733  37.542  33.021  1.00  0.00    -0.744 OA
ENDBRANCH  64  65
ENDBRANCH  43  57
BRANCH  44  69
ATOM     69  C   UNL A   1      42.622  23.790  27.705  1.00  0.00     0.058 A 
ATOM     70  C   UNL A   1      42.414  22.692  28.553  1.00  0.00     0.135 A 
ATOM     71  C   UNL A   1      42.641  23.552  26.322  1.00  0.00     0.135 A 
ATOM     72  F   UNL A   1      42.393  22.866  29.883  1.00  0.00    -0.206 F 
ATOM     73  C   UNL A   1      42.252  21.404  28.051  1.00  0.00     0.059 A 
ATOM     74  C   UNL A   1      42.453  22.278  25.795  1.00  0.00     0.059 A 
ATOM     75  F   UNL A   1      42.819  24.571  25.466  1.00  0.00    -0.206 F 
ATOM     76  C   UNL A   1      42.270  21.208  26.669  1.00  0.00     0.060 A 
BRANCH  76  77
ATOM     77  S   UNL A   1      42.014  19.540  26.028  1.00  0.00     0.124 S 
ATOM     78  O   UNL A   1      42.906  19.527  24.876  1.00  0.00    -0.237 OA
ATOM     79  O   UNL A   1      42.420  18.712  27.160  1.00  0.00    -0.237 OA
ATOM     80  O   UNL A   1      40.586  19.513  25.723  1.00  0.00    -0.744 OA
ENDBRANCH  76  77
ENDBRANCH  44  69
BRANCH  56  81
ATOM     81  C   UNL A   1      48.094  27.230  30.348  1.00  0.00     0.058 A 
ATOM     82  C   UNL A   1      49.122  27.511  29.434  1.00  0.00     0.135 A 
ATOM     83  C   UNL A   1      48.445  26.606  31.557  1.00  0.00     0.135 A 
ATOM     84  F   UNL A   1      48.841  28.099  28.260  1.00  0.00    -0.206 F 
ATOM     85  C   UNL A   1      50.443  27.164  29.698  1.00  0.00     0.059 A 
ATOM     86  C   UNL A   1      49.763  26.281  31.855  1.00  0.00     0.059 A 
ATOM     87  F   UNL A   1      47.503  26.325  32.471  1.00  0.00    -0.206 F 
ATOM     88  C   UNL A   1      50.755  26.552  30.914  1.00  0.00     0.060 A 
BRANCH  88  89
ATOM     89  S   UNL A   1      52.478  26.142  31.258  1.00  0.00     0.124 S 
ATOM     90  O   UNL A   1      53.039  26.077  29.912  1.00  0.00    -0.237 OA
ATOM     91  O   UNL A   1      52.912  27.273  32.071  1.00  0.00    -0.237 OA
ATOM     92  O   UNL A   1      52.391  24.867  31.964  1.00  0.00    -0.744 OA
ENDBRANCH  88  89
ENDBRANCH  56  81
ENDBRANCH  30  31
ENDBRANCH  22  25
ENDBRANCH  20  21
ENDBRANCH  19  20
ENDBRANCH  18  19
ENDBRANCH   1  18
TORSDOF 19
ENDMDL
MODEL 3
REMARK VINA RESULT:      -9.2      4.715     12.837
REMARK SMILES CCCCOCc1cc(C(=O)NCCCCNC(=O)c2ccc(-c3c4nc(c(-c5c(F)cc(S(=O)(=O)[O-])cc5F)c5ccc([nH]5)c(-c5c(F)cc(S(=O)(=O)[O-])cc5F)c5nc(c(-c6c(F)cc(S(=O)(=O)[O-])cc6F)c6ccc3[nH]6)C=C5)C=C4)cc2)[nH]n1
REMARK SMILES IDX 13 1 12 2 10 3 11 4 9 6 7 7 8 8 87 9 86 10 6 12 5 13 4 14
REMARK SMILES IDX 3 15 2 16 1 17 14 18 15 19 16 20 17 21 18 22 19 24 20 25
REMARK SMILES IDX 21 26 85 27 22 28 84 29 23 30 24 31 25 32 78 33 26 34 83 35
REMARK SMILES IDX 77 36 79 37 27 38 82 39 76 40 75 41 28 43 62 44 41 45 61 46
REMARK SMILES IDX 42 47 45 48 60 49 80 50 43 51 44 52 59 54 81 55 46 56 29 57
REMARK SMILES IDX 30 58 39 59 31 60 32 61 38 62 40 63 33 64 34 65 35 66 36 67
REMARK SMILES IDX 37 68 63 69 64 70 73 71 65 72 66 73 72 74 74 75 67 76 68 77
REMARK SMILES IDX 69 78 70 79 71 80 47 81 48 82 57 83 49 84 50 85 56 86 58 87
REMARK SMILES IDX 51 88 52 89 53 90 54 91 55 92
REMARK H PARENT 12 5 86 11 17 23 79 42 45 53
REMARK Flexibility Score: inf
ROOT
ATOM      1  C   UNL A   1      35.282  35.340  33.367  1.00  0.00     0.116 C 
ENDROOT
BRANCH   1   2
ATOM      2  N   UNL A   1      34.017  36.033  33.526  1.00  0.00    -0.351 N 
ATOM      3  C   UNL A   1      33.075  36.359  32.587  1.00  0.00     0.269 C 
ATOM      4  O   UNL A   1      32.006  36.834  32.976  1.00  0.00    -0.268 OA
ATOM      5  H   UNL A   1      33.805  36.311  34.446  1.00  0.00     0.163 HD
BRANCH   3   6
ATOM      6  C   UNL A   1      33.316  36.088  31.199  1.00  0.00     0.123 A 
ATOM      7  C   UNL A   1      33.655  35.316  29.138  1.00  0.00     0.089 A 
ATOM      8  C   UNL A   1      33.811  35.005  30.505  1.00  0.00     0.061 A 
ATOM      9  N   UNL A   1      33.201  36.565  28.973  1.00  0.00    -0.178 NA
ATOM     10  N   UNL A   1      33.064  37.024  30.232  1.00  0.00    -0.273 N 
ATOM     11  H   UNL A   1      32.807  37.952  30.439  1.00  0.00     0.190 HD
BRANCH   7  12
ATOM     12  C   UNL A   1      33.922  34.412  27.976  1.00  0.00     0.218 C 
BRANCH  12  13
ATOM     13  O   UNL A   1      33.472  33.057  28.122  1.00  0.00    -0.375 OA
BRANCH  13  14
ATOM     14  C   UNL A   1      34.407  32.101  28.614  1.00  0.00     0.160 C 
BRANCH  14  15
ATOM     15  C   UNL A   1      35.059  31.214  27.553  1.00  0.00     0.028 C 
BRANCH  15  16
ATOM     16  C   UNL A   1      35.062  29.705  27.809  1.00  0.00    -0.001 C 
ATOM     17  C   UNL A   1      34.331  28.881  26.760  1.00  0.00     0.004 C 
ENDBRANCH  15  16
ENDBRANCH  14  15
ENDBRANCH  13  14
ENDBRANCH  12  13
ENDBRANCH   7  12
ENDBRANCH   3   6
ENDBRANCH   1   2
BRANCH   1  18
ATOM     18  C   UNL A   1      35.195  33.914  33.908  1.00  0.00     0.023 C 
BRANCH  18  19
ATOM     19  C   UNL A   1      36.562  33.242  34.050  1.00  0.00     0.023 C 
BRANCH  19  20
ATOM     20  C   UNL A   1      37.060  32.550  32.785  1.00  0.00     0.116 C 
BRANCH  20  21
ATOM     21  N   UNL A   1      36.172  31.494  32.320  1.00  0.00    -0.352 N 
ATOM     22  C   UNL A   1      36.459  30.481  31.436  1.00  0.00     0.251 C 
ATOM     23  H   UNL A   1      35.257  31.508  32.681  1.00  0.00     0.163 HD
ATOM     24  O   UNL A   1      35.574  29.734  31.035  1.00  0.00    -0.269 OA
BRANCH  22  25
ATOM     25  C   UNL A   1      37.846  30.341  30.951  1.00  0.00     0.039 A 
ATOM     26  C   UNL A   1      38.805  29.784  31.798  1.00  0.00     0.014 A 
ATOM     27  C   UNL A   1      38.170  30.689  29.637  1.00  0.00     0.014 A 
ATOM     28  C   UNL A   1      40.080  29.514  31.301  1.00  0.00     0.010 A 
ATOM     29  C   UNL A   1      39.414  30.344  29.123  1.00  0.00     0.010 A 
ATOM     30  C   UNL A   1      40.382  29.754  29.949  1.00  0.00    -0.014 A 
BRANCH  30  31
ATOM     31  C   UNL A   1      41.706  29.390  29.381  1.00  0.00     0.031 A 
ATOM     32  C   UNL A   1      42.780  30.435  29.249  1.00  0.00     0.074 A 
ATOM     33  C   UNL A   1      41.916  28.138  28.929  1.00  0.00     0.049 A 
ATOM     34  N   UNL A   1      43.976  30.326  28.730  1.00  0.00    -0.248 NA
ATOM     35  C   UNL A   1      42.459  31.785  29.739  1.00  0.00     0.031 C 
ATOM     36  C   UNL A   1      40.932  27.052  28.955  1.00  0.00     0.029 A 
ATOM     37  N   UNL A   1      43.023  27.566  28.354  1.00  0.00    -0.354 N 
ATOM     38  C   UNL A   1      44.544  31.592  28.823  1.00  0.00     0.074 A 
ATOM     39  C   UNL A   1      43.540  32.466  29.389  1.00  0.00     0.031 C 
ATOM     40  C   UNL A   1      41.488  25.942  28.445  1.00  0.00     0.029 A 
ATOM     41  C   UNL A   1      42.850  26.243  28.016  1.00  0.00     0.049 A 
ATOM     42  H   UNL A   1      43.862  28.056  28.196  1.00  0.00     0.167 HD
ATOM     43  C   UNL A   1      45.797  31.983  28.491  1.00  0.00     0.037 A 
ATOM     44  C   UNL A   1      43.691  25.374  27.423  1.00  0.00     0.037 A 
ATOM     45  C   UNL A   1      46.795  31.101  27.945  1.00  0.00     0.049 A 
ATOM     46  C   UNL A   1      45.075  25.836  27.051  1.00  0.00     0.074 A 
ATOM     47  C   UNL A   1      48.111  31.385  27.627  1.00  0.00     0.029 A 
ATOM     48  N   UNL A   1      46.588  29.765  27.631  1.00  0.00    -0.354 N 
ATOM     49  N   UNL A   1      45.621  27.019  27.211  1.00  0.00    -0.248 NA
ATOM     50  C   UNL A   1      45.961  24.846  26.425  1.00  0.00     0.031 C 
ATOM     51  C   UNL A   1      48.683  30.238  27.069  1.00  0.00     0.029 A 
ATOM     52  C   UNL A   1      47.743  29.219  27.097  1.00  0.00     0.049 A 
ATOM     53  H   UNL A   1      45.743  29.278  27.767  1.00  0.00     0.167 HD
ATOM     54  C   UNL A   1      46.922  26.907  26.734  1.00  0.00     0.074 A 
ATOM     55  C   UNL A   1      47.086  25.536  26.292  1.00  0.00     0.031 C 
ATOM     56  C   UNL A   1      47.894  27.850  26.669  1.00  0.00     0.037 A 
BRANCH  43  57
ATOM     57  C   UNL A   1      46.160  33.427  28.711  1.00  0.00     0.058 A 
ATOM     58  C   UNL A   1      46.747  33.868  29.908  1.00  0.00     0.135 A 
ATOM     59  C   UNL A   1      45.953  34.378  27.696  1.00  0.00     0.135 A 
ATOM     60  F   UNL A   1      46.953  33.008  30.918  1.00  0.00    -0.206 F 
ATOM     61  C   UNL A   1      47.086  35.203  30.105  1.00  0.00     0.059 A 
ATOM     62  C   UNL A   1      46.314  35.712  27.859  1.00  0.00     0.059 A 
ATOM     63  F   UNL A   1      45.394  34.012  26.532  1.00  0.00    -0.206 F 
ATOM     64  C   UNL A   1      46.867  36.118  29.072  1.00  0.00     0.060 A 
BRANCH  64  65
ATOM     65  S   UNL A   1      47.323  37.843  29.343  1.00  0.00     0.124 S 
ATOM     66  O   UNL A   1      46.023  38.448  29.615  1.00  0.00    -0.237 OA
ATOM     67  O   UNL A   1      48.230  37.750  30.482  1.00  0.00    -0.237 OA
ATOM     68  O   UNL A   1      47.943  38.233  28.081  1.00  0.00    -0.744 OA
ENDBRANCH  64  65
ENDBRANCH  43  57
BRANCH  44  69
ATOM     69  C   UNL A   1      43.255  23.975  27.159  1.00  0.00     0.058 A 
ATOM     70  C   UNL A   1      43.421  22.971  28.124  1.00  0.00     0.135 A 
ATOM     71  C   UNL A   1      42.656  23.616  25.941  1.00  0.00     0.135 A 
ATOM     72  F   UNL A   1      43.994  23.262  29.302  1.00  0.00    -0.206 F 
ATOM     73  C   UNL A   1      43.027  21.659  27.887  1.00  0.00     0.059 A 
ATOM     74  C   UNL A   1      42.227  22.316  25.691  1.00  0.00     0.059 A 
ATOM     75  F   UNL A   1      42.457  24.542  24.989  1.00  0.00    -0.206 F 
ATOM     76  C   UNL A   1      42.428  21.341  26.667  1.00  0.00     0.060 A 
BRANCH  76  77
ATOM     77  S   UNL A   1      41.879  19.644  26.387  1.00  0.00     0.124 S 
ATOM     78  O   UNL A   1      40.460  19.834  26.113  1.00  0.00    -0.237 OA
ATOM     79  O   UNL A   1      42.701  19.241  25.249  1.00  0.00    -0.237 OA
ATOM     80  O   UNL A   1      42.196  18.977  27.647  1.00  0.00    -0.744 OA
ENDBRANCH  76  77
ENDBRANCH  44  69
BRANCH  56  81
ATOM     81  C   UNL A   1      49.237  27.430  26.135  1.00  0.00     0.058 A 
ATOM     82  C   UNL A   1      49.535  27.465  24.765  1.00  0.00     0.135 A 
ATOM     83  C   UNL A   1      50.258  27.038  27.018  1.00  0.00     0.135 A 
ATOM     84  F   UNL A   1      48.595  27.825  23.877  1.00  0.00    -0.206 F 
ATOM     85  C   UNL A   1      50.790  27.103  24.285  1.00  0.00     0.059 A 
ATOM     86  C   UNL A   1      51.528  26.703  26.563  1.00  0.00     0.059 A 
ATOM     87  F   UNL A   1      50.030  26.997  28.340  1.00  0.00    -0.206 F 
ATOM     88  C   UNL A   1      51.782  26.727  25.192  1.00  0.00     0.060 A 
BRANCH  88  89
ATOM     89  S   UNL A   1      53.415  26.295  24.558  1.00  0.00     0.124 S 
ATOM     90  O   UNL A   1      53.075  25.587  23.328  1.00  0.00    -0.237 OA
ATOM     91  O   UNL A   1      54.038  27.603  24.385  1.00  0.00    -0.237 OA
ATOM     92  O   UNL A   1      53.986  25.470  25.619  1.00  0.00    -0.744 OA
ENDBRANCH  88  89
ENDBRANCH  56  81
ENDBRANCH  30  31
ENDBRANCH  22  25
ENDBRANCH  20  21
ENDBRANCH  19  20
ENDBRANCH  18  19
ENDBRANCH   1  18
TORSDOF 19
ENDMDL
