MODEL 1
REMARK VINA RESULT:     -11.7      0.000      0.000
REMARK SMILES C/C(=C/C[N@H+]1C[C@H]2CCC[N@H+]2C[C@@H]1C)C(=O)NCCCCNC(=O)c1ccc(-c2c3nc(c(-c4c(F)cc(S(=O)(=O)[O-])cc4F)c4ccc([nH]4)c(-c4c(F)cc(S(=O)(=O)[O-])cc4F)c4nc(c(-c5c(F)cc(S(=O)(=O)[O-])cc5F)c5ccc2[nH]5)C=C4)C=C3)cc1
REMARK SMILES IDX 20 1 19 2 18 3 17 4 15 5 16 6 2 8 1 9 3 10 4 11 5 12 6 13
REMARK SMILES IDX 13 14 7 16 12 17 14 18 8 19 11 20 9 21 10 22 21 24 22 25
REMARK SMILES IDX 23 26 24 28 25 29 26 30 90 31 27 32 89 33 28 34 29 35 30 36
REMARK SMILES IDX 83 37 31 38 88 39 82 40 84 41 32 42 87 43 81 44 80 45 33 47
REMARK SMILES IDX 67 48 46 49 66 50 47 51 50 52 65 53 85 54 48 55 49 56 64 58
REMARK SMILES IDX 86 59 51 60 34 61 35 62 44 63 36 64 37 65 43 66 45 67 38 68
REMARK SMILES IDX 39 69 40 70 41 71 42 72 68 73 69 74 78 75 70 76 71 77 77 78
REMARK SMILES IDX 79 79 72 80 73 81 74 82 75 83 76 84 52 85 53 86 62 87 54 88
REMARK SMILES IDX 55 89 61 90 63 91 56 92 57 93 58 94 59 95 60 96
REMARK H PARENT 17 7 5 15 11 23 22 27 84 46 50 57
REMARK Flexibility Score: inf
ROOT
ATOM      1  C   UNL A   1      32.572  28.073  27.522  1.00  0.00     0.023 C 
ENDROOT
BRANCH   1   2
ATOM      2  C   UNL A   1      32.344  26.869  26.611  1.00  0.00     0.023 C 
BRANCH   2   3
ATOM      3  C   UNL A   1      33.568  26.441  25.791  1.00  0.00     0.116 C 
BRANCH   3   4
ATOM      4  N   UNL A   1      33.583  25.010  25.640  1.00  0.00    -0.352 N 
ATOM      5  C   UNL A   1      33.088  24.166  24.712  1.00  0.00     0.246 C 
ATOM      6  O   UNL A   1      33.247  22.965  24.966  1.00  0.00    -0.270 OA
ATOM      7  H   UNL A   1      34.056  24.548  26.369  1.00  0.00     0.163 HD
BRANCH   5   8
ATOM      8  C   UNL A   1      32.454  24.538  23.389  1.00  0.00     0.015 C 
ATOM      9  C   UNL A   1      33.250  23.870  22.268  1.00  0.00     0.050 C 
ATOM     10  C   UNL A   1      31.383  25.256  22.984  1.00  0.00     0.042 C 
BRANCH  10  11
ATOM     11  C   UNL A   1      30.281  26.047  23.624  1.00  0.00     0.292 C 
BRANCH  11  12
ATOM     12  N   UNL A   1      30.226  27.427  23.111  1.00  0.00    -0.320 N 
ATOM     13  C   UNL A   1      28.865  27.997  23.211  1.00  0.00     0.328 C 
ATOM     14  C   UNL A   1      31.234  28.337  23.734  1.00  0.00     0.237 C 
ATOM     15  H   UNL A   1      30.473  27.358  22.124  1.00  0.00     0.348 HD
ATOM     16  C   UNL A   1      28.799  29.466  22.740  1.00  0.00     0.240 C 
ATOM     17  C   UNL A   1      30.654  29.674  24.304  1.00  0.00     0.328 C 
ATOM     18  C   UNL A   1      32.298  28.681  22.678  1.00  0.00     0.081 C 
ATOM     19  C   UNL A   1      27.445  30.109  23.029  1.00  0.00     0.077 C 
ATOM     20  N   UNL A   1      29.800  30.371  23.338  1.00  0.00    -0.323 N 
ATOM     21  C   UNL A   1      27.790  31.580  23.156  1.00  0.00     0.068 C 
ATOM     22  C   UNL A   1      29.119  31.541  23.890  1.00  0.00     0.263 C 
ATOM     23  H   UNL A   1      30.442  30.700  22.616  1.00  0.00     0.348 HD
ENDBRANCH  11  12
ENDBRANCH  10  11
ENDBRANCH   5   8
ENDBRANCH   3   4
ENDBRANCH   2   3
ENDBRANCH   1   2
BRANCH   1  24
ATOM     24  C   UNL A   1      33.558  29.090  26.956  1.00  0.00     0.116 C 
BRANCH  24  25
ATOM     25  N   UNL A   1      33.553  30.368  27.664  1.00  0.00    -0.352 N 
ATOM     26  C   UNL A   1      34.578  30.931  28.392  1.00  0.00     0.251 C 
ATOM     27  H   UNL A   1      32.719  30.887  27.614  1.00  0.00     0.163 HD
ATOM     28  O   UNL A   1      34.425  31.993  28.978  1.00  0.00    -0.269 OA
BRANCH  26  29
ATOM     29  C   UNL A   1      35.841  30.174  28.501  1.00  0.00     0.039 A 
ATOM     30  C   UNL A   1      36.702  30.150  27.402  1.00  0.00     0.014 A 
ATOM     31  C   UNL A   1      36.225  29.628  29.728  1.00  0.00     0.014 A 
ATOM     32  C   UNL A   1      38.001  29.669  27.564  1.00  0.00     0.010 A 
ATOM     33  C   UNL A   1      37.536  29.206  29.902  1.00  0.00     0.010 A 
ATOM     34  C   UNL A   1      38.443  29.252  28.831  1.00  0.00    -0.014 A 
BRANCH  34  35
ATOM     35  C   UNL A   1      39.863  28.911  29.083  1.00  0.00     0.031 A 
ATOM     36  C   UNL A   1      40.805  29.962  29.590  1.00  0.00     0.074 A 
ATOM     37  C   UNL A   1      40.322  27.690  28.745  1.00  0.00     0.049 A 
ATOM     38  N   UNL A   1      42.105  29.911  29.718  1.00  0.00    -0.248 NA
ATOM     39  C   UNL A   1      40.209  31.251  29.973  1.00  0.00     0.031 C 
ATOM     40  C   UNL A   1      39.509  26.600  28.195  1.00  0.00     0.029 A 
ATOM     41  N   UNL A   1      41.588  27.164  28.791  1.00  0.00    -0.354 N 
ATOM     42  C   UNL A   1      42.488  31.168  30.167  1.00  0.00     0.074 A 
ATOM     43  C   UNL A   1      41.285  31.968  30.265  1.00  0.00     0.031 C 
ATOM     44  C   UNL A   1      40.296  25.535  27.968  1.00  0.00     0.029 A 
ATOM     45  C   UNL A   1      41.671  25.875  28.319  1.00  0.00     0.049 A 
ATOM     46  H   UNL A   1      42.365  27.664  29.131  1.00  0.00     0.167 HD
ATOM     47  C   UNL A   1      43.728  31.611  30.479  1.00  0.00     0.037 A 
ATOM     48  C   UNL A   1      42.736  25.065  28.173  1.00  0.00     0.037 A 
ATOM     49  C   UNL A   1      44.915  30.801  30.414  1.00  0.00     0.049 A 
ATOM     50  C   UNL A   1      44.098  25.566  28.564  1.00  0.00     0.074 A 
ATOM     51  C   UNL A   1      46.211  31.143  30.752  1.00  0.00     0.029 A 
ATOM     52  N   UNL A   1      44.945  29.480  29.991  1.00  0.00    -0.354 N 
ATOM     53  N   UNL A   1      44.438  26.747  29.020  1.00  0.00    -0.248 NA
ATOM     54  C   UNL A   1      45.220  24.628  28.421  1.00  0.00     0.031 C 
ATOM     55  C   UNL A   1      47.030  30.032  30.521  1.00  0.00     0.029 A 
ATOM     56  C   UNL A   1      46.238  28.992  30.059  1.00  0.00     0.049 A 
ATOM     57  H   UNL A   1      44.163  28.966  29.686  1.00  0.00     0.167 HD
ATOM     58  C   UNL A   1      45.808  26.689  29.240  1.00  0.00     0.074 A 
ATOM     59  C   UNL A   1      46.237  25.355  28.868  1.00  0.00     0.031 C 
ATOM     60  C   UNL A   1      46.637  27.654  29.706  1.00  0.00     0.037 A 
BRANCH  47  61
ATOM     61  C   UNL A   1      43.855  33.038  30.919  1.00  0.00     0.058 A 
ATOM     62  C   UNL A   1      44.121  34.065  30.001  1.00  0.00     0.135 A 
ATOM     63  C   UNL A   1      43.707  33.385  32.271  1.00  0.00     0.135 A 
ATOM     64  F   UNL A   1      44.290  33.780  28.700  1.00  0.00    -0.206 F 
ATOM     65  C   UNL A   1      44.271  35.385  30.411  1.00  0.00     0.059 A 
ATOM     66  C   UNL A   1      43.832  34.702  32.702  1.00  0.00     0.059 A 
ATOM     67  F   UNL A   1      43.454  32.438  33.188  1.00  0.00    -0.206 F 
ATOM     68  C   UNL A   1      44.134  35.692  31.767  1.00  0.00     0.060 A 
BRANCH  68  69
ATOM     69  S   UNL A   1      44.348  37.405  32.296  1.00  0.00     0.124 S 
ATOM     70  O   UNL A   1      45.782  37.446  32.565  1.00  0.00    -0.237 OA
ATOM     71  O   UNL A   1      43.903  38.158  31.127  1.00  0.00    -0.237 OA
ATOM     72  O   UNL A   1      43.485  37.506  33.468  1.00  0.00    -0.744 OA
ENDBRANCH  68  69
ENDBRANCH  47  61
BRANCH  48  73
ATOM     73  C   UNL A   1      42.552  23.686  27.655  1.00  0.00     0.058 A 
ATOM     74  C   UNL A   1      42.540  23.438  26.275  1.00  0.00     0.135 A 
ATOM     75  C   UNL A   1      42.411  22.592  28.521  1.00  0.00     0.135 A 
ATOM     76  F   UNL A   1      42.669  24.456  25.410  1.00  0.00    -0.206 F 
ATOM     77  C   UNL A   1      42.384  22.153  25.768  1.00  0.00     0.059 A 
ATOM     78  C   UNL A   1      42.269  21.294  28.037  1.00  0.00     0.059 A 
ATOM     79  F   UNL A   1      42.435  22.778  29.850  1.00  0.00    -0.206 F 
ATOM     80  C   UNL A   1      42.249  21.086  26.659  1.00  0.00     0.060 A 
BRANCH  80  81
ATOM     81  S   UNL A   1      42.103  19.411  25.997  1.00  0.00     0.124 S 
ATOM     82  O   UNL A   1      42.945  19.493  24.810  1.00  0.00    -0.237 OA
ATOM     83  O   UNL A   1      42.621  18.597  27.092  1.00  0.00    -0.237 OA
ATOM     84  O   UNL A   1      40.671  19.276  25.750  1.00  0.00    -0.744 OA
ENDBRANCH  80  81
ENDBRANCH  48  73
BRANCH  60  85
ATOM     85  C   UNL A   1      48.083  27.300  29.880  1.00  0.00     0.058 A 
ATOM     86  C   UNL A   1      49.009  27.482  28.843  1.00  0.00     0.135 A 
ATOM     87  C   UNL A   1      48.560  26.859  31.124  1.00  0.00     0.135 A 
ATOM     88  F   UNL A   1      48.598  27.894  27.634  1.00  0.00    -0.206 F 
ATOM     89  C   UNL A   1      50.366  27.241  29.034  1.00  0.00     0.059 A 
ATOM     90  C   UNL A   1      49.913  26.626  31.343  1.00  0.00     0.059 A 
ATOM     91  F   UNL A   1      47.709  26.676  32.146  1.00  0.00    -0.206 F 
ATOM     92  C   UNL A   1      50.809  26.818  30.290  1.00  0.00     0.060 A 
BRANCH  92  93
ATOM     93  S   UNL A   1      52.579  26.580  30.555  1.00  0.00     0.124 S 
ATOM     94  O   UNL A   1      53.049  26.344  29.194  1.00  0.00    -0.237 OA
ATOM     95  O   UNL A   1      52.983  27.849  31.153  1.00  0.00    -0.237 OA
ATOM     96  O   UNL A   1      52.634  25.429  31.450  1.00  0.00    -0.744 OA
ENDBRANCH  92  93
ENDBRANCH  60  85
ENDBRANCH  34  35
ENDBRANCH  26  29
ENDBRANCH  24  25
ENDBRANCH   1  24
TORSDOF 16
ENDMDL
MODEL 2
REMARK VINA RESULT:     -11.7      1.232      3.612
REMARK SMILES C/C(=C/C[N@H+]1C[C@H]2CCC[N@H+]2C[C@@H]1C)C(=O)NCCCCNC(=O)c1ccc(-c2c3nc(c(-c4c(F)cc(S(=O)(=O)[O-])cc4F)c4ccc([nH]4)c(-c4c(F)cc(S(=O)(=O)[O-])cc4F)c4nc(c(-c5c(F)cc(S(=O)(=O)[O-])cc5F)c5ccc2[nH]5)C=C4)C=C3)cc1
REMARK SMILES IDX 20 1 19 2 18 3 17 4 15 5 16 6 2 8 1 9 3 10 4 11 5 12 6 13
REMARK SMILES IDX 13 14 7 16 12 17 14 18 8 19 11 20 9 21 10 22 21 24 22 25
REMARK SMILES IDX 23 26 24 28 25 29 26 30 90 31 27 32 89 33 28 34 29 35 30 36
REMARK SMILES IDX 83 37 31 38 88 39 82 40 84 41 32 42 87 43 81 44 80 45 33 47
REMARK SMILES IDX 67 48 46 49 66 50 47 51 50 52 65 53 85 54 48 55 49 56 64 58
REMARK SMILES IDX 86 59 51 60 34 61 35 62 44 63 36 64 37 65 43 66 45 67 38 68
REMARK SMILES IDX 39 69 40 70 41 71 42 72 68 73 69 74 78 75 70 76 71 77 77 78
REMARK SMILES IDX 79 79 72 80 73 81 74 82 75 83 76 84 52 85 53 86 62 87 54 88
REMARK SMILES IDX 55 89 61 90 63 91 56 92 57 93 58 94 59 95 60 96
REMARK H PARENT 17 7 5 15 11 23 22 27 84 46 50 57
REMARK Flexibility Score: inf
ROOT
ATOM      1  C   UNL A   1      33.599  28.564  25.855  1.00  0.00     0.023 C 
ENDROOT
BRANCH   1   2
ATOM      2  C   UNL A   1      32.938  29.701  25.079  1.00  0.00     0.023 C 
BRANCH   2   3
ATOM      3  C   UNL A   1      31.407  29.626  25.005  1.00  0.00     0.116 C 
BRANCH   3   4
ATOM      4  N   UNL A   1      31.002  29.113  23.724  1.00  0.00    -0.352 N 
ATOM      5  C   UNL A   1      30.419  27.966  23.321  1.00  0.00     0.246 C 
ATOM      6  O   UNL A   1      30.283  27.854  22.096  1.00  0.00    -0.270 OA
ATOM      7  H   UNL A   1      31.189  29.732  22.981  1.00  0.00     0.163 HD
BRANCH   5   8
ATOM      8  C   UNL A   1      29.852  26.874  24.205  1.00  0.00     0.015 C 
ATOM      9  C   UNL A   1      28.368  26.710  23.876  1.00  0.00     0.050 C 
ATOM     10  C   UNL A   1      30.329  26.028  25.145  1.00  0.00     0.042 C 
BRANCH  10  11
ATOM     11  C   UNL A   1      31.650  25.733  25.792  1.00  0.00     0.292 C 
BRANCH  11  12
ATOM     12  N   UNL A   1      32.156  24.399  25.425  1.00  0.00    -0.320 N 
ATOM     13  C   UNL A   1      33.540  24.457  24.910  1.00  0.00     0.328 C 
ATOM     14  C   UNL A   1      32.034  23.391  26.522  1.00  0.00     0.237 C 
ATOM     15  H   UNL A   1      31.547  24.078  24.672  1.00  0.00     0.348 HD
ATOM     16  C   UNL A   1      34.113  23.062  24.582  1.00  0.00     0.240 C 
ATOM     17  C   UNL A   1      33.350  22.612  26.851  1.00  0.00     0.328 C 
ATOM     18  C   UNL A   1      30.952  22.372  26.129  1.00  0.00     0.081 C 
ATOM     19  C   UNL A   1      35.600  23.108  24.243  1.00  0.00     0.077 C 
ATOM     20  N   UNL A   1      33.985  22.054  25.653  1.00  0.00    -0.323 N 
ATOM     21  C   UNL A   1      36.080  21.724  24.633  1.00  0.00     0.068 C 
ATOM     22  C   UNL A   1      35.294  21.455  25.905  1.00  0.00     0.263 C 
ATOM     23  H   UNL A   1      33.358  21.308  25.352  1.00  0.00     0.348 HD
ENDBRANCH  11  12
ENDBRANCH  10  11
ENDBRANCH   5   8
ENDBRANCH   3   4
ENDBRANCH   2   3
ENDBRANCH   1   2
BRANCH   1  24
ATOM     24  C   UNL A   1      33.519  28.729  27.369  1.00  0.00     0.116 C 
BRANCH  24  25
ATOM     25  N   UNL A   1      33.587  30.120  27.811  1.00  0.00    -0.352 N 
ATOM     26  C   UNL A   1      34.686  30.797  28.294  1.00  0.00     0.251 C 
ATOM     27  H   UNL A   1      32.750  30.634  27.757  1.00  0.00     0.163 HD
ATOM     28  O   UNL A   1      34.595  31.954  28.676  1.00  0.00    -0.269 OA
BRANCH  26  29
ATOM     29  C   UNL A   1      35.957  30.055  28.404  1.00  0.00     0.039 A 
ATOM     30  C   UNL A   1      36.824  30.049  27.308  1.00  0.00     0.014 A 
ATOM     31  C   UNL A   1      36.342  29.503  29.628  1.00  0.00     0.014 A 
ATOM     32  C   UNL A   1      38.128  29.584  27.473  1.00  0.00     0.010 A 
ATOM     33  C   UNL A   1      37.658  29.096  29.805  1.00  0.00     0.010 A 
ATOM     34  C   UNL A   1      38.569  29.162  28.738  1.00  0.00    -0.014 A 
BRANCH  34  35
ATOM     35  C   UNL A   1      39.993  28.837  28.994  1.00  0.00     0.031 A 
ATOM     36  C   UNL A   1      40.922  29.899  29.501  1.00  0.00     0.074 A 
ATOM     37  C   UNL A   1      40.465  27.620  28.660  1.00  0.00     0.049 A 
ATOM     38  N   UNL A   1      42.222  29.862  29.632  1.00  0.00    -0.248 NA
ATOM     39  C   UNL A   1      40.311  31.183  29.880  1.00  0.00     0.031 C 
ATOM     40  C   UNL A   1      39.665  26.520  28.111  1.00  0.00     0.029 A 
ATOM     41  N   UNL A   1      41.736  27.108  28.711  1.00  0.00    -0.354 N 
ATOM     42  C   UNL A   1      42.590  31.124  30.079  1.00  0.00     0.074 A 
ATOM     43  C   UNL A   1      41.379  31.912  30.173  1.00  0.00     0.031 C 
ATOM     44  C   UNL A   1      40.464  25.463  27.889  1.00  0.00     0.029 A 
ATOM     45  C   UNL A   1      41.834  25.819  28.242  1.00  0.00     0.049 A 
ATOM     46  H   UNL A   1      42.507  27.617  29.051  1.00  0.00     0.167 HD
ATOM     47  C   UNL A   1      43.825  31.581  30.393  1.00  0.00     0.037 A 
ATOM     48  C   UNL A   1      42.908  25.019  28.101  1.00  0.00     0.037 A 
ATOM     49  C   UNL A   1      45.021  30.783  30.333  1.00  0.00     0.049 A 
ATOM     50  C   UNL A   1      44.264  25.535  28.493  1.00  0.00     0.074 A 
ATOM     51  C   UNL A   1      46.313  31.140  30.673  1.00  0.00     0.029 A 
ATOM     52  N   UNL A   1      45.066  29.462  29.912  1.00  0.00    -0.354 N 
ATOM     53  N   UNL A   1      44.590  26.722  28.947  1.00  0.00    -0.248 NA
ATOM     54  C   UNL A   1      45.396  24.609  28.355  1.00  0.00     0.031 C 
ATOM     55  C   UNL A   1      47.144  30.037  30.446  1.00  0.00     0.029 A 
ATOM     56  C   UNL A   1      46.364  28.988  29.985  1.00  0.00     0.049 A 
ATOM     57  H   UNL A   1      44.290  28.939  29.607  1.00  0.00     0.167 HD
ATOM     58  C   UNL A   1      45.960  26.678  29.170  1.00  0.00     0.074 A 
ATOM     59  C   UNL A   1      46.404  25.348  28.803  1.00  0.00     0.031 C 
ATOM     60  C   UNL A   1      46.778  27.653  29.636  1.00  0.00     0.037 A 
BRANCH  47  61
ATOM     61  C   UNL A   1      43.936  33.011  30.830  1.00  0.00     0.058 A 
ATOM     62  C   UNL A   1      43.868  33.367  32.185  1.00  0.00     0.135 A 
ATOM     63  C   UNL A   1      44.112  34.035  29.887  1.00  0.00     0.135 A 
ATOM     64  F   UNL A   1      43.681  32.425  33.123  1.00  0.00    -0.206 F 
ATOM     65  C   UNL A   1      43.938  34.696  32.591  1.00  0.00     0.059 A 
ATOM     66  C   UNL A   1      44.205  35.369  30.271  1.00  0.00     0.059 A 
ATOM     67  F   UNL A   1      44.179  33.745  28.578  1.00  0.00    -0.206 F 
ATOM     68  C   UNL A   1      44.097  35.690  31.624  1.00  0.00     0.060 A 
BRANCH  68  69
ATOM     69  S   UNL A   1      44.168  37.415  32.156  1.00  0.00     0.124 S 
ATOM     70  O   UNL A   1      43.778  38.109  30.932  1.00  0.00    -0.237 OA
ATOM     71  O   UNL A   1      43.195  37.454  33.242  1.00  0.00    -0.237 OA
ATOM     72  O   UNL A   1      45.560  37.585  32.560  1.00  0.00    -0.744 OA
ENDBRANCH  68  69
ENDBRANCH  47  61
BRANCH  48  73
ATOM     73  C   UNL A   1      42.740  23.637  27.585  1.00  0.00     0.058 A 
ATOM     74  C   UNL A   1      42.462  22.578  28.460  1.00  0.00     0.135 A 
ATOM     75  C   UNL A   1      42.828  23.352  26.214  1.00  0.00     0.135 A 
ATOM     76  F   UNL A   1      42.372  22.805  29.780  1.00  0.00    -0.206 F 
ATOM     77  C   UNL A   1      42.287  21.278  27.997  1.00  0.00     0.059 A 
ATOM     78  C   UNL A   1      42.641  22.063  25.725  1.00  0.00     0.059 A 
ATOM     79  F   UNL A   1      43.074  24.338  25.337  1.00  0.00    -0.206 F 
ATOM     80  C   UNL A   1      42.378  21.031  26.626  1.00  0.00     0.060 A 
BRANCH  80  81
ATOM     81  S   UNL A   1      42.094  19.351  26.023  1.00  0.00     0.124 S 
ATOM     82  O   UNL A   1      40.661  19.377  25.755  1.00  0.00    -0.237 OA
ATOM     83  O   UNL A   1      42.962  19.290  24.850  1.00  0.00    -0.237 OA
ATOM     84  O   UNL A   1      42.515  18.521  27.147  1.00  0.00    -0.744 OA
ENDBRANCH  80  81
ENDBRANCH  48  73
BRANCH  60  85
ATOM     85  C   UNL A   1      48.227  27.314  29.814  1.00  0.00     0.058 A 
ATOM     86  C   UNL A   1      49.164  27.562  28.801  1.00  0.00     0.135 A 
ATOM     87  C   UNL A   1      48.693  26.821  31.042  1.00  0.00     0.135 A 
ATOM     88  F   UNL A   1      48.763  28.027  27.608  1.00  0.00    -0.206 F 
ATOM     89  C   UNL A   1      50.522  27.335  29.001  1.00  0.00     0.059 A 
ATOM     90  C   UNL A   1      50.048  26.600  31.269  1.00  0.00     0.059 A 
ATOM     91  F   UNL A   1      47.832  26.574  32.041  1.00  0.00    -0.206 F 
ATOM     92  C   UNL A   1      50.955  26.858  30.241  1.00  0.00     0.060 A 
BRANCH  92  93
ATOM     93  S   UNL A   1      52.725  26.637  30.520  1.00  0.00     0.124 S 
ATOM     94  O   UNL A   1      53.090  27.917  31.117  1.00  0.00    -0.237 OA
ATOM     95  O   UNL A   1      52.762  25.487  31.419  1.00  0.00    -0.237 OA
ATOM     96  O   UNL A   1      53.249  26.393  29.180  1.00  0.00    -0.744 OA
ENDBRANCH  92  93
ENDBRANCH  60  85
ENDBRANCH  34  35
ENDBRANCH  26  29
ENDBRANCH  24  25
ENDBRANCH   1  24
TORSDOF 16
ENDMDL
MODEL 3
REMARK VINA RESULT:     -11.2      1.480      3.290
REMARK SMILES C/C(=C/C[N@H+]1C[C@H]2CCC[N@H+]2C[C@@H]1C)C(=O)NCCCCNC(=O)c1ccc(-c2c3nc(c(-c4c(F)cc(S(=O)(=O)[O-])cc4F)c4ccc([nH]4)c(-c4c(F)cc(S(=O)(=O)[O-])cc4F)c4nc(c(-c5c(F)cc(S(=O)(=O)[O-])cc5F)c5ccc2[nH]5)C=C4)C=C3)cc1
REMARK SMILES IDX 20 1 19 2 18 3 17 4 15 5 16 6 2 8 1 9 3 10 4 11 5 12 6 13
REMARK SMILES IDX 13 14 7 16 12 17 14 18 8 19 11 20 9 21 10 22 21 24 22 25
REMARK SMILES IDX 23 26 24 28 25 29 26 30 90 31 27 32 89 33 28 34 29 35 30 36
REMARK SMILES IDX 83 37 31 38 88 39 82 40 84 41 32 42 87 43 81 44 80 45 33 47
REMARK SMILES IDX 67 48 46 49 66 50 47 51 50 52 65 53 85 54 48 55 49 56 64 58
REMARK SMILES IDX 86 59 51 60 34 61 35 62 44 63 36 64 37 65 43 66 45 67 38 68
REMARK SMILES IDX 39 69 40 70 41 71 42 72 68 73 69 74 78 75 70 76 71 77 77 78
REMARK SMILES IDX 79 79 72 80 73 81 74 82 75 83 76 84 52 85 53 86 62 87 54 88
REMARK SMILES IDX 55 89 61 90 63 91 56 92 57 93 58 94 59 95 60 96
REMARK H PARENT 17 7 5 15 11 23 22 27 84 46 50 57
REMARK Flexibility Score: inf
ROOT
ATOM      1  C   UNL A   1      32.608  28.503  26.948  1.00  0.00     0.023 C 
ENDROOT
BRANCH   1   2
ATOM      2  C   UNL A   1      31.833  29.226  25.848  1.00  0.00     0.023 C 
BRANCH   2   3
ATOM      3  C   UNL A   1      32.469  29.148  24.454  1.00  0.00     0.116 C 
BRANCH   3   4
ATOM      4  N   UNL A   1      31.465  29.352  23.444  1.00  0.00    -0.352 N 
ATOM      5  C   UNL A   1      30.580  28.540  22.833  1.00  0.00     0.246 C 
ATOM      6  O   UNL A   1      29.907  29.079  21.945  1.00  0.00    -0.270 OA
ATOM      7  H   UNL A   1      31.412  30.285  23.133  1.00  0.00     0.163 HD
BRANCH   5   8
ATOM      8  C   UNL A   1      30.278  27.097  23.179  1.00  0.00     0.015 C 
ATOM      9  C   UNL A   1      28.868  27.026  23.765  1.00  0.00     0.050 C 
ATOM     10  C   UNL A   1      30.914  25.910  23.068  1.00  0.00     0.042 C 
BRANCH  10  11
ATOM     11  C   UNL A   1      32.230  25.409  22.549  1.00  0.00     0.292 C 
BRANCH  11  12
ATOM     12  N   UNL A   1      32.916  24.549  23.530  1.00  0.00    -0.320 N 
ATOM     13  C   UNL A   1      34.154  23.962  22.976  1.00  0.00     0.328 C 
ATOM     14  C   UNL A   1      33.181  25.226  24.836  1.00  0.00     0.237 C 
ATOM     15  H   UNL A   1      32.262  23.791  23.728  1.00  0.00     0.348 HD
ATOM     16  C   UNL A   1      34.923  23.111  24.009  1.00  0.00     0.240 C 
ATOM     17  C   UNL A   1      34.660  25.134  25.338  1.00  0.00     0.328 C 
ATOM     18  C   UNL A   1      32.267  24.600  25.903  1.00  0.00     0.081 C 
ATOM     19  C   UNL A   1      36.293  22.673  23.498  1.00  0.00     0.077 C 
ATOM     20  N   UNL A   1      35.177  23.763  25.308  1.00  0.00    -0.323 N 
ATOM     21  C   UNL A   1      37.092  22.503  24.775  1.00  0.00     0.068 C 
ATOM     22  C   UNL A   1      36.602  23.665  25.622  1.00  0.00     0.263 C 
ATOM     23  H   UNL A   1      34.666  23.277  26.045  1.00  0.00     0.348 HD
ENDBRANCH  11  12
ENDBRANCH  10  11
ENDBRANCH   5   8
ENDBRANCH   3   4
ENDBRANCH   2   3
ENDBRANCH   1   2
BRANCH   1  24
ATOM     24  C   UNL A   1      33.997  29.082  27.198  1.00  0.00     0.116 C 
BRANCH  24  25
ATOM     25  N   UNL A   1      33.994  30.261  28.060  1.00  0.00    -0.352 N 
ATOM     26  C   UNL A   1      35.035  30.755  28.815  1.00  0.00     0.251 C 
ATOM     27  H   UNL A   1      33.148  30.762  28.106  1.00  0.00     0.163 HD
ATOM     28  O   UNL A   1      34.884  31.731  29.535  1.00  0.00    -0.269 OA
BRANCH  26  29
ATOM     29  C   UNL A   1      36.316  30.023  28.783  1.00  0.00     0.039 A 
ATOM     30  C   UNL A   1      37.059  30.029  27.600  1.00  0.00     0.014 A 
ATOM     31  C   UNL A   1      36.836  29.470  29.955  1.00  0.00     0.014 A 
ATOM     32  C   UNL A   1      38.377  29.573  27.620  1.00  0.00     0.010 A 
ATOM     33  C   UNL A   1      38.166  29.072  29.987  1.00  0.00     0.010 A 
ATOM     34  C   UNL A   1      38.956  29.150  28.828  1.00  0.00    -0.014 A 
BRANCH  34  35
ATOM     35  C   UNL A   1      40.401  28.835  28.927  1.00  0.00     0.031 A 
ATOM     36  C   UNL A   1      41.376  29.911  29.303  1.00  0.00     0.074 A 
ATOM     37  C   UNL A   1      40.839  27.612  28.566  1.00  0.00     0.049 A 
ATOM     38  N   UNL A   1      42.683  29.881  29.286  1.00  0.00    -0.248 NA
ATOM     39  C   UNL A   1      40.805  31.200  29.722  1.00  0.00     0.031 C 
ATOM     40  C   UNL A   1      39.988  26.499  28.135  1.00  0.00     0.029 A 
ATOM     41  N   UNL A   1      42.110  27.106  28.482  1.00  0.00    -0.354 N 
ATOM     42  C   UNL A   1      43.092  31.153  29.662  1.00  0.00     0.074 A 
ATOM     43  C   UNL A   1      41.894  31.938  29.877  1.00  0.00     0.031 C 
ATOM     44  C   UNL A   1      40.762  25.440  27.844  1.00  0.00     0.029 A 
ATOM     45  C   UNL A   1      42.162  25.808  28.032  1.00  0.00     0.049 A 
ATOM     46  H   UNL A   1      42.913  27.625  28.722  1.00  0.00     0.167 HD
ATOM     47  C   UNL A   1      44.352  31.620  29.823  1.00  0.00     0.037 A 
ATOM     48  C   UNL A   1      43.217  25.009  27.785  1.00  0.00     0.037 A 
ATOM     49  C   UNL A   1      45.537  30.826  29.644  1.00  0.00     0.049 A 
ATOM     50  C   UNL A   1      44.606  25.538  28.010  1.00  0.00     0.074 A 
ATOM     51  C   UNL A   1      46.858  31.194  29.828  1.00  0.00     0.029 A 
ATOM     52  N   UNL A   1      45.542  29.496  29.248  1.00  0.00    -0.354 N 
ATOM     53  N   UNL A   1      44.975  26.735  28.399  1.00  0.00    -0.248 NA
ATOM     54  C   UNL A   1      45.721  24.613  27.763  1.00  0.00     0.031 C 
ATOM     55  C   UNL A   1      47.664  30.089  29.530  1.00  0.00     0.029 A 
ATOM     56  C   UNL A   1      46.843  29.028  29.182  1.00  0.00     0.049 A 
ATOM     57  H   UNL A   1      44.739  28.964  29.044  1.00  0.00     0.167 HD
ATOM     58  C   UNL A   1      46.362  26.700  28.466  1.00  0.00     0.074 A 
ATOM     59  C   UNL A   1      46.769  25.365  28.078  1.00  0.00     0.031 C 
ATOM     60  C   UNL A   1      47.222  27.687  28.816  1.00  0.00     0.037 A 
BRANCH  47  61
ATOM     61  C   UNL A   1      44.503  33.059  30.216  1.00  0.00     0.058 A 
ATOM     62  C   UNL A   1      44.615  34.072  29.251  1.00  0.00     0.135 A 
ATOM     63  C   UNL A   1      44.536  33.432  31.569  1.00  0.00     0.135 A 
ATOM     64  F   UNL A   1      44.609  33.763  27.945  1.00  0.00    -0.206 F 
ATOM     65  C   UNL A   1      44.788  35.404  29.613  1.00  0.00     0.059 A 
ATOM     66  C   UNL A   1      44.687  34.760  31.954  1.00  0.00     0.059 A 
ATOM     67  F   UNL A   1      44.435  32.499  32.529  1.00  0.00    -0.206 F 
ATOM     68  C   UNL A   1      44.832  35.736  30.968  1.00  0.00     0.060 A 
BRANCH  68  69
ATOM     69  S   UNL A   1      45.075  37.465  31.431  1.00  0.00     0.124 S 
ATOM     70  O   UNL A   1      45.943  37.931  30.353  1.00  0.00    -0.237 OA
ATOM     71  O   UNL A   1      43.715  37.992  31.421  1.00  0.00    -0.237 OA
ATOM     72  O   UNL A   1      45.700  37.376  32.747  1.00  0.00    -0.744 OA
ENDBRANCH  68  69
ENDBRANCH  47  61
BRANCH  48  73
ATOM     73  C   UNL A   1      43.000  23.616  27.320  1.00  0.00     0.058 A 
ATOM     74  C   UNL A   1      43.201  23.272  25.976  1.00  0.00     0.135 A 
ATOM     75  C   UNL A   1      42.613  22.601  28.208  1.00  0.00     0.135 A 
ATOM     76  F   UNL A   1      43.569  24.213  25.092  1.00  0.00    -0.206 F 
ATOM     77  C   UNL A   1      43.017  21.971  25.523  1.00  0.00     0.059 A 
ATOM     78  C   UNL A   1      42.438  21.288  27.780  1.00  0.00     0.059 A 
ATOM     79  F   UNL A   1      42.426  22.879  29.508  1.00  0.00    -0.206 F 
ATOM     80  C   UNL A   1      42.635  20.984  26.433  1.00  0.00     0.060 A 
BRANCH  80  81
ATOM     81  S   UNL A   1      42.452  19.284  25.851  1.00  0.00     0.124 S 
ATOM     82  O   UNL A   1      43.278  19.297  24.650  1.00  0.00    -0.237 OA
ATOM     83  O   UNL A   1      42.973  18.512  26.975  1.00  0.00    -0.237 OA
ATOM     84  O   UNL A   1      41.014  19.162  25.631  1.00  0.00    -0.744 OA
ENDBRANCH  80  81
ENDBRANCH  48  73
BRANCH  60  85
ATOM     85  C   UNL A   1      48.684  27.358  28.835  1.00  0.00     0.058 A 
ATOM     86  C   UNL A   1      49.527  27.720  27.775  1.00  0.00     0.135 A 
ATOM     87  C   UNL A   1      49.259  26.753  29.962  1.00  0.00     0.135 A 
ATOM     88  F   UNL A   1      49.020  28.294  26.673  1.00  0.00    -0.206 F 
ATOM     89  C   UNL A   1      50.899  27.498  27.834  1.00  0.00     0.059 A 
ATOM     90  C   UNL A   1      50.630  26.534  30.050  1.00  0.00     0.059 A 
ATOM     91  F   UNL A   1      48.490  26.394  31.002  1.00  0.00    -0.206 F 
ATOM     92  C   UNL A   1      51.442  26.908  28.979  1.00  0.00     0.060 A 
BRANCH  92  93
ATOM     93  S   UNL A   1      53.231  26.690  29.082  1.00  0.00     0.124 S 
ATOM     94  O   UNL A   1      53.439  25.547  28.199  1.00  0.00    -0.237 OA
ATOM     95  O   UNL A   1      53.735  27.970  28.590  1.00  0.00    -0.237 OA
ATOM     96  O   UNL A   1      53.459  26.439  30.501  1.00  0.00    -0.744 OA
ENDBRANCH  92  93
ENDBRANCH  60  85
ENDBRANCH  34  35
ENDBRANCH  26  29
ENDBRANCH  24  25
ENDBRANCH   1  24
TORSDOF 16
ENDMDL
