MODEL 1
REMARK VINA RESULT:     -13.5      0.000      0.000
REMARK SMILES O=C(Cn1c2ccccc2c(=O)c2ccccc21)N[C@@H](Cc1ccccc1)C(=O)NCCCCNC(=O)c1ccc(-c2c3nc(c(-c4c(F)cc(S(=O)(=O)[O-])cc4F)c4ccc([nH]4)c(-c4c(F)cc(S(=O)(=O)[O-])cc4F)c4nc(c(-c5c(F)cc(S(=O)(=O)[O-])cc5F)c5ccc2[nH]5)C=C4)C=C3)cc1
REMARK SMILES IDX 32 1 31 2 30 3 28 4 29 5 20 7 19 8 1 9 2 10 3 12 4 13 5 14
REMARK SMILES IDX 18 15 6 16 10 17 13 18 17 19 7 20 9 21 11 22 14 23 16 24
REMARK SMILES IDX 8 25 12 26 15 27 21 28 22 29 23 30 27 31 24 32 26 33 25 34
REMARK SMILES IDX 33 35 34 36 35 37 36 38 37 40 38 41 39 42 103 43 40 44
REMARK SMILES IDX 102 45 41 46 42 47 43 48 96 49 44 50 101 51 95 52 97 53
REMARK SMILES IDX 45 54 100 55 94 56 93 57 46 59 80 60 59 61 79 62 60 63 63 64
REMARK SMILES IDX 78 65 98 66 61 67 62 68 77 70 99 71 64 72 47 73 48 74 57 75
REMARK SMILES IDX 49 76 50 77 56 78 58 79 51 80 52 81 53 82 54 83 55 84 81 85
REMARK SMILES IDX 82 86 91 87 83 88 84 89 90 90 92 91 85 92 86 93 87 94 88 95
REMARK SMILES IDX 89 96 65 97 66 98 75 99 67 100 68 101 74 102 76 103 69 104
REMARK SMILES IDX 70 105 71 106 72 107 73 108
REMARK H PARENT 30 6 19 11 35 39 97 58 63 69
REMARK Flexibility Score: inf
ROOT
ATOM      1  C   UNL A   1      33.293  28.355  27.462  1.00  0.00     0.023 C 
ENDROOT
BRANCH   1   2
ATOM      2  C   UNL A   1      31.937  28.116  26.826  1.00  0.00     0.116 C 
BRANCH   2   3
ATOM      3  N   UNL A   1      31.351  26.810  27.016  1.00  0.00    -0.354 N 
ATOM      4  C   UNL A   1      31.286  25.762  26.136  1.00  0.00     0.242 C 
ATOM      5  O   UNL A   1      31.176  24.631  26.622  1.00  0.00    -0.273 OA
ATOM      6  H   UNL A   1      30.942  26.651  27.897  1.00  0.00     0.163 HD
BRANCH   4   7
ATOM      7  C   UNL A   1      31.441  25.942  24.601  1.00  0.00     0.175 C 
BRANCH   7   8
ATOM      8  N   UNL A   1      32.457  25.039  24.036  1.00  0.00    -0.342 N 
ATOM      9  O   UNL A   1      34.250  26.052  25.053  1.00  0.00    -0.273 OA
ATOM     10  C   UNL A   1      33.795  25.119  24.395  1.00  0.00     0.240 C 
ATOM     11  H   UNL A   1      32.179  24.357  23.383  1.00  0.00     0.164 HD
BRANCH  10  12
ATOM     12  C   UNL A   1      34.671  23.970  23.882  1.00  0.00     0.222 C 
BRANCH  12  13
ATOM     13  N   UNL A   1      35.006  22.885  24.857  1.00  0.00    -0.331 N 
ATOM     14  C   UNL A   1      36.368  22.869  25.281  1.00  0.00     0.053 A 
ATOM     15  C   UNL A   1      34.258  21.681  24.833  1.00  0.00     0.053 A 
ATOM     16  C   UNL A   1      37.067  24.026  25.661  1.00  0.00     0.027 A 
ATOM     17  C   UNL A   1      37.050  21.646  25.421  1.00  0.00     0.046 A 
ATOM     18  C   UNL A   1      34.915  20.434  24.850  1.00  0.00     0.046 A 
ATOM     19  C   UNL A   1      32.860  21.636  24.902  1.00  0.00     0.027 A 
ATOM     20  C   UNL A   1      38.373  23.955  26.171  1.00  0.00     0.002 A 
ATOM     21  C   UNL A   1      38.349  21.566  25.943  1.00  0.00     0.014 A 
ATOM     22  C   UNL A   1      36.378  20.401  25.009  1.00  0.00     0.197 A 
ATOM     23  C   UNL A   1      34.224  19.213  24.801  1.00  0.00     0.014 A 
ATOM     24  C   UNL A   1      32.158  20.420  24.892  1.00  0.00     0.002 A 
ATOM     25  C   UNL A   1      39.008  22.725  26.327  1.00  0.00     0.001 A 
ATOM     26  O   UNL A   1      37.017  19.368  24.841  1.00  0.00    -0.288 OA
ATOM     27  C   UNL A   1      32.837  19.209  24.814  1.00  0.00     0.001 A 
ENDBRANCH  12  13
ENDBRANCH  10  12
ENDBRANCH   7   8
BRANCH   7  28
ATOM     28  C   UNL A   1      30.097  25.993  23.828  1.00  0.00     0.070 C 
BRANCH  28  29
ATOM     29  C   UNL A   1      29.678  27.314  23.220  1.00  0.00    -0.045 A 
ATOM     30  C   UNL A   1      28.356  27.774  23.340  1.00  0.00     0.004 A 
ATOM     31  C   UNL A   1      30.628  28.143  22.602  1.00  0.00     0.004 A 
ATOM     32  C   UNL A   1      28.023  29.078  22.961  1.00  0.00     0.000 A 
ATOM     33  C   UNL A   1      30.285  29.438  22.199  1.00  0.00     0.000 A 
ATOM     34  C   UNL A   1      28.991  29.914  22.406  1.00  0.00     0.000 A 
ENDBRANCH  28  29
ENDBRANCH   7  28
ENDBRANCH   4   7
ENDBRANCH   2   3
ENDBRANCH   1   2
BRANCH   1  35
ATOM     35  C   UNL A   1      34.208  29.274  26.675  1.00  0.00     0.023 C 
BRANCH  35  36
ATOM     36  C   UNL A   1      35.483  29.685  27.401  1.00  0.00     0.116 C 
BRANCH  36  37
ATOM     37  N   UNL A   1      35.339  29.770  28.850  1.00  0.00    -0.352 N 
ATOM     38  C   UNL A   1      36.309  29.756  29.832  1.00  0.00     0.251 C 
ATOM     39  H   UNL A   1      34.413  29.850  29.176  1.00  0.00     0.163 HD
ATOM     40  O   UNL A   1      35.991  29.737  31.012  1.00  0.00    -0.269 OA
BRANCH  38  41
ATOM     41  C   UNL A   1      37.735  29.728  29.434  1.00  0.00     0.039 A 
ATOM     42  C   UNL A   1      38.081  29.753  28.086  1.00  0.00     0.014 A 
ATOM     43  C   UNL A   1      38.726  29.598  30.410  1.00  0.00     0.014 A 
ATOM     44  C   UNL A   1      39.369  29.404  27.707  1.00  0.00     0.010 A 
ATOM     45  C   UNL A   1      40.054  29.382  30.024  1.00  0.00     0.010 A 
ATOM     46  C   UNL A   1      40.379  29.219  28.668  1.00  0.00    -0.014 A 
BRANCH  46  47
ATOM     47  C   UNL A   1      41.748  28.856  28.207  1.00  0.00     0.031 A 
ATOM     48  C   UNL A   1      42.880  29.851  28.262  1.00  0.00     0.074 A 
ATOM     49  C   UNL A   1      41.986  27.583  27.825  1.00  0.00     0.049 A 
ATOM     50  N   UNL A   1      44.137  29.683  27.932  1.00  0.00    -0.248 NA
ATOM     51  C   UNL A   1      42.571  31.209  28.741  1.00  0.00     0.031 C 
ATOM     52  C   UNL A   1      40.972  26.527  27.741  1.00  0.00     0.029 A 
ATOM     53  N   UNL A   1      43.151  26.944  27.485  1.00  0.00    -0.354 N 
ATOM     54  C   UNL A   1      44.757  30.911  28.136  1.00  0.00     0.074 A 
ATOM     55  C   UNL A   1      43.738  31.825  28.598  1.00  0.00     0.031 C 
ATOM     56  C   UNL A   1      41.570  25.359  27.471  1.00  0.00     0.029 A 
ATOM     57  C   UNL A   1      42.994  25.594  27.267  1.00  0.00     0.049 A 
ATOM     58  H   UNL A   1      44.016  27.406  27.405  1.00  0.00     0.167 HD
ATOM     59  C   UNL A   1      46.061  31.238  27.966  1.00  0.00     0.037 A 
ATOM     60  C   UNL A   1      43.889  24.649  26.925  1.00  0.00     0.037 A 
ATOM     61  C   UNL A   1      47.080  30.310  27.547  1.00  0.00     0.049 A 
ATOM     62  C   UNL A   1      45.320  25.048  26.713  1.00  0.00     0.074 A 
ATOM     63  C   UNL A   1      48.430  30.545  27.356  1.00  0.00     0.029 A 
ATOM     64  N   UNL A   1      46.864  28.969  27.266  1.00  0.00    -0.354 N 
ATOM     65  N   UNL A   1      45.878  26.221  26.890  1.00  0.00    -0.248 NA
ATOM     66  C   UNL A   1      46.237  24.008  26.230  1.00  0.00     0.031 C 
ATOM     67  C   UNL A   1      49.026  29.355  26.926  1.00  0.00     0.029 A 
ATOM     68  C   UNL A   1      48.054  28.369  26.888  1.00  0.00     0.049 A 
ATOM     69  H   UNL A   1      45.995  28.511  27.327  1.00  0.00     0.167 HD
ATOM     70  C   UNL A   1      47.213  26.059  26.542  1.00  0.00     0.074 A 
ATOM     71  C   UNL A   1      47.384  24.670  26.168  1.00  0.00     0.031 C 
ATOM     72  C   UNL A   1      48.205  26.982  26.525  1.00  0.00     0.037 A 
BRANCH  59  73
ATOM     73  C   UNL A   1      46.478  32.660  28.231  1.00  0.00     0.058 A 
ATOM     74  C   UNL A   1      46.351  33.659  27.255  1.00  0.00     0.135 A 
ATOM     75  C   UNL A   1      46.928  33.045  29.506  1.00  0.00     0.135 A 
ATOM     76  F   UNL A   1      45.942  33.345  26.015  1.00  0.00    -0.206 F 
ATOM     77  C   UNL A   1      46.660  34.989  27.530  1.00  0.00     0.059 A 
ATOM     78  C   UNL A   1      47.221  34.371  29.811  1.00  0.00     0.059 A 
ATOM     79  F   UNL A   1      47.068  32.128  30.477  1.00  0.00    -0.206 F 
ATOM     80  C   UNL A   1      47.088  35.336  28.814  1.00  0.00     0.060 A 
BRANCH  80  81
ATOM     81  S   UNL A   1      47.449  37.071  29.161  1.00  0.00     0.124 S 
ATOM     82  O   UNL A   1      46.134  37.568  29.557  1.00  0.00    -0.237 OA
ATOM     83  O   UNL A   1      48.438  36.976  30.228  1.00  0.00    -0.237 OA
ATOM     84  O   UNL A   1      47.950  37.576  27.887  1.00  0.00    -0.744 OA
ENDBRANCH  80  81
ENDBRANCH  59  73
BRANCH  60  85
ATOM     85  C   UNL A   1      43.449  23.240  26.747  1.00  0.00     0.058 A 
ATOM     86  C   UNL A   1      43.307  22.683  25.468  1.00  0.00     0.135 A 
ATOM     87  C   UNL A   1      43.189  22.413  27.852  1.00  0.00     0.135 A 
ATOM     88  F   UNL A   1      43.539  23.435  24.380  1.00  0.00    -0.206 F 
ATOM     89  C   UNL A   1      42.917  21.360  25.289  1.00  0.00     0.059 A 
ATOM     90  C   UNL A   1      42.826  21.079  27.700  1.00  0.00     0.059 A 
ATOM     91  F   UNL A   1      43.324  22.893  29.098  1.00  0.00    -0.206 F 
ATOM     92  C   UNL A   1      42.683  20.565  26.413  1.00  0.00     0.060 A 
BRANCH  92  93
ATOM     93  S   UNL A   1      42.229  18.834  26.171  1.00  0.00     0.124 S 
ATOM     94  O   UNL A   1      42.419  18.292  27.511  1.00  0.00    -0.237 OA
ATOM     95  O   UNL A   1      40.847  18.941  25.713  1.00  0.00    -0.237 OA
ATOM     96  O   UNL A   1      43.180  18.376  25.162  1.00  0.00    -0.744 OA
ENDBRANCH  92  93
ENDBRANCH  60  85
BRANCH  72  97
ATOM     97  C   UNL A   1      49.568  26.525  26.096  1.00  0.00     0.058 A 
ATOM     98  C   UNL A   1      50.039  26.763  24.796  1.00  0.00     0.135 A 
ATOM     99  C   UNL A   1      50.442  25.926  27.016  1.00  0.00     0.135 A 
ATOM    100  F   UNL A   1      49.235  27.323  23.878  1.00  0.00    -0.206 F 
ATOM    101  C   UNL A   1      51.333  26.419  24.421  1.00  0.00     0.059 A 
ATOM    102  C   UNL A   1      51.748  25.594  26.670  1.00  0.00     0.059 A 
ATOM    103  F   UNL A   1      50.038  25.684  28.273  1.00  0.00    -0.206 F 
ATOM    104  C   UNL A   1      52.183  25.844  25.368  1.00  0.00     0.060 A 
BRANCH 104 105
ATOM    105  S   UNL A   1      53.881  25.469  24.885  1.00  0.00     0.124 S 
ATOM    106  O   UNL A   1      53.884  24.010  24.927  1.00  0.00    -0.237 OA
ATOM    107  O   UNL A   1      53.964  26.064  23.554  1.00  0.00    -0.237 OA
ATOM    108  O   UNL A   1      54.681  26.129  25.911  1.00  0.00    -0.744 OA
ENDBRANCH 104 105
ENDBRANCH  72  97
ENDBRANCH  46  47
ENDBRANCH  38  41
ENDBRANCH  36  37
ENDBRANCH  35  36
ENDBRANCH   1  35
TORSDOF 19
ENDMDL
MODEL 2
REMARK VINA RESULT:     -13.3      0.380      7.780
REMARK SMILES O=C(Cn1c2ccccc2c(=O)c2ccccc21)N[C@@H](Cc1ccccc1)C(=O)NCCCCNC(=O)c1ccc(-c2c3nc(c(-c4c(F)cc(S(=O)(=O)[O-])cc4F)c4ccc([nH]4)c(-c4c(F)cc(S(=O)(=O)[O-])cc4F)c4nc(c(-c5c(F)cc(S(=O)(=O)[O-])cc5F)c5ccc2[nH]5)C=C4)C=C3)cc1
REMARK SMILES IDX 32 1 31 2 30 3 28 4 29 5 20 7 19 8 1 9 2 10 3 12 4 13 5 14
REMARK SMILES IDX 18 15 6 16 10 17 13 18 17 19 7 20 9 21 11 22 14 23 16 24
REMARK SMILES IDX 8 25 12 26 15 27 21 28 22 29 23 30 27 31 24 32 26 33 25 34
REMARK SMILES IDX 33 35 34 36 35 37 36 38 37 40 38 41 39 42 103 43 40 44
REMARK SMILES IDX 102 45 41 46 42 47 43 48 96 49 44 50 101 51 95 52 97 53
REMARK SMILES IDX 45 54 100 55 94 56 93 57 46 59 80 60 59 61 79 62 60 63 63 64
REMARK SMILES IDX 78 65 98 66 61 67 62 68 77 70 99 71 64 72 47 73 48 74 57 75
REMARK SMILES IDX 49 76 50 77 56 78 58 79 51 80 52 81 53 82 54 83 55 84 81 85
REMARK SMILES IDX 82 86 91 87 83 88 84 89 90 90 92 91 85 92 86 93 87 94 88 95
REMARK SMILES IDX 89 96 65 97 66 98 75 99 67 100 68 101 74 102 76 103 69 104
REMARK SMILES IDX 70 105 71 106 72 107 73 108
REMARK H PARENT 30 6 19 11 35 39 97 58 63 69
REMARK Flexibility Score: inf
ROOT
ATOM      1  C   UNL A   1      33.593  28.594  27.603  1.00  0.00     0.023 C 
ENDROOT
BRANCH   1   2
ATOM      2  C   UNL A   1      32.308  28.303  26.852  1.00  0.00     0.116 C 
BRANCH   2   3
ATOM      3  N   UNL A   1      31.664  27.041  27.132  1.00  0.00    -0.354 N 
ATOM      4  C   UNL A   1      31.481  25.967  26.300  1.00  0.00     0.242 C 
ATOM      5  O   UNL A   1      31.341  24.863  26.837  1.00  0.00    -0.273 OA
ATOM      6  H   UNL A   1      31.307  26.938  28.044  1.00  0.00     0.163 HD
BRANCH   4   7
ATOM      7  C   UNL A   1      31.542  26.083  24.753  1.00  0.00     0.175 C 
BRANCH   7   8
ATOM      8  N   UNL A   1      32.583  25.218  24.172  1.00  0.00    -0.342 N 
ATOM      9  O   UNL A   1      34.314  26.087  25.407  1.00  0.00    -0.273 OA
ATOM     10  C   UNL A   1      33.893  25.233  24.629  1.00  0.00     0.240 C 
ATOM     11  H   UNL A   1      32.342  24.610  23.437  1.00  0.00     0.164 HD
BRANCH  10  12
ATOM     12  C   UNL A   1      34.787  24.121  24.066  1.00  0.00     0.222 C 
BRANCH  12  13
ATOM     13  N   UNL A   1      35.138  22.999  24.992  1.00  0.00    -0.331 N 
ATOM     14  C   UNL A   1      36.503  22.976  25.405  1.00  0.00     0.053 A 
ATOM     15  C   UNL A   1      34.398  21.791  24.922  1.00  0.00     0.053 A 
ATOM     16  C   UNL A   1      37.196  24.122  25.828  1.00  0.00     0.027 A 
ATOM     17  C   UNL A   1      37.195  21.753  25.488  1.00  0.00     0.046 A 
ATOM     18  C   UNL A   1      35.065  20.550  24.882  1.00  0.00     0.046 A 
ATOM     19  C   UNL A   1      33.002  21.732  25.000  1.00  0.00     0.027 A 
ATOM     20  C   UNL A   1      38.507  24.040  26.324  1.00  0.00     0.002 A 
ATOM     21  C   UNL A   1      38.499  21.662  25.996  1.00  0.00     0.014 A 
ATOM     22  C   UNL A   1      36.530  20.522  25.028  1.00  0.00     0.197 A 
ATOM     23  C   UNL A   1      34.384  19.326  24.787  1.00  0.00     0.014 A 
ATOM     24  C   UNL A   1      32.309  20.512  24.944  1.00  0.00     0.002 A 
ATOM     25  C   UNL A   1      39.152  22.810  26.424  1.00  0.00     0.001 A 
ATOM     26  O   UNL A   1      37.175  19.502  24.812  1.00  0.00    -0.288 OA
ATOM     27  C   UNL A   1      32.997  19.311  24.810  1.00  0.00     0.001 A 
ENDBRANCH  12  13
ENDBRANCH  10  12
ENDBRANCH   7   8
BRANCH   7  28
ATOM     28  C   UNL A   1      30.159  26.014  24.055  1.00  0.00     0.070 C 
BRANCH  28  29
ATOM     29  C   UNL A   1      29.643  27.265  23.377  1.00  0.00    -0.045 A 
ATOM     30  C   UNL A   1      28.275  27.579  23.393  1.00  0.00     0.004 A 
ATOM     31  C   UNL A   1      30.539  28.177  22.797  1.00  0.00     0.004 A 
ATOM     32  C   UNL A   1      27.830  28.829  22.950  1.00  0.00     0.000 A 
ATOM     33  C   UNL A   1      30.087  29.416  22.330  1.00  0.00     0.000 A 
ATOM     34  C   UNL A   1      28.738  29.752  22.434  1.00  0.00     0.000 A 
ENDBRANCH  28  29
ENDBRANCH   7  28
ENDBRANCH   4   7
ENDBRANCH   2   3
ENDBRANCH   1   2
BRANCH   1  35
ATOM     35  C   UNL A   1      34.637  29.349  26.802  1.00  0.00     0.023 C 
BRANCH  35  36
ATOM     36  C   UNL A   1      35.656  30.115  27.636  1.00  0.00     0.116 C 
BRANCH  36  37
ATOM     37  N   UNL A   1      35.430  30.028  29.074  1.00  0.00    -0.352 N 
ATOM     38  C   UNL A   1      36.338  29.841  30.097  1.00  0.00     0.251 C 
ATOM     39  H   UNL A   1      34.491  30.118  29.357  1.00  0.00     0.163 HD
ATOM     40  O   UNL A   1      35.949  29.695  31.246  1.00  0.00    -0.269 OA
BRANCH  38  41
ATOM     41  C   UNL A   1      37.782  29.785  29.776  1.00  0.00     0.039 A 
ATOM     42  C   UNL A   1      38.203  29.851  28.450  1.00  0.00     0.014 A 
ATOM     43  C   UNL A   1      38.714  29.586  30.797  1.00  0.00     0.014 A 
ATOM     44  C   UNL A   1      39.499  29.478  28.128  1.00  0.00     0.010 A 
ATOM     45  C   UNL A   1      40.055  29.344  30.475  1.00  0.00     0.010 A 
ATOM     46  C   UNL A   1      40.449  29.224  29.133  1.00  0.00    -0.014 A 
BRANCH  46  47
ATOM     47  C   UNL A   1      41.830  28.838  28.731  1.00  0.00     0.031 A 
ATOM     48  C   UNL A   1      42.142  27.444  28.248  1.00  0.00     0.074 A 
ATOM     49  C   UNL A   1      42.789  29.788  28.715  1.00  0.00     0.049 A 
ATOM     50  N   UNL A   1      43.283  26.956  27.830  1.00  0.00    -0.248 NA
ATOM     51  C   UNL A   1      41.041  26.465  28.236  1.00  0.00     0.031 C 
ATOM     52  C   UNL A   1      42.604  31.176  29.149  1.00  0.00     0.029 A 
ATOM     53  N   UNL A   1      44.087  29.754  28.276  1.00  0.00    -0.354 N 
ATOM     54  C   UNL A   1      43.046  25.619  27.531  1.00  0.00     0.074 A 
ATOM     55  C   UNL A   1      41.658  25.360  27.837  1.00  0.00     0.031 C 
ATOM     56  C   UNL A   1      43.709  31.879  28.867  1.00  0.00     0.029 A 
ATOM     57  C   UNL A   1      44.716  30.978  28.320  1.00  0.00     0.049 A 
ATOM     58  H   UNL A   1      44.529  28.933  27.959  1.00  0.00     0.167 HD
ATOM     59  C   UNL A   1      43.907  24.697  27.035  1.00  0.00     0.037 A 
ATOM     60  C   UNL A   1      45.966  31.338  27.975  1.00  0.00     0.037 A 
ATOM     61  C   UNL A   1      45.279  24.975  26.692  1.00  0.00     0.049 A 
ATOM     62  C   UNL A   1      46.906  30.289  27.459  1.00  0.00     0.074 A 
ATOM     63  C   UNL A   1      46.226  24.109  26.173  1.00  0.00     0.029 A 
ATOM     64  N   UNL A   1      45.894  26.210  26.821  1.00  0.00    -0.354 N 
ATOM     65  N   UNL A   1      46.665  29.024  27.207  1.00  0.00    -0.248 NA
ATOM     66  C   UNL A   1      48.291  30.703  27.204  1.00  0.00     0.031 C 
ATOM     67  C   UNL A   1      47.425  24.812  26.021  1.00  0.00     0.029 A 
ATOM     68  C   UNL A   1      47.213  26.126  26.406  1.00  0.00     0.049 A 
ATOM     69  H   UNL A   1      45.459  27.027  27.156  1.00  0.00     0.167 HD
ATOM     70  C   UNL A   1      47.868  28.493  26.762  1.00  0.00     0.074 A 
ATOM     71  C   UNL A   1      48.830  29.577  26.756  1.00  0.00     0.031 C 
ATOM     72  C   UNL A   1      48.153  27.219  26.402  1.00  0.00     0.037 A 
BRANCH  59  73
ATOM     73  C   UNL A   1      43.405  23.293  26.826  1.00  0.00     0.058 A 
ATOM     74  C   UNL A   1      43.178  22.776  25.543  1.00  0.00     0.135 A 
ATOM     75  C   UNL A   1      43.234  22.428  27.921  1.00  0.00     0.135 A 
ATOM     76  F   UNL A   1      43.310  23.563  24.463  1.00  0.00    -0.206 F 
ATOM     77  C   UNL A   1      42.793  21.452  25.350  1.00  0.00     0.059 A 
ATOM     78  C   UNL A   1      42.872  21.095  27.751  1.00  0.00     0.059 A 
ATOM     79  F   UNL A   1      43.438  22.872  29.170  1.00  0.00    -0.206 F 
ATOM     80  C   UNL A   1      42.649  20.617  26.460  1.00  0.00     0.060 A 
BRANCH  80  81
ATOM     81  S   UNL A   1      42.186  18.893  26.187  1.00  0.00     0.124 S 
ATOM     82  O   UNL A   1      43.148  18.491  25.164  1.00  0.00    -0.237 OA
ATOM     83  O   UNL A   1      42.381  18.305  27.507  1.00  0.00    -0.237 OA
ATOM     84  O   UNL A   1      40.799  18.979  25.741  1.00  0.00    -0.744 OA
ENDBRANCH  80  81
ENDBRANCH  59  73
BRANCH  60  85
ATOM     85  C   UNL A   1      46.399  32.752  28.126  1.00  0.00     0.058 A 
ATOM     86  C   UNL A   1      46.221  33.677  27.087  1.00  0.00     0.135 A 
ATOM     87  C   UNL A   1      46.972  33.214  29.322  1.00  0.00     0.135 A 
ATOM     88  F   UNL A   1      45.683  33.283  25.922  1.00  0.00    -0.206 F 
ATOM     89  C   UNL A   1      46.602  35.008  27.225  1.00  0.00     0.059 A 
ATOM     90  C   UNL A   1      47.334  34.546  29.494  1.00  0.00     0.059 A 
ATOM     91  F   UNL A   1      47.149  32.373  30.352  1.00  0.00    -0.206 F 
ATOM     92  C   UNL A   1      47.154  35.433  28.435  1.00  0.00     0.060 A 
BRANCH  92  93
ATOM     93  S   UNL A   1      47.596  37.174  28.623  1.00  0.00     0.124 S 
ATOM     94  O   UNL A   1      47.040  37.477  29.936  1.00  0.00    -0.237 OA
ATOM     95  O   UNL A   1      49.053  37.131  28.539  1.00  0.00    -0.237 OA
ATOM     96  O   UNL A   1      46.931  37.812  27.490  1.00  0.00    -0.744 OA
ENDBRANCH  92  93
ENDBRANCH  60  85
BRANCH  72  97
ATOM     97  C   UNL A   1      49.556  26.921  25.962  1.00  0.00     0.058 A 
ATOM     98  C   UNL A   1      50.492  26.360  26.844  1.00  0.00     0.135 A 
ATOM     99  C   UNL A   1      49.941  27.113  24.626  1.00  0.00     0.135 A 
ATOM    100  F   UNL A   1      50.174  26.169  28.134  1.00  0.00    -0.206 F 
ATOM    101  C   UNL A   1      51.766  26.003  26.416  1.00  0.00     0.059 A 
ATOM    102  C   UNL A   1      51.202  26.742  24.170  1.00  0.00     0.059 A 
ATOM    103  F   UNL A   1      49.078  27.641  23.743  1.00  0.00    -0.206 F 
ATOM    104  C   UNL A   1      52.108  26.189  25.075  1.00  0.00     0.060 A 
BRANCH 104 105
ATOM    105  S   UNL A   1      53.740  25.653  24.522  1.00  0.00     0.124 S 
ATOM    106  O   UNL A   1      53.639  25.843  23.078  1.00  0.00    -0.237 OA
ATOM    107  O   UNL A   1      54.625  26.579  25.223  1.00  0.00    -0.237 OA
ATOM    108  O   UNL A   1      53.813  24.265  24.969  1.00  0.00    -0.744 OA
ENDBRANCH 104 105
ENDBRANCH  72  97
ENDBRANCH  46  47
ENDBRANCH  38  41
ENDBRANCH  36  37
ENDBRANCH  35  36
ENDBRANCH   1  35
TORSDOF 19
ENDMDL
MODEL 3
REMARK VINA RESULT:     -13.3      1.575      7.916
REMARK SMILES O=C(Cn1c2ccccc2c(=O)c2ccccc21)N[C@@H](Cc1ccccc1)C(=O)NCCCCNC(=O)c1ccc(-c2c3nc(c(-c4c(F)cc(S(=O)(=O)[O-])cc4F)c4ccc([nH]4)c(-c4c(F)cc(S(=O)(=O)[O-])cc4F)c4nc(c(-c5c(F)cc(S(=O)(=O)[O-])cc5F)c5ccc2[nH]5)C=C4)C=C3)cc1
REMARK SMILES IDX 32 1 31 2 30 3 28 4 29 5 20 7 19 8 1 9 2 10 3 12 4 13 5 14
REMARK SMILES IDX 18 15 6 16 10 17 13 18 17 19 7 20 9 21 11 22 14 23 16 24
REMARK SMILES IDX 8 25 12 26 15 27 21 28 22 29 23 30 27 31 24 32 26 33 25 34
REMARK SMILES IDX 33 35 34 36 35 37 36 38 37 40 38 41 39 42 103 43 40 44
REMARK SMILES IDX 102 45 41 46 42 47 43 48 96 49 44 50 101 51 95 52 97 53
REMARK SMILES IDX 45 54 100 55 94 56 93 57 46 59 80 60 59 61 79 62 60 63 63 64
REMARK SMILES IDX 78 65 98 66 61 67 62 68 77 70 99 71 64 72 47 73 48 74 57 75
REMARK SMILES IDX 49 76 50 77 56 78 58 79 51 80 52 81 53 82 54 83 55 84 81 85
REMARK SMILES IDX 82 86 91 87 83 88 84 89 90 90 92 91 85 92 86 93 87 94 88 95
REMARK SMILES IDX 89 96 65 97 66 98 75 99 67 100 68 101 74 102 76 103 69 104
REMARK SMILES IDX 70 105 71 106 72 107 73 108
REMARK H PARENT 30 6 19 11 35 39 97 58 63 69
REMARK Flexibility Score: inf
ROOT
ATOM      1  C   UNL A   1      32.246  28.521  27.607  1.00  0.00     0.023 C 
ENDROOT
BRANCH   1   2
ATOM      2  C   UNL A   1      31.242  27.830  26.704  1.00  0.00     0.116 C 
BRANCH   2   3
ATOM      3  N   UNL A   1      31.038  26.417  26.919  1.00  0.00    -0.354 N 
ATOM      4  C   UNL A   1      31.309  25.372  26.075  1.00  0.00     0.242 C 
ATOM      5  O   UNL A   1      31.499  24.268  26.597  1.00  0.00    -0.273 OA
ATOM      6  H   UNL A   1      30.652  26.170  27.791  1.00  0.00     0.163 HD
BRANCH   4   7
ATOM      7  C   UNL A   1      31.474  25.552  24.541  1.00  0.00     0.175 C 
BRANCH   7   8
ATOM      8  N   UNL A   1      32.457  24.613  23.975  1.00  0.00    -0.342 N 
ATOM      9  O   UNL A   1      34.289  25.942  24.364  1.00  0.00    -0.273 OA
ATOM     10  C   UNL A   1      33.822  24.858  24.022  1.00  0.00     0.240 C 
ATOM     11  H   UNL A   1      32.136  23.785  23.549  1.00  0.00     0.164 HD
BRANCH  10  12
ATOM     12  C   UNL A   1      34.704  23.682  23.586  1.00  0.00     0.222 C 
BRANCH  12  13
ATOM     13  N   UNL A   1      35.054  22.672  24.633  1.00  0.00    -0.331 N 
ATOM     14  C   UNL A   1      36.378  22.790  25.152  1.00  0.00     0.053 A 
ATOM     15  C   UNL A   1      34.411  21.408  24.614  1.00  0.00     0.053 A 
ATOM     16  C   UNL A   1      36.949  24.017  25.524  1.00  0.00     0.027 A 
ATOM     17  C   UNL A   1      37.145  21.636  25.398  1.00  0.00     0.046 A 
ATOM     18  C   UNL A   1      35.165  20.224  24.737  1.00  0.00     0.046 A 
ATOM     19  C   UNL A   1      33.020  21.247  24.587  1.00  0.00     0.027 A 
ATOM     20  C   UNL A   1      38.216  24.079  26.127  1.00  0.00     0.002 A 
ATOM     21  C   UNL A   1      38.404  21.689  26.013  1.00  0.00     0.014 A 
ATOM     22  C   UNL A   1      36.610  20.323  25.000  1.00  0.00     0.197 A 
ATOM     23  C   UNL A   1      34.583  18.947  24.699  1.00  0.00     0.014 A 
ATOM     24  C   UNL A   1      32.423  19.976  24.586  1.00  0.00     0.002 A 
ATOM     25  C   UNL A   1      38.936  22.916  26.386  1.00  0.00     0.001 A 
ATOM     26  O   UNL A   1      37.342  19.342  24.927  1.00  0.00    -0.288 OA
ATOM     27  C   UNL A   1      33.203  18.826  24.614  1.00  0.00     0.001 A 
ENDBRANCH  12  13
ENDBRANCH  10  12
ENDBRANCH   7   8
BRANCH   7  28
ATOM     28  C   UNL A   1      30.135  25.656  23.766  1.00  0.00     0.070 C 
BRANCH  28  29
ATOM     29  C   UNL A   1      29.717  27.017  23.253  1.00  0.00    -0.045 A 
ATOM     30  C   UNL A   1      28.398  27.472  23.413  1.00  0.00     0.004 A 
ATOM     31  C   UNL A   1      30.665  27.884  22.686  1.00  0.00     0.004 A 
ATOM     32  C   UNL A   1      28.067  28.801  23.126  1.00  0.00     0.000 A 
ATOM     33  C   UNL A   1      30.325  29.204  22.375  1.00  0.00     0.000 A 
ATOM     34  C   UNL A   1      29.034  29.670  22.623  1.00  0.00     0.000 A 
ENDBRANCH  28  29
ENDBRANCH   7  28
ENDBRANCH   4   7
ENDBRANCH   2   3
ENDBRANCH   1   2
BRANCH   1  35
ATOM     35  C   UNL A   1      33.695  28.348  27.190  1.00  0.00     0.023 C 
BRANCH  35  36
ATOM     36  C   UNL A   1      34.447  29.647  26.932  1.00  0.00     0.116 C 
BRANCH  36  37
ATOM     37  N   UNL A   1      34.390  30.596  28.038  1.00  0.00    -0.352 N 
ATOM     38  C   UNL A   1      35.333  30.872  29.008  1.00  0.00     0.251 C 
ATOM     39  H   UNL A   1      33.557  31.117  28.102  1.00  0.00     0.163 HD
ATOM     40  O   UNL A   1      35.068  31.637  29.923  1.00  0.00    -0.269 OA
BRANCH  38  41
ATOM     41  C   UNL A   1      36.651  30.203  28.941  1.00  0.00     0.039 A 
ATOM     42  C   UNL A   1      37.225  29.678  30.097  1.00  0.00     0.014 A 
ATOM     43  C   UNL A   1      37.353  30.168  27.733  1.00  0.00     0.014 A 
ATOM     44  C   UNL A   1      38.572  29.350  30.100  1.00  0.00     0.010 A 
ATOM     45  C   UNL A   1      38.674  29.706  27.713  1.00  0.00     0.010 A 
ATOM     46  C   UNL A   1      39.318  29.352  28.909  1.00  0.00    -0.014 A 
BRANCH  46  47
ATOM     47  C   UNL A   1      40.760  28.981  28.966  1.00  0.00     0.031 A 
ATOM     48  C   UNL A   1      41.233  27.614  28.539  1.00  0.00     0.074 A 
ATOM     49  C   UNL A   1      41.658  29.925  29.318  1.00  0.00     0.049 A 
ATOM     50  N   UNL A   1      42.455  27.145  28.496  1.00  0.00    -0.248 NA
ATOM     51  C   UNL A   1      40.211  26.643  28.111  1.00  0.00     0.031 C 
ATOM     52  C   UNL A   1      41.321  31.289  29.741  1.00  0.00     0.029 A 
ATOM     53  N   UNL A   1      43.029  29.910  29.332  1.00  0.00    -0.354 N 
ATOM     54  C   UNL A   1      42.348  25.827  28.065  1.00  0.00     0.074 A 
ATOM     55  C   UNL A   1      40.940  25.558  27.881  1.00  0.00     0.031 C 
ATOM     56  C   UNL A   1      42.448  32.001  29.877  1.00  0.00     0.029 A 
ATOM     57  C   UNL A   1      43.591  31.126  29.646  1.00  0.00     0.049 A 
ATOM     58  H   UNL A   1      43.561  29.105  29.135  1.00  0.00     0.167 HD
ATOM     59  C   UNL A   1      43.336  24.930  27.833  1.00  0.00     0.037 A 
ATOM     60  C   UNL A   1      44.880  31.499  29.754  1.00  0.00     0.037 A 
ATOM     61  C   UNL A   1      44.740  25.219  27.978  1.00  0.00     0.049 A 
ATOM     62  C   UNL A   1      45.951  30.475  29.522  1.00  0.00     0.074 A 
ATOM     63  C   UNL A   1      45.818  24.378  27.755  1.00  0.00     0.029 A 
ATOM     64  N   UNL A   1      45.262  26.442  28.368  1.00  0.00    -0.354 N 
ATOM     65  N   UNL A   1      45.824  29.227  29.138  1.00  0.00    -0.248 NA
ATOM     66  C   UNL A   1      47.338  30.895  29.762  1.00  0.00     0.031 C 
ATOM     67  C   UNL A   1      46.990  25.083  28.046  1.00  0.00     0.029 A 
ATOM     68  C   UNL A   1      46.645  26.375  28.409  1.00  0.00     0.049 A 
ATOM     69  H   UNL A   1      44.729  27.241  28.584  1.00  0.00     0.167 HD
ATOM     70  C   UNL A   1      47.114  28.715  29.088  1.00  0.00     0.074 A 
ATOM     71  C   UNL A   1      48.009  29.793  29.457  1.00  0.00     0.031 C 
ATOM     72  C   UNL A   1      47.519  27.461  28.774  1.00  0.00     0.037 A 
BRANCH  59  73
ATOM     73  C   UNL A   1      42.950  23.542  27.394  1.00  0.00     0.058 A 
ATOM     74  C   UNL A   1      42.969  23.164  26.044  1.00  0.00     0.135 A 
ATOM     75  C   UNL A   1      42.644  22.554  28.347  1.00  0.00     0.135 A 
ATOM     76  F   UNL A   1      43.239  24.071  25.092  1.00  0.00    -0.206 F 
ATOM     77  C   UNL A   1      42.692  21.857  25.651  1.00  0.00     0.059 A 
ATOM     78  C   UNL A   1      42.386  21.237  27.978  1.00  0.00     0.059 A 
ATOM     79  F   UNL A   1      42.612  22.862  29.652  1.00  0.00    -0.206 F 
ATOM     80  C   UNL A   1      42.408  20.899  26.626  1.00  0.00     0.060 A 
BRANCH  80  81
ATOM     81  S   UNL A   1      42.088  19.202  26.098  1.00  0.00     0.124 S 
ATOM     82  O   UNL A   1      42.422  18.453  27.306  1.00  0.00    -0.237 OA
ATOM     83  O   UNL A   1      40.672  19.246  25.750  1.00  0.00    -0.237 OA
ATOM     84  O   UNL A   1      43.001  19.017  24.975  1.00  0.00    -0.744 OA
ENDBRANCH  80  81
ENDBRANCH  59  73
BRANCH  60  85
ATOM     85  C   UNL A   1      45.219  32.900  30.115  1.00  0.00     0.058 A 
ATOM     86  C   UNL A   1      45.391  33.880  29.127  1.00  0.00     0.135 A 
ATOM     87  C   UNL A   1      45.350  33.295  31.456  1.00  0.00     0.135 A 
ATOM     88  F   UNL A   1      45.282  33.551  27.830  1.00  0.00    -0.206 F 
ATOM     89  C   UNL A   1      45.687  35.199  29.453  1.00  0.00     0.059 A 
ATOM     90  C   UNL A   1      45.617  34.613  31.809  1.00  0.00     0.059 A 
ATOM     91  F   UNL A   1      45.180  32.399  32.441  1.00  0.00    -0.206 F 
ATOM     92  C   UNL A   1      45.793  35.556  30.799  1.00  0.00     0.060 A 
BRANCH  92  93
ATOM     93  S   UNL A   1      46.126  37.282  31.214  1.00  0.00     0.124 S 
ATOM     94  O   UNL A   1      45.367  37.982  30.185  1.00  0.00    -0.237 OA
ATOM     95  O   UNL A   1      45.601  37.377  32.573  1.00  0.00    -0.237 OA
ATOM     96  O   UNL A   1      47.579  37.378  31.105  1.00  0.00    -0.744 OA
ENDBRANCH  92  93
ENDBRANCH  60  85
BRANCH  72  97
ATOM     97  C   UNL A   1      48.993  27.181  28.807  1.00  0.00     0.058 A 
ATOM     98  C   UNL A   1      49.788  27.329  27.660  1.00  0.00     0.135 A 
ATOM     99  C   UNL A   1      49.629  26.850  30.013  1.00  0.00     0.135 A 
ATOM    100  F   UNL A   1      49.223  27.633  26.481  1.00  0.00    -0.206 F 
ATOM    101  C   UNL A   1      51.166  27.154  27.708  1.00  0.00     0.059 A 
ATOM    102  C   UNL A   1      51.009  26.694  30.090  1.00  0.00     0.059 A 
ATOM    103  F   UNL A   1      48.910  26.704  31.138  1.00  0.00    -0.206 F 
ATOM    104  C   UNL A   1      51.768  26.846  28.930  1.00  0.00     0.060 A 
BRANCH 104 105
ATOM    105  S   UNL A   1      53.566  26.694  28.988  1.00  0.00     0.124 S 
ATOM    106  O   UNL A   1      53.840  25.960  27.756  1.00  0.00    -0.237 OA
ATOM    107  O   UNL A   1      53.995  28.089  29.003  1.00  0.00    -0.237 OA
ATOM    108  O   UNL A   1      53.806  25.956  30.224  1.00  0.00    -0.744 OA
ENDBRANCH 104 105
ENDBRANCH  72  97
ENDBRANCH  46  47
ENDBRANCH  38  41
ENDBRANCH  36  37
ENDBRANCH  35  36
ENDBRANCH   1  35
TORSDOF 19
ENDMDL
