MODEL 1
REMARK VINA RESULT:     -13.3      0.000      0.000
REMARK SMILES O=C(Cn1cc(/C=C2\SC(N3CCOCC3)=[NH+]C2=O)c2ccccc21)NCCCCNC(=O)c1ccc(-c2c3nc(c(-c4c(F)cc(S(=O)(=O)[O-])cc4F)c4ccc([nH]4)c(-c4c(F)cc(S(=O)(=O)[O-])cc4F)c4nc(c(-c5c(F)cc(S(=O)(=O)[O-])cc5F)c5ccc2[nH]5)C=C4)C=C3)cc1
REMARK SMILES IDX 29 1 28 2 27 3 26 4 1 5 2 6 3 8 4 9 5 10 25 11 6 12 20 13
REMARK SMILES IDX 24 14 21 15 23 16 22 17 7 18 8 19 9 20 18 21 10 22 17 23
REMARK SMILES IDX 19 24 11 25 12 27 16 28 13 29 15 30 14 31 30 32 31 33 32 34
REMARK SMILES IDX 33 36 34 37 35 38 99 39 36 40 98 41 37 42 38 43 39 44 92 45
REMARK SMILES IDX 40 46 97 47 91 48 93 49 41 50 96 51 90 52 89 53 42 55 76 56
REMARK SMILES IDX 55 57 75 58 56 59 59 60 74 61 94 62 57 63 58 64 73 66 95 67
REMARK SMILES IDX 60 68 43 69 44 70 53 71 45 72 46 73 52 74 54 75 47 76 48 77
REMARK SMILES IDX 49 78 50 79 51 80 77 81 78 82 87 83 79 84 80 85 86 86 88 87
REMARK SMILES IDX 81 88 82 89 83 90 84 91 85 92 61 93 62 94 71 95 63 96 64 97
REMARK SMILES IDX 70 98 72 99 65 100 66 101 67 102 68 103 69 104
REMARK H PARENT 26 7 17 26 31 35 93 54 59 65
REMARK Flexibility Score: inf
ROOT
ATOM      1  C   UNL A   1      40.540  21.475  27.251  1.00  0.00     0.023 C 
ENDROOT
BRANCH   1   2
ATOM      2  C   UNL A   1      40.151  22.924  27.563  1.00  0.00     0.023 C 
BRANCH   2   3
ATOM      3  C   UNL A   1      39.341  23.631  26.486  1.00  0.00     0.116 C 
BRANCH   3   4
ATOM      4  N   UNL A   1      37.920  23.352  26.563  1.00  0.00    -0.355 N 
ATOM      5  O   UNL A   1      37.938  21.708  24.956  1.00  0.00    -0.273 OA
ATOM      6  C   UNL A   1      37.341  22.338  25.827  1.00  0.00     0.239 C 
ATOM      7  H   UNL A   1      37.355  23.899  27.156  1.00  0.00     0.163 HD
BRANCH   6   8
ATOM      8  C   UNL A   1      35.901  22.042  26.165  1.00  0.00     0.222 C 
BRANCH   8   9
ATOM      9  N   UNL A   1      34.961  21.971  25.044  1.00  0.00    -0.337 N 
ATOM     10  C   UNL A   1      34.853  23.024  24.159  1.00  0.00     0.095 A 
ATOM     11  C   UNL A   1      34.087  20.964  24.670  1.00  0.00     0.049 A 
ATOM     12  C   UNL A   1      33.890  22.711  23.231  1.00  0.00     0.001 A 
ATOM     13  C   UNL A   1      33.345  21.449  23.579  1.00  0.00     0.007 A 
ATOM     14  C   UNL A   1      33.860  19.666  25.165  1.00  0.00     0.027 A 
ATOM     15  C   UNL A   1      32.318  20.648  23.033  1.00  0.00     0.011 A 
ATOM     16  C   UNL A   1      32.829  18.900  24.616  1.00  0.00     0.002 A 
ATOM     17  C   UNL A   1      32.056  19.387  23.572  1.00  0.00     0.001 A 
BRANCH  12  18
ATOM     18  C   UNL A   1      33.550  23.537  22.120  1.00  0.00     0.034 C 
ATOM     19  C   UNL A   1      33.333  24.860  22.179  1.00  0.00     0.110 C 
ATOM     20  S   UNL A   1      33.486  25.891  23.545  1.00  0.00     0.006 SA
ATOM     21  C   UNL A   1      32.873  25.664  21.015  1.00  0.00     0.346 C 
ATOM     22  C   UNL A   1      32.771  27.200  22.627  1.00  0.00     0.319 C 
ATOM     23  N   UNL A   1      32.496  26.935  21.392  1.00  0.00    -0.200 N 
ATOM     24  O   UNL A   1      32.830  25.229  19.872  1.00  0.00    -0.240 OA
ATOM     25  N   UNL A   1      32.481  28.368  23.275  1.00  0.00    -0.251 N 
ATOM     26  H   UNL A   1      32.060  27.575  20.783  1.00  0.00     0.316 HD
ATOM     27  C   UNL A   1      33.384  29.048  24.207  1.00  0.00     0.265 C 
ATOM     28  C   UNL A   1      31.230  29.088  23.033  1.00  0.00     0.265 C 
ATOM     29  C   UNL A   1      32.642  29.360  25.512  1.00  0.00     0.206 C 
ATOM     30  C   UNL A   1      30.561  29.380  24.388  1.00  0.00     0.206 C 
ATOM     31  O   UNL A   1      31.441  30.112  25.261  1.00  0.00    -0.373 OA
ENDBRANCH  12  18
ENDBRANCH   8   9
ENDBRANCH   6   8
ENDBRANCH   3   4
ENDBRANCH   2   3
ENDBRANCH   1   2
BRANCH   1  32
ATOM     32  C   UNL A   1      42.032  21.229  27.016  1.00  0.00     0.116 C 
BRANCH  32  33
ATOM     33  N   UNL A   1      42.520  21.683  25.731  1.00  0.00    -0.352 N 
ATOM     34  C   UNL A   1      43.093  22.843  25.281  1.00  0.00     0.251 C 
ATOM     35  H   UNL A   1      42.417  21.008  25.023  1.00  0.00     0.163 HD
ATOM     36  O   UNL A   1      43.576  22.797  24.146  1.00  0.00    -0.269 OA
BRANCH  34  37
ATOM     37  C   UNL A   1      43.110  24.137  26.020  1.00  0.00     0.039 A 
ATOM     38  C   UNL A   1      43.669  24.347  27.280  1.00  0.00     0.014 A 
ATOM     39  C   UNL A   1      42.425  25.203  25.406  1.00  0.00     0.014 A 
ATOM     40  C   UNL A   1      43.445  25.537  27.963  1.00  0.00     0.010 A 
ATOM     41  C   UNL A   1      42.220  26.406  26.074  1.00  0.00     0.010 A 
ATOM     42  C   UNL A   1      42.680  26.545  27.380  1.00  0.00    -0.014 A 
BRANCH  42  43
ATOM     43  C   UNL A   1      42.408  27.740  28.175  1.00  0.00     0.031 A 
ATOM     44  C   UNL A   1      43.481  28.776  28.188  1.00  0.00     0.074 A 
ATOM     45  C   UNL A   1      41.232  27.945  28.800  1.00  0.00     0.049 A 
ATOM     46  N   UNL A   1      44.156  29.219  29.199  1.00  0.00    -0.248 NA
ATOM     47  C   UNL A   1      43.920  29.320  26.895  1.00  0.00     0.031 C 
ATOM     48  C   UNL A   1      40.000  27.160  28.694  1.00  0.00     0.029 A 
ATOM     49  N   UNL A   1      40.866  28.985  29.600  1.00  0.00    -0.354 N 
ATOM     50  C   UNL A   1      44.984  30.226  28.704  1.00  0.00     0.074 A 
ATOM     51  C   UNL A   1      44.888  30.157  27.269  1.00  0.00     0.031 C 
ATOM     52  C   UNL A   1      38.974  27.876  29.205  1.00  0.00     0.029 A 
ATOM     53  C   UNL A   1      39.495  29.103  29.783  1.00  0.00     0.049 A 
ATOM     54  H   UNL A   1      41.515  29.598  30.012  1.00  0.00     0.167 HD
ATOM     55  C   UNL A   1      45.559  31.161  29.513  1.00  0.00     0.037 A 
ATOM     56  C   UNL A   1      38.836  30.172  30.297  1.00  0.00     0.037 A 
ATOM     57  C   UNL A   1      45.538  30.760  30.894  1.00  0.00     0.049 A 
ATOM     58  C   UNL A   1      39.813  30.941  31.114  1.00  0.00     0.074 A 
ATOM     59  C   UNL A   1      46.072  29.701  31.603  1.00  0.00     0.029 A 
ATOM     60  N   UNL A   1      44.601  31.327  31.724  1.00  0.00    -0.354 N 
ATOM     61  N   UNL A   1      40.340  30.498  32.225  1.00  0.00    -0.248 NA
ATOM     62  C   UNL A   1      40.551  32.017  30.465  1.00  0.00     0.031 C 
ATOM     63  C   UNL A   1      45.093  29.388  32.589  1.00  0.00     0.029 A 
ATOM     64  C   UNL A   1      44.048  30.302  32.450  1.00  0.00     0.049 A 
ATOM     65  H   UNL A   1      44.372  32.282  31.786  1.00  0.00     0.167 HD
ATOM     66  C   UNL A   1      41.660  30.928  32.191  1.00  0.00     0.074 A 
ATOM     67  C   UNL A   1      41.704  31.935  31.134  1.00  0.00     0.031 C 
ATOM     68  C   UNL A   1      42.653  30.237  32.826  1.00  0.00     0.037 A 
BRANCH  55  69
ATOM     69  C   UNL A   1      45.874  32.579  29.100  1.00  0.00     0.058 A 
ATOM     70  C   UNL A   1      47.176  33.090  29.280  1.00  0.00     0.135 A 
ATOM     71  C   UNL A   1      44.878  33.535  28.807  1.00  0.00     0.135 A 
ATOM     72  F   UNL A   1      48.201  32.269  29.563  1.00  0.00    -0.206 F 
ATOM     73  C   UNL A   1      47.451  34.458  29.257  1.00  0.00     0.059 A 
ATOM     74  C   UNL A   1      45.140  34.899  28.726  1.00  0.00     0.059 A 
ATOM     75  F   UNL A   1      43.586  33.202  28.689  1.00  0.00    -0.206 F 
ATOM     76  C   UNL A   1      46.419  35.356  29.001  1.00  0.00     0.060 A 
BRANCH  76  77
ATOM     77  S   UNL A   1      46.736  37.125  29.125  1.00  0.00     0.124 S 
ATOM     78  O   UNL A   1      46.757  37.316  30.569  1.00  0.00    -0.237 OA
ATOM     79  O   UNL A   1      48.020  37.251  28.443  1.00  0.00    -0.237 OA
ATOM     80  O   UNL A   1      45.600  37.719  28.425  1.00  0.00    -0.744 OA
ENDBRANCH  76  77
ENDBRANCH  55  69
BRANCH  56  81
ATOM     81  C   UNL A   1      37.528  30.719  29.845  1.00  0.00     0.058 A 
ATOM     82  C   UNL A   1      36.644  31.352  30.738  1.00  0.00     0.135 A 
ATOM     83  C   UNL A   1      37.223  30.862  28.474  1.00  0.00     0.135 A 
ATOM     84  F   UNL A   1      36.869  31.299  32.060  1.00  0.00    -0.206 F 
ATOM     85  C   UNL A   1      35.548  32.106  30.297  1.00  0.00     0.059 A 
ATOM     86  C   UNL A   1      36.130  31.592  28.012  1.00  0.00     0.059 A 
ATOM     87  F   UNL A   1      38.033  30.372  27.525  1.00  0.00    -0.206 F 
ATOM     88  C   UNL A   1      35.309  32.233  28.929  1.00  0.00     0.060 A 
BRANCH  88  89
ATOM     89  S   UNL A   1      33.998  33.333  28.345  1.00  0.00     0.124 S 
ATOM     90  O   UNL A   1      34.730  34.241  27.471  1.00  0.00    -0.237 OA
ATOM     91  O   UNL A   1      33.091  32.401  27.683  1.00  0.00    -0.237 OA
ATOM     92  O   UNL A   1      33.483  33.930  29.574  1.00  0.00    -0.744 OA
ENDBRANCH  88  89
ENDBRANCH  56  81
BRANCH  68  93
ATOM     93  C   UNL A   1      42.269  29.134  33.779  1.00  0.00     0.058 A 
ATOM     94  C   UNL A   1      42.207  27.777  33.419  1.00  0.00     0.135 A 
ATOM     95  C   UNL A   1      42.149  29.438  35.144  1.00  0.00     0.135 A 
ATOM     96  F   UNL A   1      42.425  27.390  32.156  1.00  0.00    -0.206 F 
ATOM     97  C   UNL A   1      42.001  26.771  34.363  1.00  0.00     0.059 A 
ATOM     98  C   UNL A   1      41.974  28.447  36.109  1.00  0.00     0.059 A 
ATOM     99  F   UNL A   1      42.267  30.708  35.564  1.00  0.00    -0.206 F 
ATOM    100  C   UNL A   1      41.892  27.116  35.709  1.00  0.00     0.060 A 
BRANCH 100 101
ATOM    101  S   UNL A   1      41.737  25.799  36.937  1.00  0.00     0.124 S 
ATOM    102  O   UNL A   1      42.953  25.970  37.725  1.00  0.00    -0.237 OA
ATOM    103  O   UNL A   1      40.490  26.143  37.614  1.00  0.00    -0.237 OA
ATOM    104  O   UNL A   1      41.681  24.584  36.129  1.00  0.00    -0.744 OA
ENDBRANCH 100 101
ENDBRANCH  68  93
ENDBRANCH  42  43
ENDBRANCH  34  37
ENDBRANCH  32  33
ENDBRANCH   1  32
TORSDOF 16
ENDMDL
MODEL 2
REMARK VINA RESULT:     -13.1      2.274      3.115
REMARK SMILES O=C(Cn1cc(/C=C2\SC(N3CCOCC3)=[NH+]C2=O)c2ccccc21)NCCCCNC(=O)c1ccc(-c2c3nc(c(-c4c(F)cc(S(=O)(=O)[O-])cc4F)c4ccc([nH]4)c(-c4c(F)cc(S(=O)(=O)[O-])cc4F)c4nc(c(-c5c(F)cc(S(=O)(=O)[O-])cc5F)c5ccc2[nH]5)C=C4)C=C3)cc1
REMARK SMILES IDX 29 1 28 2 27 3 26 4 1 5 2 6 3 8 4 9 5 10 25 11 6 12 20 13
REMARK SMILES IDX 24 14 21 15 23 16 22 17 7 18 8 19 9 20 18 21 10 22 17 23
REMARK SMILES IDX 19 24 11 25 12 27 16 28 13 29 15 30 14 31 30 32 31 33 32 34
REMARK SMILES IDX 33 36 34 37 35 38 99 39 36 40 98 41 37 42 38 43 39 44 92 45
REMARK SMILES IDX 40 46 97 47 91 48 93 49 41 50 96 51 90 52 89 53 42 55 76 56
REMARK SMILES IDX 55 57 75 58 56 59 59 60 74 61 94 62 57 63 58 64 73 66 95 67
REMARK SMILES IDX 60 68 43 69 44 70 53 71 45 72 46 73 52 74 54 75 47 76 48 77
REMARK SMILES IDX 49 78 50 79 51 80 77 81 78 82 87 83 79 84 80 85 86 86 88 87
REMARK SMILES IDX 81 88 82 89 83 90 84 91 85 92 61 93 62 94 71 95 63 96 64 97
REMARK SMILES IDX 70 98 72 99 65 100 66 101 67 102 68 103 69 104
REMARK H PARENT 26 7 17 26 31 35 93 54 59 65
REMARK Flexibility Score: inf
ROOT
ATOM      1  C   UNL A   1      42.254  20.627  26.950  1.00  0.00     0.023 C 
ENDROOT
BRANCH   1   2
ATOM      2  C   UNL A   1      40.865  20.921  27.526  1.00  0.00     0.023 C 
BRANCH   2   3
ATOM      3  C   UNL A   1      40.044  21.951  26.764  1.00  0.00     0.116 C 
BRANCH   3   4
ATOM      4  N   UNL A   1      39.022  21.359  25.922  1.00  0.00    -0.355 N 
ATOM      5  O   UNL A   1      37.587  23.152  26.037  1.00  0.00    -0.273 OA
ATOM      6  C   UNL A   1      37.886  22.058  25.562  1.00  0.00     0.239 C 
ATOM      7  H   UNL A   1      39.141  20.436  25.600  1.00  0.00     0.163 HD
BRANCH   6   8
ATOM      8  C   UNL A   1      37.021  21.385  24.527  1.00  0.00     0.222 C 
BRANCH   8   9
ATOM      9  N   UNL A   1      35.643  21.080  24.916  1.00  0.00    -0.337 N 
ATOM     10  C   UNL A   1      34.825  22.073  25.416  1.00  0.00     0.095 A 
ATOM     11  C   UNL A   1      34.943  19.886  24.872  1.00  0.00     0.049 A 
ATOM     12  C   UNL A   1      33.608  21.515  25.722  1.00  0.00     0.001 A 
ATOM     13  C   UNL A   1      33.686  20.124  25.455  1.00  0.00     0.007 A 
ATOM     14  C   UNL A   1      35.268  18.608  24.379  1.00  0.00     0.027 A 
ATOM     15  C   UNL A   1      32.782  19.051  25.609  1.00  0.00     0.011 A 
ATOM     16  C   UNL A   1      34.361  17.560  24.556  1.00  0.00     0.002 A 
ATOM     17  C   UNL A   1      33.138  17.772  25.176  1.00  0.00     0.001 A 
BRANCH  12  18
ATOM     18  C   UNL A   1      32.488  22.253  26.205  1.00  0.00     0.034 C 
ATOM     19  C   UNL A   1      32.099  23.453  25.747  1.00  0.00     0.110 C 
ATOM     20  S   UNL A   1      32.770  24.350  24.445  1.00  0.00     0.006 SA
ATOM     21  C   UNL A   1      30.989  24.237  26.354  1.00  0.00     0.346 C 
ATOM     22  C   UNL A   1      31.764  25.718  24.879  1.00  0.00     0.319 C 
ATOM     23  N   UNL A   1      30.947  25.524  25.862  1.00  0.00    -0.200 N 
ATOM     24  O   UNL A   1      30.225  23.782  27.196  1.00  0.00    -0.240 OA
ATOM     25  N   UNL A   1      31.956  26.901  24.223  1.00  0.00    -0.251 N 
ATOM     26  H   UNL A   1      30.356  26.224  26.222  1.00  0.00     0.316 HD
ATOM     27  C   UNL A   1      32.114  27.031  22.772  1.00  0.00     0.265 C 
ATOM     28  C   UNL A   1      31.954  28.180  24.934  1.00  0.00     0.265 C 
ATOM     29  C   UNL A   1      33.365  27.860  22.460  1.00  0.00     0.206 C 
ATOM     30  C   UNL A   1      33.227  28.957  24.551  1.00  0.00     0.206 C 
ATOM     31  O   UNL A   1      33.324  29.135  23.126  1.00  0.00    -0.373 OA
ENDBRANCH  12  18
ENDBRANCH   8   9
ENDBRANCH   6   8
ENDBRANCH   3   4
ENDBRANCH   2   3
ENDBRANCH   1   2
BRANCH   1  32
ATOM     32  C   UNL A   1      42.324  19.461  25.961  1.00  0.00     0.116 C 
BRANCH  32  33
ATOM     33  N   UNL A   1      43.384  19.567  24.982  1.00  0.00    -0.352 N 
ATOM     34  C   UNL A   1      44.358  20.494  24.723  1.00  0.00     0.251 C 
ATOM     35  H   UNL A   1      43.411  18.802  24.363  1.00  0.00     0.163 HD
ATOM     36  O   UNL A   1      45.229  20.147  23.921  1.00  0.00    -0.269 OA
BRANCH  34  37
ATOM     37  C   UNL A   1      44.397  21.877  25.275  1.00  0.00     0.039 A 
ATOM     38  C   UNL A   1      45.214  22.315  26.317  1.00  0.00     0.014 A 
ATOM     39  C   UNL A   1      43.462  22.781  24.734  1.00  0.00     0.014 A 
ATOM     40  C   UNL A   1      45.020  23.567  26.890  1.00  0.00     0.010 A 
ATOM     41  C   UNL A   1      43.281  24.045  25.286  1.00  0.00     0.010 A 
ATOM     42  C   UNL A   1      44.021  24.410  26.407  1.00  0.00    -0.014 A 
BRANCH  42  43
ATOM     43  C   UNL A   1      43.808  25.679  27.098  1.00  0.00     0.031 A 
ATOM     44  C   UNL A   1      44.835  26.734  26.863  1.00  0.00     0.074 A 
ATOM     45  C   UNL A   1      42.713  25.925  27.843  1.00  0.00     0.049 A 
ATOM     46  N   UNL A   1      45.615  27.301  27.727  1.00  0.00    -0.248 NA
ATOM     47  C   UNL A   1      45.090  27.142  25.474  1.00  0.00     0.031 C 
ATOM     48  C   UNL A   1      41.506  25.106  27.980  1.00  0.00     0.029 A 
ATOM     49  N   UNL A   1      42.412  27.038  28.568  1.00  0.00    -0.354 N 
ATOM     50  C   UNL A   1      46.338  28.266  27.026  1.00  0.00     0.074 A 
ATOM     51  C   UNL A   1      46.067  28.037  25.630  1.00  0.00     0.031 C 
ATOM     52  C   UNL A   1      40.527  25.851  28.539  1.00  0.00     0.029 A 
ATOM     53  C   UNL A   1      41.071  27.144  28.912  1.00  0.00     0.049 A 
ATOM     54  H   UNL A   1      43.084  27.708  28.826  1.00  0.00     0.167 HD
ATOM     55  C   UNL A   1      46.975  29.296  27.650  1.00  0.00     0.037 A 
ATOM     56  C   UNL A   1      40.442  28.249  29.389  1.00  0.00     0.037 A 
ATOM     57  C   UNL A   1      47.141  29.050  29.057  1.00  0.00     0.049 A 
ATOM     58  C   UNL A   1      41.486  29.124  29.987  1.00  0.00     0.074 A 
ATOM     59  C   UNL A   1      47.797  28.088  29.801  1.00  0.00     0.029 A 
ATOM     60  N   UNL A   1      46.295  29.684  29.935  1.00  0.00    -0.354 N 
ATOM     61  N   UNL A   1      42.163  28.819  31.062  1.00  0.00    -0.248 NA
ATOM     62  C   UNL A   1      42.097  30.139  29.139  1.00  0.00     0.031 C 
ATOM     63  C   UNL A   1      46.961  27.863  30.932  1.00  0.00     0.029 A 
ATOM     64  C   UNL A   1      45.874  28.733  30.831  1.00  0.00     0.049 A 
ATOM     65  H   UNL A   1      46.041  30.635  29.924  1.00  0.00     0.167 HD
ATOM     66  C   UNL A   1      43.452  29.272  30.815  1.00  0.00     0.074 A 
ATOM     67  C   UNL A   1      43.326  30.158  29.659  1.00  0.00     0.031 C 
ATOM     68  C   UNL A   1      44.540  28.678  31.387  1.00  0.00     0.037 A 
BRANCH  55  69
ATOM     69  C   UNL A   1      47.184  30.667  27.052  1.00  0.00     0.058 A 
ATOM     70  C   UNL A   1      48.470  31.247  27.057  1.00  0.00     0.135 A 
ATOM     71  C   UNL A   1      46.121  31.543  26.740  1.00  0.00     0.135 A 
ATOM     72  F   UNL A   1      49.554  30.506  27.340  1.00  0.00    -0.206 F 
ATOM     73  C   UNL A   1      48.675  32.612  26.853  1.00  0.00     0.059 A 
ATOM     74  C   UNL A   1      46.308  32.896  26.482  1.00  0.00     0.059 A 
ATOM     75  F   UNL A   1      44.842  31.147  26.776  1.00  0.00    -0.206 F 
ATOM     76  C   UNL A   1      47.581  33.432  26.589  1.00  0.00     0.060 A 
BRANCH  76  77
ATOM     77  S   UNL A   1      47.820  35.215  26.481  1.00  0.00     0.124 S 
ATOM     78  O   UNL A   1      48.822  35.310  25.426  1.00  0.00    -0.237 OA
ATOM     79  O   UNL A   1      46.480  35.679  26.135  1.00  0.00    -0.237 OA
ATOM     80  O   UNL A   1      48.276  35.575  27.820  1.00  0.00    -0.744 OA
ENDBRANCH  76  77
ENDBRANCH  55  69
BRANCH  56  81
ATOM     81  C   UNL A   1      39.069  28.713  29.053  1.00  0.00     0.058 A 
ATOM     82  C   UNL A   1      38.049  28.761  30.019  1.00  0.00     0.135 A 
ATOM     83  C   UNL A   1      38.791  29.365  27.831  1.00  0.00     0.135 A 
ATOM     84  F   UNL A   1      38.233  28.198  31.223  1.00  0.00    -0.206 F 
ATOM     85  C   UNL A   1      36.843  29.441  29.800  1.00  0.00     0.059 A 
ATOM     86  C   UNL A   1      37.593  30.031  27.584  1.00  0.00     0.059 A 
ATOM     87  F   UNL A   1      39.713  29.455  26.863  1.00  0.00    -0.206 F 
ATOM     88  C   UNL A   1      36.631  30.087  28.582  1.00  0.00     0.060 A 
BRANCH  88  89
ATOM     89  S   UNL A   1      35.151  31.100  28.349  1.00  0.00     0.124 S 
ATOM     90  O   UNL A   1      34.202  30.131  27.814  1.00  0.00    -0.237 OA
ATOM     91  O   UNL A   1      34.888  31.572  29.704  1.00  0.00    -0.237 OA
ATOM     92  O   UNL A   1      35.588  32.129  27.409  1.00  0.00    -0.744 OA
ENDBRANCH  88  89
ENDBRANCH  56  81
BRANCH  68  93
ATOM     93  C   UNL A   1      44.319  27.679  32.494  1.00  0.00     0.058 A 
ATOM     94  C   UNL A   1      44.090  28.037  33.834  1.00  0.00     0.135 A 
ATOM     95  C   UNL A   1      44.139  26.329  32.155  1.00  0.00     0.135 A 
ATOM     96  F   UNL A   1      44.128  29.319  34.220  1.00  0.00    -0.206 F 
ATOM     97  C   UNL A   1      43.735  27.095  34.799  1.00  0.00     0.059 A 
ATOM     98  C   UNL A   1      43.754  25.376  33.096  1.00  0.00     0.059 A 
ATOM     99  F   UNL A   1      44.274  25.931  30.879  1.00  0.00    -0.206 F 
ATOM    100  C   UNL A   1      43.562  25.766  34.419  1.00  0.00     0.060 A 
BRANCH 100 101
ATOM    101  S   UNL A   1      42.994  24.572  35.652  1.00  0.00     0.124 S 
ATOM    102  O   UNL A   1      41.547  24.601  35.463  1.00  0.00    -0.237 OA
ATOM    103  O   UNL A   1      43.664  23.344  35.235  1.00  0.00    -0.237 OA
ATOM    104  O   UNL A   1      43.470  25.132  36.914  1.00  0.00    -0.744 OA
ENDBRANCH 100 101
ENDBRANCH  68  93
ENDBRANCH  42  43
ENDBRANCH  34  37
ENDBRANCH  32  33
ENDBRANCH   1  32
TORSDOF 16
ENDMDL
MODEL 3
REMARK VINA RESULT:     -12.9      2.928      9.240
REMARK SMILES O=C(Cn1cc(/C=C2\SC(N3CCOCC3)=[NH+]C2=O)c2ccccc21)NCCCCNC(=O)c1ccc(-c2c3nc(c(-c4c(F)cc(S(=O)(=O)[O-])cc4F)c4ccc([nH]4)c(-c4c(F)cc(S(=O)(=O)[O-])cc4F)c4nc(c(-c5c(F)cc(S(=O)(=O)[O-])cc5F)c5ccc2[nH]5)C=C4)C=C3)cc1
REMARK SMILES IDX 29 1 28 2 27 3 26 4 1 5 2 6 3 8 4 9 5 10 25 11 6 12 20 13
REMARK SMILES IDX 24 14 21 15 23 16 22 17 7 18 8 19 9 20 18 21 10 22 17 23
REMARK SMILES IDX 19 24 11 25 12 27 16 28 13 29 15 30 14 31 30 32 31 33 32 34
REMARK SMILES IDX 33 36 34 37 35 38 99 39 36 40 98 41 37 42 38 43 39 44 92 45
REMARK SMILES IDX 40 46 97 47 91 48 93 49 41 50 96 51 90 52 89 53 42 55 76 56
REMARK SMILES IDX 55 57 75 58 56 59 59 60 74 61 94 62 57 63 58 64 73 66 95 67
REMARK SMILES IDX 60 68 43 69 44 70 53 71 45 72 46 73 52 74 54 75 47 76 48 77
REMARK SMILES IDX 49 78 50 79 51 80 77 81 78 82 87 83 79 84 80 85 86 86 88 87
REMARK SMILES IDX 81 88 82 89 83 90 84 91 85 92 61 93 62 94 71 95 63 96 64 97
REMARK SMILES IDX 70 98 72 99 65 100 66 101 67 102 68 103 69 104
REMARK H PARENT 26 7 17 26 31 35 93 54 59 65
REMARK Flexibility Score: inf
ROOT
ATOM      1  C   UNL A   1      35.378  34.378  28.651  1.00  0.00     0.023 C 
ENDROOT
BRANCH   1   2
ATOM      2  C   UNL A   1      36.265  33.246  28.121  1.00  0.00     0.023 C 
BRANCH   2   3
ATOM      3  C   UNL A   1      35.675  31.847  28.225  1.00  0.00     0.116 C 
BRANCH   3   4
ATOM      4  N   UNL A   1      34.614  31.602  27.266  1.00  0.00    -0.355 N 
ATOM      5  O   UNL A   1      34.522  29.333  27.627  1.00  0.00    -0.273 OA
ATOM      6  C   UNL A   1      34.065  30.345  27.101  1.00  0.00     0.239 C 
ATOM      7  H   UNL A   1      34.278  32.349  26.720  1.00  0.00     0.163 HD
BRANCH   6   8
ATOM      8  C   UNL A   1      32.843  30.291  26.219  1.00  0.00     0.222 C 
BRANCH   8   9
ATOM      9  N   UNL A   1      32.459  28.975  25.703  1.00  0.00    -0.337 N 
ATOM     10  C   UNL A   1      31.777  28.085  26.507  1.00  0.00     0.095 A 
ATOM     11  C   UNL A   1      32.665  28.406  24.457  1.00  0.00     0.049 A 
ATOM     12  C   UNL A   1      31.567  26.932  25.792  1.00  0.00     0.001 A 
ATOM     13  C   UNL A   1      32.183  27.087  24.524  1.00  0.00     0.007 A 
ATOM     14  C   UNL A   1      33.220  28.902  23.263  1.00  0.00     0.027 A 
ATOM     15  C   UNL A   1      32.331  26.242  23.403  1.00  0.00     0.011 A 
ATOM     16  C   UNL A   1      33.367  28.040  22.173  1.00  0.00     0.002 A 
ATOM     17  C   UNL A   1      32.942  26.722  22.243  1.00  0.00     0.001 A 
BRANCH  12  18
ATOM     18  C   UNL A   1      30.835  25.809  26.279  1.00  0.00     0.034 C 
ATOM     19  C   UNL A   1      31.339  24.579  26.462  1.00  0.00     0.110 C 
ATOM     20  S   UNL A   1      32.964  24.065  26.247  1.00  0.00     0.006 SA
ATOM     21  C   UNL A   1      30.511  23.411  26.868  1.00  0.00     0.346 C 
ATOM     22  C   UNL A   1      32.460  22.403  26.475  1.00  0.00     0.319 C 
ATOM     23  N   UNL A   1      31.209  22.229  26.752  1.00  0.00    -0.200 N 
ATOM     24  O   UNL A   1      29.350  23.507  27.245  1.00  0.00    -0.240 OA
ATOM     25  N   UNL A   1      33.378  21.411  26.272  1.00  0.00    -0.251 N 
ATOM     26  H   UNL A   1      30.797  21.342  26.868  1.00  0.00     0.316 HD
ATOM     27  C   UNL A   1      34.751  21.432  26.782  1.00  0.00     0.265 C 
ATOM     28  C   UNL A   1      33.029  20.179  25.561  1.00  0.00     0.265 C 
ATOM     29  C   UNL A   1      35.731  21.134  25.641  1.00  0.00     0.206 C 
ATOM     30  C   UNL A   1      34.069  19.943  24.452  1.00  0.00     0.206 C 
ATOM     31  O   UNL A   1      35.405  19.895  24.985  1.00  0.00    -0.373 OA
ENDBRANCH  12  18
ENDBRANCH   8   9
ENDBRANCH   6   8
ENDBRANCH   3   4
ENDBRANCH   2   3
ENDBRANCH   1   2
BRANCH   1  32
ATOM     32  C   UNL A   1      34.009  33.948  29.181  1.00  0.00     0.116 C 
BRANCH  32  33
ATOM     33  N   UNL A   1      33.779  34.260  30.576  1.00  0.00    -0.352 N 
ATOM     34  C   UNL A   1      34.536  34.170  31.713  1.00  0.00     0.251 C 
ATOM     35  H   UNL A   1      32.877  34.614  30.744  1.00  0.00     0.163 HD
ATOM     36  O   UNL A   1      34.071  34.728  32.711  1.00  0.00    -0.269 OA
BRANCH  34  37
ATOM     37  C   UNL A   1      35.811  33.409  31.840  1.00  0.00     0.039 A 
ATOM     38  C   UNL A   1      37.093  33.955  31.797  1.00  0.00     0.014 A 
ATOM     39  C   UNL A   1      35.683  32.009  31.930  1.00  0.00     0.014 A 
ATOM     40  C   UNL A   1      38.210  33.132  31.716  1.00  0.00     0.010 A 
ATOM     41  C   UNL A   1      36.799  31.180  31.875  1.00  0.00     0.010 A 
ATOM     42  C   UNL A   1      38.059  31.746  31.705  1.00  0.00    -0.014 A 
BRANCH  42  43
ATOM     43  C   UNL A   1      39.259  30.932  31.536  1.00  0.00     0.031 A 
ATOM     44  C   UNL A   1      40.076  30.706  32.762  1.00  0.00     0.074 A 
ATOM     45  C   UNL A   1      39.581  30.347  30.365  1.00  0.00     0.049 A 
ATOM     46  N   UNL A   1      41.302  31.055  32.986  1.00  0.00    -0.248 NA
ATOM     47  C   UNL A   1      39.411  30.095  33.922  1.00  0.00     0.031 C 
ATOM     48  C   UNL A   1      38.778  30.262  29.143  1.00  0.00     0.029 A 
ATOM     49  N   UNL A   1      40.682  29.604  30.062  1.00  0.00    -0.354 N 
ATOM     50  C   UNL A   1      41.628  30.553  34.246  1.00  0.00     0.074 A 
ATOM     51  C   UNL A   1      40.394  30.085  34.823  1.00  0.00     0.031 C 
ATOM     52  C   UNL A   1      39.309  29.322  28.330  1.00  0.00     0.029 A 
ATOM     53  C   UNL A   1      40.548  28.837  28.913  1.00  0.00     0.049 A 
ATOM     54  H   UNL A   1      41.499  29.609  30.609  1.00  0.00     0.167 HD
ATOM     55  C   UNL A   1      42.917  30.399  34.660  1.00  0.00     0.037 A 
ATOM     56  C   UNL A   1      41.356  27.820  28.519  1.00  0.00     0.037 A 
ATOM     57  C   UNL A   1      43.834  31.153  33.846  1.00  0.00     0.049 A 
ATOM     58  C   UNL A   1      42.667  28.014  29.194  1.00  0.00     0.074 A 
ATOM     59  C   UNL A   1      43.999  32.494  33.563  1.00  0.00     0.029 A 
ATOM     60  N   UNL A   1      44.570  30.481  32.900  1.00  0.00    -0.354 N 
ATOM     61  N   UNL A   1      43.479  29.004  28.935  1.00  0.00    -0.248 NA
ATOM     62  C   UNL A   1      42.879  27.360  30.478  1.00  0.00     0.031 C 
ATOM     63  C   UNL A   1      44.397  32.536  32.196  1.00  0.00     0.029 A 
ATOM     64  C   UNL A   1      44.494  31.219  31.746  1.00  0.00     0.049 A 
ATOM     65  H   UNL A   1      45.058  29.635  33.026  1.00  0.00     0.167 HD
ATOM     66  C   UNL A   1      44.006  29.367  30.167  1.00  0.00     0.074 A 
ATOM     67  C   UNL A   1      43.674  28.260  31.061  1.00  0.00     0.031 C 
ATOM     68  C   UNL A   1      44.416  30.645  30.420  1.00  0.00     0.037 A 
BRANCH  55  69
ATOM     69  C   UNL A   1      43.393  29.330  35.613  1.00  0.00     0.058 A 
ATOM     70  C   UNL A   1      44.135  29.690  36.758  1.00  0.00     0.135 A 
ATOM     71  C   UNL A   1      43.395  27.955  35.291  1.00  0.00     0.135 A 
ATOM     72  F   UNL A   1      44.202  30.970  37.156  1.00  0.00    -0.206 F 
ATOM     73  C   UNL A   1      44.894  28.765  37.477  1.00  0.00     0.059 A 
ATOM     74  C   UNL A   1      44.101  27.008  36.026  1.00  0.00     0.059 A 
ATOM     75  F   UNL A   1      42.799  27.483  34.189  1.00  0.00    -0.206 F 
ATOM     76  C   UNL A   1      44.887  27.428  37.087  1.00  0.00     0.060 A 
BRANCH  76  77
ATOM     77  S   UNL A   1      45.983  26.261  37.913  1.00  0.00     0.124 S 
ATOM     78  O   UNL A   1      45.399  26.209  39.247  1.00  0.00    -0.237 OA
ATOM     79  O   UNL A   1      45.822  25.063  37.095  1.00  0.00    -0.237 OA
ATOM     80  O   UNL A   1      47.290  26.905  37.820  1.00  0.00    -0.744 OA
ENDBRANCH  76  77
ENDBRANCH  55  69
BRANCH  56  81
ATOM     81  C   UNL A   1      40.941  26.544  27.874  1.00  0.00     0.058 A 
ATOM     82  C   UNL A   1      41.703  25.952  26.852  1.00  0.00     0.135 A 
ATOM     83  C   UNL A   1      39.916  25.742  28.421  1.00  0.00     0.135 A 
ATOM     84  F   UNL A   1      42.720  26.625  26.292  1.00  0.00    -0.206 F 
ATOM     85  C   UNL A   1      41.486  24.635  26.424  1.00  0.00     0.059 A 
ATOM     86  C   UNL A   1      39.670  24.437  28.000  1.00  0.00     0.059 A 
ATOM     87  F   UNL A   1      39.174  26.167  29.453  1.00  0.00    -0.206 F 
ATOM     88  C   UNL A   1      40.475  23.879  27.017  1.00  0.00     0.060 A 
BRANCH  88  89
ATOM     89  S   UNL A   1      40.290  22.133  26.589  1.00  0.00     0.124 S 
ATOM     90  O   UNL A   1      38.963  22.107  25.984  1.00  0.00    -0.237 OA
ATOM     91  O   UNL A   1      41.411  21.922  25.679  1.00  0.00    -0.237 OA
ATOM     92  O   UNL A   1      40.402  21.452  27.876  1.00  0.00    -0.744 OA
ENDBRANCH  88  89
ENDBRANCH  56  81
BRANCH  68  93
ATOM     93  C   UNL A   1      44.529  31.609  29.267  1.00  0.00     0.058 A 
ATOM     94  C   UNL A   1      45.634  31.662  28.400  1.00  0.00     0.135 A 
ATOM     95  C   UNL A   1      43.402  32.367  28.913  1.00  0.00     0.135 A 
ATOM     96  F   UNL A   1      46.706  30.885  28.601  1.00  0.00    -0.206 F 
ATOM     97  C   UNL A   1      45.635  32.457  27.254  1.00  0.00     0.059 A 
ATOM     98  C   UNL A   1      43.369  33.144  27.756  1.00  0.00     0.059 A 
ATOM     99  F   UNL A   1      42.288  32.308  29.661  1.00  0.00    -0.206 F 
ATOM    100  C   UNL A   1      44.494  33.190  26.936  1.00  0.00     0.060 A 
BRANCH 100 101
ATOM    101  S   UNL A   1      44.462  34.130  25.392  1.00  0.00     0.124 S 
ATOM    102  O   UNL A   1      45.670  34.942  25.503  1.00  0.00    -0.237 OA
ATOM    103  O   UNL A   1      44.496  33.078  24.380  1.00  0.00    -0.237 OA
ATOM    104  O   UNL A   1      43.204  34.868  25.468  1.00  0.00    -0.744 OA
ENDBRANCH 100 101
ENDBRANCH  68  93
ENDBRANCH  42  43
ENDBRANCH  34  37
ENDBRANCH  32  33
ENDBRANCH   1  32
TORSDOF 16
ENDMDL
