MODEL 1
REMARK VINA RESULT:     -11.8      0.000      0.000
REMARK SMILES Cc1ccc(S(=O)(=O)n2cc(C(=O)C(=O)N[C@@H](Cc3cnc[nH]3)C(=O)NCCCCNC(=O)c3ccc(-c4c5nc(c(-c6c(F)cc(S(=O)(=O)[O-])cc6F)c6ccc([nH]6)c(-c6c(F)cc(S(=O)(=O)[O-])cc6F)c6nc(c(-c7c(F)cc(S(=O)(=O)[O-])cc7F)c7ccc4[nH]7)C=C6)C=C5)cc3)c3ccccc32)cc1
REMARK SMILES IDX 27 1 26 2 24 3 25 4 17 6 16 7 14 8 15 9 12 11 13 12 11 13
REMARK SMILES IDX 9 14 10 15 105 16 100 17 104 18 101 19 103 20 102 21 6 22
REMARK SMILES IDX 7 23 8 24 5 25 1 26 2 27 3 28 107 29 4 30 106 31 18 32 19 33
REMARK SMILES IDX 20 34 23 35 21 36 22 37 28 39 29 40 30 41 31 42 32 43 33 45
REMARK SMILES IDX 34 46 35 47 99 48 36 49 98 50 37 51 38 52 39 53 92 54 40 55
REMARK SMILES IDX 97 56 91 57 93 58 41 59 96 60 90 61 89 62 42 64 76 65 55 66
REMARK SMILES IDX 75 67 56 68 59 69 74 70 94 71 57 72 58 73 73 75 95 76 60 77
REMARK SMILES IDX 43 78 44 79 53 80 45 81 46 82 52 83 54 84 47 85 48 86 49 87
REMARK SMILES IDX 50 88 51 89 77 90 78 91 87 92 79 93 80 94 86 95 88 96 81 97
REMARK SMILES IDX 82 98 83 99 84 100 85 101 61 102 62 103 71 104 63 105 64 106
REMARK SMILES IDX 70 107 72 108 65 109 66 110 67 111 68 112 69 113
REMARK H PARENT 26 5 16 10 23 38 31 44 93 63 59 74
REMARK Flexibility Score: inf
ROOT
ATOM      1  C   UNL A   1      34.597  29.835  27.336  1.00  0.00     0.116 C 
ENDROOT
BRANCH   1   2
ATOM      2  N   UNL A   1      33.572  30.683  26.753  1.00  0.00    -0.354 N 
ATOM      3  C   UNL A   1      32.481  30.340  26.004  1.00  0.00     0.242 C 
ATOM      4  O   UNL A   1      31.512  31.109  26.054  1.00  0.00    -0.273 OA
ATOM      5  H   UNL A   1      33.678  31.646  26.923  1.00  0.00     0.163 HD
BRANCH   3   6
ATOM      6  C   UNL A   1      32.377  29.029  25.183  1.00  0.00     0.177 C 
BRANCH   6   7
ATOM      7  N   UNL A   1      31.631  27.976  25.891  1.00  0.00    -0.337 N 
ATOM      8  C   UNL A   1      32.035  26.772  26.416  1.00  0.00     0.293 C 
ATOM      9  O   UNL A   1      31.264  26.181  27.165  1.00  0.00    -0.265 OA
ATOM     10  H   UNL A   1      30.673  28.167  26.008  1.00  0.00     0.164 HD
BRANCH   8  11
ATOM     11  C   UNL A   1      33.398  26.141  26.045  1.00  0.00     0.252 C 
ATOM     12  O   UNL A   1      34.427  26.712  26.391  1.00  0.00    -0.283 OA
BRANCH  11  13
ATOM     13  C   UNL A   1      33.495  24.912  25.242  1.00  0.00     0.054 A 
ATOM     14  N   UNL A   1      33.055  23.218  23.857  1.00  0.00    -0.240 N 
ATOM     15  C   UNL A   1      32.499  24.281  24.518  1.00  0.00     0.117 A 
ATOM     16  C   UNL A   1      34.400  23.099  24.141  1.00  0.00     0.065 A 
ATOM     17  C   UNL A   1      34.689  24.130  25.044  1.00  0.00     0.012 A 
ATOM     18  C   UNL A   1      35.383  22.185  23.719  1.00  0.00     0.028 A 
ATOM     19  C   UNL A   1      36.005  24.227  25.552  1.00  0.00     0.011 A 
ATOM     20  C   UNL A   1      36.671  22.305  24.248  1.00  0.00     0.002 A 
ATOM     21  C   UNL A   1      36.979  23.310  25.157  1.00  0.00     0.001 A 
BRANCH  14  22
ATOM     22  S   UNL A   1      32.177  22.160  22.855  1.00  0.00     0.268 S 
ATOM     23  O   UNL A   1      32.797  22.255  21.556  1.00  0.00    -0.201 OA
ATOM     24  O   UNL A   1      30.769  22.484  23.065  1.00  0.00    -0.201 OA
BRANCH  22  25
ATOM     25  C   UNL A   1      32.418  20.508  23.450  1.00  0.00     0.088 A 
ATOM     26  C   UNL A   1      32.682  16.584  25.186  1.00  0.00     0.044 C 
ATOM     27  C   UNL A   1      32.615  17.950  24.573  1.00  0.00    -0.051 A 
ATOM     28  C   UNL A   1      32.675  19.085  25.390  1.00  0.00     0.005 A 
ATOM     29  C   UNL A   1      32.496  18.112  23.186  1.00  0.00     0.005 A 
ATOM     30  C   UNL A   1      32.570  20.360  24.834  1.00  0.00     0.022 A 
ATOM     31  C   UNL A   1      32.410  19.387  22.621  1.00  0.00     0.022 A 
ENDBRANCH  22  25
ENDBRANCH  14  22
ENDBRANCH  11  13
ENDBRANCH   8  11
ENDBRANCH   6   7
BRANCH   6  32
ATOM     32  C   UNL A   1      31.957  29.216  23.709  1.00  0.00     0.090 C 
BRANCH  32  33
ATOM     33  C   UNL A   1      32.442  28.153  22.793  1.00  0.00     0.037 A 
ATOM     34  C   UNL A   1      33.695  27.606  22.611  1.00  0.00     0.134 A 
ATOM     35  N   UNL A   1      31.624  27.442  21.946  1.00  0.00    -0.348 N 
ATOM     36  N   UNL A   1      33.619  26.485  21.839  1.00  0.00    -0.245 NA
ATOM     37  C   UNL A   1      32.356  26.378  21.503  1.00  0.00     0.196 A 
ATOM     38  H   UNL A   1      30.693  27.658  21.707  1.00  0.00     0.167 HD
ENDBRANCH  32  33
ENDBRANCH   6  32
ENDBRANCH   3   6
ENDBRANCH   1   2
BRANCH   1  39
ATOM     39  C   UNL A   1      35.682  30.552  28.132  1.00  0.00     0.023 C 
BRANCH  39  40
ATOM     40  C   UNL A   1      35.938  32.001  27.740  1.00  0.00     0.023 C 
BRANCH  40  41
ATOM     41  C   UNL A   1      36.697  32.825  28.766  1.00  0.00     0.116 C 
BRANCH  41  42
ATOM     42  N   UNL A   1      36.117  32.936  30.094  1.00  0.00    -0.352 N 
ATOM     43  C   UNL A   1      36.398  32.023  31.113  1.00  0.00     0.251 C 
ATOM     44  H   UNL A   1      35.504  33.683  30.283  1.00  0.00     0.163 HD
ATOM     45  O   UNL A   1      35.538  31.487  31.798  1.00  0.00    -0.269 OA
BRANCH  43  46
ATOM     46  C   UNL A   1      37.837  31.807  31.405  1.00  0.00     0.039 A 
ATOM     47  C   UNL A   1      38.813  32.330  30.548  1.00  0.00     0.014 A 
ATOM     48  C   UNL A   1      38.188  30.909  32.407  1.00  0.00     0.014 A 
ATOM     49  C   UNL A   1      40.102  31.801  30.578  1.00  0.00     0.010 A 
ATOM     50  C   UNL A   1      39.396  30.276  32.336  1.00  0.00     0.010 A 
ATOM     51  C   UNL A   1      40.343  30.713  31.414  1.00  0.00    -0.014 A 
BRANCH  51  52
ATOM     52  C   UNL A   1      41.570  29.953  31.486  1.00  0.00     0.031 A 
ATOM     53  C   UNL A   1      41.646  28.709  30.696  1.00  0.00     0.074 A 
ATOM     54  C   UNL A   1      42.645  30.539  32.058  1.00  0.00     0.049 A 
ATOM     55  N   UNL A   1      42.444  27.741  30.965  1.00  0.00    -0.248 NA
ATOM     56  C   UNL A   1      40.797  28.444  29.530  1.00  0.00     0.031 C 
ATOM     57  C   UNL A   1      44.051  30.172  31.930  1.00  0.00     0.029 A 
ATOM     58  N   UNL A   1      42.701  31.597  32.958  1.00  0.00    -0.354 N 
ATOM     59  C   UNL A   1      42.455  26.910  29.866  1.00  0.00     0.074 A 
ATOM     60  C   UNL A   1      41.338  27.319  29.052  1.00  0.00     0.031 C 
ATOM     61  C   UNL A   1      44.740  30.748  32.934  1.00  0.00     0.029 A 
ATOM     62  C   UNL A   1      43.762  31.350  33.830  1.00  0.00     0.049 A 
ATOM     63  H   UNL A   1      42.101  32.376  32.976  1.00  0.00     0.167 HD
ATOM     64  C   UNL A   1      43.528  26.095  29.671  1.00  0.00     0.037 A 
ATOM     65  C   UNL A   1      43.607  31.000  35.146  1.00  0.00     0.037 A 
ATOM     66  C   UNL A   1      44.517  26.321  30.721  1.00  0.00     0.049 A 
ATOM     67  C   UNL A   1      44.151  29.610  35.426  1.00  0.00     0.074 A 
ATOM     68  C   UNL A   1      45.626  27.150  30.764  1.00  0.00     0.029 A 
ATOM     69  N   UNL A   1      44.220  25.986  32.036  1.00  0.00    -0.354 N 
ATOM     70  N   UNL A   1      44.243  28.675  34.519  1.00  0.00    -0.248 NA
ATOM     71  C   UNL A   1      44.657  29.174  36.725  1.00  0.00     0.031 C 
ATOM     72  C   UNL A   1      45.980  27.339  32.120  1.00  0.00     0.029 A 
ATOM     73  C   UNL A   1      45.087  26.625  32.901  1.00  0.00     0.049 A 
ATOM     74  H   UNL A   1      43.495  25.379  32.312  1.00  0.00     0.167 HD
ATOM     75  C   UNL A   1      44.797  27.548  35.070  1.00  0.00     0.074 A 
ATOM     76  C   UNL A   1      45.045  27.915  36.451  1.00  0.00     0.031 C 
ATOM     77  C   UNL A   1      45.008  26.413  34.337  1.00  0.00     0.037 A 
BRANCH  64  78
ATOM     78  C   UNL A   1      43.824  25.367  28.384  1.00  0.00     0.058 A 
ATOM     79  C   UNL A   1      43.224  24.116  28.119  1.00  0.00     0.135 A 
ATOM     80  C   UNL A   1      44.681  25.844  27.372  1.00  0.00     0.135 A 
ATOM     81  F   UNL A   1      42.357  23.554  28.969  1.00  0.00    -0.206 F 
ATOM     82  C   UNL A   1      43.493  23.371  26.975  1.00  0.00     0.059 A 
ATOM     83  C   UNL A   1      44.997  25.095  26.230  1.00  0.00     0.059 A 
ATOM     84  F   UNL A   1      45.218  27.071  27.438  1.00  0.00    -0.206 F 
ATOM     85  C   UNL A   1      44.392  23.859  26.040  1.00  0.00     0.060 A 
BRANCH  85  86
ATOM     86  S   UNL A   1      44.719  22.857  24.579  1.00  0.00     0.124 S 
ATOM     87  O   UNL A   1      45.135  21.587  25.167  1.00  0.00    -0.237 OA
ATOM     88  O   UNL A   1      43.419  22.853  23.918  1.00  0.00    -0.237 OA
ATOM     89  O   UNL A   1      45.773  23.595  23.890  1.00  0.00    -0.744 OA
ENDBRANCH  85  86
ENDBRANCH  64  78
BRANCH  65  90
ATOM     90  C   UNL A   1      42.393  31.578  35.794  1.00  0.00     0.058 A 
ATOM     91  C   UNL A   1      42.450  32.921  36.211  1.00  0.00     0.135 A 
ATOM     92  C   UNL A   1      41.125  31.025  35.569  1.00  0.00     0.135 A 
ATOM     93  F   UNL A   1      43.639  33.480  36.486  1.00  0.00    -0.206 F 
ATOM     94  C   UNL A   1      41.325  33.742  36.179  1.00  0.00     0.059 A 
ATOM     95  C   UNL A   1      39.984  31.828  35.542  1.00  0.00     0.059 A 
ATOM     96  F   UNL A   1      41.001  29.740  35.208  1.00  0.00    -0.206 F 
ATOM     97  C   UNL A   1      40.113  33.202  35.754  1.00  0.00     0.060 A 
BRANCH  97  98
ATOM     98  S   UNL A   1      38.774  34.336  35.297  1.00  0.00     0.124 S 
ATOM     99  O   UNL A   1      39.395  35.640  35.488  1.00  0.00    -0.237 OA
ATOM    100  O   UNL A   1      38.506  33.942  33.912  1.00  0.00    -0.237 OA
ATOM    101  O   UNL A   1      37.722  33.997  36.248  1.00  0.00    -0.744 OA
ENDBRANCH  97  98
ENDBRANCH  65  90
BRANCH  77 102
ATOM    102  C   UNL A   1      45.283  25.028  34.882  1.00  0.00     0.058 A 
ATOM    103  C   UNL A   1      44.291  24.162  35.367  1.00  0.00     0.135 A 
ATOM    104  C   UNL A   1      46.584  24.463  34.796  1.00  0.00     0.135 A 
ATOM    105  F   UNL A   1      42.997  24.508  35.377  1.00  0.00    -0.206 F 
ATOM    106  C   UNL A   1      44.578  22.876  35.826  1.00  0.00     0.059 A 
ATOM    107  C   UNL A   1      46.878  23.158  35.174  1.00  0.00     0.059 A 
ATOM    108  F   UNL A   1      47.631  25.155  34.322  1.00  0.00    -0.206 F 
ATOM    109  C   UNL A   1      45.874  22.385  35.730  1.00  0.00     0.060 A 
BRANCH 109 110
ATOM    110  S   UNL A   1      46.236  20.722  36.310  1.00  0.00     0.124 S 
ATOM    111  O   UNL A   1      46.035  20.872  37.748  1.00  0.00    -0.237 OA
ATOM    112  O   UNL A   1      45.236  19.918  35.614  1.00  0.00    -0.237 OA
ATOM    113  O   UNL A   1      47.614  20.505  35.882  1.00  0.00    -0.744 OA
ENDBRANCH 109 110
ENDBRANCH  77 102
ENDBRANCH  51  52
ENDBRANCH  43  46
ENDBRANCH  41  42
ENDBRANCH  40  41
ENDBRANCH  39  40
ENDBRANCH   1  39
TORSDOF 21
ENDMDL
MODEL 2
REMARK VINA RESULT:     -11.0      5.185     10.534
REMARK SMILES Cc1ccc(S(=O)(=O)n2cc(C(=O)C(=O)N[C@@H](Cc3cnc[nH]3)C(=O)NCCCCNC(=O)c3ccc(-c4c5nc(c(-c6c(F)cc(S(=O)(=O)[O-])cc6F)c6ccc([nH]6)c(-c6c(F)cc(S(=O)(=O)[O-])cc6F)c6nc(c(-c7c(F)cc(S(=O)(=O)[O-])cc7F)c7ccc4[nH]7)C=C6)C=C5)cc3)c3ccccc32)cc1
REMARK SMILES IDX 27 1 26 2 24 3 25 4 17 6 16 7 14 8 15 9 12 11 13 12 11 13
REMARK SMILES IDX 9 14 10 15 105 16 100 17 104 18 101 19 103 20 102 21 6 22
REMARK SMILES IDX 7 23 8 24 5 25 1 26 2 27 3 28 107 29 4 30 106 31 18 32 19 33
REMARK SMILES IDX 20 34 23 35 21 36 22 37 28 39 29 40 30 41 31 42 32 43 33 45
REMARK SMILES IDX 34 46 35 47 99 48 36 49 98 50 37 51 38 52 39 53 92 54 40 55
REMARK SMILES IDX 97 56 91 57 93 58 41 59 96 60 90 61 89 62 42 64 76 65 55 66
REMARK SMILES IDX 75 67 56 68 59 69 74 70 94 71 57 72 58 73 73 75 95 76 60 77
REMARK SMILES IDX 43 78 44 79 53 80 45 81 46 82 52 83 54 84 47 85 48 86 49 87
REMARK SMILES IDX 50 88 51 89 77 90 78 91 87 92 79 93 80 94 86 95 88 96 81 97
REMARK SMILES IDX 82 98 83 99 84 100 85 101 61 102 62 103 71 104 63 105 64 106
REMARK SMILES IDX 70 107 72 108 65 109 66 110 67 111 68 112 69 113
REMARK H PARENT 26 5 16 10 23 38 31 44 93 63 59 74
REMARK Flexibility Score: inf
ROOT
ATOM      1  C   UNL A   1      39.030  34.195  28.981  1.00  0.00     0.116 C 
ENDROOT
BRANCH   1   2
ATOM      2  N   UNL A   1      40.217  34.260  29.816  1.00  0.00    -0.354 N 
ATOM      3  C   UNL A   1      41.450  34.781  29.538  1.00  0.00     0.242 C 
ATOM      4  O   UNL A   1      42.109  35.188  30.503  1.00  0.00    -0.273 OA
ATOM      5  H   UNL A   1      40.118  33.873  30.715  1.00  0.00     0.163 HD
BRANCH   3   6
ATOM      6  C   UNL A   1      42.007  34.956  28.101  1.00  0.00     0.177 C 
BRANCH   6   7
ATOM      7  N   UNL A   1      41.515  36.180  27.448  1.00  0.00    -0.337 N 
ATOM      8  C   UNL A   1      42.092  37.415  27.278  1.00  0.00     0.293 C 
ATOM      9  O   UNL A   1      41.566  38.195  26.491  1.00  0.00    -0.265 OA
ATOM     10  H   UNL A   1      40.611  36.099  27.067  1.00  0.00     0.164 HD
BRANCH   8  11
ATOM     11  C   UNL A   1      43.341  37.845  28.085  1.00  0.00     0.252 C 
ATOM     12  O   UNL A   1      43.238  37.994  29.298  1.00  0.00    -0.283 OA
BRANCH  11  13
ATOM     13  C   UNL A   1      44.627  38.134  27.432  1.00  0.00     0.054 A 
ATOM     14  N   UNL A   1      46.705  37.983  26.632  1.00  0.00    -0.240 N 
ATOM     15  C   UNL A   1      45.783  37.373  27.440  1.00  0.00     0.117 A 
ATOM     16  C   UNL A   1      46.210  39.155  26.100  1.00  0.00     0.065 A 
ATOM     17  C   UNL A   1      44.917  39.291  26.624  1.00  0.00     0.012 A 
ATOM     18  C   UNL A   1      46.764  40.117  25.236  1.00  0.00     0.028 A 
ATOM     19  C   UNL A   1      44.173  40.444  26.282  1.00  0.00     0.011 A 
ATOM     20  C   UNL A   1      46.004  41.248  24.926  1.00  0.00     0.002 A 
ATOM     21  C   UNL A   1      44.726  41.414  25.445  1.00  0.00     0.001 A 
BRANCH  14  22
ATOM     22  S   UNL A   1      48.275  37.384  26.366  1.00  0.00     0.268 S 
ATOM     23  O   UNL A   1      49.122  38.098  27.289  1.00  0.00    -0.201 OA
ATOM     24  O   UNL A   1      48.487  37.438  24.923  1.00  0.00    -0.201 OA
BRANCH  22  25
ATOM     25  C   UNL A   1      48.298  35.671  26.823  1.00  0.00     0.088 A 
ATOM     26  C   UNL A   1      48.127  31.634  28.292  1.00  0.00     0.044 C 
ATOM     27  C   UNL A   1      48.209  33.036  27.766  1.00  0.00    -0.051 A 
ATOM     28  C   UNL A   1      48.669  34.066  28.595  1.00  0.00     0.005 A 
ATOM     29  C   UNL A   1      47.832  33.334  26.450  1.00  0.00     0.005 A 
ATOM     30  C   UNL A   1      48.708  35.380  28.129  1.00  0.00     0.022 A 
ATOM     31  C   UNL A   1      47.887  34.646  25.971  1.00  0.00     0.022 A 
ENDBRANCH  22  25
ENDBRANCH  14  22
ENDBRANCH  11  13
ENDBRANCH   8  11
ENDBRANCH   6   7
BRANCH   6  32
ATOM     32  C   UNL A   1      43.529  34.737  27.964  1.00  0.00     0.090 C 
BRANCH  32  33
ATOM     33  C   UNL A   1      43.950  34.148  26.668  1.00  0.00     0.037 A 
ATOM     34  C   UNL A   1      44.073  32.837  26.257  1.00  0.00     0.134 A 
ATOM     35  N   UNL A   1      44.253  34.894  25.552  1.00  0.00    -0.348 N 
ATOM     36  N   UNL A   1      44.249  32.774  24.907  1.00  0.00    -0.245 NA
ATOM     37  C   UNL A   1      44.295  34.021  24.503  1.00  0.00     0.196 A 
ATOM     38  H   UNL A   1      44.409  35.865  25.517  1.00  0.00     0.167 HD
ENDBRANCH  32  33
ENDBRANCH   6  32
ENDBRANCH   3   6
ENDBRANCH   1   2
BRANCH   1  39
ATOM     39  C   UNL A   1      37.760  33.702  29.666  1.00  0.00     0.023 C 
BRANCH  39  40
ATOM     40  C   UNL A   1      37.019  32.579  28.953  1.00  0.00     0.023 C 
BRANCH  40  41
ATOM     41  C   UNL A   1      36.113  31.738  29.836  1.00  0.00     0.116 C 
BRANCH  41  42
ATOM     42  N   UNL A   1      35.732  30.425  29.344  1.00  0.00    -0.352 N 
ATOM     43  C   UNL A   1      36.426  29.778  28.320  1.00  0.00     0.251 C 
ATOM     44  H   UNL A   1      34.955  29.974  29.749  1.00  0.00     0.163 HD
ATOM     45  O   UNL A   1      35.881  29.272  27.347  1.00  0.00    -0.269 OA
BRANCH  43  46
ATOM     46  C   UNL A   1      37.888  29.633  28.525  1.00  0.00     0.039 A 
ATOM     47  C   UNL A   1      38.755  29.640  27.425  1.00  0.00     0.014 A 
ATOM     48  C   UNL A   1      38.355  29.280  29.786  1.00  0.00     0.014 A 
ATOM     49  C   UNL A   1      40.035  29.106  27.562  1.00  0.00     0.010 A 
ATOM     50  C   UNL A   1      39.542  28.612  29.891  1.00  0.00     0.010 A 
ATOM     51  C   UNL A   1      40.371  28.515  28.777  1.00  0.00    -0.014 A 
BRANCH  51  52
ATOM     52  C   UNL A   1      41.594  27.800  29.065  1.00  0.00     0.031 A 
ATOM     53  C   UNL A   1      41.672  26.389  28.640  1.00  0.00     0.074 A 
ATOM     54  C   UNL A   1      42.666  28.516  29.469  1.00  0.00     0.049 A 
ATOM     55  N   UNL A   1      42.461  25.527  29.169  1.00  0.00    -0.248 NA
ATOM     56  C   UNL A   1      40.833  25.821  27.580  1.00  0.00     0.031 C 
ATOM     57  C   UNL A   1      44.071  28.126  29.459  1.00  0.00     0.029 A 
ATOM     58  N   UNL A   1      42.717  29.777  30.050  1.00  0.00    -0.354 N 
ATOM     59  C   UNL A   1      42.480  24.431  28.335  1.00  0.00     0.074 A 
ATOM     60  C   UNL A   1      41.373  24.608  27.429  1.00  0.00     0.031 C 
ATOM     61  C   UNL A   1      44.753  28.951  30.279  1.00  0.00     0.029 A 
ATOM     62  C   UNL A   1      43.769  29.773  30.968  1.00  0.00     0.049 A 
ATOM     63  H   UNL A   1      42.121  30.534  29.851  1.00  0.00     0.167 HD
ATOM     64  C   UNL A   1      43.551  23.592  28.379  1.00  0.00     0.037 A 
ATOM     65  C   UNL A   1      43.599  29.792  32.328  1.00  0.00     0.037 A 
ATOM     66  C   UNL A   1      44.530  24.090  29.339  1.00  0.00     0.049 A 
ATOM     67  C   UNL A   1      44.133  28.528  32.979  1.00  0.00     0.074 A 
ATOM     68  C   UNL A   1      45.643  24.898  29.169  1.00  0.00     0.029 A 
ATOM     69  N   UNL A   1      44.219  24.123  30.693  1.00  0.00    -0.354 N 
ATOM     70  N   UNL A   1      44.230  27.383  32.358  1.00  0.00    -0.248 NA
ATOM     71  C   UNL A   1      44.625  28.457  34.353  1.00  0.00     0.031 C 
ATOM     72  C   UNL A   1      45.985  25.445  30.428  1.00  0.00     0.029 A 
ATOM     73  C   UNL A   1      45.081  24.970  31.363  1.00  0.00     0.049 A 
ATOM     74  H   UNL A   1      43.489  23.615  31.115  1.00  0.00     0.167 HD
ATOM     75  C   UNL A   1      44.773  26.445  33.199  1.00  0.00     0.074 A 
ATOM     76  C   UNL A   1      45.010  27.170  34.432  1.00  0.00     0.031 C 
ATOM     77  C   UNL A   1      44.986  25.153  32.802  1.00  0.00     0.037 A 
BRANCH  64  78
ATOM     78  C   UNL A   1      43.856  22.543  27.339  1.00  0.00     0.058 A 
ATOM     79  C   UNL A   1      45.040  22.621  26.573  1.00  0.00     0.135 A 
ATOM     80  C   UNL A   1      43.031  21.437  27.051  1.00  0.00     0.135 A 
ATOM     81  F   UNL A   1      45.941  23.593  26.761  1.00  0.00    -0.206 F 
ATOM     82  C   UNL A   1      45.355  21.714  25.566  1.00  0.00     0.059 A 
ATOM     83  C   UNL A   1      43.307  20.533  26.016  1.00  0.00     0.059 A 
ATOM     84  F   UNL A   1      41.940  21.174  27.786  1.00  0.00    -0.206 F 
ATOM     85  C   UNL A   1      44.478  20.679  25.282  1.00  0.00     0.060 A 
BRANCH  85  86
ATOM     86  S   UNL A   1      44.920  19.534  23.963  1.00  0.00     0.124 S 
ATOM     87  O   UNL A   1      46.363  19.399  24.148  1.00  0.00    -0.237 OA
ATOM     88  O   UNL A   1      44.125  18.360  24.304  1.00  0.00    -0.237 OA
ATOM     89  O   UNL A   1      44.514  20.239  22.751  1.00  0.00    -0.744 OA
ENDBRANCH  85  86
ENDBRANCH  64  78
BRANCH  65  90
ATOM     90  C   UNL A   1      42.382  30.525  32.783  1.00  0.00     0.058 A 
ATOM     91  C   UNL A   1      41.265  29.763  33.172  1.00  0.00     0.135 A 
ATOM     92  C   UNL A   1      42.473  31.834  33.277  1.00  0.00     0.135 A 
ATOM     93  F   UNL A   1      41.109  28.521  32.685  1.00  0.00    -0.206 F 
ATOM     94  C   UNL A   1      40.405  30.190  34.181  1.00  0.00     0.059 A 
ATOM     95  C   UNL A   1      41.616  32.285  34.282  1.00  0.00     0.059 A 
ATOM     96  F   UNL A   1      43.492  32.625  32.915  1.00  0.00    -0.206 F 
ATOM     97  C   UNL A   1      40.648  31.419  34.792  1.00  0.00     0.060 A 
BRANCH  97  98
ATOM     98  S   UNL A   1      39.824  31.779  36.367  1.00  0.00     0.124 S 
ATOM     99  O   UNL A   1      40.917  31.663  37.322  1.00  0.00    -0.237 OA
ATOM    100  O   UNL A   1      39.307  33.130  36.133  1.00  0.00    -0.237 OA
ATOM    101  O   UNL A   1      38.807  30.737  36.447  1.00  0.00    -0.744 OA
ENDBRANCH  97  98
ENDBRANCH  65  90
BRANCH  77 102
ATOM    102  C   UNL A   1      45.250  23.966  33.703  1.00  0.00     0.058 A 
ATOM    103  C   UNL A   1      44.276  23.023  34.066  1.00  0.00     0.135 A 
ATOM    104  C   UNL A   1      46.571  23.659  34.126  1.00  0.00     0.135 A 
ATOM    105  F   UNL A   1      43.015  23.107  33.623  1.00  0.00    -0.206 F 
ATOM    106  C   UNL A   1      44.565  21.918  34.867  1.00  0.00     0.059 A 
ATOM    107  C   UNL A   1      46.895  22.523  34.859  1.00  0.00     0.059 A 
ATOM    108  F   UNL A   1      47.615  24.448  33.829  1.00  0.00    -0.206 F 
ATOM    109  C   UNL A   1      45.876  21.680  35.263  1.00  0.00     0.060 A 
BRANCH 109 110
ATOM    110  S   UNL A   1      46.245  20.248  36.285  1.00  0.00     0.124 S 
ATOM    111  O   UNL A   1      47.704  20.228  36.233  1.00  0.00    -0.237 OA
ATOM    112  O   UNL A   1      45.664  20.618  37.573  1.00  0.00    -0.237 OA
ATOM    113  O   UNL A   1      45.572  19.154  35.592  1.00  0.00    -0.744 OA
ENDBRANCH 109 110
ENDBRANCH  77 102
ENDBRANCH  51  52
ENDBRANCH  43  46
ENDBRANCH  41  42
ENDBRANCH  40  41
ENDBRANCH  39  40
ENDBRANCH   1  39
TORSDOF 21
ENDMDL
MODEL 3
REMARK VINA RESULT:     -10.7      6.233     11.105
REMARK SMILES Cc1ccc(S(=O)(=O)n2cc(C(=O)C(=O)N[C@@H](Cc3cnc[nH]3)C(=O)NCCCCNC(=O)c3ccc(-c4c5nc(c(-c6c(F)cc(S(=O)(=O)[O-])cc6F)c6ccc([nH]6)c(-c6c(F)cc(S(=O)(=O)[O-])cc6F)c6nc(c(-c7c(F)cc(S(=O)(=O)[O-])cc7F)c7ccc4[nH]7)C=C6)C=C5)cc3)c3ccccc32)cc1
REMARK SMILES IDX 27 1 26 2 24 3 25 4 17 6 16 7 14 8 15 9 12 11 13 12 11 13
REMARK SMILES IDX 9 14 10 15 105 16 100 17 104 18 101 19 103 20 102 21 6 22
REMARK SMILES IDX 7 23 8 24 5 25 1 26 2 27 3 28 107 29 4 30 106 31 18 32 19 33
REMARK SMILES IDX 20 34 23 35 21 36 22 37 28 39 29 40 30 41 31 42 32 43 33 45
REMARK SMILES IDX 34 46 35 47 99 48 36 49 98 50 37 51 38 52 39 53 92 54 40 55
REMARK SMILES IDX 97 56 91 57 93 58 41 59 96 60 90 61 89 62 42 64 76 65 55 66
REMARK SMILES IDX 75 67 56 68 59 69 74 70 94 71 57 72 58 73 73 75 95 76 60 77
REMARK SMILES IDX 43 78 44 79 53 80 45 81 46 82 52 83 54 84 47 85 48 86 49 87
REMARK SMILES IDX 50 88 51 89 77 90 78 91 87 92 79 93 80 94 86 95 88 96 81 97
REMARK SMILES IDX 82 98 83 99 84 100 85 101 61 102 62 103 71 104 63 105 64 106
REMARK SMILES IDX 70 107 72 108 65 109 66 110 67 111 68 112 69 113
REMARK H PARENT 26 5 16 10 23 38 31 44 93 63 59 74
REMARK Flexibility Score: inf
ROOT
ATOM      1  C   UNL A   1      41.124  28.489  33.741  1.00  0.00     0.116 C 
ENDROOT
BRANCH   1   2
ATOM      2  N   UNL A   1      42.492  28.688  34.187  1.00  0.00    -0.354 N 
ATOM      3  C   UNL A   1      43.620  27.980  33.877  1.00  0.00     0.242 C 
ATOM      4  O   UNL A   1      44.693  28.595  33.936  1.00  0.00    -0.273 OA
ATOM      5  H   UNL A   1      42.627  29.443  34.803  1.00  0.00     0.163 HD
BRANCH   3   6
ATOM      6  C   UNL A   1      43.606  26.508  33.390  1.00  0.00     0.177 C 
BRANCH   6   7
ATOM      7  N   UNL A   1      44.893  26.093  32.808  1.00  0.00    -0.337 N 
ATOM      8  C   UNL A   1      45.531  26.469  31.651  1.00  0.00     0.293 C 
ATOM      9  O   UNL A   1      46.707  26.150  31.510  1.00  0.00    -0.265 OA
ATOM     10  H   UNL A   1      45.381  25.425  33.341  1.00  0.00     0.164 HD
BRANCH   8  11
ATOM     11  C   UNL A   1      44.790  27.232  30.527  1.00  0.00     0.252 C 
ATOM     12  O   UNL A   1      45.139  28.378  30.262  1.00  0.00    -0.283 OA
BRANCH  11  13
ATOM     13  C   UNL A   1      43.647  26.646  29.810  1.00  0.00     0.054 A 
ATOM     14  N   UNL A   1      41.783  26.367  28.616  1.00  0.00    -0.240 N 
ATOM     15  C   UNL A   1      42.556  27.295  29.261  1.00  0.00     0.117 A 
ATOM     16  C   UNL A   1      42.312  25.099  28.740  1.00  0.00     0.065 A 
ATOM     17  C   UNL A   1      43.465  25.245  29.524  1.00  0.00     0.012 A 
ATOM     18  C   UNL A   1      41.891  23.842  28.269  1.00  0.00     0.028 A 
ATOM     19  C   UNL A   1      44.200  24.085  29.858  1.00  0.00     0.011 A 
ATOM     20  C   UNL A   1      42.637  22.715  28.626  1.00  0.00     0.002 A 
ATOM     21  C   UNL A   1      43.775  22.832  29.415  1.00  0.00     0.001 A 
BRANCH  14  22
ATOM     22  S   UNL A   1      40.331  26.737  27.809  1.00  0.00     0.268 S 
ATOM     23  O   UNL A   1      39.517  25.552  27.916  1.00  0.00    -0.201 OA
ATOM     24  O   UNL A   1      40.721  27.294  26.517  1.00  0.00    -0.201 OA
BRANCH  22  25
ATOM     25  C   UNL A   1      39.518  28.034  28.702  1.00  0.00     0.088 A 
ATOM     26  C   UNL A   1      37.765  31.041  31.226  1.00  0.00     0.044 C 
ATOM     27  C   UNL A   1      38.355  29.994  30.329  1.00  0.00    -0.051 A 
ATOM     28  C   UNL A   1      38.312  28.647  30.708  1.00  0.00     0.005 A 
ATOM     29  C   UNL A   1      38.952  30.343  29.110  1.00  0.00     0.005 A 
ATOM     30  C   UNL A   1      38.896  27.671  29.902  1.00  0.00     0.022 A 
ATOM     31  C   UNL A   1      39.522  29.367  28.289  1.00  0.00     0.022 A 
ENDBRANCH  22  25
ENDBRANCH  14  22
ENDBRANCH  11  13
ENDBRANCH   8  11
ENDBRANCH   6   7
BRANCH   6  32
ATOM     32  C   UNL A   1      43.013  25.496  34.394  1.00  0.00     0.090 C 
BRANCH  32  33
ATOM     33  C   UNL A   1      43.570  25.596  35.767  1.00  0.00     0.037 A 
ATOM     34  C   UNL A   1      44.829  25.328  36.263  1.00  0.00     0.134 A 
ATOM     35  N   UNL A   1      42.863  26.072  36.846  1.00  0.00    -0.348 N 
ATOM     36  N   UNL A   1      44.951  25.801  37.536  1.00  0.00    -0.245 NA
ATOM     37  C   UNL A   1      43.774  26.294  37.838  1.00  0.00     0.196 A 
ATOM     38  H   UNL A   1      41.891  26.224  36.894  1.00  0.00     0.167 HD
ENDBRANCH  32  33
ENDBRANCH   6  32
ENDBRANCH   3   6
ENDBRANCH   1   2
BRANCH   1  39
ATOM     39  C   UNL A   1      40.233  29.727  33.754  1.00  0.00     0.023 C 
BRANCH  39  40
ATOM     40  C   UNL A   1      40.938  31.050  33.480  1.00  0.00     0.023 C 
BRANCH  40  41
ATOM     41  C   UNL A   1      40.779  32.104  34.562  1.00  0.00     0.116 C 
BRANCH  41  42
ATOM     42  N   UNL A   1      39.531  32.848  34.592  1.00  0.00    -0.352 N 
ATOM     43  C   UNL A   1      39.458  34.203  34.264  1.00  0.00     0.251 C 
ATOM     44  H   UNL A   1      38.705  32.378  34.853  1.00  0.00     0.163 HD
ATOM     45  O   UNL A   1      38.890  35.038  34.956  1.00  0.00    -0.269 OA
BRANCH  43  46
ATOM     46  C   UNL A   1      40.025  34.577  32.945  1.00  0.00     0.039 A 
ATOM     47  C   UNL A   1      39.296  34.337  31.774  1.00  0.00     0.014 A 
ATOM     48  C   UNL A   1      41.359  34.964  32.877  1.00  0.00     0.014 A 
ATOM     49  C   UNL A   1      39.964  34.298  30.551  1.00  0.00     0.010 A 
ATOM     50  C   UNL A   1      42.047  34.771  31.713  1.00  0.00     0.010 A 
ATOM     51  C   UNL A   1      41.351  34.426  30.558  1.00  0.00    -0.014 A 
BRANCH  51  52
ATOM     52  C   UNL A   1      42.222  34.284  29.414  1.00  0.00     0.031 A 
ATOM     53  C   UNL A   1      42.970  33.018  29.283  1.00  0.00     0.074 A 
ATOM     54  C   UNL A   1      42.115  35.191  28.419  1.00  0.00     0.049 A 
ATOM     55  N   UNL A   1      44.055  32.897  28.609  1.00  0.00    -0.248 NA
ATOM     56  C   UNL A   1      42.557  31.770  29.931  1.00  0.00     0.031 C 
ATOM     57  C   UNL A   1      42.574  35.081  27.039  1.00  0.00     0.029 A 
ATOM     58  N   UNL A   1      41.599  36.481  28.452  1.00  0.00    -0.354 N 
ATOM     59  C   UNL A   1      44.290  31.547  28.461  1.00  0.00     0.074 A 
ATOM     60  C   UNL A   1      43.406  30.891  29.390  1.00  0.00     0.031 C 
ATOM     61  C   UNL A   1      42.617  36.315  26.499  1.00  0.00     0.029 A 
ATOM     62  C   UNL A   1      42.358  37.259  27.577  1.00  0.00     0.049 A 
ATOM     63  H   UNL A   1      40.837  36.789  28.995  1.00  0.00     0.167 HD
ATOM     64  C   UNL A   1      45.068  31.128  27.425  1.00  0.00     0.037 A 
ATOM     65  C   UNL A   1      43.241  38.227  27.981  1.00  0.00     0.037 A 
ATOM     66  C   UNL A   1      45.482  32.274  26.622  1.00  0.00     0.049 A 
ATOM     67  C   UNL A   1      44.668  37.886  27.586  1.00  0.00     0.074 A 
ATOM     68  C   UNL A   1      44.925  32.838  25.485  1.00  0.00     0.029 A 
ATOM     69  N   UNL A   1      46.332  33.230  27.164  1.00  0.00    -0.354 N 
ATOM     70  N   UNL A   1      45.092  36.666  27.398  1.00  0.00    -0.248 NA
ATOM     71  C   UNL A   1      45.711  38.880  27.343  1.00  0.00     0.031 C 
ATOM     72  C   UNL A   1      45.422  34.156  25.361  1.00  0.00     0.029 A 
ATOM     73  C   UNL A   1      46.281  34.393  26.420  1.00  0.00     0.049 A 
ATOM     74  H   UNL A   1      46.891  33.096  27.963  1.00  0.00     0.167 HD
ATOM     75  C   UNL A   1      46.411  36.686  27.023  1.00  0.00     0.074 A 
ATOM     76  C   UNL A   1      46.748  38.097  26.995  1.00  0.00     0.031 C 
ATOM     77  C   UNL A   1      47.108  35.539  26.762  1.00  0.00     0.037 A 
BRANCH  64  78
ATOM     78  C   UNL A   1      45.167  29.697  26.958  1.00  0.00     0.058 A 
ATOM     79  C   UNL A   1      44.025  29.027  26.466  1.00  0.00     0.135 A 
ATOM     80  C   UNL A   1      46.351  28.932  26.965  1.00  0.00     0.135 A 
ATOM     81  F   UNL A   1      42.838  29.636  26.362  1.00  0.00    -0.206 F 
ATOM     82  C   UNL A   1      44.039  27.694  26.066  1.00  0.00     0.059 A 
ATOM     83  C   UNL A   1      46.381  27.578  26.604  1.00  0.00     0.059 A 
ATOM     84  F   UNL A   1      47.530  29.482  27.290  1.00  0.00    -0.206 F 
ATOM     85  C   UNL A   1      45.217  26.970  26.151  1.00  0.00     0.060 A 
BRANCH  85  86
ATOM     86  S   UNL A   1      45.188  25.244  25.634  1.00  0.00     0.124 S 
ATOM     87  O   UNL A   1      43.816  25.093  25.155  1.00  0.00    -0.237 OA
ATOM     88  O   UNL A   1      46.223  25.219  24.608  1.00  0.00    -0.237 OA
ATOM     89  O   UNL A   1      45.499  24.517  26.861  1.00  0.00    -0.744 OA
ENDBRANCH  85  86
ENDBRANCH  64  78
BRANCH  65  90
ATOM     90  C   UNL A   1      42.858  38.914  29.249  1.00  0.00     0.058 A 
ATOM     91  C   UNL A   1      43.571  38.582  30.415  1.00  0.00     0.135 A 
ATOM     92  C   UNL A   1      42.200  40.152  29.226  1.00  0.00     0.135 A 
ATOM     93  F   UNL A   1      44.177  37.386  30.504  1.00  0.00    -0.206 F 
ATOM     94  C   UNL A   1      43.815  39.522  31.414  1.00  0.00     0.059 A 
ATOM     95  C   UNL A   1      42.423  41.105  30.221  1.00  0.00     0.059 A 
ATOM     96  F   UNL A   1      41.472  40.512  28.159  1.00  0.00    -0.206 F 
ATOM     97  C   UNL A   1      43.308  40.810  31.259  1.00  0.00     0.060 A 
BRANCH  97  98
ATOM     98  S   UNL A   1      43.973  42.132  32.308  1.00  0.00     0.124 S 
ATOM     99  O   UNL A   1      42.900  42.330  33.273  1.00  0.00    -0.237 OA
ATOM    100  O   UNL A   1      45.201  41.519  32.821  1.00  0.00    -0.237 OA
ATOM    101  O   UNL A   1      44.178  43.224  31.365  1.00  0.00    -0.744 OA
ENDBRANCH  97  98
ENDBRANCH  65  90
BRANCH  77 102
ATOM    102  C   UNL A   1      48.613  35.399  26.676  1.00  0.00     0.058 A 
ATOM    103  C   UNL A   1      49.332  35.363  25.471  1.00  0.00     0.135 A 
ATOM    104  C   UNL A   1      49.411  35.442  27.851  1.00  0.00     0.135 A 
ATOM    105  F   UNL A   1      48.720  35.458  24.283  1.00  0.00    -0.206 F 
ATOM    106  C   UNL A   1      50.723  35.274  25.432  1.00  0.00     0.059 A 
ATOM    107  C   UNL A   1      50.801  35.431  27.832  1.00  0.00     0.059 A 
ATOM    108  F   UNL A   1      48.870  35.510  29.076  1.00  0.00    -0.206 F 
ATOM    109  C   UNL A   1      51.449  35.303  26.617  1.00  0.00     0.060 A 
BRANCH 109 110
ATOM    110  S   UNL A   1      53.242  35.200  26.559  1.00  0.00     0.124 S 
ATOM    111  O   UNL A   1      53.437  34.162  25.552  1.00  0.00    -0.237 OA
ATOM    112  O   UNL A   1      53.626  36.550  26.157  1.00  0.00    -0.237 OA
ATOM    113  O   UNL A   1      53.605  34.833  27.924  1.00  0.00    -0.744 OA
ENDBRANCH 109 110
ENDBRANCH  77 102
ENDBRANCH  51  52
ENDBRANCH  43  46
ENDBRANCH  41  42
ENDBRANCH  40  41
ENDBRANCH  39  40
ENDBRANCH   1  39
TORSDOF 21
ENDMDL
