MODEL 1
REMARK VINA RESULT:     -10.2      0.000      0.000
REMARK SMILES NS(=O)(=O)c1ccc(-n2nc(NC(=O)NCCCCCCCCCCC(=O)NCCCCNC(=O)c3ccc(-c4c5nc(c(-c6c(F)cc(S(=O)(=O)[O-])cc6F)c6ccc([nH]6)c(-c6c(F)cc(S(=O)(=O)[O-])cc6F)c6nc(c(-c7c(F)cc(S(=O)(=O)[O-])cc7F)c7ccc4[nH]7)C=C6)C=C5)cc3)cc2-c2ccccc2)cc1
REMARK SMILES IDX 23 1 22 2 21 3 20 4 19 5 18 6 17 7 16 8 15 9 12 10 13 11
REMARK SMILES IDX 14 13 11 15 9 16 10 17 103 18 102 19 8 20 5 21 6 22 111 23
REMARK SMILES IDX 7 24 110 25 2 26 3 27 4 28 1 29 104 32 105 33 109 34 106 35
REMARK SMILES IDX 108 36 107 37 24 38 25 39 26 40 27 41 28 42 29 44 30 45
REMARK SMILES IDX 31 46 32 47 33 48 34 49 35 51 36 52 37 53 101 54 38 55
REMARK SMILES IDX 100 56 39 57 40 58 41 59 94 60 42 61 99 62 93 63 95 64 43 65
REMARK SMILES IDX 98 66 92 67 91 68 44 70 78 71 57 72 77 73 58 74 61 75 76 76
REMARK SMILES IDX 96 77 59 78 60 79 75 81 97 82 62 83 45 84 46 85 55 86 47 87
REMARK SMILES IDX 48 88 54 89 56 90 49 91 50 92 51 93 52 94 53 95 79 96 80 97
REMARK SMILES IDX 89 98 81 99 82 100 88 101 90 102 83 103 84 104 85 105 86 106
REMARK SMILES IDX 87 107 63 108 64 109 73 110 65 111 66 112 72 113 74 114
REMARK SMILES IDX 67 115 68 116 69 117 70 118 71 119
REMARK H PARENT 12 12 15 14 1 30 1 31 28 43 33 50 95 69 61 80
REMARK Flexibility Score: inf
ROOT
ATOM      1  C   UNL A   1      32.397  21.634  23.789  1.00  0.00     0.001 C 
ENDROOT
BRANCH   1   2
ATOM      2  C   UNL A   1      31.209  22.461  23.285  1.00  0.00     0.000 C 
BRANCH   2   3
ATOM      3  C   UNL A   1      31.408  23.952  23.466  1.00  0.00     0.000 C 
BRANCH   3   4
ATOM      4  C   UNL A   1      30.114  24.754  23.418  1.00  0.00     0.000 C 
BRANCH   4   5
ATOM      5  C   UNL A   1      29.780  25.596  24.654  1.00  0.00     0.000 C 
BRANCH   5   6
ATOM      6  C   UNL A   1      28.510  26.449  24.573  1.00  0.00     0.002 C 
BRANCH   6   7
ATOM      7  C   UNL A   1      28.321  27.279  23.304  1.00  0.00     0.021 C 
BRANCH   7   8
ATOM      8  C   UNL A   1      27.585  28.599  23.462  1.00  0.00     0.117 C 
BRANCH   8   9
ATOM      9  N   UNL A   1      27.365  29.368  22.265  1.00  0.00    -0.338 N 
ATOM     10  N   UNL A   1      29.401  30.605  22.176  1.00  0.00    -0.291 N 
ATOM     11  C   UNL A   1      28.181  30.278  21.686  1.00  0.00     0.320 C 
ATOM     12  H   UNL A   1      29.715  31.495  21.896  1.00  0.00     0.173 HD
ATOM     13  O   UNL A   1      27.740  30.928  20.733  1.00  0.00    -0.248 OA
ATOM     14  H   UNL A   1      26.508  29.209  21.807  1.00  0.00     0.165 HD
BRANCH  10  15
ATOM     15  C   UNL A   1      30.286  29.932  22.990  1.00  0.00     0.157 A 
ATOM     16  N   UNL A   1      31.700  29.556  24.523  1.00  0.00    -0.231 N 
ATOM     17  N   UNL A   1      30.554  30.221  24.266  1.00  0.00    -0.149 NA
ATOM     18  C   UNL A   1      31.883  28.510  23.628  1.00  0.00     0.076 A 
ATOM     19  C   UNL A   1      31.007  28.778  22.593  1.00  0.00     0.078 A 
BRANCH  16  20
ATOM     20  C   UNL A   1      32.580  29.990  25.553  1.00  0.00     0.065 A 
ATOM     21  C   UNL A   1      34.299  30.800  27.594  1.00  0.00     0.082 A 
ATOM     22  C   UNL A   1      34.755  29.900  26.630  1.00  0.00     0.024 A 
ATOM     23  C   UNL A   1      32.996  31.311  27.534  1.00  0.00     0.024 A 
ATOM     24  C   UNL A   1      33.890  29.486  25.616  1.00  0.00     0.030 A 
ATOM     25  C   UNL A   1      32.142  30.926  26.495  1.00  0.00     0.030 A 
BRANCH  21  26
ATOM     26  S   UNL A   1      35.348  31.293  28.930  1.00  0.00     0.238 S 
ATOM     27  O   UNL A   1      36.224  32.337  28.468  1.00  0.00    -0.207 OA
ATOM     28  O   UNL A   1      35.820  30.104  29.606  1.00  0.00    -0.207 OA
BRANCH  26  29
ATOM     29  N   UNL A   1      34.305  32.047  30.015  1.00  0.00    -0.225 NA
ATOM     30  H   UNL A   1      34.846  32.461  30.775  1.00  0.00     0.137 HD
ATOM     31  H   UNL A   1      33.656  31.359  30.396  1.00  0.00     0.137 HD
ENDBRANCH  26  29
ENDBRANCH  21  26
ENDBRANCH  16  20
BRANCH  18  32
ATOM     32  C   UNL A   1      32.810  27.408  23.868  1.00  0.00     0.000 A 
ATOM     33  C   UNL A   1      33.439  26.795  22.770  1.00  0.00     0.010 A 
ATOM     34  C   UNL A   1      33.028  26.901  25.149  1.00  0.00     0.010 A 
ATOM     35  C   UNL A   1      34.233  25.665  22.944  1.00  0.00     0.001 A 
ATOM     36  C   UNL A   1      33.833  25.771  25.323  1.00  0.00     0.001 A 
ATOM     37  C   UNL A   1      34.425  25.150  24.221  1.00  0.00     0.000 A 
ENDBRANCH  18  32
ENDBRANCH  10  15
ENDBRANCH   8   9
ENDBRANCH   7   8
ENDBRANCH   6   7
ENDBRANCH   5   6
ENDBRANCH   4   5
ENDBRANCH   3   4
ENDBRANCH   2   3
ENDBRANCH   1   2
BRANCH   1  38
ATOM     38  C   UNL A   1      32.261  21.114  25.215  1.00  0.00     0.010 C 
BRANCH  38  39
ATOM     39  C   UNL A   1      31.206  21.796  26.087  1.00  0.00     0.100 C 
BRANCH  39  40
ATOM     40  C   UNL A   1      31.731  22.947  26.923  1.00  0.00     0.219 C 
ATOM     41  O   UNL A   1      30.983  23.872  27.243  1.00  0.00    -0.275 OA
ATOM     42  N   UNL A   1      33.023  22.998  27.351  1.00  0.00    -0.356 N 
ATOM     43  H   UNL A   1      33.226  23.764  27.935  1.00  0.00     0.163 HD
BRANCH  42  44
ATOM     44  C   UNL A   1      34.155  22.123  27.101  1.00  0.00     0.116 C 
BRANCH  44  45
ATOM     45  C   UNL A   1      35.380  22.901  26.586  1.00  0.00     0.023 C 
BRANCH  45  46
ATOM     46  C   UNL A   1      36.509  22.073  25.969  1.00  0.00     0.023 C 
BRANCH  46  47
ATOM     47  C   UNL A   1      37.878  22.734  26.006  1.00  0.00     0.116 C 
BRANCH  47  48
ATOM     48  N   UNL A   1      38.939  21.844  26.477  1.00  0.00    -0.352 N 
ATOM     49  C   UNL A   1      40.258  22.188  26.707  1.00  0.00     0.251 C 
ATOM     50  H   UNL A   1      38.689  20.907  26.648  1.00  0.00     0.163 HD
ATOM     51  O   UNL A   1      41.151  21.350  26.694  1.00  0.00    -0.269 OA
BRANCH  49  52
ATOM     52  C   UNL A   1      40.553  23.605  26.975  1.00  0.00     0.039 A 
ATOM     53  C   UNL A   1      39.531  24.542  27.124  1.00  0.00     0.014 A 
ATOM     54  C   UNL A   1      41.888  23.944  27.196  1.00  0.00     0.014 A 
ATOM     55  C   UNL A   1      39.857  25.807  27.605  1.00  0.00     0.010 A 
ATOM     56  C   UNL A   1      42.186  25.146  27.791  1.00  0.00     0.010 A 
ATOM     57  C   UNL A   1      41.183  26.095  27.977  1.00  0.00    -0.014 A 
BRANCH  57  58
ATOM     58  C   UNL A   1      41.489  27.328  28.701  1.00  0.00     0.031 A 
ATOM     59  C   UNL A   1      42.494  28.208  28.040  1.00  0.00     0.074 A 
ATOM     60  C   UNL A   1      40.801  27.759  29.781  1.00  0.00     0.049 A 
ATOM     61  N   UNL A   1      43.704  28.438  28.430  1.00  0.00    -0.248 NA
ATOM     62  C   UNL A   1      42.184  28.778  26.718  1.00  0.00     0.031 C 
ATOM     63  C   UNL A   1      39.604  27.176  30.394  1.00  0.00     0.029 A 
ATOM     64  N   UNL A   1      40.980  28.895  30.509  1.00  0.00    -0.354 N 
ATOM     65  C   UNL A   1      44.227  29.375  27.543  1.00  0.00     0.074 A 
ATOM     66  C   UNL A   1      43.333  29.389  26.414  1.00  0.00     0.031 C 
ATOM     67  C   UNL A   1      39.034  28.078  31.222  1.00  0.00     0.029 A 
ATOM     68  C   UNL A   1      39.907  29.232  31.328  1.00  0.00     0.049 A 
ATOM     69  H   UNL A   1      41.801  29.435  30.460  1.00  0.00     0.167 HD
ATOM     70  C   UNL A   1      45.216  30.231  27.931  1.00  0.00     0.037 A 
ATOM     71  C   UNL A   1      39.736  30.386  32.025  1.00  0.00     0.037 A 
ATOM     72  C   UNL A   1      45.834  29.782  29.158  1.00  0.00     0.049 A 
ATOM     73  C   UNL A   1      41.088  30.979  32.207  1.00  0.00     0.074 A 
ATOM     74  C   UNL A   1      46.442  28.608  29.560  1.00  0.00     0.029 A 
ATOM     75  N   UNL A   1      45.520  30.450  30.318  1.00  0.00    -0.354 N 
ATOM     76  N   UNL A   1      42.022  30.434  32.940  1.00  0.00    -0.248 NA
ATOM     77  C   UNL A   1      41.562  31.911  31.194  1.00  0.00     0.031 C 
ATOM     78  C   UNL A   1      45.982  28.398  30.894  1.00  0.00     0.029 A 
ATOM     79  C   UNL A   1      45.204  29.499  31.256  1.00  0.00     0.049 A 
ATOM     80  H   UNL A   1      45.521  31.426  30.452  1.00  0.00     0.167 HD
ATOM     81  C   UNL A   1      43.186  30.587  32.201  1.00  0.00     0.074 A 
ATOM     82  C   UNL A   1      42.857  31.581  31.180  1.00  0.00     0.031 C 
ATOM     83  C   UNL A   1      44.215  29.691  32.293  1.00  0.00     0.037 A 
BRANCH  70  84
ATOM     84  C   UNL A   1      45.372  31.652  27.434  1.00  0.00     0.058 A 
ATOM     85  C   UNL A   1      46.612  32.054  26.888  1.00  0.00     0.135 A 
ATOM     86  C   UNL A   1      44.478  32.701  27.738  1.00  0.00     0.135 A 
ATOM     87  F   UNL A   1      47.540  31.144  26.553  1.00  0.00    -0.206 F 
ATOM     88  C   UNL A   1      46.971  33.396  26.751  1.00  0.00     0.059 A 
ATOM     89  C   UNL A   1      44.796  34.044  27.559  1.00  0.00     0.059 A 
ATOM     90  F   UNL A   1      43.291  32.489  28.318  1.00  0.00    -0.206 F 
ATOM     91  C   UNL A   1      46.060  34.383  27.110  1.00  0.00     0.060 A 
BRANCH  91  92
ATOM     92  S   UNL A   1      46.558  36.112  27.040  1.00  0.00     0.124 S 
ATOM     93  O   UNL A   1      47.541  36.173  28.115  1.00  0.00    -0.237 OA
ATOM     94  O   UNL A   1      47.084  36.219  25.684  1.00  0.00    -0.237 OA
ATOM     95  O   UNL A   1      45.309  36.829  27.281  1.00  0.00    -0.744 OA
ENDBRANCH  91  92
ENDBRANCH  70  84
BRANCH  71  96
ATOM     96  C   UNL A   1      38.472  31.142  32.255  1.00  0.00     0.058 A 
ATOM     97  C   UNL A   1      37.749  31.009  33.457  1.00  0.00     0.135 A 
ATOM     98  C   UNL A   1      38.088  32.217  31.426  1.00  0.00     0.135 A 
ATOM     99  F   UNL A   1      38.046  30.023  34.317  1.00  0.00    -0.206 F 
ATOM    100  C   UNL A   1      36.756  31.921  33.840  1.00  0.00     0.059 A 
ATOM    101  C   UNL A   1      37.096  33.129  31.781  1.00  0.00     0.059 A 
ATOM    102  F   UNL A   1      38.734  32.476  30.280  1.00  0.00    -0.206 F 
ATOM    103  C   UNL A   1      36.454  32.994  33.004  1.00  0.00     0.060 A 
BRANCH 103 104
ATOM    104  S   UNL A   1      35.321  34.285  33.575  1.00  0.00     0.124 S 
ATOM    105  O   UNL A   1      35.174  33.955  34.989  1.00  0.00    -0.237 OA
ATOM    106  O   UNL A   1      36.067  35.504  33.278  1.00  0.00    -0.237 OA
ATOM    107  O   UNL A   1      34.129  34.074  32.758  1.00  0.00    -0.744 OA
ENDBRANCH 103 104
ENDBRANCH  71  96
BRANCH  83 108
ATOM    108  C   UNL A   1      44.215  28.687  33.419  1.00  0.00     0.058 A 
ATOM    109  C   UNL A   1      43.623  27.412  33.361  1.00  0.00     0.135 A 
ATOM    110  C   UNL A   1      44.991  28.974  34.554  1.00  0.00     0.135 A 
ATOM    111  F   UNL A   1      42.959  27.005  32.271  1.00  0.00    -0.206 F 
ATOM    112  C   UNL A   1      43.754  26.490  34.402  1.00  0.00     0.059 A 
ATOM    113  C   UNL A   1      45.165  28.058  35.587  1.00  0.00     0.059 A 
ATOM    114  F   UNL A   1      45.637  30.149  34.647  1.00  0.00    -0.206 F 
ATOM    115  C   UNL A   1      44.529  26.823  35.514  1.00  0.00     0.060 A 
BRANCH 115 116
ATOM    116  S   UNL A   1      44.744  25.610  36.834  1.00  0.00     0.124 S 
ATOM    117  O   UNL A   1      43.797  24.569  36.451  1.00  0.00    -0.237 OA
ATOM    118  O   UNL A   1      46.156  25.258  36.716  1.00  0.00    -0.237 OA
ATOM    119  O   UNL A   1      44.398  26.355  38.042  1.00  0.00    -0.744 OA
ENDBRANCH 115 116
ENDBRANCH  83 108
ENDBRANCH  57  58
ENDBRANCH  49  52
ENDBRANCH  47  48
ENDBRANCH  46  47
ENDBRANCH  45  46
ENDBRANCH  44  45
ENDBRANCH  42  44
ENDBRANCH  39  40
ENDBRANCH  38  39
ENDBRANCH   1  38
TORSDOF 29
ENDMDL
MODEL 2
REMARK VINA RESULT:     -10.2      5.198     13.946
REMARK SMILES NS(=O)(=O)c1ccc(-n2nc(NC(=O)NCCCCCCCCCCC(=O)NCCCCNC(=O)c3ccc(-c4c5nc(c(-c6c(F)cc(S(=O)(=O)[O-])cc6F)c6ccc([nH]6)c(-c6c(F)cc(S(=O)(=O)[O-])cc6F)c6nc(c(-c7c(F)cc(S(=O)(=O)[O-])cc7F)c7ccc4[nH]7)C=C6)C=C5)cc3)cc2-c2ccccc2)cc1
REMARK SMILES IDX 23 1 22 2 21 3 20 4 19 5 18 6 17 7 16 8 15 9 12 10 13 11
REMARK SMILES IDX 14 13 11 15 9 16 10 17 103 18 102 19 8 20 5 21 6 22 111 23
REMARK SMILES IDX 7 24 110 25 2 26 3 27 4 28 1 29 104 32 105 33 109 34 106 35
REMARK SMILES IDX 108 36 107 37 24 38 25 39 26 40 27 41 28 42 29 44 30 45
REMARK SMILES IDX 31 46 32 47 33 48 34 49 35 51 36 52 37 53 101 54 38 55
REMARK SMILES IDX 100 56 39 57 40 58 41 59 94 60 42 61 99 62 93 63 95 64 43 65
REMARK SMILES IDX 98 66 92 67 91 68 44 70 78 71 57 72 77 73 58 74 61 75 76 76
REMARK SMILES IDX 96 77 59 78 60 79 75 81 97 82 62 83 45 84 46 85 55 86 47 87
REMARK SMILES IDX 48 88 54 89 56 90 49 91 50 92 51 93 52 94 53 95 79 96 80 97
REMARK SMILES IDX 89 98 81 99 82 100 88 101 90 102 83 103 84 104 85 105 86 106
REMARK SMILES IDX 87 107 63 108 64 109 73 110 65 111 66 112 72 113 74 114
REMARK SMILES IDX 67 115 68 116 69 117 70 118 71 119
REMARK H PARENT 12 12 15 14 1 30 1 31 28 43 33 50 95 69 61 80
REMARK Flexibility Score: inf
ROOT
ATOM      1  C   UNL A   1      42.574  35.948  33.936  1.00  0.00     0.001 C 
ENDROOT
BRANCH   1   2
ATOM      2  C   UNL A   1      42.794  37.047  34.981  1.00  0.00     0.000 C 
BRANCH   2   3
ATOM      3  C   UNL A   1      42.631  36.553  36.404  1.00  0.00     0.000 C 
BRANCH   3   4
ATOM      4  C   UNL A   1      43.951  36.321  37.128  1.00  0.00     0.000 C 
BRANCH   4   5
ATOM      5  C   UNL A   1      44.382  37.392  38.134  1.00  0.00     0.000 C 
BRANCH   5   6
ATOM      6  C   UNL A   1      44.256  37.025  39.616  1.00  0.00     0.002 C 
BRANCH   6   7
ATOM      7  C   UNL A   1      42.981  37.476  40.327  1.00  0.00     0.021 C 
BRANCH   7   8
ATOM      8  C   UNL A   1      41.994  38.283  39.499  1.00  0.00     0.117 C 
BRANCH   8   9
ATOM      9  N   UNL A   1      41.375  39.411  40.144  1.00  0.00    -0.338 N 
ATOM     10  N   UNL A   1      39.101  38.695  40.162  1.00  0.00    -0.291 N 
ATOM     11  C   UNL A   1      40.069  39.601  40.439  1.00  0.00     0.320 C 
ATOM     12  H   UNL A   1      38.201  39.085  40.087  1.00  0.00     0.173 HD
ATOM     13  O   UNL A   1      39.728  40.707  40.872  1.00  0.00    -0.248 OA
ATOM     14  H   UNL A   1      41.984  40.140  40.406  1.00  0.00     0.165 HD
BRANCH  10  15
ATOM     15  C   UNL A   1      39.135  37.331  39.965  1.00  0.00     0.157 A 
ATOM     16  N   UNL A   1      39.506  35.272  40.306  1.00  0.00    -0.231 N 
ATOM     17  N   UNL A   1      39.089  36.399  40.921  1.00  0.00    -0.149 NA
ATOM     18  C   UNL A   1      39.347  35.366  38.930  1.00  0.00     0.076 A 
ATOM     19  C   UNL A   1      39.164  36.715  38.689  1.00  0.00     0.078 A 
BRANCH  16  20
ATOM     20  C   UNL A   1      40.087  34.208  41.049  1.00  0.00     0.065 A 
ATOM     21  C   UNL A   1      41.208  32.138  42.544  1.00  0.00     0.082 A 
ATOM     22  C   UNL A   1      39.845  32.112  42.251  1.00  0.00     0.024 A 
ATOM     23  C   UNL A   1      42.018  33.183  42.079  1.00  0.00     0.024 A 
ATOM     24  C   UNL A   1      39.281  33.154  41.513  1.00  0.00     0.030 A 
ATOM     25  C   UNL A   1      41.461  34.208  41.306  1.00  0.00     0.030 A 
BRANCH  21  26
ATOM     26  S   UNL A   1      41.940  30.868  43.534  1.00  0.00     0.238 S 
ATOM     27  O   UNL A   1      42.350  29.791  42.672  1.00  0.00    -0.207 OA
ATOM     28  O   UNL A   1      41.121  30.674  44.711  1.00  0.00    -0.207 OA
BRANCH  26  29
ATOM     29  N   UNL A   1      43.374  31.553  44.088  1.00  0.00    -0.225 NA
ATOM     30  H   UNL A   1      43.601  32.372  43.523  1.00  0.00     0.137 HD
ATOM     31  H   UNL A   1      44.128  30.871  44.014  1.00  0.00     0.137 HD
ENDBRANCH  26  29
ENDBRANCH  21  26
ENDBRANCH  16  20
BRANCH  18  32
ATOM     32  C   UNL A   1      39.357  34.205  38.044  1.00  0.00     0.000 A 
ATOM     33  C   UNL A   1      38.135  33.609  37.687  1.00  0.00     0.010 A 
ATOM     34  C   UNL A   1      40.550  33.630  37.606  1.00  0.00     0.010 A 
ATOM     35  C   UNL A   1      38.107  32.430  36.946  1.00  0.00     0.001 A 
ATOM     36  C   UNL A   1      40.520  32.452  36.855  1.00  0.00     0.001 A 
ATOM     37  C   UNL A   1      39.301  31.849  36.535  1.00  0.00     0.000 A 
ENDBRANCH  18  32
ENDBRANCH  10  15
ENDBRANCH   8   9
ENDBRANCH   7   8
ENDBRANCH   6   7
ENDBRANCH   5   6
ENDBRANCH   4   5
ENDBRANCH   3   4
ENDBRANCH   2   3
ENDBRANCH   1   2
BRANCH   1  38
ATOM     38  C   UNL A   1      41.676  34.802  34.388  1.00  0.00     0.010 C 
BRANCH  38  39
ATOM     39  C   UNL A   1      40.492  34.471  33.480  1.00  0.00     0.100 C 
BRANCH  39  40
ATOM     40  C   UNL A   1      39.133  34.713  34.108  1.00  0.00     0.219 C 
ATOM     41  O   UNL A   1      38.994  35.585  34.968  1.00  0.00    -0.275 OA
ATOM     42  N   UNL A   1      38.032  33.996  33.747  1.00  0.00    -0.356 N 
ATOM     43  H   UNL A   1      37.199  34.287  34.183  1.00  0.00     0.163 HD
BRANCH  42  44
ATOM     44  C   UNL A   1      37.869  32.880  32.832  1.00  0.00     0.116 C 
BRANCH  44  45
ATOM     45  C   UNL A   1      36.709  31.959  33.252  1.00  0.00     0.023 C 
BRANCH  45  46
ATOM     46  C   UNL A   1      35.748  31.517  32.146  1.00  0.00     0.023 C 
BRANCH  46  47
ATOM     47  C   UNL A   1      35.194  32.647  31.293  1.00  0.00     0.116 C 
BRANCH  47  48
ATOM     48  N   UNL A   1      34.272  32.190  30.253  1.00  0.00    -0.352 N 
ATOM     49  C   UNL A   1      34.614  31.762  28.983  1.00  0.00     0.251 C 
ATOM     50  H   UNL A   1      33.315  32.185  30.480  1.00  0.00     0.163 HD
ATOM     51  O   UNL A   1      33.810  31.793  28.059  1.00  0.00    -0.269 OA
BRANCH  49  52
ATOM     52  C   UNL A   1      35.982  31.262  28.780  1.00  0.00     0.039 A 
ATOM     53  C   UNL A   1      37.085  32.113  28.861  1.00  0.00     0.014 A 
ATOM     54  C   UNL A   1      36.138  29.884  28.630  1.00  0.00     0.014 A 
ATOM     55  C   UNL A   1      38.356  31.549  28.895  1.00  0.00     0.010 A 
ATOM     56  C   UNL A   1      37.384  29.326  28.794  1.00  0.00     0.010 A 
ATOM     57  C   UNL A   1      38.502  30.149  28.902  1.00  0.00    -0.014 A 
BRANCH  57  58
ATOM     58  C   UNL A   1      39.807  29.551  29.178  1.00  0.00     0.031 A 
ATOM     59  C   UNL A   1      40.082  29.287  30.620  1.00  0.00     0.074 A 
ATOM     60  C   UNL A   1      40.642  29.086  28.222  1.00  0.00     0.049 A 
ATOM     61  N   UNL A   1      40.924  29.908  31.377  1.00  0.00    -0.248 NA
ATOM     62  C   UNL A   1      39.225  28.336  31.347  1.00  0.00     0.031 C 
ATOM     63  C   UNL A   1      40.414  28.996  26.777  1.00  0.00     0.029 A 
ATOM     64  N   UNL A   1      41.857  28.490  28.366  1.00  0.00    -0.354 N 
ATOM     65  C   UNL A   1      40.883  29.265  32.612  1.00  0.00     0.074 A 
ATOM     66  C   UNL A   1      39.693  28.454  32.593  1.00  0.00     0.031 C 
ATOM     67  C   UNL A   1      41.331  28.171  26.225  1.00  0.00     0.029 A 
ATOM     68  C   UNL A   1      42.305  27.809  27.238  1.00  0.00     0.049 A 
ATOM     69  H   UNL A   1      42.377  28.535  29.200  1.00  0.00     0.167 HD
ATOM     70  C   UNL A   1      41.966  29.272  33.441  1.00  0.00     0.037 A 
ATOM     71  C   UNL A   1      43.384  26.989  27.148  1.00  0.00     0.037 A 
ATOM     72  C   UNL A   1      42.917  30.283  33.039  1.00  0.00     0.049 A 
ATOM     73  C   UNL A   1      44.296  27.359  28.264  1.00  0.00     0.074 A 
ATOM     74  C   UNL A   1      42.844  31.647  32.824  1.00  0.00     0.029 A 
ATOM     75  N   UNL A   1      44.064  29.872  32.402  1.00  0.00    -0.354 N 
ATOM     76  N   UNL A   1      44.917  28.506  28.338  1.00  0.00    -0.248 NA
ATOM     77  C   UNL A   1      44.136  26.660  29.531  1.00  0.00     0.031 C 
ATOM     78  C   UNL A   1      43.629  31.874  31.655  1.00  0.00     0.029 A 
ATOM     79  C   UNL A   1      44.208  30.659  31.287  1.00  0.00     0.049 A 
ATOM     80  H   UNL A   1      44.668  29.150  32.690  1.00  0.00     0.167 HD
ATOM     81  C   UNL A   1      44.813  28.879  29.670  1.00  0.00     0.074 A 
ATOM     82  C   UNL A   1      44.403  27.663  30.372  1.00  0.00     0.031 C 
ATOM     83  C   UNL A   1      44.783  30.194  30.044  1.00  0.00     0.037 A 
BRANCH  70  84
ATOM     84  C   UNL A   1      42.355  28.137  34.365  1.00  0.00     0.058 A 
ATOM     85  C   UNL A   1      42.285  28.337  35.762  1.00  0.00     0.135 A 
ATOM     86  C   UNL A   1      43.064  26.988  33.954  1.00  0.00     0.135 A 
ATOM     87  F   UNL A   1      41.630  29.393  36.271  1.00  0.00    -0.206 F 
ATOM     88  C   UNL A   1      42.953  27.515  36.670  1.00  0.00     0.059 A 
ATOM     89  C   UNL A   1      43.692  26.126  34.847  1.00  0.00     0.059 A 
ATOM     90  F   UNL A   1      43.272  26.693  32.665  1.00  0.00    -0.206 F 
ATOM     91  C   UNL A   1      43.671  26.423  36.198  1.00  0.00     0.060 A 
BRANCH  91  92
ATOM     92  S   UNL A   1      44.625  25.425  37.354  1.00  0.00     0.124 S 
ATOM     93  O   UNL A   1      44.200  25.981  38.634  1.00  0.00    -0.237 OA
ATOM     94  O   UNL A   1      44.152  24.079  37.052  1.00  0.00    -0.237 OA
ATOM     95  O   UNL A   1      46.007  25.700  36.972  1.00  0.00    -0.744 OA
ENDBRANCH  91  92
ENDBRANCH  70  84
BRANCH  71  96
ATOM     96  C   UNL A   1      43.516  25.726  26.367  1.00  0.00     0.058 A 
ATOM     97  C   UNL A   1      44.540  25.559  25.416  1.00  0.00     0.135 A 
ATOM     98  C   UNL A   1      42.817  24.554  26.727  1.00  0.00     0.135 A 
ATOM     99  F   UNL A   1      45.269  26.613  25.017  1.00  0.00    -0.206 F 
ATOM    100  C   UNL A   1      44.893  24.302  24.904  1.00  0.00     0.059 A 
ATOM    101  C   UNL A   1      43.141  23.295  26.223  1.00  0.00     0.059 A 
ATOM    102  F   UNL A   1      41.853  24.577  27.659  1.00  0.00    -0.206 F 
ATOM    103  C   UNL A   1      44.200  23.171  25.335  1.00  0.00     0.060 A 
BRANCH 103 104
ATOM    104  S   UNL A   1      44.772  21.527  24.838  1.00  0.00     0.124 S 
ATOM    105  O   UNL A   1      46.168  21.550  25.264  1.00  0.00    -0.237 OA
ATOM    106  O   UNL A   1      43.887  20.650  25.598  1.00  0.00    -0.237 OA
ATOM    107  O   UNL A   1      44.561  21.518  23.393  1.00  0.00    -0.744 OA
ENDBRANCH 103 104
ENDBRANCH  71  96
BRANCH  83 108
ATOM    108  C   UNL A   1      45.157  31.252  29.036  1.00  0.00     0.058 A 
ATOM    109  C   UNL A   1      44.297  31.761  28.046  1.00  0.00     0.135 A 
ATOM    110  C   UNL A   1      46.398  31.893  29.188  1.00  0.00     0.135 A 
ATOM    111  F   UNL A   1      43.051  31.292  27.902  1.00  0.00    -0.206 F 
ATOM    112  C   UNL A   1      44.674  32.819  27.215  1.00  0.00     0.059 A 
ATOM    113  C   UNL A   1      46.781  32.971  28.395  1.00  0.00     0.059 A 
ATOM    114  F   UNL A   1      47.244  31.500  30.156  1.00  0.00    -0.206 F 
ATOM    115  C   UNL A   1      45.921  33.419  27.397  1.00  0.00     0.060 A 
BRANCH 115 116
ATOM    116  S   UNL A   1      46.386  34.821  26.361  1.00  0.00     0.124 S 
ATOM    117  O   UNL A   1      45.349  35.796  26.680  1.00  0.00    -0.237 OA
ATOM    118  O   UNL A   1      47.727  35.143  26.840  1.00  0.00    -0.237 OA
ATOM    119  O   UNL A   1      46.334  34.277  25.006  1.00  0.00    -0.744 OA
ENDBRANCH 115 116
ENDBRANCH  83 108
ENDBRANCH  57  58
ENDBRANCH  49  52
ENDBRANCH  47  48
ENDBRANCH  46  47
ENDBRANCH  45  46
ENDBRANCH  44  45
ENDBRANCH  42  44
ENDBRANCH  39  40
ENDBRANCH  38  39
ENDBRANCH   1  38
TORSDOF 29
ENDMDL
MODEL 3
REMARK VINA RESULT:      -9.9      5.296     14.004
REMARK SMILES NS(=O)(=O)c1ccc(-n2nc(NC(=O)NCCCCCCCCCCC(=O)NCCCCNC(=O)c3ccc(-c4c5nc(c(-c6c(F)cc(S(=O)(=O)[O-])cc6F)c6ccc([nH]6)c(-c6c(F)cc(S(=O)(=O)[O-])cc6F)c6nc(c(-c7c(F)cc(S(=O)(=O)[O-])cc7F)c7ccc4[nH]7)C=C6)C=C5)cc3)cc2-c2ccccc2)cc1
REMARK SMILES IDX 23 1 22 2 21 3 20 4 19 5 18 6 17 7 16 8 15 9 12 10 13 11
REMARK SMILES IDX 14 13 11 15 9 16 10 17 103 18 102 19 8 20 5 21 6 22 111 23
REMARK SMILES IDX 7 24 110 25 2 26 3 27 4 28 1 29 104 32 105 33 109 34 106 35
REMARK SMILES IDX 108 36 107 37 24 38 25 39 26 40 27 41 28 42 29 44 30 45
REMARK SMILES IDX 31 46 32 47 33 48 34 49 35 51 36 52 37 53 101 54 38 55
REMARK SMILES IDX 100 56 39 57 40 58 41 59 94 60 42 61 99 62 93 63 95 64 43 65
REMARK SMILES IDX 98 66 92 67 91 68 44 70 78 71 57 72 77 73 58 74 61 75 76 76
REMARK SMILES IDX 96 77 59 78 60 79 75 81 97 82 62 83 45 84 46 85 55 86 47 87
REMARK SMILES IDX 48 88 54 89 56 90 49 91 50 92 51 93 52 94 53 95 79 96 80 97
REMARK SMILES IDX 89 98 81 99 82 100 88 101 90 102 83 103 84 104 85 105 86 106
REMARK SMILES IDX 87 107 63 108 64 109 73 110 65 111 66 112 72 113 74 114
REMARK SMILES IDX 67 115 68 116 69 117 70 118 71 119
REMARK H PARENT 12 12 15 14 1 30 1 31 28 43 33 50 95 69 61 80
REMARK Flexibility Score: inf
ROOT
ATOM      1  C   UNL A   1      42.486  36.021  33.803  1.00  0.00     0.001 C 
ENDROOT
BRANCH   1   2
ATOM      2  C   UNL A   1      42.650  37.058  34.919  1.00  0.00     0.000 C 
BRANCH   2   3
ATOM      3  C   UNL A   1      42.369  36.494  36.296  1.00  0.00     0.000 C 
BRANCH   3   4
ATOM      4  C   UNL A   1      43.307  37.017  37.376  1.00  0.00     0.000 C 
BRANCH   4   5
ATOM      5  C   UNL A   1      42.654  37.567  38.648  1.00  0.00     0.000 C 
BRANCH   5   6
ATOM      6  C   UNL A   1      42.884  36.764  39.933  1.00  0.00     0.002 C 
BRANCH   6   7
ATOM      7  C   UNL A   1      41.761  35.821  40.361  1.00  0.00     0.021 C 
BRANCH   7   8
ATOM      8  C   UNL A   1      40.745  35.450  39.293  1.00  0.00     0.117 C 
BRANCH   8   9
ATOM      9  N   UNL A   1      39.519  34.845  39.745  1.00  0.00    -0.338 N 
ATOM     10  N   UNL A   1      39.774  32.651  38.848  1.00  0.00    -0.291 N 
ATOM     11  C   UNL A   1      39.077  33.583  39.539  1.00  0.00     0.320 C 
ATOM     12  H   UNL A   1      39.214  31.935  38.470  1.00  0.00     0.173 HD
ATOM     13  O   UNL A   1      37.928  33.307  39.898  1.00  0.00    -0.248 OA
ATOM     14  H   UNL A   1      38.926  35.426  40.273  1.00  0.00     0.165 HD
BRANCH  10  15
ATOM     15  C   UNL A   1      41.117  32.511  38.571  1.00  0.00     0.157 A 
ATOM     16  N   UNL A   1      43.212  32.369  38.860  1.00  0.00    -0.231 N 
ATOM     17  N   UNL A   1      42.032  31.968  39.378  1.00  0.00    -0.149 NA
ATOM     18  C   UNL A   1      43.076  32.725  37.524  1.00  0.00     0.076 A 
ATOM     19  C   UNL A   1      41.714  32.879  37.339  1.00  0.00     0.078 A 
BRANCH  16  20
ATOM     20  C   UNL A   1      44.375  32.454  39.673  1.00  0.00     0.065 A 
ATOM     21  C   UNL A   1      46.676  32.647  41.237  1.00  0.00     0.082 A 
ATOM     22  C   UNL A   1      45.776  33.713  41.206  1.00  0.00     0.024 A 
ATOM     23  C   UNL A   1      46.424  31.479  40.506  1.00  0.00     0.024 A 
ATOM     24  C   UNL A   1      44.631  33.621  40.414  1.00  0.00     0.030 A 
ATOM     25  C   UNL A   1      45.256  31.370  39.743  1.00  0.00     0.030 A 
BRANCH  21  26
ATOM     26  S   UNL A   1      48.170  32.759  42.178  1.00  0.00     0.238 S 
ATOM     27  O   UNL A   1      48.780  31.457  42.230  1.00  0.00    -0.207 OA
ATOM     28  O   UNL A   1      47.913  33.562  43.354  1.00  0.00    -0.207 OA
BRANCH  26  29
ATOM     29  N   UNL A   1      49.195  33.684  41.214  1.00  0.00    -0.225 NA
ATOM     30  H   UNL A   1      50.137  33.294  41.249  1.00  0.00     0.137 HD
ATOM     31  H   UNL A   1      49.211  34.643  41.558  1.00  0.00     0.137 HD
ENDBRANCH  26  29
ENDBRANCH  21  26
ENDBRANCH  16  20
BRANCH  18  32
ATOM     32  C   UNL A   1      44.209  32.841  36.610  1.00  0.00     0.000 A 
ATOM     33  C   UNL A   1      44.727  34.117  36.326  1.00  0.00     0.010 A 
ATOM     34  C   UNL A   1      44.739  31.728  35.957  1.00  0.00     0.010 A 
ATOM     35  C   UNL A   1      45.724  34.283  35.368  1.00  0.00     0.001 A 
ATOM     36  C   UNL A   1      45.746  31.896  35.002  1.00  0.00     0.001 A 
ATOM     37  C   UNL A   1      46.230  33.171  34.703  1.00  0.00     0.000 A 
ENDBRANCH  18  32
ENDBRANCH  10  15
ENDBRANCH   8   9
ENDBRANCH   7   8
ENDBRANCH   6   7
ENDBRANCH   5   6
ENDBRANCH   4   5
ENDBRANCH   3   4
ENDBRANCH   2   3
ENDBRANCH   1   2
BRANCH   1  38
ATOM     38  C   UNL A   1      41.594  34.835  34.151  1.00  0.00     0.010 C 
BRANCH  38  39
ATOM     39  C   UNL A   1      40.428  34.562  33.202  1.00  0.00     0.100 C 
BRANCH  39  40
ATOM     40  C   UNL A   1      39.062  34.595  33.859  1.00  0.00     0.219 C 
ATOM     41  O   UNL A   1      38.847  35.357  34.804  1.00  0.00    -0.275 OA
ATOM     42  N   UNL A   1      38.037  33.804  33.435  1.00  0.00    -0.356 N 
ATOM     43  H   UNL A   1      37.185  33.961  33.903  1.00  0.00     0.163 HD
BRANCH  42  44
ATOM     44  C   UNL A   1      37.976  32.773  32.414  1.00  0.00     0.116 C 
BRANCH  44  45
ATOM     45  C   UNL A   1      37.119  31.575  32.858  1.00  0.00     0.023 C 
BRANCH  45  46
ATOM     46  C   UNL A   1      35.807  31.351  32.102  1.00  0.00     0.023 C 
BRANCH  46  47
ATOM     47  C   UNL A   1      35.205  32.603  31.486  1.00  0.00     0.116 C 
BRANCH  47  48
ATOM     48  N   UNL A   1      34.292  32.322  30.378  1.00  0.00    -0.352 N 
ATOM     49  C   UNL A   1      34.647  32.049  29.069  1.00  0.00     0.251 C 
ATOM     50  H   UNL A   1      33.329  32.327  30.584  1.00  0.00     0.163 HD
ATOM     51  O   UNL A   1      33.868  32.232  28.142  1.00  0.00    -0.269 OA
BRANCH  49  52
ATOM     52  C   UNL A   1      36.001  31.524  28.829  1.00  0.00     0.039 A 
ATOM     53  C   UNL A   1      37.113  32.366  28.820  1.00  0.00     0.014 A 
ATOM     54  C   UNL A   1      36.137  30.139  28.739  1.00  0.00     0.014 A 
ATOM     55  C   UNL A   1      38.380  31.789  28.824  1.00  0.00     0.010 A 
ATOM     56  C   UNL A   1      37.383  29.575  28.873  1.00  0.00     0.010 A 
ATOM     57  C   UNL A   1      38.513  30.390  28.891  1.00  0.00    -0.014 A 
BRANCH  57  58
ATOM     58  C   UNL A   1      39.824  29.790  29.136  1.00  0.00     0.031 A 
ATOM     59  C   UNL A   1      40.178  29.629  30.576  1.00  0.00     0.074 A 
ATOM     60  C   UNL A   1      40.595  29.241  28.172  1.00  0.00     0.049 A 
ATOM     61  N   UNL A   1      41.070  30.289  31.236  1.00  0.00    -0.248 NA
ATOM     62  C   UNL A   1      39.351  28.750  31.420  1.00  0.00     0.031 C 
ATOM     63  C   UNL A   1      40.283  29.049  26.753  1.00  0.00     0.029 A 
ATOM     64  N   UNL A   1      41.808  28.636  28.291  1.00  0.00    -0.354 N 
ATOM     65  C   UNL A   1      41.093  29.739  32.515  1.00  0.00     0.074 A 
ATOM     66  C   UNL A   1      39.893  28.951  32.625  1.00  0.00     0.031 C 
ATOM     67  C   UNL A   1      41.155  28.169  26.213  1.00  0.00     0.029 A 
ATOM     68  C   UNL A   1      42.181  27.866  27.194  1.00  0.00     0.049 A 
ATOM     69  H   UNL A   1      42.376  28.734  29.089  1.00  0.00     0.167 HD
ATOM     70  C   UNL A   1      42.222  29.788  33.279  1.00  0.00     0.037 A 
ATOM     71  C   UNL A   1      43.242  27.022  27.104  1.00  0.00     0.037 A 
ATOM     72  C   UNL A   1      43.162  30.750  32.749  1.00  0.00     0.049 A 
ATOM     73  C   UNL A   1      44.222  27.457  28.135  1.00  0.00     0.074 A 
ATOM     74  C   UNL A   1      43.095  32.096  32.437  1.00  0.00     0.029 A 
ATOM     75  N   UNL A   1      44.264  30.272  32.080  1.00  0.00    -0.354 N 
ATOM     76  N   UNL A   1      44.861  28.596  28.087  1.00  0.00    -0.248 NA
ATOM     77  C   UNL A   1      44.126  26.856  29.458  1.00  0.00     0.031 C 
ATOM     78  C   UNL A   1      43.814  32.222  31.212  1.00  0.00     0.029 A 
ATOM     79  C   UNL A   1      44.354  30.973  30.903  1.00  0.00     0.049 A 
ATOM     80  H   UNL A   1      44.874  29.563  32.387  1.00  0.00     0.167 HD
ATOM     81  C   UNL A   1      44.840  29.068  29.392  1.00  0.00     0.074 A 
ATOM     82  C   UNL A   1      44.455  27.914  30.205  1.00  0.00     0.031 C 
ATOM     83  C   UNL A   1      44.849  30.407  29.668  1.00  0.00     0.037 A 
BRANCH  70  84
ATOM     84  C   UNL A   1      42.648  28.718  34.261  1.00  0.00     0.058 A 
ATOM     85  C   UNL A   1      43.040  27.453  33.768  1.00  0.00     0.135 A 
ATOM     86  C   UNL A   1      42.407  28.776  35.651  1.00  0.00     0.135 A 
ATOM     87  F   UNL A   1      43.303  27.278  32.463  1.00  0.00    -0.206 F 
ATOM     88  C   UNL A   1      43.089  26.316  34.576  1.00  0.00     0.059 A 
ATOM     89  C   UNL A   1      42.504  27.666  36.483  1.00  0.00     0.059 A 
ATOM     90  F   UNL A   1      41.970  29.884  36.259  1.00  0.00    -0.206 F 
ATOM     91  C   UNL A   1      42.799  26.432  35.930  1.00  0.00     0.060 A 
BRANCH  91  92
ATOM     92  S   UNL A   1      42.753  24.952  36.954  1.00  0.00     0.124 S 
ATOM     93  O   UNL A   1      41.359  24.940  37.382  1.00  0.00    -0.237 OA
ATOM     94  O   UNL A   1      43.140  23.916  36.003  1.00  0.00    -0.237 OA
ATOM     95  O   UNL A   1      43.733  25.236  37.998  1.00  0.00    -0.744 OA
ENDBRANCH  91  92
ENDBRANCH  70  84
BRANCH  71  96
ATOM     96  C   UNL A   1      43.311  25.703  26.413  1.00  0.00     0.058 A 
ATOM     97  C   UNL A   1      44.166  25.498  25.313  1.00  0.00     0.135 A 
ATOM     98  C   UNL A   1      42.753  24.538  26.980  1.00  0.00     0.135 A 
ATOM     99  F   UNL A   1      44.754  26.544  24.712  1.00  0.00    -0.206 F 
ATOM    100  C   UNL A   1      44.498  24.218  24.848  1.00  0.00     0.059 A 
ATOM    101  C   UNL A   1      43.058  23.255  26.527  1.00  0.00     0.059 A 
ATOM    102  F   UNL A   1      41.962  24.600  28.061  1.00  0.00    -0.206 F 
ATOM    103  C   UNL A   1      43.956  23.100  25.480  1.00  0.00     0.060 A 
BRANCH 103 104
ATOM    104  S   UNL A   1      44.528  21.445  25.021  1.00  0.00     0.124 S 
ATOM    105  O   UNL A   1      43.448  20.601  25.522  1.00  0.00    -0.237 OA
ATOM    106  O   UNL A   1      44.638  21.547  23.570  1.00  0.00    -0.237 OA
ATOM    107  O   UNL A   1      45.799  21.318  25.731  1.00  0.00    -0.744 OA
ENDBRANCH 103 104
ENDBRANCH  71  96
BRANCH  83 108
ATOM    108  C   UNL A   1      45.179  31.381  28.564  1.00  0.00     0.058 A 
ATOM    109  C   UNL A   1      44.270  31.832  27.589  1.00  0.00     0.135 A 
ATOM    110  C   UNL A   1      46.436  32.008  28.597  1.00  0.00     0.135 A 
ATOM    111  F   UNL A   1      43.011  31.376  27.552  1.00  0.00    -0.206 F 
ATOM    112  C   UNL A   1      44.613  32.818  26.661  1.00  0.00     0.059 A 
ATOM    113  C   UNL A   1      46.787  33.018  27.705  1.00  0.00     0.059 A 
ATOM    114  F   UNL A   1      47.331  31.672  29.541  1.00  0.00    -0.206 F 
ATOM    115  C   UNL A   1      45.876  33.407  26.728  1.00  0.00     0.060 A 
BRANCH 115 116
ATOM    116  S   UNL A   1      46.299  34.720  25.564  1.00  0.00     0.124 S 
ATOM    117  O   UNL A   1      45.418  34.429  24.439  1.00  0.00    -0.237 OA
ATOM    118  O   UNL A   1      45.983  35.930  26.319  1.00  0.00    -0.237 OA
ATOM    119  O   UNL A   1      47.723  34.509  25.313  1.00  0.00    -0.744 OA
ENDBRANCH 115 116
ENDBRANCH  83 108
ENDBRANCH  57  58
ENDBRANCH  49  52
ENDBRANCH  47  48
ENDBRANCH  46  47
ENDBRANCH  45  46
ENDBRANCH  44  45
ENDBRANCH  42  44
ENDBRANCH  39  40
ENDBRANCH  38  39
ENDBRANCH   1  38
TORSDOF 29
ENDMDL
