MODEL 1
REMARK VINA RESULT:     -12.1      0.000      0.000
REMARK SMILES CC[C@H](C)[C@H](NS(=O)(=O)c1ccc(C)cc1)C(=O)NCCCCNC(=O)c1ccc(-c2c3nc(c(-c4c(F)cc(S(=O)(=O)[O-])cc4F)c4ccc([nH]4)c(-c4c(F)cc(S(=O)(=O)[O-])cc4F)c4nc(c(-c5c(F)cc(S(=O)(=O)[O-])cc5F)c5ccc2[nH]5)C=C4)C=C3)cc1
REMARK SMILES IDX 21 1 20 2 19 3 17 4 18 5 5 7 3 8 4 9 2 10 1 11 6 12 7 14
REMARK SMILES IDX 8 15 9 16 10 17 11 18 16 19 12 20 15 21 13 22 14 23 22 24
REMARK SMILES IDX 23 25 24 26 25 27 26 29 27 30 28 31 92 32 29 33 91 34 30 35
REMARK SMILES IDX 31 36 32 37 85 38 33 39 90 40 84 41 86 42 34 43 89 44 83 45
REMARK SMILES IDX 82 46 35 48 69 49 48 50 68 51 49 52 52 53 67 54 87 55 50 56
REMARK SMILES IDX 51 57 66 59 88 60 53 61 36 62 37 63 46 64 38 65 39 66 45 67
REMARK SMILES IDX 47 68 40 69 41 70 42 71 43 72 44 73 70 74 71 75 80 76 72 77
REMARK SMILES IDX 73 78 79 79 81 80 74 81 75 82 76 83 77 84 78 85 54 86 55 87
REMARK SMILES IDX 64 88 56 89 57 90 63 91 65 92 58 93 59 94 60 95 61 96 62 97
REMARK H PARENT 19 6 6 13 24 28 86 47 52 58
REMARK Flexibility Score: inf
ROOT
ATOM      1  C   UNL A   1      32.808  29.306  24.740  1.00  0.00     0.023 C 
ENDROOT
BRANCH   1   2
ATOM      2  C   UNL A   1      33.717  28.077  24.706  1.00  0.00     0.116 C 
BRANCH   2   3
ATOM      3  N   UNL A   1      33.918  27.506  23.381  1.00  0.00    -0.355 N 
ATOM      4  C   UNL A   1      33.436  26.352  22.826  1.00  0.00     0.238 C 
ATOM      5  O   UNL A   1      33.651  26.167  21.622  1.00  0.00    -0.273 OA
ATOM      6  H   UNL A   1      34.495  28.038  22.786  1.00  0.00     0.163 HD
BRANCH   4   7
ATOM      7  C   UNL A   1      32.718  25.257  23.661  1.00  0.00     0.161 C 
BRANCH   7   8
ATOM      8  C   UNL A   1      31.556  25.805  24.531  1.00  0.00     0.013 C 
ATOM      9  C   UNL A   1      30.196  25.606  23.843  1.00  0.00     0.010 C 
BRANCH   8  10
ATOM     10  C   UNL A   1      31.538  25.348  26.002  1.00  0.00     0.002 C 
ATOM     11  C   UNL A   1      30.807  24.043  26.286  1.00  0.00     0.004 C 
ENDBRANCH   8  10
ENDBRANCH   7   8
BRANCH   7  12
ATOM     12  N   UNL A   1      33.771  24.460  24.309  1.00  0.00    -0.198 NA
ATOM     13  H   UNL A   1      33.408  24.248  25.237  1.00  0.00     0.142 HD
BRANCH  12  14
ATOM     14  S   UNL A   1      34.418  23.035  23.768  1.00  0.00     0.241 S 
ATOM     15  O   UNL A   1      33.556  21.999  24.279  1.00  0.00    -0.207 OA
ATOM     16  O   UNL A   1      34.673  23.165  22.346  1.00  0.00    -0.207 OA
BRANCH  14  17
ATOM     17  C   UNL A   1      35.985  22.819  24.570  1.00  0.00     0.082 A 
ATOM     18  C   UNL A   1      36.540  23.809  25.383  1.00  0.00     0.022 A 
ATOM     19  C   UNL A   1      36.647  21.599  24.392  1.00  0.00     0.022 A 
ATOM     20  C   UNL A   1      37.774  23.581  25.999  1.00  0.00     0.005 A 
ATOM     21  C   UNL A   1      37.865  21.368  25.028  1.00  0.00     0.005 A 
ATOM     22  C   UNL A   1      38.443  22.360  25.831  1.00  0.00    -0.051 A 
ATOM     23  C   UNL A   1      39.748  22.089  26.519  1.00  0.00     0.044 C 
ENDBRANCH  14  17
ENDBRANCH  12  14
ENDBRANCH   7  12
ENDBRANCH   4   7
ENDBRANCH   2   3
ENDBRANCH   1   2
BRANCH   1  24
ATOM     24  C   UNL A   1      32.218  29.672  26.096  1.00  0.00     0.023 C 
BRANCH  24  25
ATOM     25  C   UNL A   1      33.232  29.975  27.181  1.00  0.00     0.116 C 
BRANCH  25  26
ATOM     26  N   UNL A   1      34.153  31.073  26.937  1.00  0.00    -0.352 N 
ATOM     27  C   UNL A   1      35.102  31.457  27.890  1.00  0.00     0.251 C 
ATOM     28  H   UNL A   1      34.107  31.558  26.081  1.00  0.00     0.163 HD
ATOM     29  O   UNL A   1      35.201  32.595  28.326  1.00  0.00    -0.269 OA
BRANCH  27  30
ATOM     30  C   UNL A   1      36.075  30.403  28.268  1.00  0.00     0.039 A 
ATOM     31  C   UNL A   1      35.984  29.768  29.512  1.00  0.00     0.014 A 
ATOM     32  C   UNL A   1      37.204  30.240  27.475  1.00  0.00     0.014 A 
ATOM     33  C   UNL A   1      37.113  29.151  30.043  1.00  0.00     0.010 A 
ATOM     34  C   UNL A   1      38.355  29.811  28.060  1.00  0.00     0.010 A 
ATOM     35  C   UNL A   1      38.308  29.279  29.348  1.00  0.00    -0.014 A 
BRANCH  35  36
ATOM     36  C   UNL A   1      39.596  28.765  29.746  1.00  0.00     0.031 A 
ATOM     37  C   UNL A   1      39.980  27.462  29.175  1.00  0.00     0.074 A 
ATOM     38  C   UNL A   1      40.470  29.666  30.240  1.00  0.00     0.049 A 
ATOM     39  N   UNL A   1      41.041  26.825  29.499  1.00  0.00    -0.248 NA
ATOM     40  C   UNL A   1      39.182  26.755  28.170  1.00  0.00     0.031 C 
ATOM     41  C   UNL A   1      41.927  29.635  30.217  1.00  0.00     0.029 A 
ATOM     42  N   UNL A   1      40.166  30.763  31.050  1.00  0.00    -0.354 N 
ATOM     43  C   UNL A   1      41.235  25.829  28.566  1.00  0.00     0.074 A 
ATOM     44  C   UNL A   1      40.008  25.767  27.815  1.00  0.00     0.031 C 
ATOM     45  C   UNL A   1      42.392  30.453  31.178  1.00  0.00     0.029 A 
ATOM     46  C   UNL A   1      41.240  30.893  31.950  1.00  0.00     0.049 A 
ATOM     47  H   UNL A   1      39.362  31.329  31.001  1.00  0.00     0.167 HD
ATOM     48  C   UNL A   1      42.484  25.292  28.470  1.00  0.00     0.037 A 
ATOM     49  C   UNL A   1      41.037  30.590  33.269  1.00  0.00     0.037 A 
ATOM     50  C   UNL A   1      43.341  25.893  29.491  1.00  0.00     0.049 A 
ATOM     51  C   UNL A   1      41.830  29.386  33.728  1.00  0.00     0.074 A 
ATOM     52  C   UNL A   1      44.236  26.948  29.463  1.00  0.00     0.029 A 
ATOM     53  N   UNL A   1      43.041  25.666  30.825  1.00  0.00    -0.354 N 
ATOM     54  N   UNL A   1      42.281  28.443  32.945  1.00  0.00    -0.248 NA
ATOM     55  C   UNL A   1      42.236  29.198  35.112  1.00  0.00     0.031 C 
ATOM     56  C   UNL A   1      44.475  27.353  30.803  1.00  0.00     0.029 A 
ATOM     57  C   UNL A   1      43.730  26.540  31.640  1.00  0.00     0.049 A 
ATOM     58  H   UNL A   1      42.419  24.975  31.148  1.00  0.00     0.167 HD
ATOM     59  C   UNL A   1      43.023  27.538  33.675  1.00  0.00     0.074 A 
ATOM     60  C   UNL A   1      42.979  28.082  35.020  1.00  0.00     0.031 C 
ATOM     61  C   UNL A   1      43.605  26.438  33.092  1.00  0.00     0.037 A 
BRANCH  48  62
ATOM     62  C   UNL A   1      43.021  24.426  27.352  1.00  0.00     0.058 A 
ATOM     63  C   UNL A   1      43.327  23.069  27.610  1.00  0.00     0.135 A 
ATOM     64  C   UNL A   1      43.268  24.838  26.027  1.00  0.00     0.135 A 
ATOM     65  F   UNL A   1      43.117  22.513  28.811  1.00  0.00    -0.206 F 
ATOM     66  C   UNL A   1      43.872  22.211  26.658  1.00  0.00     0.059 A 
ATOM     67  C   UNL A   1      43.843  24.003  25.059  1.00  0.00     0.059 A 
ATOM     68  F   UNL A   1      42.923  26.057  25.595  1.00  0.00    -0.206 F 
ATOM     69  C   UNL A   1      44.142  22.687  25.386  1.00  0.00     0.060 A 
BRANCH  69  70
ATOM     70  S   UNL A   1      44.858  21.551  24.186  1.00  0.00     0.124 S 
ATOM     71  O   UNL A   1      46.273  21.587  24.542  1.00  0.00    -0.237 OA
ATOM     72  O   UNL A   1      44.160  20.307  24.488  1.00  0.00    -0.237 OA
ATOM     73  O   UNL A   1      44.526  22.159  22.901  1.00  0.00    -0.744 OA
ENDBRANCH  69  70
ENDBRANCH  48  62
BRANCH  49  74
ATOM     74  C   UNL A   1      39.664  30.985  33.724  1.00  0.00     0.058 A 
ATOM     75  C   UNL A   1      39.478  32.345  34.055  1.00  0.00     0.135 A 
ATOM     76  C   UNL A   1      38.533  30.265  33.311  1.00  0.00     0.135 A 
ATOM     77  F   UNL A   1      40.517  33.075  34.491  1.00  0.00    -0.206 F 
ATOM     78  C   UNL A   1      38.293  33.013  33.760  1.00  0.00     0.059 A 
ATOM     79  C   UNL A   1      37.325  30.915  33.033  1.00  0.00     0.059 A 
ATOM     80  F   UNL A   1      38.635  28.961  33.010  1.00  0.00    -0.206 F 
ATOM     81  C   UNL A   1      37.254  32.303  33.167  1.00  0.00     0.060 A 
BRANCH  81  82
ATOM     82  S   UNL A   1      35.909  33.251  32.408  1.00  0.00     0.124 S 
ATOM     83  O   UNL A   1      34.905  33.257  33.467  1.00  0.00    -0.237 OA
ATOM     84  O   UNL A   1      36.556  34.538  32.143  1.00  0.00    -0.237 OA
ATOM     85  O   UNL A   1      35.568  32.464  31.230  1.00  0.00    -0.744 OA
ENDBRANCH  81  82
ENDBRANCH  49  74
BRANCH  61  86
ATOM     86  C   UNL A   1      44.177  25.180  33.762  1.00  0.00     0.058 A 
ATOM     87  C   UNL A   1      43.452  24.269  34.547  1.00  0.00     0.135 A 
ATOM     88  C   UNL A   1      45.532  24.786  33.539  1.00  0.00     0.135 A 
ATOM     89  F   UNL A   1      42.152  24.419  34.801  1.00  0.00    -0.206 F 
ATOM     90  C   UNL A   1      44.019  23.115  35.098  1.00  0.00     0.059 A 
ATOM     91  C   UNL A   1      46.098  23.606  34.020  1.00  0.00     0.059 A 
ATOM     92  F   UNL A   1      46.393  25.524  32.826  1.00  0.00    -0.206 F 
ATOM     93  C   UNL A   1      45.338  22.786  34.824  1.00  0.00     0.060 A 
BRANCH  93  94
ATOM     94  S   UNL A   1      46.027  21.278  35.512  1.00  0.00     0.124 S 
ATOM     95  O   UNL A   1      45.928  21.540  36.945  1.00  0.00    -0.237 OA
ATOM     96  O   UNL A   1      45.119  20.260  34.992  1.00  0.00    -0.237 OA
ATOM     97  O   UNL A   1      47.381  21.238  34.972  1.00  0.00    -0.744 OA
ENDBRANCH  93  94
ENDBRANCH  61  86
ENDBRANCH  35  36
ENDBRANCH  27  30
ENDBRANCH  25  26
ENDBRANCH  24  25
ENDBRANCH   1  24
TORSDOF 19
ENDMDL
MODEL 2
REMARK VINA RESULT:     -12.1      1.549      2.390
REMARK SMILES CC[C@H](C)[C@H](NS(=O)(=O)c1ccc(C)cc1)C(=O)NCCCCNC(=O)c1ccc(-c2c3nc(c(-c4c(F)cc(S(=O)(=O)[O-])cc4F)c4ccc([nH]4)c(-c4c(F)cc(S(=O)(=O)[O-])cc4F)c4nc(c(-c5c(F)cc(S(=O)(=O)[O-])cc5F)c5ccc2[nH]5)C=C4)C=C3)cc1
REMARK SMILES IDX 21 1 20 2 19 3 17 4 18 5 5 7 3 8 4 9 2 10 1 11 6 12 7 14
REMARK SMILES IDX 8 15 9 16 10 17 11 18 16 19 12 20 15 21 13 22 14 23 22 24
REMARK SMILES IDX 23 25 24 26 25 27 26 29 27 30 28 31 92 32 29 33 91 34 30 35
REMARK SMILES IDX 31 36 32 37 85 38 33 39 90 40 84 41 86 42 34 43 89 44 83 45
REMARK SMILES IDX 82 46 35 48 69 49 48 50 68 51 49 52 52 53 67 54 87 55 50 56
REMARK SMILES IDX 51 57 66 59 88 60 53 61 36 62 37 63 46 64 38 65 39 66 45 67
REMARK SMILES IDX 47 68 40 69 41 70 42 71 43 72 44 73 70 74 71 75 80 76 72 77
REMARK SMILES IDX 73 78 79 79 81 80 74 81 75 82 76 83 77 84 78 85 54 86 55 87
REMARK SMILES IDX 64 88 56 89 57 90 63 91 65 92 58 93 59 94 60 95 61 96 62 97
REMARK H PARENT 19 6 6 13 24 28 86 47 52 58
REMARK Flexibility Score: inf
ROOT
ATOM      1  C   UNL A   1      33.428  28.825  24.729  1.00  0.00     0.023 C 
ENDROOT
BRANCH   1   2
ATOM      2  C   UNL A   1      33.893  27.426  24.325  1.00  0.00     0.116 C 
BRANCH   2   3
ATOM      3  N   UNL A   1      33.673  26.397  25.334  1.00  0.00    -0.355 N 
ATOM      4  C   UNL A   1      32.906  25.264  25.299  1.00  0.00     0.238 C 
ATOM      5  O   UNL A   1      33.004  24.482  26.253  1.00  0.00    -0.273 OA
ATOM      6  H   UNL A   1      34.157  26.540  26.180  1.00  0.00     0.163 HD
BRANCH   4   7
ATOM      7  C   UNL A   1      31.882  24.981  24.167  1.00  0.00     0.161 C 
BRANCH   7   8
ATOM      8  C   UNL A   1      30.488  25.612  24.422  1.00  0.00     0.013 C 
ATOM      9  C   UNL A   1      30.338  26.078  25.880  1.00  0.00     0.010 C 
BRANCH   8  10
ATOM     10  C   UNL A   1      30.039  26.690  23.417  1.00  0.00     0.002 C 
ATOM     11  C   UNL A   1      31.057  27.074  22.352  1.00  0.00     0.004 C 
ENDBRANCH   8  10
ENDBRANCH   7   8
BRANCH   7  12
ATOM     12  N   UNL A   1      31.963  23.542  23.873  1.00  0.00    -0.198 NA
ATOM     13  H   UNL A   1      31.023  23.281  23.577  1.00  0.00     0.142 HD
BRANCH  12  14
ATOM     14  S   UNL A   1      32.973  22.802  22.790  1.00  0.00     0.241 S 
ATOM     15  O   UNL A   1      32.353  21.538  22.482  1.00  0.00    -0.207 OA
ATOM     16  O   UNL A   1      33.291  23.755  21.744  1.00  0.00    -0.207 OA
BRANCH  14  17
ATOM     17  C   UNL A   1      34.483  22.421  23.638  1.00  0.00     0.082 A 
ATOM     18  C   UNL A   1      34.606  21.296  24.456  1.00  0.00     0.022 A 
ATOM     19  C   UNL A   1      35.576  23.272  23.440  1.00  0.00     0.022 A 
ATOM     20  C   UNL A   1      35.824  21.039  25.093  1.00  0.00     0.005 A 
ATOM     21  C   UNL A   1      36.794  22.998  24.059  1.00  0.00     0.005 A 
ATOM     22  C   UNL A   1      36.926  21.883  24.896  1.00  0.00    -0.051 A 
ATOM     23  C   UNL A   1      38.249  21.595  25.543  1.00  0.00     0.044 C 
ENDBRANCH  14  17
ENDBRANCH  12  14
ENDBRANCH   7  12
ENDBRANCH   4   7
ENDBRANCH   2   3
ENDBRANCH   1   2
BRANCH   1  24
ATOM     24  C   UNL A   1      32.656  28.929  26.038  1.00  0.00     0.023 C 
BRANCH  24  25
ATOM     25  C   UNL A   1      33.430  29.518  27.200  1.00  0.00     0.116 C 
BRANCH  25  26
ATOM     26  N   UNL A   1      34.278  30.664  26.916  1.00  0.00    -0.352 N 
ATOM     27  C   UNL A   1      35.215  31.128  27.843  1.00  0.00     0.251 C 
ATOM     28  H   UNL A   1      34.188  31.126  26.050  1.00  0.00     0.163 HD
ATOM     29  O   UNL A   1      35.252  32.280  28.252  1.00  0.00    -0.269 OA
BRANCH  27  30
ATOM     30  C   UNL A   1      36.258  30.144  28.228  1.00  0.00     0.039 A 
ATOM     31  C   UNL A   1      36.307  29.638  29.531  1.00  0.00     0.014 A 
ATOM     32  C   UNL A   1      37.312  29.931  27.349  1.00  0.00     0.014 A 
ATOM     33  C   UNL A   1      37.503  29.109  30.009  1.00  0.00     0.010 A 
ATOM     34  C   UNL A   1      38.529  29.595  27.859  1.00  0.00     0.010 A 
ATOM     35  C   UNL A   1      38.621  29.196  29.192  1.00  0.00    -0.014 A 
BRANCH  35  36
ATOM     36  C   UNL A   1      39.959  28.761  29.512  1.00  0.00     0.031 A 
ATOM     37  C   UNL A   1      40.322  27.402  29.073  1.00  0.00     0.074 A 
ATOM     38  C   UNL A   1      40.851  29.733  29.792  1.00  0.00     0.049 A 
ATOM     39  N   UNL A   1      41.430  26.831  29.360  1.00  0.00    -0.248 NA
ATOM     40  C   UNL A   1      39.446  26.557  28.257  1.00  0.00     0.031 C 
ATOM     41  C   UNL A   1      42.298  29.725  29.618  1.00  0.00     0.029 A 
ATOM     42  N   UNL A   1      40.599  30.920  30.484  1.00  0.00    -0.354 N 
ATOM     43  C   UNL A   1      41.557  25.725  28.545  1.00  0.00     0.074 A 
ATOM     44  C   UNL A   1      40.261  25.546  27.943  1.00  0.00     0.031 C 
ATOM     45  C   UNL A   1      42.835  30.668  30.412  1.00  0.00     0.029 A 
ATOM     46  C   UNL A   1      41.757  31.184  31.240  1.00  0.00     0.049 A 
ATOM     47  H   UNL A   1      39.778  31.461  30.450  1.00  0.00     0.167 HD
ATOM     48  C   UNL A   1      42.805  25.203  28.385  1.00  0.00     0.037 A 
ATOM     49  C   UNL A   1      41.701  31.050  32.601  1.00  0.00     0.037 A 
ATOM     50  C   UNL A   1      43.744  25.945  29.224  1.00  0.00     0.049 A 
ATOM     51  C   UNL A   1      42.573  29.930  33.122  1.00  0.00     0.074 A 
ATOM     52  C   UNL A   1      44.599  27.003  28.968  1.00  0.00     0.029 A 
ATOM     53  N   UNL A   1      43.591  25.887  30.601  1.00  0.00    -0.354 N 
ATOM     54  N   UNL A   1      42.970  28.901  32.421  1.00  0.00    -0.248 NA
ATOM     55  C   UNL A   1      43.126  29.929  34.468  1.00  0.00     0.031 C 
ATOM     56  C   UNL A   1      44.962  27.582  30.212  1.00  0.00     0.029 A 
ATOM     57  C   UNL A   1      44.333  26.871  31.221  1.00  0.00     0.049 A 
ATOM     58  H   UNL A   1      43.027  25.233  31.073  1.00  0.00     0.167 HD
ATOM     59  C   UNL A   1      43.811  28.111  33.176  1.00  0.00     0.074 A 
ATOM     60  C   UNL A   1      43.890  28.824  34.439  1.00  0.00     0.031 C 
ATOM     61  C   UNL A   1      44.363  26.955  32.679  1.00  0.00     0.037 A 
BRANCH  48  62
ATOM     62  C   UNL A   1      43.250  24.209  27.336  1.00  0.00     0.058 A 
ATOM     63  C   UNL A   1      42.933  22.839  27.495  1.00  0.00     0.135 A 
ATOM     64  C   UNL A   1      43.982  24.506  26.168  1.00  0.00     0.135 A 
ATOM     65  F   UNL A   1      42.211  22.398  28.534  1.00  0.00    -0.206 F 
ATOM     66  C   UNL A   1      43.343  21.848  26.607  1.00  0.00     0.059 A 
ATOM     67  C   UNL A   1      44.433  23.523  25.276  1.00  0.00     0.059 A 
ATOM     68  F   UNL A   1      44.260  25.766  25.814  1.00  0.00    -0.206 F 
ATOM     69  C   UNL A   1      44.106  22.193  25.505  1.00  0.00     0.060 A 
BRANCH  69  70
ATOM     70  S   UNL A   1      44.629  20.882  24.387  1.00  0.00     0.124 S 
ATOM     71  O   UNL A   1      43.626  19.852  24.638  1.00  0.00    -0.237 OA
ATOM     72  O   UNL A   1      44.551  21.540  23.087  1.00  0.00    -0.237 OA
ATOM     73  O   UNL A   1      45.978  20.560  24.846  1.00  0.00    -0.744 OA
ENDBRANCH  69  70
ENDBRANCH  48  62
BRANCH  49  74
ATOM     74  C   UNL A   1      40.370  31.478  33.147  1.00  0.00     0.058 A 
ATOM     75  C   UNL A   1      39.528  30.451  33.625  1.00  0.00     0.135 A 
ATOM     76  C   UNL A   1      40.194  32.758  33.692  1.00  0.00     0.135 A 
ATOM     77  F   UNL A   1      39.627  29.213  33.114  1.00  0.00    -0.206 F 
ATOM     78  C   UNL A   1      38.724  30.627  34.747  1.00  0.00     0.059 A 
ATOM     79  C   UNL A   1      39.371  32.962  34.806  1.00  0.00     0.059 A 
ATOM     80  F   UNL A   1      40.942  33.786  33.262  1.00  0.00    -0.206 F 
ATOM     81  C   UNL A   1      38.724  31.866  35.381  1.00  0.00     0.060 A 
BRANCH  81  82
ATOM     82  S   UNL A   1      38.028  31.958  37.052  1.00  0.00     0.124 S 
ATOM     83  O   UNL A   1      36.949  32.925  36.881  1.00  0.00    -0.237 OA
ATOM     84  O   UNL A   1      37.606  30.575  37.283  1.00  0.00    -0.237 OA
ATOM     85  O   UNL A   1      39.154  32.416  37.858  1.00  0.00    -0.744 OA
ENDBRANCH  81  82
ENDBRANCH  49  74
BRANCH  61  86
ATOM     86  C   UNL A   1      45.040  25.804  33.438  1.00  0.00     0.058 A 
ATOM     87  C   UNL A   1      46.403  25.477  33.383  1.00  0.00     0.135 A 
ATOM     88  C   UNL A   1      44.302  25.012  34.372  1.00  0.00     0.135 A 
ATOM     89  F   UNL A   1      47.272  26.155  32.631  1.00  0.00    -0.206 F 
ATOM     90  C   UNL A   1      46.972  24.442  34.132  1.00  0.00     0.059 A 
ATOM     91  C   UNL A   1      44.862  24.024  35.179  1.00  0.00     0.059 A 
ATOM     92  F   UNL A   1      42.985  25.160  34.565  1.00  0.00    -0.206 F 
ATOM     93  C   UNL A   1      46.198  23.726  35.033  1.00  0.00     0.060 A 
BRANCH  93  94
ATOM     94  S   UNL A   1      46.964  22.429  36.010  1.00  0.00     0.124 S 
ATOM     95  O   UNL A   1      46.890  21.293  35.096  1.00  0.00    -0.237 OA
ATOM     96  O   UNL A   1      48.302  22.968  36.241  1.00  0.00    -0.237 OA
ATOM     97  O   UNL A   1      46.117  22.341  37.194  1.00  0.00    -0.744 OA
ENDBRANCH  93  94
ENDBRANCH  61  86
ENDBRANCH  35  36
ENDBRANCH  27  30
ENDBRANCH  25  26
ENDBRANCH  24  25
ENDBRANCH   1  24
TORSDOF 19
ENDMDL
MODEL 3
REMARK VINA RESULT:     -11.9      3.933     10.496
REMARK SMILES CC[C@H](C)[C@H](NS(=O)(=O)c1ccc(C)cc1)C(=O)NCCCCNC(=O)c1ccc(-c2c3nc(c(-c4c(F)cc(S(=O)(=O)[O-])cc4F)c4ccc([nH]4)c(-c4c(F)cc(S(=O)(=O)[O-])cc4F)c4nc(c(-c5c(F)cc(S(=O)(=O)[O-])cc5F)c5ccc2[nH]5)C=C4)C=C3)cc1
REMARK SMILES IDX 21 1 20 2 19 3 17 4 18 5 5 7 3 8 4 9 2 10 1 11 6 12 7 14
REMARK SMILES IDX 8 15 9 16 10 17 11 18 16 19 12 20 15 21 13 22 14 23 22 24
REMARK SMILES IDX 23 25 24 26 25 27 26 29 27 30 28 31 92 32 29 33 91 34 30 35
REMARK SMILES IDX 31 36 32 37 85 38 33 39 90 40 84 41 86 42 34 43 89 44 83 45
REMARK SMILES IDX 82 46 35 48 69 49 48 50 68 51 49 52 52 53 67 54 87 55 50 56
REMARK SMILES IDX 51 57 66 59 88 60 53 61 36 62 37 63 46 64 38 65 39 66 45 67
REMARK SMILES IDX 47 68 40 69 41 70 42 71 43 72 44 73 70 74 71 75 80 76 72 77
REMARK SMILES IDX 73 78 79 79 81 80 74 81 75 82 76 83 77 84 78 85 54 86 55 87
REMARK SMILES IDX 64 88 56 89 57 90 63 91 65 92 58 93 59 94 60 95 61 96 62 97
REMARK H PARENT 19 6 6 13 24 28 86 47 52 58
REMARK Flexibility Score: inf
ROOT
ATOM      1  C   UNL A   1      35.221  23.839  24.474  1.00  0.00     0.023 C 
ENDROOT
BRANCH   1   2
ATOM      2  C   UNL A   1      34.143  24.913  24.620  1.00  0.00     0.116 C 
BRANCH   2   3
ATOM      3  N   UNL A   1      33.214  24.696  25.723  1.00  0.00    -0.355 N 
ATOM      4  C   UNL A   1      32.107  25.402  26.107  1.00  0.00     0.238 C 
ATOM      5  O   UNL A   1      31.410  24.920  27.007  1.00  0.00    -0.273 OA
ATOM      6  H   UNL A   1      33.417  23.912  26.283  1.00  0.00     0.163 HD
BRANCH   4   7
ATOM      7  C   UNL A   1      31.756  26.796  25.517  1.00  0.00     0.161 C 
BRANCH   7   8
ATOM      8  C   UNL A   1      32.310  27.978  26.355  1.00  0.00     0.013 C 
ATOM      9  C   UNL A   1      31.450  28.236  27.603  1.00  0.00     0.010 C 
BRANCH   8  10
ATOM     10  C   UNL A   1      33.814  27.930  26.683  1.00  0.00     0.002 C 
ATOM     11  C   UNL A   1      34.530  29.272  26.729  1.00  0.00     0.004 C 
ENDBRANCH   8  10
ENDBRANCH   7   8
BRANCH   7  12
ATOM     12  N   UNL A   1      30.322  26.770  25.192  1.00  0.00    -0.198 NA
ATOM     13  H   UNL A   1      29.962  27.665  25.518  1.00  0.00     0.142 HD
BRANCH  12  14
ATOM     14  S   UNL A   1      29.642  26.555  23.698  1.00  0.00     0.241 S 
ATOM     15  O   UNL A   1      30.707  26.076  22.853  1.00  0.00    -0.207 OA
ATOM     16  O   UNL A   1      28.417  25.796  23.864  1.00  0.00    -0.207 OA
BRANCH  14  17
ATOM     17  C   UNL A   1      29.196  28.155  23.077  1.00  0.00     0.082 A 
ATOM     18  C   UNL A   1      27.927  28.698  23.283  1.00  0.00     0.022 A 
ATOM     19  C   UNL A   1      30.174  28.885  22.392  1.00  0.00     0.022 A 
ATOM     20  C   UNL A   1      27.632  29.969  22.780  1.00  0.00     0.005 A 
ATOM     21  C   UNL A   1      29.882  30.161  21.913  1.00  0.00     0.005 A 
ATOM     22  C   UNL A   1      28.607  30.711  22.096  1.00  0.00    -0.051 A 
ATOM     23  C   UNL A   1      28.315  32.092  21.587  1.00  0.00     0.044 C 
ENDBRANCH  14  17
ENDBRANCH  12  14
ENDBRANCH   7  12
ENDBRANCH   4   7
ENDBRANCH   2   3
ENDBRANCH   1   2
BRANCH   1  24
ATOM     24  C   UNL A   1      36.208  23.711  25.627  1.00  0.00     0.023 C 
BRANCH  24  25
ATOM     25  C   UNL A   1      37.401  22.816  25.361  1.00  0.00     0.116 C 
BRANCH  25  26
ATOM     26  N   UNL A   1      38.167  22.374  26.515  1.00  0.00    -0.352 N 
ATOM     27  C   UNL A   1      39.431  22.900  26.799  1.00  0.00     0.251 C 
ATOM     28  H   UNL A   1      37.786  21.688  27.110  1.00  0.00     0.163 HD
ATOM     29  O   UNL A   1      40.433  22.215  26.942  1.00  0.00    -0.269 OA
BRANCH  27  30
ATOM     30  C   UNL A   1      39.464  24.366  27.032  1.00  0.00     0.039 A 
ATOM     31  C   UNL A   1      40.209  25.199  26.191  1.00  0.00     0.014 A 
ATOM     32  C   UNL A   1      38.948  24.850  28.227  1.00  0.00     0.014 A 
ATOM     33  C   UNL A   1      40.612  26.447  26.658  1.00  0.00     0.010 A 
ATOM     34  C   UNL A   1      39.491  25.977  28.763  1.00  0.00     0.010 A 
ATOM     35  C   UNL A   1      40.332  26.766  27.979  1.00  0.00    -0.014 A 
BRANCH  35  36
ATOM     36  C   UNL A   1      40.704  27.976  28.671  1.00  0.00     0.031 A 
ATOM     37  C   UNL A   1      39.712  29.066  28.653  1.00  0.00     0.074 A 
ATOM     38  C   UNL A   1      41.689  27.861  29.585  1.00  0.00     0.049 A 
ATOM     39  N   UNL A   1      39.924  30.232  29.135  1.00  0.00    -0.248 NA
ATOM     40  C   UNL A   1      38.372  28.927  28.077  1.00  0.00     0.031 C 
ATOM     41  C   UNL A   1      41.928  28.659  30.780  1.00  0.00     0.029 A 
ATOM     42  N   UNL A   1      42.819  27.043  29.492  1.00  0.00    -0.354 N 
ATOM     43  C   UNL A   1      38.708  30.876  29.226  1.00  0.00     0.074 A 
ATOM     44  C   UNL A   1      37.789  30.062  28.474  1.00  0.00     0.031 C 
ATOM     45  C   UNL A   1      43.214  28.518  31.146  1.00  0.00     0.029 A 
ATOM     46  C   UNL A   1      43.870  27.762  30.091  1.00  0.00     0.049 A 
ATOM     47  H   UNL A   1      42.868  26.147  29.088  1.00  0.00     0.167 HD
ATOM     48  C   UNL A   1      38.626  31.948  30.064  1.00  0.00     0.037 A 
ATOM     49  C   UNL A   1      44.869  28.256  29.297  1.00  0.00     0.037 A 
ATOM     50  C   UNL A   1      39.946  32.207  30.637  1.00  0.00     0.049 A 
ATOM     51  C   UNL A   1      44.907  29.768  29.266  1.00  0.00     0.074 A 
ATOM     52  C   UNL A   1      40.540  31.837  31.831  1.00  0.00     0.029 A 
ATOM     53  N   UNL A   1      40.973  32.593  29.789  1.00  0.00    -0.354 N 
ATOM     54  N   UNL A   1      43.895  30.549  29.535  1.00  0.00    -0.248 NA
ATOM     55  C   UNL A   1      46.126  30.515  28.997  1.00  0.00     0.031 C 
ATOM     56  C   UNL A   1      41.943  32.008  31.692  1.00  0.00     0.029 A 
ATOM     57  C   UNL A   1      42.196  32.487  30.417  1.00  0.00     0.049 A 
ATOM     58  H   UNL A   1      40.846  32.900  28.862  1.00  0.00     0.167 HD
ATOM     59  C   UNL A   1      44.291  31.869  29.488  1.00  0.00     0.074 A 
ATOM     60  C   UNL A   1      45.705  31.779  29.172  1.00  0.00     0.031 C 
ATOM     61  C   UNL A   1      43.412  32.899  29.722  1.00  0.00     0.037 A 
BRANCH  48  62
ATOM     62  C   UNL A   1      37.367  32.622  30.563  1.00  0.00     0.058 A 
ATOM     63  C   UNL A   1      36.576  33.373  29.663  1.00  0.00     0.135 A 
ATOM     64  C   UNL A   1      36.875  32.588  31.883  1.00  0.00     0.135 A 
ATOM     65  F   UNL A   1      36.889  33.475  28.363  1.00  0.00    -0.206 F 
ATOM     66  C   UNL A   1      35.431  34.068  30.042  1.00  0.00     0.059 A 
ATOM     67  C   UNL A   1      35.742  33.302  32.297  1.00  0.00     0.059 A 
ATOM     68  F   UNL A   1      37.443  31.827  32.826  1.00  0.00    -0.206 F 
ATOM     69  C   UNL A   1      35.025  34.041  31.366  1.00  0.00     0.060 A 
BRANCH  69  70
ATOM     70  S   UNL A   1      33.546  34.962  31.821  1.00  0.00     0.124 S 
ATOM     71  O   UNL A   1      33.005  34.149  32.906  1.00  0.00    -0.237 OA
ATOM     72  O   UNL A   1      34.099  36.254  32.212  1.00  0.00    -0.237 OA
ATOM     73  O   UNL A   1      32.755  34.965  30.593  1.00  0.00    -0.744 OA
ENDBRANCH  69  70
ENDBRANCH  48  62
BRANCH  49  74
ATOM     74  C   UNL A   1      45.185  27.329  28.161  1.00  0.00     0.058 A 
ATOM     75  C   UNL A   1      45.933  26.175  28.480  1.00  0.00     0.135 A 
ATOM     76  C   UNL A   1      44.353  27.263  27.033  1.00  0.00     0.135 A 
ATOM     77  F   UNL A   1      46.773  26.192  29.527  1.00  0.00    -0.206 F 
ATOM     78  C   UNL A   1      45.688  24.952  27.864  1.00  0.00     0.059 A 
ATOM     79  C   UNL A   1      44.113  26.046  26.383  1.00  0.00     0.059 A 
ATOM     80  F   UNL A   1      43.637  28.334  26.657  1.00  0.00    -0.206 F 
ATOM     81  C   UNL A   1      44.710  24.884  26.876  1.00  0.00     0.060 A 
BRANCH  81  82
ATOM     82  S   UNL A   1      44.108  23.244  26.395  1.00  0.00     0.124 S 
ATOM     83  O   UNL A   1      45.337  22.578  25.978  1.00  0.00    -0.237 OA
ATOM     84  O   UNL A   1      43.519  22.757  27.644  1.00  0.00    -0.237 OA
ATOM     85  O   UNL A   1      43.163  23.535  25.324  1.00  0.00    -0.744 OA
ENDBRANCH  81  82
ENDBRANCH  49  74
BRANCH  61  86
ATOM     86  C   UNL A   1      43.573  34.394  29.407  1.00  0.00     0.058 A 
ATOM     87  C   UNL A   1      43.834  35.405  30.345  1.00  0.00     0.135 A 
ATOM     88  C   UNL A   1      43.561  34.861  28.056  1.00  0.00     0.135 A 
ATOM     89  F   UNL A   1      43.965  35.155  31.648  1.00  0.00    -0.206 F 
ATOM     90  C   UNL A   1      44.014  36.746  29.993  1.00  0.00     0.059 A 
ATOM     91  C   UNL A   1      43.806  36.180  27.678  1.00  0.00     0.059 A 
ATOM     92  F   UNL A   1      43.318  34.055  27.014  1.00  0.00    -0.206 F 
ATOM     93  C   UNL A   1      44.007  37.125  28.658  1.00  0.00     0.060 A 
BRANCH  93  94
ATOM     94  S   UNL A   1      44.279  38.848  28.235  1.00  0.00     0.124 S 
ATOM     95  O   UNL A   1      45.715  38.981  28.462  1.00  0.00    -0.237 OA
ATOM     96  O   UNL A   1      43.853  38.892  26.839  1.00  0.00    -0.237 OA
ATOM     97  O   UNL A   1      43.424  39.573  29.168  1.00  0.00    -0.744 OA
ENDBRANCH  93  94
ENDBRANCH  61  86
ENDBRANCH  35  36
ENDBRANCH  27  30
ENDBRANCH  25  26
ENDBRANCH  24  25
ENDBRANCH   1  24
TORSDOF 19
ENDMDL
