MODEL 1
REMARK VINA RESULT:     -13.0      0.000      0.000
REMARK SMILES O=C(Nc1cccc(C(=O)NCCCCNC(=O)c2ccc(-c3c4nc(c(-c5c(F)cc(S(=O)(=O)[O-])cc5F)c5ccc([nH]5)c(-c5c(F)cc(S(=O)(=O)[O-])cc5F)c5nc(c(-c6c(F)cc(S(=O)(=O)[O-])cc6F)c6ccc3[nH]6)C=C5)C=C4)cc2)c1)Nc1cc(Cl)c(Cl)cc1Cl
REMARK SMILES IDX 14 1 13 2 12 3 11 4 9 5 10 6 8 8 4 9 5 10 85 11 6 12 7 13
REMARK SMILES IDX 3 14 1 15 2 16 86 17 87 20 88 21 94 22 89 23 93 24 95 25
REMARK SMILES IDX 90 26 91 27 92 28 15 29 16 30 17 31 18 33 19 34 20 35 84 36
REMARK SMILES IDX 21 37 83 38 22 39 23 40 24 41 77 42 25 43 82 44 76 45 78 46
REMARK SMILES IDX 26 47 81 48 75 49 74 50 27 52 61 53 40 54 60 55 41 56 44 57
REMARK SMILES IDX 59 58 79 59 42 60 43 61 58 63 80 64 45 65 28 66 29 67 38 68
REMARK SMILES IDX 30 69 31 70 37 71 39 72 32 73 33 74 34 75 35 76 36 77 62 78
REMARK SMILES IDX 63 79 72 80 64 81 65 82 71 83 73 84 66 85 67 86 68 87 69 88
REMARK SMILES IDX 70 89 46 90 47 91 56 92 48 93 49 94 55 95 57 96 50 97 51 98
REMARK SMILES IDX 52 99 53 100 54 101
REMARK H PARENT 11 7 3 18 86 19 16 32 78 51 44 62
REMARK Flexibility Score: inf
ROOT
ATOM      1  C   UNL A   1      34.177  29.849  26.839  1.00  0.00     0.023 C 
ENDROOT
BRANCH   1   2
ATOM      2  C   UNL A   1      32.701  29.880  27.249  1.00  0.00     0.023 C 
BRANCH   2   3
ATOM      3  C   UNL A   1      31.763  30.449  26.183  1.00  0.00     0.116 C 
BRANCH   3   4
ATOM      4  N   UNL A   1      32.191  30.065  24.853  1.00  0.00    -0.352 N 
ATOM      5  C   UNL A   1      32.025  28.934  24.096  1.00  0.00     0.251 C 
ATOM      6  O   UNL A   1      32.528  28.946  22.969  1.00  0.00    -0.269 OA
ATOM      7  H   UNL A   1      32.713  30.764  24.396  1.00  0.00     0.163 HD
BRANCH   5   8
ATOM      8  C   UNL A   1      31.258  27.719  24.518  1.00  0.00     0.041 A 
ATOM      9  C   UNL A   1      30.859  25.701  25.831  1.00  0.00     0.043 A 
ATOM     10  C   UNL A   1      29.670  25.471  25.143  1.00  0.00     0.026 A 
ATOM     11  C   UNL A   1      31.672  26.785  25.470  1.00  0.00     0.040 A 
ATOM     12  C   UNL A   1      29.250  26.373  24.169  1.00  0.00     0.003 A 
ATOM     13  C   UNL A   1      30.030  27.494  23.873  1.00  0.00     0.014 A 
BRANCH   9  14
ATOM     14  N   UNL A   1      31.218  24.807  26.855  1.00  0.00    -0.308 N 
ATOM     15  O   UNL A   1      32.125  22.963  27.767  1.00  0.00    -0.248 OA
ATOM     16  C   UNL A   1      32.116  23.765  26.836  1.00  0.00     0.323 C 
ATOM     17  N   UNL A   1      33.065  23.826  25.844  1.00  0.00    -0.306 N 
ATOM     18  H   UNL A   1      30.759  24.948  27.714  1.00  0.00     0.171 HD
ATOM     19  H   UNL A   1      33.066  24.630  25.275  1.00  0.00     0.171 HD
BRANCH  17  20
ATOM     20  C   UNL A   1      34.040  22.843  25.567  1.00  0.00     0.063 A 
ATOM     21  C   UNL A   1      35.373  23.231  25.770  1.00  0.00     0.049 A 
ATOM     22  C   UNL A   1      33.777  21.550  25.080  1.00  0.00     0.066 A 
ATOM     23  C   UNL A   1      36.421  22.323  25.582  1.00  0.00     0.061 A 
ATOM     24  C   UNL A   1      34.830  20.648  24.878  1.00  0.00     0.044 A 
ATOM     25  Cl  UNL A   1      32.216  21.050  24.530  1.00  0.00    -0.082 Cl
ATOM     26  Cl  UNL A   1      38.023  22.874  25.918  1.00  0.00    -0.083 Cl
ATOM     27  C   UNL A   1      36.147  21.024  25.147  1.00  0.00     0.061 A 
ATOM     28  Cl  UNL A   1      37.390  19.850  24.911  1.00  0.00    -0.083 Cl
ENDBRANCH  17  20
ENDBRANCH   9  14
ENDBRANCH   5   8
ENDBRANCH   3   4
ENDBRANCH   2   3
ENDBRANCH   1   2
BRANCH   1  29
ATOM     29  C   UNL A   1      35.139  29.387  27.931  1.00  0.00     0.116 C 
BRANCH  29  30
ATOM     30  N   UNL A   1      35.215  30.297  29.064  1.00  0.00    -0.352 N 
ATOM     31  C   UNL A   1      36.323  30.612  29.822  1.00  0.00     0.251 C 
ATOM     32  H   UNL A   1      34.375  30.740  29.321  1.00  0.00     0.163 HD
ATOM     33  O   UNL A   1      36.221  31.349  30.790  1.00  0.00    -0.269 OA
BRANCH  31  34
ATOM     34  C   UNL A   1      37.622  29.995  29.469  1.00  0.00     0.039 A 
ATOM     35  C   UNL A   1      38.014  29.976  28.129  1.00  0.00     0.014 A 
ATOM     36  C   UNL A   1      38.469  29.501  30.463  1.00  0.00     0.014 A 
ATOM     37  C   UNL A   1      39.292  29.524  27.792  1.00  0.00     0.010 A 
ATOM     38  C   UNL A   1      39.763  29.107  30.131  1.00  0.00     0.010 A 
ATOM     39  C   UNL A   1      40.190  29.123  28.794  1.00  0.00    -0.014 A 
BRANCH  39  40
ATOM     40  C   UNL A   1      41.586  28.729  28.469  1.00  0.00     0.031 A 
ATOM     41  C   UNL A   1      42.678  29.763  28.455  1.00  0.00     0.074 A 
ATOM     42  C   UNL A   1      41.856  27.456  28.118  1.00  0.00     0.049 A 
ATOM     43  N   UNL A   1      43.932  29.633  28.111  1.00  0.00    -0.248 NA
ATOM     44  C   UNL A   1      42.301  31.129  28.856  1.00  0.00     0.031 C 
ATOM     45  C   UNL A   1      40.875  26.369  28.050  1.00  0.00     0.029 A 
ATOM     46  N   UNL A   1      43.034  26.862  27.741  1.00  0.00    -0.354 N 
ATOM     47  C   UNL A   1      44.492  30.899  28.234  1.00  0.00     0.074 A 
ATOM     48  C   UNL A   1      43.430  31.792  28.645  1.00  0.00     0.031 C 
ATOM     49  C   UNL A   1      41.498  25.238  27.678  1.00  0.00     0.029 A 
ATOM     50  C   UNL A   1      42.910  25.524  27.449  1.00  0.00     0.049 A 
ATOM     51  H   UNL A   1      43.888  27.348  27.685  1.00  0.00     0.167 HD
ATOM     52  C   UNL A   1      45.778  31.279  28.045  1.00  0.00     0.037 A 
ATOM     53  C   UNL A   1      43.830  24.628  27.039  1.00  0.00     0.037 A 
ATOM     54  C   UNL A   1      46.840  30.382  27.671  1.00  0.00     0.049 A 
ATOM     55  C   UNL A   1      45.254  25.072  26.849  1.00  0.00     0.074 A 
ATOM     56  C   UNL A   1      48.185  30.662  27.508  1.00  0.00     0.029 A 
ATOM     57  N   UNL A   1      46.679  29.029  27.411  1.00  0.00    -0.354 N 
ATOM     58  N   UNL A   1      45.774  26.265  27.013  1.00  0.00    -0.248 NA
ATOM     59  C   UNL A   1      46.219  24.049  26.420  1.00  0.00     0.031 C 
ATOM     60  C   UNL A   1      48.833  29.483  27.121  1.00  0.00     0.029 A 
ATOM     61  C   UNL A   1      47.898  28.462  27.079  1.00  0.00     0.049 A 
ATOM     62  H   UNL A   1      45.823  28.544  27.455  1.00  0.00     0.167 HD
ATOM     63  C   UNL A   1      47.130  26.129  26.734  1.00  0.00     0.074 A 
ATOM     64  C   UNL A   1      47.351  24.738  26.398  1.00  0.00     0.031 C 
ATOM     65  C   UNL A   1      48.103  27.073  26.757  1.00  0.00     0.037 A 
BRANCH  52  66
ATOM     66  C   UNL A   1      46.111  32.729  28.250  1.00  0.00     0.058 A 
ATOM     67  C   UNL A   1      46.498  33.222  29.507  1.00  0.00     0.135 A 
ATOM     68  C   UNL A   1      46.077  33.632  27.175  1.00  0.00     0.135 A 
ATOM     69  F   UNL A   1      46.531  32.405  30.571  1.00  0.00    -0.206 F 
ATOM     70  C   UNL A   1      46.815  34.562  29.697  1.00  0.00     0.059 A 
ATOM     71  C   UNL A   1      46.413  34.972  27.337  1.00  0.00     0.059 A 
ATOM     72  F   UNL A   1      45.712  33.214  25.952  1.00  0.00    -0.206 F 
ATOM     73  C   UNL A   1      46.767  35.431  28.605  1.00  0.00     0.060 A 
BRANCH  73  74
ATOM     74  S   UNL A   1      47.188  37.168  28.865  1.00  0.00     0.124 S 
ATOM     75  O   UNL A   1      48.268  37.351  27.900  1.00  0.00    -0.237 OA
ATOM     76  O   UNL A   1      45.935  37.846  28.550  1.00  0.00    -0.237 OA
ATOM     77  O   UNL A   1      47.586  37.213  30.269  1.00  0.00    -0.744 OA
ENDBRANCH  73  74
ENDBRANCH  52  66
BRANCH  53  78
ATOM     78  C   UNL A   1      43.440  23.211  26.814  1.00  0.00     0.058 A 
ATOM     79  C   UNL A   1      43.390  22.680  25.518  1.00  0.00     0.135 A 
ATOM     80  C   UNL A   1      43.124  22.360  27.884  1.00  0.00     0.135 A 
ATOM     81  F   UNL A   1      43.678  23.458  24.463  1.00  0.00    -0.206 F 
ATOM     82  C   UNL A   1      43.028  21.358  25.285  1.00  0.00     0.059 A 
ATOM     83  C   UNL A   1      42.778  21.029  27.679  1.00  0.00     0.059 A 
ATOM     84  F   UNL A   1      43.173  22.818  29.145  1.00  0.00    -0.206 F 
ATOM     85  C   UNL A   1      42.723  20.539  26.374  1.00  0.00     0.060 A 
BRANCH  85  86
ATOM     86  S   UNL A   1      42.304  18.809  26.067  1.00  0.00     0.124 S 
ATOM     87  O   UNL A   1      40.895  18.909  25.708  1.00  0.00    -0.237 OA
ATOM     88  O   UNL A   1      43.216  18.458  24.982  1.00  0.00    -0.237 OA
ATOM     89  O   UNL A   1      42.587  18.165  27.346  1.00  0.00    -0.744 OA
ENDBRANCH  85  86
ENDBRANCH  53  78
BRANCH  65  90
ATOM     90  C   UNL A   1      49.503  26.630  26.442  1.00  0.00     0.058 A 
ATOM     91  C   UNL A   1      50.330  26.060  27.421  1.00  0.00     0.135 A 
ATOM     92  C   UNL A   1      50.000  26.725  25.132  1.00  0.00     0.135 A 
ATOM     93  F   UNL A   1      49.903  25.953  28.688  1.00  0.00    -0.206 F 
ATOM     94  C   UNL A   1      51.612  25.613  27.115  1.00  0.00     0.059 A 
ATOM     95  C   UNL A   1      51.270  26.265  24.800  1.00  0.00     0.059 A 
ATOM     96  F   UNL A   1      49.243  27.256  24.159  1.00  0.00    -0.206 F 
ATOM     97  C   UNL A   1      52.073  25.720  25.801  1.00  0.00     0.060 A 
BRANCH  97  98
ATOM     98  S   UNL A   1      53.721  25.099  25.406  1.00  0.00     0.124 S 
ATOM     99  O   UNL A   1      54.520  25.684  26.477  1.00  0.00    -0.237 OA
ATOM    100  O   UNL A   1      53.537  23.652  25.470  1.00  0.00    -0.237 OA
ATOM    101  O   UNL A   1      53.973  25.632  24.070  1.00  0.00    -0.744 OA
ENDBRANCH  97  98
ENDBRANCH  65  90
ENDBRANCH  39  40
ENDBRANCH  31  34
ENDBRANCH  29  30
ENDBRANCH   1  29
TORSDOF 16
ENDMDL
MODEL 2
REMARK VINA RESULT:     -12.8      2.734      3.705
REMARK SMILES O=C(Nc1cccc(C(=O)NCCCCNC(=O)c2ccc(-c3c4nc(c(-c5c(F)cc(S(=O)(=O)[O-])cc5F)c5ccc([nH]5)c(-c5c(F)cc(S(=O)(=O)[O-])cc5F)c5nc(c(-c6c(F)cc(S(=O)(=O)[O-])cc6F)c6ccc3[nH]6)C=C5)C=C4)cc2)c1)Nc1cc(Cl)c(Cl)cc1Cl
REMARK SMILES IDX 14 1 13 2 12 3 11 4 9 5 10 6 8 8 4 9 5 10 85 11 6 12 7 13
REMARK SMILES IDX 3 14 1 15 2 16 86 17 87 20 88 21 94 22 89 23 93 24 95 25
REMARK SMILES IDX 90 26 91 27 92 28 15 29 16 30 17 31 18 33 19 34 20 35 84 36
REMARK SMILES IDX 21 37 83 38 22 39 23 40 24 41 77 42 25 43 82 44 76 45 78 46
REMARK SMILES IDX 26 47 81 48 75 49 74 50 27 52 61 53 40 54 60 55 41 56 44 57
REMARK SMILES IDX 59 58 79 59 42 60 43 61 58 63 80 64 45 65 28 66 29 67 38 68
REMARK SMILES IDX 30 69 31 70 37 71 39 72 32 73 33 74 34 75 35 76 36 77 62 78
REMARK SMILES IDX 63 79 72 80 64 81 65 82 71 83 73 84 66 85 67 86 68 87 69 88
REMARK SMILES IDX 70 89 46 90 47 91 56 92 48 93 49 94 55 95 57 96 50 97 51 98
REMARK SMILES IDX 52 99 53 100 54 101
REMARK H PARENT 11 7 3 18 86 19 16 32 78 51 44 62
REMARK Flexibility Score: inf
ROOT
ATOM      1  C   UNL A   1      33.709  28.076  25.740  1.00  0.00     0.023 C 
ENDROOT
BRANCH   1   2
ATOM      2  C   UNL A   1      33.457  29.299  24.852  1.00  0.00     0.023 C 
BRANCH   2   3
ATOM      3  C   UNL A   1      33.539  29.014  23.351  1.00  0.00     0.116 C 
BRANCH   3   4
ATOM      4  N   UNL A   1      32.262  29.243  22.706  1.00  0.00    -0.352 N 
ATOM      5  C   UNL A   1      31.088  28.538  22.657  1.00  0.00     0.251 C 
ATOM      6  O   UNL A   1      30.170  29.040  22.003  1.00  0.00    -0.269 OA
ATOM      7  H   UNL A   1      32.232  30.082  22.192  1.00  0.00     0.163 HD
BRANCH   5   8
ATOM      8  C   UNL A   1      30.831  27.240  23.359  1.00  0.00     0.041 A 
ATOM      9  C   UNL A   1      30.666  24.811  23.526  1.00  0.00     0.043 A 
ATOM     10  C   UNL A   1      30.280  24.914  24.860  1.00  0.00     0.026 A 
ATOM     11  C   UNL A   1      30.876  25.974  22.772  1.00  0.00     0.040 A 
ATOM     12  C   UNL A   1      30.200  26.169  25.461  1.00  0.00     0.003 A 
ATOM     13  C   UNL A   1      30.490  27.316  24.720  1.00  0.00     0.014 A 
BRANCH   9  14
ATOM     14  N   UNL A   1      30.802  23.525  22.971  1.00  0.00    -0.308 N 
ATOM     15  O   UNL A   1      31.865  21.651  22.333  1.00  0.00    -0.248 OA
ATOM     16  C   UNL A   1      31.843  22.632  23.072  1.00  0.00     0.323 C 
ATOM     17  N   UNL A   1      32.683  22.828  24.142  1.00  0.00    -0.306 N 
ATOM     18  H   UNL A   1      30.038  23.219  22.432  1.00  0.00     0.171 HD
ATOM     19  H   UNL A   1      32.441  23.541  24.775  1.00  0.00     0.171 HD
BRANCH  17  20
ATOM     20  C   UNL A   1      33.861  22.099  24.414  1.00  0.00     0.063 A 
ATOM     21  C   UNL A   1      33.717  20.704  24.471  1.00  0.00     0.049 A 
ATOM     22  C   UNL A   1      35.127  22.660  24.664  1.00  0.00     0.066 A 
ATOM     23  C   UNL A   1      34.825  19.877  24.679  1.00  0.00     0.061 A 
ATOM     24  C   UNL A   1      36.231  21.828  24.888  1.00  0.00     0.044 A 
ATOM     25  Cl  UNL A   1      35.377  24.355  24.898  1.00  0.00    -0.082 Cl
ATOM     26  Cl  UNL A   1      34.558  18.169  24.667  1.00  0.00    -0.083 Cl
ATOM     27  C   UNL A   1      36.088  20.439  24.875  1.00  0.00     0.061 A 
ATOM     28  Cl  UNL A   1      37.498  19.475  25.120  1.00  0.00    -0.083 Cl
ENDBRANCH  17  20
ENDBRANCH   9  14
ENDBRANCH   5   8
ENDBRANCH   3   4
ENDBRANCH   2   3
ENDBRANCH   1   2
BRANCH   1  29
ATOM     29  C   UNL A   1      33.581  28.331  27.240  1.00  0.00     0.116 C 
BRANCH  29  30
ATOM     30  N   UNL A   1      33.467  29.740  27.584  1.00  0.00    -0.352 N 
ATOM     31  C   UNL A   1      34.450  30.571  28.079  1.00  0.00     0.251 C 
ATOM     32  H   UNL A   1      32.583  30.150  27.447  1.00  0.00     0.163 HD
ATOM     33  O   UNL A   1      34.190  31.725  28.384  1.00  0.00    -0.269 OA
BRANCH  31  34
ATOM     34  C   UNL A   1      35.808  30.019  28.282  1.00  0.00     0.039 A 
ATOM     35  C   UNL A   1      36.716  30.059  27.222  1.00  0.00     0.014 A 
ATOM     36  C   UNL A   1      36.198  29.526  29.530  1.00  0.00     0.014 A 
ATOM     37  C   UNL A   1      38.041  29.671  27.434  1.00  0.00     0.010 A 
ATOM     38  C   UNL A   1      37.532  29.195  29.754  1.00  0.00     0.010 A 
ATOM     39  C   UNL A   1      38.468  29.272  28.711  1.00  0.00    -0.014 A 
BRANCH  39  40
ATOM     40  C   UNL A   1      39.891  28.945  28.983  1.00  0.00     0.031 A 
ATOM     41  C   UNL A   1      40.805  29.984  29.572  1.00  0.00     0.074 A 
ATOM     42  C   UNL A   1      40.378  27.737  28.634  1.00  0.00     0.049 A 
ATOM     43  N   UNL A   1      42.091  29.919  29.797  1.00  0.00    -0.248 NA
ATOM     44  C   UNL A   1      40.195  31.276  29.930  1.00  0.00     0.031 C 
ATOM     45  C   UNL A   1      39.604  26.659  28.014  1.00  0.00     0.029 A 
ATOM     46  N   UNL A   1      41.643  27.216  28.740  1.00  0.00    -0.354 N 
ATOM     47  C   UNL A   1      42.451  31.162  30.305  1.00  0.00     0.074 A 
ATOM     48  C   UNL A   1      41.253  31.975  30.315  1.00  0.00     0.031 C 
ATOM     49  C   UNL A   1      40.405  25.599  27.817  1.00  0.00     0.029 A 
ATOM     50  C   UNL A   1      41.754  25.931  28.264  1.00  0.00     0.049 A 
ATOM     51  H   UNL A   1      42.401  27.716  29.122  1.00  0.00     0.167 HD
ATOM     52  C   UNL A   1      43.662  31.581  30.743  1.00  0.00     0.037 A 
ATOM     53  C   UNL A   1      42.823  25.113  28.192  1.00  0.00     0.037 A 
ATOM     54  C   UNL A   1      44.842  30.758  30.765  1.00  0.00     0.049 A 
ATOM     55  C   UNL A   1      44.154  25.597  28.698  1.00  0.00     0.074 A 
ATOM     56  C   UNL A   1      46.103  31.075  31.241  1.00  0.00     0.029 A 
ATOM     57  N   UNL A   1      44.907  29.454  30.299  1.00  0.00    -0.354 N 
ATOM     58  N   UNL A   1      44.465  26.761  29.215  1.00  0.00    -0.248 NA
ATOM     59  C   UNL A   1      45.280  24.656  28.613  1.00  0.00     0.031 C 
ATOM     60  C   UNL A   1      46.937  29.970  31.037  1.00  0.00     0.029 A 
ATOM     61  C   UNL A   1      46.188  28.954  30.467  1.00  0.00     0.049 A 
ATOM     62  H   UNL A   1      44.154  28.956  29.906  1.00  0.00     0.167 HD
ATOM     63  C   UNL A   1      45.814  26.683  29.542  1.00  0.00     0.074 A 
ATOM     64  C   UNL A   1      46.259  25.356  29.171  1.00  0.00     0.031 C 
ATOM     65  C   UNL A   1      46.611  27.626  30.101  1.00  0.00     0.037 A 
BRANCH  52  66
ATOM     66  C   UNL A   1      43.767  32.992  31.247  1.00  0.00     0.058 A 
ATOM     67  C   UNL A   1      44.100  34.053  30.390  1.00  0.00     0.135 A 
ATOM     68  C   UNL A   1      43.500  33.295  32.591  1.00  0.00     0.135 A 
ATOM     69  F   UNL A   1      44.381  33.816  29.099  1.00  0.00    -0.206 F 
ATOM     70  C   UNL A   1      44.190  35.362  30.852  1.00  0.00     0.059 A 
ATOM     71  C   UNL A   1      43.560  34.600  33.071  1.00  0.00     0.059 A 
ATOM     72  F   UNL A   1      43.179  32.318  33.454  1.00  0.00    -0.206 F 
ATOM     73  C   UNL A   1      43.919  35.625  32.196  1.00  0.00     0.060 A 
BRANCH  73  74
ATOM     74  S   UNL A   1      44.032  37.329  32.782  1.00  0.00     0.124 S 
ATOM     75  O   UNL A   1      42.931  37.380  33.739  1.00  0.00    -0.237 OA
ATOM     76  O   UNL A   1      45.374  37.377  33.355  1.00  0.00    -0.237 OA
ATOM     77  O   UNL A   1      43.845  38.117  31.567  1.00  0.00    -0.744 OA
ENDBRANCH  73  74
ENDBRANCH  52  66
BRANCH  53  78
ATOM     78  C   UNL A   1      42.671  23.737  27.650  1.00  0.00     0.058 A 
ATOM     79  C   UNL A   1      42.468  22.649  28.510  1.00  0.00     0.135 A 
ATOM     80  C   UNL A   1      42.715  23.484  26.271  1.00  0.00     0.135 A 
ATOM     81  F   UNL A   1      42.425  22.842  29.837  1.00  0.00    -0.206 F 
ATOM     82  C   UNL A   1      42.324  21.354  28.025  1.00  0.00     0.059 A 
ATOM     83  C   UNL A   1      42.554  22.201  25.760  1.00  0.00     0.059 A 
ATOM     84  F   UNL A   1      42.893  24.496  25.407  1.00  0.00    -0.206 F 
ATOM     85  C   UNL A   1      42.369  21.139  26.646  1.00  0.00     0.060 A 
BRANCH  85  86
ATOM     86  S   UNL A   1      42.131  19.461  26.022  1.00  0.00     0.124 S 
ATOM     87  O   UNL A   1      42.627  18.662  27.134  1.00  0.00    -0.237 OA
ATOM     88  O   UNL A   1      40.689  19.418  25.796  1.00  0.00    -0.237 OA
ATOM     89  O   UNL A   1      42.947  19.437  24.812  1.00  0.00    -0.744 OA
ENDBRANCH  85  86
ENDBRANCH  53  78
BRANCH  65  90
ATOM     90  C   UNL A   1      48.038  27.249  30.378  1.00  0.00     0.058 A 
ATOM     91  C   UNL A   1      49.075  27.607  29.504  1.00  0.00     0.135 A 
ATOM     92  C   UNL A   1      48.378  26.573  31.561  1.00  0.00     0.135 A 
ATOM     93  F   UNL A   1      48.801  28.248  28.357  1.00  0.00    -0.206 F 
ATOM     94  C   UNL A   1      50.402  27.292  29.785  1.00  0.00     0.059 A 
ATOM     95  C   UNL A   1      49.698  26.268  31.872  1.00  0.00     0.059 A 
ATOM     96  F   UNL A   1      47.422  26.217  32.435  1.00  0.00    -0.206 F 
ATOM     97  C   UNL A   1      50.703  26.623  30.973  1.00  0.00     0.060 A 
BRANCH  97  98
ATOM     98  S   UNL A   1      52.430  26.256  31.348  1.00  0.00     0.124 S 
ATOM     99  O   UNL A   1      52.990  26.081  30.013  1.00  0.00    -0.237 OA
ATOM    100  O   UNL A   1      52.859  27.454  32.064  1.00  0.00    -0.237 OA
ATOM    101  O   UNL A   1      52.351  25.045  32.161  1.00  0.00    -0.744 OA
ENDBRANCH  97  98
ENDBRANCH  65  90
ENDBRANCH  39  40
ENDBRANCH  31  34
ENDBRANCH  29  30
ENDBRANCH   1  29
TORSDOF 16
ENDMDL
MODEL 3
REMARK VINA RESULT:     -12.8      0.984      1.596
REMARK SMILES O=C(Nc1cccc(C(=O)NCCCCNC(=O)c2ccc(-c3c4nc(c(-c5c(F)cc(S(=O)(=O)[O-])cc5F)c5ccc([nH]5)c(-c5c(F)cc(S(=O)(=O)[O-])cc5F)c5nc(c(-c6c(F)cc(S(=O)(=O)[O-])cc6F)c6ccc3[nH]6)C=C5)C=C4)cc2)c1)Nc1cc(Cl)c(Cl)cc1Cl
REMARK SMILES IDX 14 1 13 2 12 3 11 4 9 5 10 6 8 8 4 9 5 10 85 11 6 12 7 13
REMARK SMILES IDX 3 14 1 15 2 16 86 17 87 20 88 21 94 22 89 23 93 24 95 25
REMARK SMILES IDX 90 26 91 27 92 28 15 29 16 30 17 31 18 33 19 34 20 35 84 36
REMARK SMILES IDX 21 37 83 38 22 39 23 40 24 41 77 42 25 43 82 44 76 45 78 46
REMARK SMILES IDX 26 47 81 48 75 49 74 50 27 52 61 53 40 54 60 55 41 56 44 57
REMARK SMILES IDX 59 58 79 59 42 60 43 61 58 63 80 64 45 65 28 66 29 67 38 68
REMARK SMILES IDX 30 69 31 70 37 71 39 72 32 73 33 74 34 75 35 76 36 77 62 78
REMARK SMILES IDX 63 79 72 80 64 81 65 82 71 83 73 84 66 85 67 86 68 87 69 88
REMARK SMILES IDX 70 89 46 90 47 91 56 92 48 93 49 94 55 95 57 96 50 97 51 98
REMARK SMILES IDX 52 99 53 100 54 101
REMARK H PARENT 11 7 3 18 86 19 16 32 78 51 44 62
REMARK Flexibility Score: inf
ROOT
ATOM      1  C   UNL A   1      34.446  29.161  26.944  1.00  0.00     0.023 C 
ENDROOT
BRANCH   1   2
ATOM      2  C   UNL A   1      33.056  29.722  27.256  1.00  0.00     0.023 C 
BRANCH   2   3
ATOM      3  C   UNL A   1      32.356  30.372  26.061  1.00  0.00     0.116 C 
BRANCH   3   4
ATOM      4  N   UNL A   1      32.879  29.862  24.810  1.00  0.00    -0.352 N 
ATOM      5  C   UNL A   1      32.514  28.833  23.981  1.00  0.00     0.251 C 
ATOM      6  O   UNL A   1      33.192  28.678  22.963  1.00  0.00    -0.269 OA
ATOM      7  H   UNL A   1      33.664  30.361  24.486  1.00  0.00     0.163 HD
BRANCH   5   8
ATOM      8  C   UNL A   1      31.348  27.919  24.203  1.00  0.00     0.041 A 
ATOM      9  C   UNL A   1      30.129  26.118  25.310  1.00  0.00     0.043 A 
ATOM     10  C   UNL A   1      29.058  26.286  24.435  1.00  0.00     0.026 A 
ATOM     11  C   UNL A   1      31.286  26.892  25.147  1.00  0.00     0.040 A 
ATOM     12  C   UNL A   1      29.107  27.286  23.466  1.00  0.00     0.003 A 
ATOM     13  C   UNL A   1      30.235  28.103  23.365  1.00  0.00     0.014 A 
BRANCH   9  14
ATOM     14  N   UNL A   1      30.016  25.145  26.319  1.00  0.00    -0.308 N 
ATOM     15  O   UNL A   1      30.167  23.105  27.249  1.00  0.00    -0.248 OA
ATOM     16  C   UNL A   1      30.563  23.885  26.388  1.00  0.00     0.323 C 
ATOM     17  N   UNL A   1      31.659  23.677  25.584  1.00  0.00    -0.306 N 
ATOM     18  H   UNL A   1      29.464  25.404  27.091  1.00  0.00     0.171 HD
ATOM     19  H   UNL A   1      31.998  24.451  25.080  1.00  0.00     0.171 HD
BRANCH  17  20
ATOM     20  C   UNL A   1      32.344  22.453  25.418  1.00  0.00     0.063 A 
ATOM     21  C   UNL A   1      31.974  21.694  24.296  1.00  0.00     0.049 A 
ATOM     22  C   UNL A   1      33.316  21.938  26.293  1.00  0.00     0.066 A 
ATOM     23  C   UNL A   1      32.624  20.491  23.999  1.00  0.00     0.061 A 
ATOM     24  C   UNL A   1      33.954  20.725  26.001  1.00  0.00     0.044 A 
ATOM     25  Cl  UNL A   1      33.655  22.634  27.840  1.00  0.00    -0.082 Cl
ATOM     26  Cl  UNL A   1      32.144  19.661  22.562  1.00  0.00    -0.083 Cl
ATOM     27  C   UNL A   1      33.625  20.012  24.846  1.00  0.00     0.061 A 
ATOM     28  Cl  UNL A   1      34.476  18.544  24.530  1.00  0.00    -0.083 Cl
ENDBRANCH  17  20
ENDBRANCH   9  14
ENDBRANCH   5   8
ENDBRANCH   3   4
ENDBRANCH   2   3
ENDBRANCH   1   2
BRANCH   1  29
ATOM     29  C   UNL A   1      35.599  29.852  27.667  1.00  0.00     0.116 C 
BRANCH  29  30
ATOM     30  N   UNL A   1      35.359  30.052  29.088  1.00  0.00    -0.352 N 
ATOM     31  C   UNL A   1      36.287  30.075  30.107  1.00  0.00     0.251 C 
ATOM     32  H   UNL A   1      34.421  30.188  29.355  1.00  0.00     0.163 HD
ATOM     33  O   UNL A   1      35.929  30.190  31.269  1.00  0.00    -0.269 OA
BRANCH  31  34
ATOM     34  C   UNL A   1      37.718  29.901  29.766  1.00  0.00     0.039 A 
ATOM     35  C   UNL A   1      38.614  29.560  30.780  1.00  0.00     0.014 A 
ATOM     36  C   UNL A   1      38.153  30.013  28.443  1.00  0.00     0.014 A 
ATOM     37  C   UNL A   1      39.939  29.258  30.456  1.00  0.00     0.010 A 
ATOM     38  C   UNL A   1      39.459  29.655  28.115  1.00  0.00     0.010 A 
ATOM     39  C   UNL A   1      40.361  29.266  29.118  1.00  0.00    -0.014 A 
BRANCH  39  40
ATOM     40  C   UNL A   1      41.739  28.857  28.739  1.00  0.00     0.031 A 
ATOM     41  C   UNL A   1      42.845  29.875  28.707  1.00  0.00     0.074 A 
ATOM     42  C   UNL A   1      41.978  27.587  28.356  1.00  0.00     0.049 A 
ATOM     43  N   UNL A   1      44.086  29.733  28.318  1.00  0.00    -0.248 NA
ATOM     44  C   UNL A   1      42.504  31.239  29.144  1.00  0.00     0.031 C 
ATOM     45  C   UNL A   1      40.979  26.516  28.302  1.00  0.00     0.029 A 
ATOM     46  N   UNL A   1      43.134  26.982  27.929  1.00  0.00    -0.354 N 
ATOM     47  C   UNL A   1      44.669  30.988  28.446  1.00  0.00     0.074 A 
ATOM     48  C   UNL A   1      43.634  31.889  28.908  1.00  0.00     0.031 C 
ATOM     49  C   UNL A   1      41.571  25.383  27.889  1.00  0.00     0.029 A 
ATOM     50  C   UNL A   1      42.979  25.652  27.617  1.00  0.00     0.049 A 
ATOM     51  H   UNL A   1      43.993  27.457  27.853  1.00  0.00     0.167 HD
ATOM     52  C   UNL A   1      45.954  31.353  28.220  1.00  0.00     0.037 A 
ATOM     53  C   UNL A   1      43.871  24.751  27.161  1.00  0.00     0.037 A 
ATOM     54  C   UNL A   1      46.988  30.447  27.795  1.00  0.00     0.049 A 
ATOM     55  C   UNL A   1      45.295  25.177  26.931  1.00  0.00     0.074 A 
ATOM     56  C   UNL A   1      48.332  30.710  27.591  1.00  0.00     0.029 A 
ATOM     57  N   UNL A   1      46.798  29.102  27.515  1.00  0.00    -0.354 N 
ATOM     58  N   UNL A   1      45.838  26.359  27.099  1.00  0.00    -0.248 NA
ATOM     59  C   UNL A   1      46.229  24.148  26.452  1.00  0.00     0.031 C 
ATOM     60  C   UNL A   1      48.948  29.530  27.162  1.00  0.00     0.029 A 
ATOM     61  C   UNL A   1      47.996  28.524  27.133  1.00  0.00     0.049 A 
ATOM     62  H   UNL A   1      45.937  28.629  27.580  1.00  0.00     0.167 HD
ATOM     63  C   UNL A   1      47.182  26.209  26.773  1.00  0.00     0.074 A 
ATOM     64  C   UNL A   1      47.371  24.821  26.404  1.00  0.00     0.031 C 
ATOM     65  C   UNL A   1      48.169  27.137  26.779  1.00  0.00     0.037 A 
BRANCH  52  66
ATOM     66  C   UNL A   1      46.315  32.794  28.440  1.00  0.00     0.058 A 
ATOM     67  C   UNL A   1      46.763  33.255  29.688  1.00  0.00     0.135 A 
ATOM     68  C   UNL A   1      46.247  33.719  27.386  1.00  0.00     0.135 A 
ATOM     69  F   UNL A   1      46.831  32.416  30.734  1.00  0.00    -0.206 F 
ATOM     70  C   UNL A   1      47.106  34.587  29.892  1.00  0.00     0.059 A 
ATOM     71  C   UNL A   1      46.609  35.051  27.560  1.00  0.00     0.059 A 
ATOM     72  F   UNL A   1      45.824  33.332  26.172  1.00  0.00    -0.206 F 
ATOM     73  C   UNL A   1      47.024  35.479  28.821  1.00  0.00     0.060 A 
BRANCH  73  74
ATOM     74  S   UNL A   1      47.480  37.204  29.097  1.00  0.00     0.124 S 
ATOM     75  O   UNL A   1      46.539  37.588  30.144  1.00  0.00    -0.237 OA
ATOM     76  O   UNL A   1      48.877  37.098  29.507  1.00  0.00    -0.237 OA
ATOM     77  O   UNL A   1      47.259  37.825  27.795  1.00  0.00    -0.744 OA
ENDBRANCH  73  74
ENDBRANCH  52  66
BRANCH  53  78
ATOM     78  C   UNL A   1      43.453  23.344  26.924  1.00  0.00     0.058 A 
ATOM     79  C   UNL A   1      43.305  22.852  25.620  1.00  0.00     0.135 A 
ATOM     80  C   UNL A   1      43.205  22.465  27.989  1.00  0.00     0.135 A 
ATOM     81  F   UNL A   1      43.525  23.658  24.570  1.00  0.00    -0.206 F 
ATOM     82  C   UNL A   1      42.915  21.540  25.376  1.00  0.00     0.059 A 
ATOM     83  C   UNL A   1      42.832  21.142  27.771  1.00  0.00     0.059 A 
ATOM     84  F   UNL A   1      43.347  22.885  29.255  1.00  0.00    -0.206 F 
ATOM     85  C   UNL A   1      42.680  20.691  26.460  1.00  0.00     0.060 A 
BRANCH  85  86
ATOM     86  S   UNL A   1      42.223  18.975  26.134  1.00  0.00     0.124 S 
ATOM     87  O   UNL A   1      42.528  18.343  27.411  1.00  0.00    -0.237 OA
ATOM     88  O   UNL A   1      40.806  19.091  25.801  1.00  0.00    -0.237 OA
ATOM     89  O   UNL A   1      43.092  18.604  25.021  1.00  0.00    -0.744 OA
ENDBRANCH  85  86
ENDBRANCH  53  78
BRANCH  65  90
ATOM     90  C   UNL A   1      49.551  26.680  26.410  1.00  0.00     0.058 A 
ATOM     91  C   UNL A   1      50.401  26.078  27.349  1.00  0.00     0.135 A 
ATOM     92  C   UNL A   1      50.007  26.794  25.086  1.00  0.00     0.135 A 
ATOM     93  F   UNL A   1      50.014  25.952  28.628  1.00  0.00    -0.206 F 
ATOM     94  C   UNL A   1      51.665  25.618  26.992  1.00  0.00     0.059 A 
ATOM     95  C   UNL A   1      51.257  26.322  24.704  1.00  0.00     0.059 A 
ATOM     96  F   UNL A   1      49.226  27.355  24.149  1.00  0.00    -0.206 F 
ATOM     97  C   UNL A   1      52.084  25.744  25.667  1.00  0.00     0.060 A 
BRANCH  97  98
ATOM     98  S   UNL A   1      53.709  25.106  25.205  1.00  0.00     0.124 S 
ATOM     99  O   UNL A   1      53.493  23.666  25.286  1.00  0.00    -0.237 OA
ATOM    100  O   UNL A   1      53.889  25.647  23.861  1.00  0.00    -0.237 OA
ATOM    101  O   UNL A   1      54.594  25.668  26.221  1.00  0.00    -0.744 OA
ENDBRANCH  97  98
ENDBRANCH  65  90
ENDBRANCH  39  40
ENDBRANCH  31  34
ENDBRANCH  29  30
ENDBRANCH   1  29
TORSDOF 16
ENDMDL
