MODEL 1
REMARK VINA RESULT:     -11.7      0.000      0.000
REMARK SMILES O=C(NCCCCNC(=O)[C@H]1CC(=O)N(Cc2ccc3cc[nH]c3c2)C1)c1ccc(-c2c3nc(c(-c4c(F)cc(S(=O)(=O)[O-])cc4F)c4ccc([nH]4)c(-c4c(F)cc(S(=O)(=O)[O-])cc4F)c4nc(c(-c5c(F)cc(S(=O)(=O)[O-])cc5F)c5ccc2[nH]5)C=C4)C=C3)cc1
REMARK SMILES IDX 5 1 4 2 3 3 1 4 2 5 27 7 28 8 92 9 29 10 91 11 30 12 31 13
REMARK SMILES IDX 32 14 85 15 33 16 90 17 84 18 86 19 34 20 89 21 83 22 82 23
REMARK SMILES IDX 35 25 69 26 48 27 68 28 49 29 52 30 67 31 87 32 50 33 51 34
REMARK SMILES IDX 66 36 88 37 53 38 36 39 37 40 46 41 38 42 39 43 45 44 47 45
REMARK SMILES IDX 40 46 41 47 42 48 43 49 44 50 70 51 71 52 80 53 72 54 73 55
REMARK SMILES IDX 79 56 81 57 74 58 75 59 76 60 77 61 78 62 54 63 55 64 64 65
REMARK SMILES IDX 56 66 57 67 63 68 65 69 58 70 59 71 60 72 61 73 62 74 6 75
REMARK SMILES IDX 7 76 8 77 9 78 10 80 11 81 12 82 26 83 13 84 15 85 14 86
REMARK SMILES IDX 16 87 17 88 18 89 25 90 19 91 24 92 20 93 23 94 21 95 22 96
REMARK H PARENT 3 6 86 24 52 35 8 79 23 97
REMARK Flexibility Score: inf
ROOT
ATOM      1  C   UNL A   1      45.736  24.805  26.104  1.00  0.00     0.023 C 
ENDROOT
BRANCH   1   2
ATOM      2  C   UNL A   1      45.094  26.089  25.619  1.00  0.00     0.116 C 
BRANCH   2   3
ATOM      3  N   UNL A   1      43.801  25.915  24.966  1.00  0.00    -0.352 N 
ATOM      4  O   UNL A   1      41.535  26.030  24.860  1.00  0.00    -0.269 OA
ATOM      5  C   UNL A   1      42.568  26.286  25.465  1.00  0.00     0.251 C 
ATOM      6  H   UNL A   1      43.808  25.491  24.078  1.00  0.00     0.163 HD
BRANCH   5   7
ATOM      7  C   UNL A   1      42.546  26.959  26.779  1.00  0.00     0.039 A 
ATOM      8  C   UNL A   1      42.000  26.281  27.868  1.00  0.00     0.014 A 
ATOM      9  C   UNL A   1      42.900  28.306  26.879  1.00  0.00     0.014 A 
ATOM     10  C   UNL A   1      41.605  27.004  28.979  1.00  0.00     0.010 A 
ATOM     11  C   UNL A   1      42.631  28.997  28.065  1.00  0.00     0.010 A 
ATOM     12  C   UNL A   1      41.943  28.363  29.111  1.00  0.00    -0.014 A 
BRANCH  12  13
ATOM     13  C   UNL A   1      41.630  29.035  30.398  1.00  0.00     0.031 A 
ATOM     14  C   UNL A   1      42.508  28.892  31.611  1.00  0.00     0.074 A 
ATOM     15  C   UNL A   1      40.561  29.856  30.422  1.00  0.00     0.049 A 
ATOM     16  N   UNL A   1      42.384  29.470  32.780  1.00  0.00    -0.248 NA
ATOM     17  C   UNL A   1      43.662  27.985  31.515  1.00  0.00     0.031 C 
ATOM     18  C   UNL A   1      39.627  30.049  29.306  1.00  0.00     0.029 A 
ATOM     19  N   UNL A   1      40.096  30.708  31.387  1.00  0.00    -0.354 N 
ATOM     20  C   UNL A   1      43.431  28.991  33.561  1.00  0.00     0.074 A 
ATOM     21  C   UNL A   1      44.165  28.051  32.742  1.00  0.00     0.031 C 
ATOM     22  C   UNL A   1      38.755  31.014  29.618  1.00  0.00     0.029 A 
ATOM     23  C   UNL A   1      39.000  31.438  30.990  1.00  0.00     0.049 A 
ATOM     24  H   UNL A   1      40.505  30.791  32.279  1.00  0.00     0.167 HD
ATOM     25  C   UNL A   1      43.750  29.317  34.838  1.00  0.00     0.037 A 
ATOM     26  C   UNL A   1      38.249  32.329  31.659  1.00  0.00     0.037 A 
ATOM     27  C   UNL A   1      43.008  30.263  35.639  1.00  0.00     0.049 A 
ATOM     28  C   UNL A   1      38.620  32.659  33.073  1.00  0.00     0.074 A 
ATOM     29  C   UNL A   1      43.249  30.665  36.942  1.00  0.00     0.029 A 
ATOM     30  N   UNL A   1      41.883  30.959  35.213  1.00  0.00    -0.354 N 
ATOM     31  N   UNL A   1      39.618  32.198  33.789  1.00  0.00    -0.248 NA
ATOM     32  C   UNL A   1      37.765  33.624  33.772  1.00  0.00     0.031 C 
ATOM     33  C   UNL A   1      42.248  31.568  37.317  1.00  0.00     0.029 A 
ATOM     34  C   UNL A   1      41.413  31.774  36.232  1.00  0.00     0.049 A 
ATOM     35  H   UNL A   1      41.480  30.884  34.319  1.00  0.00     0.167 HD
ATOM     36  C   UNL A   1      39.511  32.820  35.026  1.00  0.00     0.074 A 
ATOM     37  C   UNL A   1      38.377  33.719  34.943  1.00  0.00     0.031 C 
ATOM     38  C   UNL A   1      40.275  32.654  36.134  1.00  0.00     0.037 A 
BRANCH  25  39
ATOM     39  C   UNL A   1      44.946  28.649  35.464  1.00  0.00     0.058 A 
ATOM     40  C   UNL A   1      44.842  27.417  36.129  1.00  0.00     0.135 A 
ATOM     41  C   UNL A   1      46.230  29.211  35.333  1.00  0.00     0.135 A 
ATOM     42  F   UNL A   1      43.640  26.841  36.297  1.00  0.00    -0.206 F 
ATOM     43  C   UNL A   1      45.959  26.772  36.652  1.00  0.00     0.059 A 
ATOM     44  C   UNL A   1      47.364  28.570  35.827  1.00  0.00     0.059 A 
ATOM     45  F   UNL A   1      46.393  30.386  34.707  1.00  0.00    -0.206 F 
ATOM     46  C   UNL A   1      47.217  27.354  36.492  1.00  0.00     0.060 A 
BRANCH  46  47
ATOM     47  S   UNL A   1      48.658  26.490  37.156  1.00  0.00     0.124 S 
ATOM     48  O   UNL A   1      48.033  25.554  38.086  1.00  0.00    -0.237 OA
ATOM     49  O   UNL A   1      49.243  25.896  35.958  1.00  0.00    -0.237 OA
ATOM     50  O   UNL A   1      49.442  27.555  37.773  1.00  0.00    -0.744 OA
ENDBRANCH  46  47
ENDBRANCH  25  39
BRANCH  26  51
ATOM     51  C   UNL A   1      37.057  32.928  31.005  1.00  0.00     0.058 A 
ATOM     52  C   UNL A   1      35.760  32.482  31.292  1.00  0.00     0.135 A 
ATOM     53  C   UNL A   1      37.198  33.982  30.085  1.00  0.00     0.135 A 
ATOM     54  F   UNL A   1      35.573  31.481  32.165  1.00  0.00    -0.206 F 
ATOM     55  C   UNL A   1      34.647  33.040  30.674  1.00  0.00     0.059 A 
ATOM     56  C   UNL A   1      36.099  34.581  29.483  1.00  0.00     0.059 A 
ATOM     57  F   UNL A   1      38.417  34.464  29.794  1.00  0.00    -0.206 F 
ATOM     58  C   UNL A   1      34.828  34.090  29.770  1.00  0.00     0.060 A 
BRANCH  58  59
ATOM     59  S   UNL A   1      33.377  34.829  28.993  1.00  0.00     0.124 S 
ATOM     60  O   UNL A   1      33.944  36.040  28.411  1.00  0.00    -0.237 OA
ATOM     61  O   UNL A   1      32.973  33.793  28.046  1.00  0.00    -0.237 OA
ATOM     62  O   UNL A   1      32.464  35.033  30.114  1.00  0.00    -0.744 OA
ENDBRANCH  58  59
ENDBRANCH  26  51
BRANCH  38  63
ATOM     63  C   UNL A   1      39.908  33.482  37.334  1.00  0.00     0.058 A 
ATOM     64  C   UNL A   1      40.472  34.749  37.554  1.00  0.00     0.135 A 
ATOM     65  C   UNL A   1      38.988  33.000  38.278  1.00  0.00     0.135 A 
ATOM     66  F   UNL A   1      41.365  35.253  36.686  1.00  0.00    -0.206 F 
ATOM     67  C   UNL A   1      40.172  35.490  38.692  1.00  0.00     0.059 A 
ATOM     68  C   UNL A   1      38.649  33.737  39.408  1.00  0.00     0.059 A 
ATOM     69  F   UNL A   1      38.414  31.798  38.110  1.00  0.00    -0.206 F 
ATOM     70  C   UNL A   1      39.262  34.972  39.615  1.00  0.00     0.060 A 
BRANCH  70  71
ATOM     71  S   UNL A   1      38.885  35.939  41.092  1.00  0.00     0.124 S 
ATOM     72  O   UNL A   1      39.980  35.559  41.979  1.00  0.00    -0.237 OA
ATOM     73  O   UNL A   1      38.925  37.308  40.587  1.00  0.00    -0.237 OA
ATOM     74  O   UNL A   1      37.564  35.459  41.484  1.00  0.00    -0.744 OA
ENDBRANCH  70  71
ENDBRANCH  38  63
ENDBRANCH  12  13
ENDBRANCH   5   7
ENDBRANCH   2   3
ENDBRANCH   1   2
BRANCH   1  75
ATOM     75  C   UNL A   1      46.702  24.180  25.111  1.00  0.00     0.023 C 
BRANCH  75  76
ATOM     76  C   UNL A   1      46.074  23.195  24.117  1.00  0.00     0.116 C 
BRANCH  76  77
ATOM     77  N   UNL A   1      46.610  21.860  24.293  1.00  0.00    -0.356 N 
ATOM     78  C   UNL A   1      46.051  20.691  24.699  1.00  0.00     0.225 C 
ATOM     79  H   UNL A   1      47.567  21.785  24.074  1.00  0.00     0.163 HD
ATOM     80  O   UNL A   1      46.828  19.743  24.855  1.00  0.00    -0.275 OA
BRANCH  78  81
ATOM     81  C   UNL A   1      44.555  20.457  24.875  1.00  0.00     0.107 C 
ATOM     82  C   UNL A   1      44.244  18.952  24.841  1.00  0.00     0.115 C 
ATOM     83  C   UNL A   1      43.880  20.909  26.144  1.00  0.00     0.133 C 
ATOM     84  C   UNL A   1      43.003  18.800  25.697  1.00  0.00     0.223 C 
ATOM     85  N   UNL A   1      42.827  19.975  26.401  1.00  0.00    -0.338 N 
ATOM     86  O   UNL A   1      42.315  17.801  25.769  1.00  0.00    -0.275 OA
BRANCH  85  87
ATOM     87  C   UNL A   1      41.832  20.199  27.444  1.00  0.00     0.155 C 
BRANCH  87  88
ATOM     88  C   UNL A   1      40.818  21.276  27.092  1.00  0.00    -0.026 A 
ATOM     89  C   UNL A   1      40.834  22.518  27.749  1.00  0.00     0.006 A 
ATOM     90  C   UNL A   1      39.840  21.030  26.113  1.00  0.00     0.032 A 
ATOM     91  C   UNL A   1      39.861  23.495  27.502  1.00  0.00     0.010 A 
ATOM     92  C   UNL A   1      38.895  22.034  25.850  1.00  0.00     0.046 A 
ATOM     93  C   UNL A   1      38.870  23.246  26.539  1.00  0.00    -0.001 A 
ATOM     94  N   UNL A   1      37.860  22.069  24.941  1.00  0.00    -0.361 N 
ATOM     95  C   UNL A   1      37.754  23.984  26.057  1.00  0.00     0.028 A 
ATOM     96  C   UNL A   1      37.160  23.241  25.063  1.00  0.00     0.083 A 
ATOM     97  H   UNL A   1      37.654  21.356  24.296  1.00  0.00     0.166 HD
ENDBRANCH  87  88
ENDBRANCH  85  87
ENDBRANCH  78  81
ENDBRANCH  76  77
ENDBRANCH  75  76
ENDBRANCH   1  75
TORSDOF 16
ENDMDL
MODEL 2
REMARK VINA RESULT:     -11.6      2.820      4.775
REMARK SMILES O=C(NCCCCNC(=O)[C@H]1CC(=O)N(Cc2ccc3cc[nH]c3c2)C1)c1ccc(-c2c3nc(c(-c4c(F)cc(S(=O)(=O)[O-])cc4F)c4ccc([nH]4)c(-c4c(F)cc(S(=O)(=O)[O-])cc4F)c4nc(c(-c5c(F)cc(S(=O)(=O)[O-])cc5F)c5ccc2[nH]5)C=C4)C=C3)cc1
REMARK SMILES IDX 5 1 4 2 3 3 1 4 2 5 27 7 28 8 92 9 29 10 91 11 30 12 31 13
REMARK SMILES IDX 32 14 85 15 33 16 90 17 84 18 86 19 34 20 89 21 83 22 82 23
REMARK SMILES IDX 35 25 69 26 48 27 68 28 49 29 52 30 67 31 87 32 50 33 51 34
REMARK SMILES IDX 66 36 88 37 53 38 36 39 37 40 46 41 38 42 39 43 45 44 47 45
REMARK SMILES IDX 40 46 41 47 42 48 43 49 44 50 70 51 71 52 80 53 72 54 73 55
REMARK SMILES IDX 79 56 81 57 74 58 75 59 76 60 77 61 78 62 54 63 55 64 64 65
REMARK SMILES IDX 56 66 57 67 63 68 65 69 58 70 59 71 60 72 61 73 62 74 6 75
REMARK SMILES IDX 7 76 8 77 9 78 10 80 11 81 12 82 26 83 13 84 15 85 14 86
REMARK SMILES IDX 16 87 17 88 18 89 25 90 19 91 24 92 20 93 23 94 21 95 22 96
REMARK H PARENT 3 6 86 24 52 35 8 79 23 97
REMARK Flexibility Score: inf
ROOT
ATOM      1  C   UNL A   1      40.126  22.592  27.529  1.00  0.00     0.023 C 
ENDROOT
BRANCH   1   2
ATOM      2  C   UNL A   1      41.496  23.116  27.150  1.00  0.00     0.116 C 
BRANCH   2   3
ATOM      3  N   UNL A   1      41.507  24.011  25.997  1.00  0.00    -0.352 N 
ATOM      4  O   UNL A   1      41.403  26.045  24.989  1.00  0.00    -0.269 OA
ATOM      5  C   UNL A   1      41.456  25.391  26.023  1.00  0.00     0.251 C 
ATOM      6  H   UNL A   1      41.558  23.588  25.109  1.00  0.00     0.163 HD
BRANCH   5   7
ATOM      7  C   UNL A   1      41.420  26.040  27.349  1.00  0.00     0.039 A 
ATOM      8  C   UNL A   1      40.195  26.150  28.005  1.00  0.00     0.014 A 
ATOM      9  C   UNL A   1      42.556  26.684  27.842  1.00  0.00     0.014 A 
ATOM     10  C   UNL A   1      40.059  27.077  29.021  1.00  0.00     0.010 A 
ATOM     11  C   UNL A   1      42.440  27.509  28.966  1.00  0.00     0.010 A 
ATOM     12  C   UNL A   1      41.182  27.745  29.541  1.00  0.00    -0.014 A 
BRANCH  12  13
ATOM     13  C   UNL A   1      40.989  28.604  30.737  1.00  0.00     0.031 A 
ATOM     14  C   UNL A   1      41.890  28.521  31.939  1.00  0.00     0.074 A 
ATOM     15  C   UNL A   1      40.013  29.534  30.679  1.00  0.00     0.049 A 
ATOM     16  N   UNL A   1      41.870  29.251  33.026  1.00  0.00    -0.248 NA
ATOM     17  C   UNL A   1      42.938  27.488  31.935  1.00  0.00     0.031 C 
ATOM     18  C   UNL A   1      39.065  29.685  29.569  1.00  0.00     0.029 A 
ATOM     19  N   UNL A   1      39.676  30.546  31.537  1.00  0.00    -0.354 N 
ATOM     20  C   UNL A   1      42.888  28.763  33.838  1.00  0.00     0.074 A 
ATOM     21  C   UNL A   1      43.489  27.653  33.132  1.00  0.00     0.031 C 
ATOM     22  C   UNL A   1      38.311  30.771  29.774  1.00  0.00     0.029 A 
ATOM     23  C   UNL A   1      38.649  31.335  31.073  1.00  0.00     0.049 A 
ATOM     24  H   UNL A   1      40.124  30.695  32.401  1.00  0.00     0.167 HD
ATOM     25  C   UNL A   1      43.286  29.211  35.055  1.00  0.00     0.037 A 
ATOM     26  C   UNL A   1      38.021  32.380  31.639  1.00  0.00     0.037 A 
ATOM     27  C   UNL A   1      42.677  30.325  35.744  1.00  0.00     0.049 A 
ATOM     28  C   UNL A   1      38.475  32.843  32.989  1.00  0.00     0.074 A 
ATOM     29  C   UNL A   1      43.006  30.859  36.978  1.00  0.00     0.029 A 
ATOM     30  N   UNL A   1      41.617  31.080  35.257  1.00  0.00    -0.354 N 
ATOM     31  N   UNL A   1      39.445  32.369  33.736  1.00  0.00    -0.248 NA
ATOM     32  C   UNL A   1      37.752  33.975  33.577  1.00  0.00     0.031 C 
ATOM     33  C   UNL A   1      42.120  31.906  37.256  1.00  0.00     0.029 A 
ATOM     34  C   UNL A   1      41.273  32.064  36.173  1.00  0.00     0.049 A 
ATOM     35  H   UNL A   1      41.176  30.938  34.389  1.00  0.00     0.167 HD
ATOM     36  C   UNL A   1      39.449  33.151  34.885  1.00  0.00     0.074 A 
ATOM     37  C   UNL A   1      38.413  34.150  34.711  1.00  0.00     0.031 C 
ATOM     38  C   UNL A   1      40.230  33.044  35.988  1.00  0.00     0.037 A 
BRANCH  25  39
ATOM     39  C   UNL A   1      44.427  28.501  35.735  1.00  0.00     0.058 A 
ATOM     40  C   UNL A   1      44.213  27.415  36.599  1.00  0.00     0.135 A 
ATOM     41  C   UNL A   1      45.760  28.862  35.462  1.00  0.00     0.135 A 
ATOM     42  F   UNL A   1      42.962  27.035  36.907  1.00  0.00    -0.206 F 
ATOM     43  C   UNL A   1      45.273  26.721  37.177  1.00  0.00     0.059 A 
ATOM     44  C   UNL A   1      46.835  28.165  36.009  1.00  0.00     0.059 A 
ATOM     45  F   UNL A   1      46.027  29.891  34.643  1.00  0.00    -0.206 F 
ATOM     46  C   UNL A   1      46.581  27.101  36.872  1.00  0.00     0.060 A 
BRANCH  46  47
ATOM     47  S   UNL A   1      47.943  26.173  37.612  1.00  0.00     0.124 S 
ATOM     48  O   UNL A   1      47.321  24.870  37.833  1.00  0.00    -0.237 OA
ATOM     49  O   UNL A   1      48.957  26.221  36.564  1.00  0.00    -0.237 OA
ATOM     50  O   UNL A   1      48.256  26.930  38.820  1.00  0.00    -0.744 OA
ENDBRANCH  46  47
ENDBRANCH  25  39
BRANCH  26  51
ATOM     51  C   UNL A   1      36.875  33.018  30.939  1.00  0.00     0.058 A 
ATOM     52  C   UNL A   1      35.551  32.764  31.318  1.00  0.00     0.135 A 
ATOM     53  C   UNL A   1      37.092  33.917  29.881  1.00  0.00     0.135 A 
ATOM     54  F   UNL A   1      35.291  31.916  32.324  1.00  0.00    -0.206 F 
ATOM     55  C   UNL A   1      34.480  33.358  30.658  1.00  0.00     0.059 A 
ATOM     56  C   UNL A   1      36.042  34.552  29.231  1.00  0.00     0.059 A 
ATOM     57  F   UNL A   1      38.344  34.215  29.495  1.00  0.00    -0.206 F 
ATOM     58  C   UNL A   1      34.737  34.251  29.615  1.00  0.00     0.060 A 
BRANCH  58  59
ATOM     59  S   UNL A   1      33.345  35.040  28.782  1.00  0.00     0.124 S 
ATOM     60  O   UNL A   1      34.021  36.058  27.986  1.00  0.00    -0.237 OA
ATOM     61  O   UNL A   1      32.763  33.929  28.036  1.00  0.00    -0.237 OA
ATOM     62  O   UNL A   1      32.531  35.538  29.887  1.00  0.00    -0.744 OA
ENDBRANCH  58  59
ENDBRANCH  26  51
BRANCH  38  63
ATOM     63  C   UNL A   1      39.997  34.051  37.079  1.00  0.00     0.058 A 
ATOM     64  C   UNL A   1      39.137  33.782  38.156  1.00  0.00     0.135 A 
ATOM     65  C   UNL A   1      40.634  35.301  37.043  1.00  0.00     0.135 A 
ATOM     66  F   UNL A   1      38.495  32.605  38.233  1.00  0.00    -0.206 F 
ATOM     67  C   UNL A   1      38.881  34.735  39.135  1.00  0.00     0.059 A 
ATOM     68  C   UNL A   1      40.418  36.257  38.029  1.00  0.00     0.059 A 
ATOM     69  F   UNL A   1      41.473  35.604  36.040  1.00  0.00    -0.206 F 
ATOM     70  C   UNL A   1      39.524  35.972  39.060  1.00  0.00     0.060 A 
BRANCH  70  71
ATOM     71  S   UNL A   1      39.179  37.204  40.334  1.00  0.00     0.124 S 
ATOM     72  O   UNL A   1      40.525  37.540  40.788  1.00  0.00    -0.237 OA
ATOM     73  O   UNL A   1      38.486  38.245  39.582  1.00  0.00    -0.237 OA
ATOM     74  O   UNL A   1      38.356  36.477  41.294  1.00  0.00    -0.744 OA
ENDBRANCH  70  71
ENDBRANCH  38  63
ENDBRANCH  12  13
ENDBRANCH   5   7
ENDBRANCH   2   3
ENDBRANCH   1   2
BRANCH   1  75
ATOM     75  C   UNL A   1      39.297  22.109  26.350  1.00  0.00     0.023 C 
BRANCH  75  76
ATOM     76  C   UNL A   1      38.000  22.888  26.098  1.00  0.00     0.116 C 
BRANCH  76  77
ATOM     77  N   UNL A   1      37.805  23.139  24.684  1.00  0.00    -0.356 N 
ATOM     78  C   UNL A   1      36.693  23.242  23.913  1.00  0.00     0.225 C 
ATOM     79  H   UNL A   1      38.646  23.259  24.183  1.00  0.00     0.163 HD
ATOM     80  O   UNL A   1      36.883  23.346  22.696  1.00  0.00    -0.275 OA
BRANCH  78  81
ATOM     81  C   UNL A   1      35.269  23.332  24.449  1.00  0.00     0.107 C 
ATOM     82  C   UNL A   1      34.405  24.204  23.523  1.00  0.00     0.115 C 
ATOM     83  C   UNL A   1      34.448  22.076  24.587  1.00  0.00     0.133 C 
ATOM     84  C   UNL A   1      33.000  23.663  23.692  1.00  0.00     0.223 C 
ATOM     85  N   UNL A   1      33.089  22.447  24.342  1.00  0.00    -0.338 N 
ATOM     86  O   UNL A   1      31.986  24.198  23.289  1.00  0.00    -0.275 OA
BRANCH  85  87
ATOM     87  C   UNL A   1      31.981  21.528  24.577  1.00  0.00     0.155 C 
BRANCH  87  88
ATOM     88  C   UNL A   1      32.352  20.068  24.371  1.00  0.00    -0.026 A 
ATOM     89  C   UNL A   1      32.285  19.485  23.094  1.00  0.00     0.006 A 
ATOM     90  C   UNL A   1      32.750  19.282  25.465  1.00  0.00     0.032 A 
ATOM     91  C   UNL A   1      32.541  18.122  22.892  1.00  0.00     0.010 A 
ATOM     92  C   UNL A   1      33.041  17.926  25.240  1.00  0.00     0.046 A 
ATOM     93  C   UNL A   1      32.920  17.327  23.987  1.00  0.00    -0.001 A 
ATOM     94  N   UNL A   1      33.470  16.949  26.110  1.00  0.00    -0.361 N 
ATOM     95  C   UNL A   1      33.233  15.949  24.144  1.00  0.00     0.028 A 
ATOM     96  C   UNL A   1      33.584  15.748  25.460  1.00  0.00     0.083 A 
ATOM     97  H   UNL A   1      33.669  17.092  27.063  1.00  0.00     0.166 HD
ENDBRANCH  87  88
ENDBRANCH  85  87
ENDBRANCH  78  81
ENDBRANCH  76  77
ENDBRANCH  75  76
ENDBRANCH   1  75
TORSDOF 16
ENDMDL
MODEL 3
REMARK VINA RESULT:     -11.5      2.341      9.174
REMARK SMILES O=C(NCCCCNC(=O)[C@H]1CC(=O)N(Cc2ccc3cc[nH]c3c2)C1)c1ccc(-c2c3nc(c(-c4c(F)cc(S(=O)(=O)[O-])cc4F)c4ccc([nH]4)c(-c4c(F)cc(S(=O)(=O)[O-])cc4F)c4nc(c(-c5c(F)cc(S(=O)(=O)[O-])cc5F)c5ccc2[nH]5)C=C4)C=C3)cc1
REMARK SMILES IDX 5 1 4 2 3 3 1 4 2 5 27 7 28 8 92 9 29 10 91 11 30 12 31 13
REMARK SMILES IDX 32 14 85 15 33 16 90 17 84 18 86 19 34 20 89 21 83 22 82 23
REMARK SMILES IDX 35 25 69 26 48 27 68 28 49 29 52 30 67 31 87 32 50 33 51 34
REMARK SMILES IDX 66 36 88 37 53 38 36 39 37 40 46 41 38 42 39 43 45 44 47 45
REMARK SMILES IDX 40 46 41 47 42 48 43 49 44 50 70 51 71 52 80 53 72 54 73 55
REMARK SMILES IDX 79 56 81 57 74 58 75 59 76 60 77 61 78 62 54 63 55 64 64 65
REMARK SMILES IDX 56 66 57 67 63 68 65 69 58 70 59 71 60 72 61 73 62 74 6 75
REMARK SMILES IDX 7 76 8 77 9 78 10 80 11 81 12 82 26 83 13 84 15 85 14 86
REMARK SMILES IDX 16 87 17 88 18 89 25 90 19 91 24 92 20 93 23 94 21 95 22 96
REMARK H PARENT 3 6 86 24 52 35 8 79 23 97
REMARK Flexibility Score: inf
ROOT
ATOM      1  C   UNL A   1      40.773  20.503  27.132  1.00  0.00     0.023 C 
ENDROOT
BRANCH   1   2
ATOM      2  C   UNL A   1      40.777  21.917  26.587  1.00  0.00     0.116 C 
BRANCH   2   3
ATOM      3  N   UNL A   1      39.551  22.309  25.899  1.00  0.00    -0.352 N 
ATOM      4  O   UNL A   1      37.832  23.719  25.434  1.00  0.00    -0.269 OA
ATOM      5  C   UNL A   1      38.895  23.519  26.006  1.00  0.00     0.251 C 
ATOM      6  H   UNL A   1      39.151  21.642  25.296  1.00  0.00     0.163 HD
BRANCH   5   7
ATOM      7  C   UNL A   1      39.506  24.543  26.878  1.00  0.00     0.039 A 
ATOM      8  C   UNL A   1      39.087  24.627  28.205  1.00  0.00     0.014 A 
ATOM      9  C   UNL A   1      40.347  25.513  26.330  1.00  0.00     0.014 A 
ATOM     10  C   UNL A   1      39.328  25.790  28.912  1.00  0.00     0.010 A 
ATOM     11  C   UNL A   1      40.710  26.620  27.106  1.00  0.00     0.010 A 
ATOM     12  C   UNL A   1      40.170  26.789  28.390  1.00  0.00    -0.014 A 
BRANCH  12  13
ATOM     13  C   UNL A   1      40.515  27.936  29.268  1.00  0.00     0.031 A 
ATOM     14  C   UNL A   1      39.589  29.105  29.462  1.00  0.00     0.074 A 
ATOM     15  C   UNL A   1      41.669  27.857  29.962  1.00  0.00     0.049 A 
ATOM     16  N   UNL A   1      39.740  30.145  30.244  1.00  0.00    -0.248 NA
ATOM     17  C   UNL A   1      38.344  29.126  28.679  1.00  0.00     0.031 C 
ATOM     18  C   UNL A   1      42.654  26.777  29.830  1.00  0.00     0.029 A 
ATOM     19  N   UNL A   1      42.196  28.662  30.935  1.00  0.00    -0.354 N 
ATOM     20  C   UNL A   1      38.621  30.947  30.042  1.00  0.00     0.074 A 
ATOM     21  C   UNL A   1      37.812  30.288  29.039  1.00  0.00     0.031 C 
ATOM     22  C   UNL A   1      43.619  26.942  30.742  1.00  0.00     0.029 A 
ATOM     23  C   UNL A   1      43.380  28.190  31.453  1.00  0.00     0.049 A 
ATOM     24  H   UNL A   1      41.771  29.498  31.236  1.00  0.00     0.167 HD
ATOM     25  C   UNL A   1      38.301  32.118  30.647  1.00  0.00     0.037 A 
ATOM     26  C   UNL A   1      44.204  28.713  32.377  1.00  0.00     0.037 A 
ATOM     27  C   UNL A   1      39.119  32.758  31.650  1.00  0.00     0.049 A 
ATOM     28  C   UNL A   1      43.828  30.014  33.017  1.00  0.00     0.074 A 
ATOM     29  C   UNL A   1      38.883  33.944  32.326  1.00  0.00     0.029 A 
ATOM     30  N   UNL A   1      40.328  32.266  32.126  1.00  0.00    -0.354 N 
ATOM     31  N   UNL A   1      42.762  30.752  32.815  1.00  0.00    -0.248 NA
ATOM     32  C   UNL A   1      44.764  30.557  34.008  1.00  0.00     0.031 C 
ATOM     33  C   UNL A   1      39.967  34.189  33.176  1.00  0.00     0.029 A 
ATOM     34  C   UNL A   1      40.854  33.131  33.074  1.00  0.00     0.049 A 
ATOM     35  H   UNL A   1      40.748  31.426  31.834  1.00  0.00     0.167 HD
ATOM     36  C   UNL A   1      42.899  31.848  33.656  1.00  0.00     0.074 A 
ATOM     37  C   UNL A   1      44.130  31.653  34.397  1.00  0.00     0.031 C 
ATOM     38  C   UNL A   1      42.087  32.925  33.794  1.00  0.00     0.037 A 
BRANCH  25  39
ATOM     39  C   UNL A   1      37.017  32.796  30.245  1.00  0.00     0.058 A 
ATOM     40  C   UNL A   1      35.829  32.619  30.972  1.00  0.00     0.135 A 
ATOM     41  C   UNL A   1      36.989  33.694  29.163  1.00  0.00     0.135 A 
ATOM     42  F   UNL A   1      35.792  31.763  32.007  1.00  0.00    -0.206 F 
ATOM     43  C   UNL A   1      34.659  33.294  30.636  1.00  0.00     0.059 A 
ATOM     44  C   UNL A   1      35.836  34.399  28.825  1.00  0.00     0.059 A 
ATOM     45  F   UNL A   1      38.094  33.904  28.431  1.00  0.00    -0.206 F 
ATOM     46  C   UNL A   1      34.674  34.186  29.562  1.00  0.00     0.060 A 
BRANCH  46  47
ATOM     47  S   UNL A   1      33.153  35.072  29.157  1.00  0.00     0.124 S 
ATOM     48  O   UNL A   1      32.559  34.189  28.157  1.00  0.00    -0.237 OA
ATOM     49  O   UNL A   1      32.468  35.121  30.445  1.00  0.00    -0.237 OA
ATOM     50  O   UNL A   1      33.629  36.357  28.653  1.00  0.00    -0.744 OA
ENDBRANCH  46  47
ENDBRANCH  25  39
BRANCH  26  51
ATOM     51  C   UNL A   1      45.477  28.019  32.706  1.00  0.00     0.058 A 
ATOM     52  C   UNL A   1      46.657  28.273  31.994  1.00  0.00     0.135 A 
ATOM     53  C   UNL A   1      45.536  27.095  33.763  1.00  0.00     0.135 A 
ATOM     54  F   UNL A   1      46.652  29.149  30.978  1.00  0.00    -0.206 F 
ATOM     55  C   UNL A   1      47.844  27.618  32.301  1.00  0.00     0.059 A 
ATOM     56  C   UNL A   1      46.719  26.456  34.113  1.00  0.00     0.059 A 
ATOM     57  F   UNL A   1      44.440  26.835  34.494  1.00  0.00    -0.206 F 
ATOM     58  C   UNL A   1      47.865  26.712  33.363  1.00  0.00     0.060 A 
BRANCH  58  59
ATOM     59  S   UNL A   1      49.416  25.886  33.774  1.00  0.00     0.124 S 
ATOM     60  O   UNL A   1      50.108  25.912  32.491  1.00  0.00    -0.237 OA
ATOM     61  O   UNL A   1      49.961  26.756  34.812  1.00  0.00    -0.237 OA
ATOM     62  O   UNL A   1      48.983  24.570  34.233  1.00  0.00    -0.744 OA
ENDBRANCH  58  59
ENDBRANCH  26  51
BRANCH  38  63
ATOM     63  C   UNL A   1      42.506  33.959  34.801  1.00  0.00     0.058 A 
ATOM     64  C   UNL A   1      42.128  33.869  36.150  1.00  0.00     0.135 A 
ATOM     65  C   UNL A   1      43.289  35.057  34.411  1.00  0.00     0.135 A 
ATOM     66  F   UNL A   1      41.371  32.843  36.573  1.00  0.00    -0.206 F 
ATOM     67  C   UNL A   1      42.471  34.854  37.068  1.00  0.00     0.059 A 
ATOM     68  C   UNL A   1      43.671  36.039  35.319  1.00  0.00     0.059 A 
ATOM     69  F   UNL A   1      43.685  35.186  33.135  1.00  0.00    -0.206 F 
ATOM     70  C   UNL A   1      43.240  35.938  36.641  1.00  0.00     0.060 A 
BRANCH  70  71
ATOM     71  S   UNL A   1      43.675  37.215  37.841  1.00  0.00     0.124 S 
ATOM     72  O   UNL A   1      44.682  36.531  38.645  1.00  0.00    -0.237 OA
ATOM     73  O   UNL A   1      44.170  38.290  36.986  1.00  0.00    -0.237 OA
ATOM     74  O   UNL A   1      42.412  37.490  38.517  1.00  0.00    -0.744 OA
ENDBRANCH  70  71
ENDBRANCH  38  63
ENDBRANCH  12  13
ENDBRANCH   5   7
ENDBRANCH   2   3
ENDBRANCH   1   2
BRANCH   1  75
ATOM     75  C   UNL A   1      41.487  19.495  26.247  1.00  0.00     0.023 C 
BRANCH  75  76
ATOM     76  C   UNL A   1      42.753  18.874  26.851  1.00  0.00     0.116 C 
BRANCH  76  77
ATOM     77  N   UNL A   1      43.727  18.565  25.822  1.00  0.00    -0.356 N 
ATOM     78  C   UNL A   1      44.594  19.334  25.116  1.00  0.00     0.225 C 
ATOM     79  H   UNL A   1      43.768  17.608  25.591  1.00  0.00     0.163 HD
ATOM     80  O   UNL A   1      45.215  18.763  24.213  1.00  0.00    -0.275 OA
BRANCH  78  81
ATOM     81  C   UNL A   1      44.911  20.793  25.423  1.00  0.00     0.107 C 
ATOM     82  C   UNL A   1      46.072  21.283  24.543  1.00  0.00     0.115 C 
ATOM     83  C   UNL A   1      43.855  21.844  25.196  1.00  0.00     0.133 C 
ATOM     84  C   UNL A   1      45.828  22.769  24.382  1.00  0.00     0.223 C 
ATOM     85  N   UNL A   1      44.542  23.036  24.807  1.00  0.00    -0.338 N 
ATOM     86  O   UNL A   1      46.622  23.568  23.924  1.00  0.00    -0.275 OA
BRANCH  85  87
ATOM     87  C   UNL A   1      43.859  24.320  24.690  1.00  0.00     0.155 C 
BRANCH  87  88
ATOM     88  C   UNL A   1      44.415  25.389  25.617  1.00  0.00    -0.026 A 
ATOM     89  C   UNL A   1      45.153  25.033  26.759  1.00  0.00     0.006 A 
ATOM     90  C   UNL A   1      44.180  26.747  25.346  1.00  0.00     0.032 A 
ATOM     91  C   UNL A   1      45.605  25.995  27.673  1.00  0.00     0.010 A 
ATOM     92  C   UNL A   1      44.673  27.701  26.252  1.00  0.00     0.046 A 
ATOM     93  C   UNL A   1      45.356  27.353  27.417  1.00  0.00    -0.001 A 
ATOM     94  N   UNL A   1      44.610  29.076  26.221  1.00  0.00    -0.361 N 
ATOM     95  C   UNL A   1      45.647  28.558  28.112  1.00  0.00     0.028 A 
ATOM     96  C   UNL A   1      45.190  29.605  27.344  1.00  0.00     0.083 A 
ATOM     97  H   UNL A   1      44.207  29.605  25.495  1.00  0.00     0.166 HD
ENDBRANCH  87  88
ENDBRANCH  85  87
ENDBRANCH  78  81
ENDBRANCH  76  77
ENDBRANCH  75  76
ENDBRANCH   1  75
TORSDOF 16
ENDMDL
