MODEL 1
REMARK VINA RESULT:     -10.7      0.000      0.000
REMARK SMILES C[C@H](CNC(=O)c1ccc(Br)nc1)C(=O)NCCCCNC(=O)c1ccc(-c2c3nc(c(-c4c(F)cc(S(=O)(=O)[O-])cc4F)c4ccc([nH]4)c(-c4c(F)cc(S(=O)(=O)[O-])cc4F)c4nc(c(-c5c(F)cc(S(=O)(=O)[O-])cc5F)c5ccc2[nH]5)C=C4)C=C3)cc1
REMARK SMILES IDX 18 1 17 2 16 3 14 4 15 5 2 7 1 8 3 9 4 10 5 11 6 13 7 14
REMARK SMILES IDX 8 15 13 16 9 17 12 18 10 19 11 20 19 21 20 22 21 23 22 24
REMARK SMILES IDX 23 26 24 27 25 28 89 29 26 30 88 31 27 32 28 33 29 34 82 35
REMARK SMILES IDX 30 36 87 37 81 38 83 39 31 40 86 41 80 42 79 43 32 45 66 46
REMARK SMILES IDX 45 47 65 48 46 49 49 50 64 51 84 52 47 53 48 54 63 56 85 57
REMARK SMILES IDX 50 58 33 59 34 60 43 61 35 62 36 63 42 64 44 65 37 66 38 67
REMARK SMILES IDX 39 68 40 69 41 70 67 71 68 72 77 73 69 74 70 75 76 76 78 77
REMARK SMILES IDX 71 78 72 79 73 80 74 81 75 82 51 83 52 84 61 85 53 86 54 87
REMARK SMILES IDX 60 88 62 89 55 90 56 91 57 92 58 93 59 94
REMARK H PARENT 16 6 4 12 21 25 83 44 49 55
REMARK Flexibility Score: inf
ROOT
ATOM      1  C   UNL A   1      31.366  28.273  26.123  1.00  0.00     0.023 C 
ENDROOT
BRANCH   1   2
ATOM      2  C   UNL A   1      32.066  28.794  24.866  1.00  0.00     0.116 C 
BRANCH   2   3
ATOM      3  N   UNL A   1      31.183  28.761  23.712  1.00  0.00    -0.356 N 
ATOM      4  C   UNL A   1      30.832  27.758  22.867  1.00  0.00     0.224 C 
ATOM      5  O   UNL A   1      30.077  28.049  21.933  1.00  0.00    -0.275 OA
ATOM      6  H   UNL A   1      30.763  29.627  23.505  1.00  0.00     0.163 HD
BRANCH   4   7
ATOM      7  C   UNL A   1      31.348  26.325  22.993  1.00  0.00     0.094 C 
ATOM      8  C   UNL A   1      32.219  25.847  21.834  1.00  0.00     0.020 C 
BRANCH   7   9
ATOM      9  C   UNL A   1      30.265  25.328  23.441  1.00  0.00     0.129 C 
BRANCH   9  10
ATOM     10  N   UNL A   1      30.042  25.312  24.876  1.00  0.00    -0.351 N 
ATOM     11  C   UNL A   1      30.571  24.508  25.846  1.00  0.00     0.252 C 
ATOM     12  H   UNL A   1      29.408  25.990  25.203  1.00  0.00     0.163 HD
ATOM     13  O   UNL A   1      29.957  24.306  26.892  1.00  0.00    -0.269 OA
BRANCH  11  14
ATOM     14  C   UNL A   1      31.905  23.925  25.688  1.00  0.00     0.058 A 
ATOM     15  C   UNL A   1      33.047  24.640  26.042  1.00  0.00     0.018 A 
ATOM     16  C   UNL A   1      32.036  22.584  25.357  1.00  0.00     0.126 A 
ATOM     17  C   UNL A   1      34.281  23.992  26.027  1.00  0.00     0.037 A 
ATOM     18  N   UNL A   1      33.228  21.939  25.310  1.00  0.00    -0.249 NA
ATOM     19  C   UNL A   1      34.321  22.653  25.657  1.00  0.00     0.106 A 
ATOM     20  Br  UNL A   1      35.992  21.758  25.667  1.00  0.00    -0.029 Br
ENDBRANCH  11  14
ENDBRANCH   9  10
ENDBRANCH   7   9
ENDBRANCH   4   7
ENDBRANCH   2   3
ENDBRANCH   1   2
BRANCH   1  21
ATOM     21  C   UNL A   1      32.282  27.991  27.306  1.00  0.00     0.023 C 
BRANCH  21  22
ATOM     22  C   UNL A   1      33.622  28.707  27.261  1.00  0.00     0.116 C 
BRANCH  22  23
ATOM     23  N   UNL A   1      33.571  30.076  27.756  1.00  0.00    -0.352 N 
ATOM     24  C   UNL A   1      34.561  30.804  28.374  1.00  0.00     0.251 C 
ATOM     25  H   UNL A   1      32.714  30.543  27.633  1.00  0.00     0.163 HD
ATOM     26  O   UNL A   1      34.331  31.927  28.814  1.00  0.00    -0.269 OA
BRANCH  24  27
ATOM     27  C   UNL A   1      35.895  30.195  28.539  1.00  0.00     0.039 A 
ATOM     28  C   UNL A   1      36.800  30.248  27.476  1.00  0.00     0.014 A 
ATOM     29  C   UNL A   1      36.275  29.655  29.770  1.00  0.00     0.014 A 
ATOM     30  C   UNL A   1      38.118  29.836  27.678  1.00  0.00     0.010 A 
ATOM     31  C   UNL A   1      37.606  29.334  29.994  1.00  0.00     0.010 A 
ATOM     32  C   UNL A   1      38.541  29.421  28.952  1.00  0.00    -0.014 A 
BRANCH  32  33
ATOM     33  C   UNL A   1      39.956  29.063  29.223  1.00  0.00     0.031 A 
ATOM     34  C   UNL A   1      40.880  30.089  29.816  1.00  0.00     0.074 A 
ATOM     35  C   UNL A   1      40.424  27.854  28.854  1.00  0.00     0.049 A 
ATOM     36  N   UNL A   1      42.170  30.021  30.019  1.00  0.00    -0.248 NA
ATOM     37  C   UNL A   1      40.281  31.381  30.193  1.00  0.00     0.031 C 
ATOM     38  C   UNL A   1      39.640  26.797  28.209  1.00  0.00     0.029 A 
ATOM     39  N   UNL A   1      41.682  27.315  28.956  1.00  0.00    -0.354 N 
ATOM     40  C   UNL A   1      42.540  31.266  30.513  1.00  0.00     0.074 A 
ATOM     41  C   UNL A   1      41.349  32.087  30.532  1.00  0.00     0.031 C 
ATOM     42  C   UNL A   1      40.427  25.729  27.998  1.00  0.00     0.029 A 
ATOM     43  C   UNL A   1      41.777  26.036  28.460  1.00  0.00     0.049 A 
ATOM     44  H   UNL A   1      42.445  27.798  29.347  1.00  0.00     0.167 HD
ATOM     45  C   UNL A   1      43.757  31.681  30.936  1.00  0.00     0.037 A 
ATOM     46  C   UNL A   1      42.835  25.205  28.386  1.00  0.00     0.037 A 
ATOM     47  C   UNL A   1      44.923  30.841  30.969  1.00  0.00     0.049 A 
ATOM     48  C   UNL A   1      44.165  25.669  28.914  1.00  0.00     0.074 A 
ATOM     49  C   UNL A   1      46.186  31.138  31.450  1.00  0.00     0.029 A 
ATOM     50  N   UNL A   1      44.965  29.532  30.512  1.00  0.00    -0.354 N 
ATOM     51  N   UNL A   1      44.485  26.831  29.431  1.00  0.00    -0.248 NA
ATOM     52  C   UNL A   1      45.276  24.708  28.857  1.00  0.00     0.031 C 
ATOM     53  C   UNL A   1      46.998  30.014  31.263  1.00  0.00     0.029 A 
ATOM     54  C   UNL A   1      46.233  29.008  30.695  1.00  0.00     0.049 A 
ATOM     55  H   UNL A   1      44.205  29.046  30.115  1.00  0.00     0.167 HD
ATOM     56  C   UNL A   1      45.827  26.735  29.781  1.00  0.00     0.074 A 
ATOM     57  C   UNL A   1      46.255  25.397  29.427  1.00  0.00     0.031 C 
ATOM     58  C   UNL A   1      46.632  27.668  30.345  1.00  0.00     0.037 A 
BRANCH  45  59
ATOM     59  C   UNL A   1      43.876  33.100  31.414  1.00  0.00     0.058 A 
ATOM     60  C   UNL A   1      44.152  34.153  30.527  1.00  0.00     0.135 A 
ATOM     61  C   UNL A   1      43.706  33.413  32.771  1.00  0.00     0.135 A 
ATOM     62  F   UNL A   1      44.342  33.905  29.222  1.00  0.00    -0.206 F 
ATOM     63  C   UNL A   1      44.293  35.462  30.974  1.00  0.00     0.059 A 
ATOM     64  C   UNL A   1      43.816  34.721  33.237  1.00  0.00     0.059 A 
ATOM     65  F   UNL A   1      43.444  32.445  33.663  1.00  0.00    -0.206 F 
ATOM     66  C   UNL A   1      44.128  35.736  32.333  1.00  0.00     0.060 A 
BRANCH  66  67
ATOM     67  S   UNL A   1      44.319  37.438  32.901  1.00  0.00     0.124 S 
ATOM     68  O   UNL A   1      45.551  37.346  33.679  1.00  0.00    -0.237 OA
ATOM     69  O   UNL A   1      44.416  38.181  31.648  1.00  0.00    -0.237 OA
ATOM     70  O   UNL A   1      43.104  37.675  33.675  1.00  0.00    -0.744 OA
ENDBRANCH  66  67
ENDBRANCH  45  59
BRANCH  46  71
ATOM     71  C   UNL A   1      42.671  23.839  27.825  1.00  0.00     0.058 A 
ATOM     72  C   UNL A   1      42.690  23.626  26.440  1.00  0.00     0.135 A 
ATOM     73  C   UNL A   1      42.511  22.720  28.658  1.00  0.00     0.135 A 
ATOM     74  F   UNL A   1      42.838  24.666  25.604  1.00  0.00    -0.206 F 
ATOM     75  C   UNL A   1      42.542  22.355  25.894  1.00  0.00     0.059 A 
ATOM     76  C   UNL A   1      42.380  21.436  28.136  1.00  0.00     0.059 A 
ATOM     77  F   UNL A   1      42.504  22.868  29.991  1.00  0.00    -0.206 F 
ATOM     78  C   UNL A   1      42.386  21.265  26.752  1.00  0.00     0.060 A 
BRANCH  78  79
ATOM     79  S   UNL A   1      42.244  19.612  26.037  1.00  0.00     0.124 S 
ATOM     80  O   UNL A   1      40.825  19.556  25.707  1.00  0.00    -0.237 OA
ATOM     81  O   UNL A   1      43.161  19.685  24.904  1.00  0.00    -0.237 OA
ATOM     82  O   UNL A   1      42.677  18.741  27.126  1.00  0.00    -0.744 OA
ENDBRANCH  78  79
ENDBRANCH  46  71
BRANCH  58  83
ATOM     83  C   UNL A   1      48.047  27.266  30.643  1.00  0.00     0.058 A 
ATOM     84  C   UNL A   1      48.392  26.627  31.843  1.00  0.00     0.135 A 
ATOM     85  C   UNL A   1      49.058  27.472  29.691  1.00  0.00     0.135 A 
ATOM     86  F   UNL A   1      47.461  26.414  32.786  1.00  0.00    -0.206 F 
ATOM     87  C   UNL A   1      49.696  26.219  32.097  1.00  0.00     0.059 A 
ATOM     88  C   UNL A   1      50.364  27.053  29.915  1.00  0.00     0.059 A 
ATOM     89  F   UNL A   1      48.775  28.071  28.523  1.00  0.00    -0.206 F 
ATOM     90  C   UNL A   1      50.676  26.435  31.125  1.00  0.00     0.060 A 
BRANCH  90  91
ATOM     91  S   UNL A   1      52.358  25.865  31.447  1.00  0.00     0.124 S 
ATOM     92  O   UNL A   1      52.124  24.499  31.902  1.00  0.00    -0.237 OA
ATOM     93  O   UNL A   1      52.992  25.998  30.139  1.00  0.00    -0.237 OA
ATOM     94  O   UNL A   1      52.840  26.793  32.465  1.00  0.00    -0.744 OA
ENDBRANCH  90  91
ENDBRANCH  58  83
ENDBRANCH  32  33
ENDBRANCH  24  27
ENDBRANCH  22  23
ENDBRANCH  21  22
ENDBRANCH   1  21
TORSDOF 17
ENDMDL
MODEL 2
REMARK VINA RESULT:     -10.5      2.739      3.708
REMARK SMILES C[C@H](CNC(=O)c1ccc(Br)nc1)C(=O)NCCCCNC(=O)c1ccc(-c2c3nc(c(-c4c(F)cc(S(=O)(=O)[O-])cc4F)c4ccc([nH]4)c(-c4c(F)cc(S(=O)(=O)[O-])cc4F)c4nc(c(-c5c(F)cc(S(=O)(=O)[O-])cc5F)c5ccc2[nH]5)C=C4)C=C3)cc1
REMARK SMILES IDX 18 1 17 2 16 3 14 4 15 5 2 7 1 8 3 9 4 10 5 11 6 13 7 14
REMARK SMILES IDX 8 15 13 16 9 17 12 18 10 19 11 20 19 21 20 22 21 23 22 24
REMARK SMILES IDX 23 26 24 27 25 28 89 29 26 30 88 31 27 32 28 33 29 34 82 35
REMARK SMILES IDX 30 36 87 37 81 38 83 39 31 40 86 41 80 42 79 43 32 45 66 46
REMARK SMILES IDX 45 47 65 48 46 49 49 50 64 51 84 52 47 53 48 54 63 56 85 57
REMARK SMILES IDX 50 58 33 59 34 60 43 61 35 62 36 63 42 64 44 65 37 66 38 67
REMARK SMILES IDX 39 68 40 69 41 70 67 71 68 72 77 73 69 74 70 75 76 76 78 77
REMARK SMILES IDX 71 78 72 79 73 80 74 81 75 82 51 83 52 84 61 85 53 86 54 87
REMARK SMILES IDX 60 88 62 89 55 90 56 91 57 92 58 93 59 94
REMARK H PARENT 16 6 4 12 21 25 83 44 49 55
REMARK Flexibility Score: inf
ROOT
ATOM      1  C   UNL A   1      33.256  28.278  27.001  1.00  0.00     0.023 C 
ENDROOT
BRANCH   1   2
ATOM      2  C   UNL A   1      31.756  28.160  27.275  1.00  0.00     0.116 C 
BRANCH   2   3
ATOM      3  N   UNL A   1      31.181  27.006  26.604  1.00  0.00    -0.356 N 
ATOM      4  C   UNL A   1      30.732  26.826  25.335  1.00  0.00     0.224 C 
ATOM      5  O   UNL A   1      30.249  25.721  25.062  1.00  0.00    -0.275 OA
ATOM      6  H   UNL A   1      31.103  26.208  27.175  1.00  0.00     0.163 HD
BRANCH   4   7
ATOM      7  C   UNL A   1      30.759  27.915  24.264  1.00  0.00     0.094 C 
ATOM      8  C   UNL A   1      29.536  27.956  23.352  1.00  0.00     0.020 C 
BRANCH   7   9
ATOM      9  C   UNL A   1      32.110  28.016  23.537  1.00  0.00     0.129 C 
BRANCH   9  10
ATOM     10  N   UNL A   1      32.193  27.202  22.337  1.00  0.00    -0.351 N 
ATOM     11  C   UNL A   1      33.032  26.171  22.022  1.00  0.00     0.252 C 
ATOM     12  H   UNL A   1      31.538  27.429  21.639  1.00  0.00     0.163 HD
ATOM     13  O   UNL A   1      33.287  25.911  20.847  1.00  0.00    -0.269 OA
BRANCH  11  14
ATOM     14  C   UNL A   1      33.591  25.315  23.071  1.00  0.00     0.058 A 
ATOM     15  C   UNL A   1      34.019  25.853  24.283  1.00  0.00     0.018 A 
ATOM     16  C   UNL A   1      33.527  23.936  22.941  1.00  0.00     0.126 A 
ATOM     17  C   UNL A   1      34.391  24.989  25.311  1.00  0.00     0.037 A 
ATOM     18  N   UNL A   1      33.909  23.075  23.917  1.00  0.00    -0.249 NA
ATOM     19  C   UNL A   1      34.321  23.620  25.083  1.00  0.00     0.106 A 
ATOM     20  Br  UNL A   1      34.795  22.440  26.488  1.00  0.00    -0.029 Br
ENDBRANCH  11  14
ENDBRANCH   9  10
ENDBRANCH   7   9
ENDBRANCH   4   7
ENDBRANCH   2   3
ENDBRANCH   1   2
BRANCH   1  21
ATOM     21  C   UNL A   1      33.818  29.692  27.066  1.00  0.00     0.023 C 
BRANCH  21  22
ATOM     22  C   UNL A   1      35.224  29.795  27.634  1.00  0.00     0.116 C 
BRANCH  22  23
ATOM     23  N   UNL A   1      35.289  30.491  28.913  1.00  0.00    -0.352 N 
ATOM     24  C   UNL A   1      36.336  30.559  29.801  1.00  0.00     0.251 C 
ATOM     25  H   UNL A   1      34.475  30.977  29.177  1.00  0.00     0.163 HD
ATOM     26  O   UNL A   1      36.202  31.119  30.886  1.00  0.00    -0.269 OA
BRANCH  24  27
ATOM     27  C   UNL A   1      37.614  29.909  29.449  1.00  0.00     0.039 A 
ATOM     28  C   UNL A   1      37.982  29.824  28.104  1.00  0.00     0.014 A 
ATOM     29  C   UNL A   1      38.478  29.468  30.452  1.00  0.00     0.014 A 
ATOM     30  C   UNL A   1      39.260  29.374  27.772  1.00  0.00     0.010 A 
ATOM     31  C   UNL A   1      39.778  29.109  30.125  1.00  0.00     0.010 A 
ATOM     32  C   UNL A   1      40.183  29.059  28.783  1.00  0.00    -0.014 A 
BRANCH  32  33
ATOM     33  C   UNL A   1      41.579  28.664  28.467  1.00  0.00     0.031 A 
ATOM     34  C   UNL A   1      42.659  29.710  28.447  1.00  0.00     0.074 A 
ATOM     35  C   UNL A   1      41.852  27.392  28.112  1.00  0.00     0.049 A 
ATOM     36  N   UNL A   1      43.909  29.599  28.081  1.00  0.00    -0.248 NA
ATOM     37  C   UNL A   1      42.270  31.071  28.853  1.00  0.00     0.031 C 
ATOM     38  C   UNL A   1      40.876  26.302  28.030  1.00  0.00     0.029 A 
ATOM     39  N   UNL A   1      43.035  26.804  27.739  1.00  0.00    -0.354 N 
ATOM     40  C   UNL A   1      44.444  30.877  28.180  1.00  0.00     0.074 A 
ATOM     41  C   UNL A   1      43.372  31.757  28.591  1.00  0.00     0.031 C 
ATOM     42  C   UNL A   1      41.504  25.175  27.658  1.00  0.00     0.029 A 
ATOM     43  C   UNL A   1      42.917  25.467  27.443  1.00  0.00     0.049 A 
ATOM     44  H   UNL A   1      43.887  27.294  27.687  1.00  0.00     0.167 HD
ATOM     45  C   UNL A   1      45.720  31.279  27.973  1.00  0.00     0.037 A 
ATOM     46  C   UNL A   1      43.847  24.577  27.041  1.00  0.00     0.037 A 
ATOM     47  C   UNL A   1      46.793  30.389  27.621  1.00  0.00     0.049 A 
ATOM     48  C   UNL A   1      45.269  25.035  26.871  1.00  0.00     0.074 A 
ATOM     49  C   UNL A   1      48.136  30.679  27.461  1.00  0.00     0.029 A 
ATOM     50  N   UNL A   1      46.646  29.030  27.386  1.00  0.00    -0.354 N 
ATOM     51  N   UNL A   1      45.770  26.238  27.024  1.00  0.00    -0.248 NA
ATOM     52  C   UNL A   1      46.254  24.017  26.480  1.00  0.00     0.031 C 
ATOM     53  C   UNL A   1      48.798  29.498  27.108  1.00  0.00     0.029 A 
ATOM     54  C   UNL A   1      47.872  28.467  27.079  1.00  0.00     0.049 A 
ATOM     55  H   UNL A   1      45.794  28.537  27.431  1.00  0.00     0.167 HD
ATOM     56  C   UNL A   1      47.132  26.117  26.771  1.00  0.00     0.074 A 
ATOM     57  C   UNL A   1      47.377  24.722  26.466  1.00  0.00     0.031 C 
ATOM     58  C   UNL A   1      48.093  27.073  26.790  1.00  0.00     0.037 A 
BRANCH  45  59
ATOM     59  C   UNL A   1      46.021  32.742  28.140  1.00  0.00     0.058 A 
ATOM     60  C   UNL A   1      46.434  33.270  29.374  1.00  0.00     0.135 A 
ATOM     61  C   UNL A   1      45.902  33.624  27.056  1.00  0.00     0.135 A 
ATOM     62  F   UNL A   1      46.545  32.471  30.448  1.00  0.00    -0.206 F 
ATOM     63  C   UNL A   1      46.682  34.628  29.537  1.00  0.00     0.059 A 
ATOM     64  C   UNL A   1      46.172  34.984  27.189  1.00  0.00     0.059 A 
ATOM     65  F   UNL A   1      45.508  33.172  25.855  1.00  0.00    -0.206 F 
ATOM     66  C   UNL A   1      46.544  35.478  28.439  1.00  0.00     0.060 A 
BRANCH  66  67
ATOM     67  S   UNL A   1      46.863  37.241  28.665  1.00  0.00     0.124 S 
ATOM     68  O   UNL A   1      48.135  37.215  29.380  1.00  0.00    -0.237 OA
ATOM     69  O   UNL A   1      46.920  37.730  27.290  1.00  0.00    -0.237 OA
ATOM     70  O   UNL A   1      45.715  37.696  29.441  1.00  0.00    -0.744 OA
ENDBRANCH  66  67
ENDBRANCH  45  59
BRANCH  46  71
ATOM     71  C   UNL A   1      43.469  23.159  26.811  1.00  0.00     0.058 A 
ATOM     72  C   UNL A   1      43.173  22.313  27.890  1.00  0.00     0.135 A 
ATOM     73  C   UNL A   1      43.378  22.625  25.516  1.00  0.00     0.135 A 
ATOM     74  F   UNL A   1      43.250  22.778  29.147  1.00  0.00    -0.206 F 
ATOM     75  C   UNL A   1      42.815  20.983  27.698  1.00  0.00     0.059 A 
ATOM     76  C   UNL A   1      43.003  21.303  25.298  1.00  0.00     0.059 A 
ATOM     77  F   UNL A   1      43.633  23.398  24.450  1.00  0.00    -0.206 F 
ATOM     78  C   UNL A   1      42.732  20.486  26.396  1.00  0.00     0.060 A 
BRANCH  78  79
ATOM     79  S   UNL A   1      42.217  18.772  26.152  1.00  0.00     0.124 S 
ATOM     80  O   UNL A   1      42.453  18.205  27.474  1.00  0.00    -0.237 OA
ATOM     81  O   UNL A   1      40.819  18.922  25.762  1.00  0.00    -0.237 OA
ATOM     82  O   UNL A   1      43.107  18.305  25.094  1.00  0.00    -0.744 OA
ENDBRANCH  78  79
ENDBRANCH  46  71
BRANCH  58  83
ATOM     83  C   UNL A   1      49.500  26.639  26.504  1.00  0.00     0.058 A 
ATOM     84  C   UNL A   1      50.317  26.089  27.503  1.00  0.00     0.135 A 
ATOM     85  C   UNL A   1      50.017  26.721  25.201  1.00  0.00     0.135 A 
ATOM     86  F   UNL A   1      49.869  25.995  28.765  1.00  0.00    -0.206 F 
ATOM     87  C   UNL A   1      51.607  25.649  27.224  1.00  0.00     0.059 A 
ATOM     88  C   UNL A   1      51.295  26.268  24.895  1.00  0.00     0.059 A 
ATOM     89  F   UNL A   1      49.270  27.231  24.209  1.00  0.00    -0.206 F 
ATOM     90  C   UNL A   1      52.086  25.742  25.916  1.00  0.00     0.060 A 
BRANCH  90  91
ATOM     91  S   UNL A   1      53.746  25.131  25.555  1.00  0.00     0.124 S 
ATOM     92  O   UNL A   1      54.067  25.857  24.331  1.00  0.00    -0.237 OA
ATOM     93  O   UNL A   1      54.494  25.530  26.744  1.00  0.00    -0.237 OA
ATOM     94  O   UNL A   1      53.550  23.693  25.401  1.00  0.00    -0.744 OA
ENDBRANCH  90  91
ENDBRANCH  58  83
ENDBRANCH  32  33
ENDBRANCH  24  27
ENDBRANCH  22  23
ENDBRANCH  21  22
ENDBRANCH   1  21
TORSDOF 17
ENDMDL
MODEL 3
REMARK VINA RESULT:     -10.5      3.517      4.728
REMARK SMILES C[C@H](CNC(=O)c1ccc(Br)nc1)C(=O)NCCCCNC(=O)c1ccc(-c2c3nc(c(-c4c(F)cc(S(=O)(=O)[O-])cc4F)c4ccc([nH]4)c(-c4c(F)cc(S(=O)(=O)[O-])cc4F)c4nc(c(-c5c(F)cc(S(=O)(=O)[O-])cc5F)c5ccc2[nH]5)C=C4)C=C3)cc1
REMARK SMILES IDX 18 1 17 2 16 3 14 4 15 5 2 7 1 8 3 9 4 10 5 11 6 13 7 14
REMARK SMILES IDX 8 15 13 16 9 17 12 18 10 19 11 20 19 21 20 22 21 23 22 24
REMARK SMILES IDX 23 26 24 27 25 28 89 29 26 30 88 31 27 32 28 33 29 34 82 35
REMARK SMILES IDX 30 36 87 37 81 38 83 39 31 40 86 41 80 42 79 43 32 45 66 46
REMARK SMILES IDX 45 47 65 48 46 49 49 50 64 51 84 52 47 53 48 54 63 56 85 57
REMARK SMILES IDX 50 58 33 59 34 60 43 61 35 62 36 63 42 64 44 65 37 66 38 67
REMARK SMILES IDX 39 68 40 69 41 70 67 71 68 72 77 73 69 74 70 75 76 76 78 77
REMARK SMILES IDX 71 78 72 79 73 80 74 81 75 82 51 83 52 84 61 85 53 86 54 87
REMARK SMILES IDX 60 88 62 89 55 90 56 91 57 92 58 93 59 94
REMARK H PARENT 16 6 4 12 21 25 83 44 49 55
REMARK Flexibility Score: inf
ROOT
ATOM      1  C   UNL A   1      34.656  33.465  28.403  1.00  0.00     0.023 C 
ENDROOT
BRANCH   1   2
ATOM      2  C   UNL A   1      33.686  32.392  27.905  1.00  0.00     0.116 C 
BRANCH   2   3
ATOM      3  N   UNL A   1      34.357  31.118  27.708  1.00  0.00    -0.356 N 
ATOM      4  C   UNL A   1      33.913  29.922  27.243  1.00  0.00     0.224 C 
ATOM      5  O   UNL A   1      34.724  28.989  27.229  1.00  0.00    -0.275 OA
ATOM      6  H   UNL A   1      35.309  31.124  27.958  1.00  0.00     0.163 HD
BRANCH   4   7
ATOM      7  C   UNL A   1      32.477  29.671  26.785  1.00  0.00     0.094 C 
ATOM      8  C   UNL A   1      31.769  28.513  27.482  1.00  0.00     0.020 C 
BRANCH   7   9
ATOM      9  C   UNL A   1      32.315  29.701  25.256  1.00  0.00     0.129 C 
BRANCH   9  10
ATOM     10  N   UNL A   1      31.829  28.454  24.693  1.00  0.00    -0.351 N 
ATOM     11  C   UNL A   1      30.638  28.157  24.091  1.00  0.00     0.252 C 
ATOM     12  H   UNL A   1      32.459  27.700  24.754  1.00  0.00     0.163 HD
ATOM     13  O   UNL A   1      30.206  27.006  24.100  1.00  0.00    -0.269 OA
BRANCH  11  14
ATOM     14  C   UNL A   1      29.889  29.187  23.369  1.00  0.00     0.058 A 
ATOM     15  C   UNL A   1      29.488  30.361  24.006  1.00  0.00     0.018 A 
ATOM     16  C   UNL A   1      29.733  29.090  21.995  1.00  0.00     0.126 A 
ATOM     17  C   UNL A   1      28.922  31.381  23.245  1.00  0.00     0.037 A 
ATOM     18  N   UNL A   1      29.161  30.058  21.237  1.00  0.00    -0.249 NA
ATOM     19  C   UNL A   1      28.779  31.186  21.876  1.00  0.00     0.106 A 
ATOM     20  Br  UNL A   1      28.040  32.584  20.830  1.00  0.00    -0.029 Br
ENDBRANCH  11  14
ENDBRANCH   9  10
ENDBRANCH   7   9
ENDBRANCH   4   7
ENDBRANCH   2   3
ENDBRANCH   1   2
BRANCH   1  21
ATOM     21  C   UNL A   1      36.124  33.206  28.095  1.00  0.00     0.023 C 
BRANCH  21  22
ATOM     22  C   UNL A   1      36.996  32.944  29.313  1.00  0.00     0.116 C 
BRANCH  22  23
ATOM     23  N   UNL A   1      36.322  32.192  30.364  1.00  0.00    -0.352 N 
ATOM     24  C   UNL A   1      36.660  30.971  30.898  1.00  0.00     0.251 C 
ATOM     25  H   UNL A   1      35.518  32.615  30.743  1.00  0.00     0.163 HD
ATOM     26  O   UNL A   1      35.934  30.428  31.726  1.00  0.00    -0.269 OA
BRANCH  24  27
ATOM     27  C   UNL A   1      37.888  30.302  30.427  1.00  0.00     0.039 A 
ATOM     28  C   UNL A   1      38.110  30.182  29.054  1.00  0.00     0.014 A 
ATOM     29  C   UNL A   1      38.852  29.877  31.343  1.00  0.00     0.014 A 
ATOM     30  C   UNL A   1      39.343  29.713  28.598  1.00  0.00     0.010 A 
ATOM     31  C   UNL A   1      40.107  29.499  30.888  1.00  0.00     0.010 A 
ATOM     32  C   UNL A   1      40.366  29.413  29.512  1.00  0.00    -0.014 A 
BRANCH  32  33
ATOM     33  C   UNL A   1      41.718  28.999  29.059  1.00  0.00     0.031 A 
ATOM     34  C   UNL A   1      42.821  30.018  28.988  1.00  0.00     0.074 A 
ATOM     35  C   UNL A   1      41.923  27.738  28.628  1.00  0.00     0.049 A 
ATOM     36  N   UNL A   1      44.031  29.893  28.510  1.00  0.00    -0.248 NA
ATOM     37  C   UNL A   1      42.507  31.369  29.484  1.00  0.00     0.031 C 
ATOM     38  C   UNL A   1      40.913  26.677  28.586  1.00  0.00     0.029 A 
ATOM     39  N   UNL A   1      43.052  27.138  28.129  1.00  0.00    -0.354 N 
ATOM     40  C   UNL A   1      44.609  31.152  28.616  1.00  0.00     0.074 A 
ATOM     41  C   UNL A   1      43.601  32.038  29.155  1.00  0.00     0.031 C 
ATOM     42  C   UNL A   1      41.475  25.552  28.114  1.00  0.00     0.029 A 
ATOM     43  C   UNL A   1      42.872  25.819  27.788  1.00  0.00     0.049 A 
ATOM     44  H   UNL A   1      43.910  27.609  28.024  1.00  0.00     0.167 HD
ATOM     45  C   UNL A   1      45.873  31.532  28.314  1.00  0.00     0.037 A 
ATOM     46  C   UNL A   1      43.737  24.925  27.269  1.00  0.00     0.037 A 
ATOM     47  C   UNL A   1      46.886  30.631  27.832  1.00  0.00     0.049 A 
ATOM     48  C   UNL A   1      45.152  25.355  26.995  1.00  0.00     0.074 A 
ATOM     49  C   UNL A   1      48.218  30.895  27.568  1.00  0.00     0.029 A 
ATOM     50  N   UNL A   1      46.680  29.288  27.555  1.00  0.00    -0.354 N 
ATOM     51  N   UNL A   1      45.699  26.538  27.154  1.00  0.00    -0.248 NA
ATOM     52  C   UNL A   1      46.070  24.331  26.477  1.00  0.00     0.031 C 
ATOM     53  C   UNL A   1      48.813  29.715  27.110  1.00  0.00     0.029 A 
ATOM     54  C   UNL A   1      47.859  28.710  27.118  1.00  0.00     0.049 A 
ATOM     55  H   UNL A   1      45.822  28.815  27.654  1.00  0.00     0.167 HD
ATOM     56  C   UNL A   1      47.029  26.394  26.777  1.00  0.00     0.074 A 
ATOM     57  C   UNL A   1      47.207  25.008  26.394  1.00  0.00     0.031 C 
ATOM     58  C   UNL A   1      48.015  27.325  26.753  1.00  0.00     0.037 A 
BRANCH  45  59
ATOM     59  C   UNL A   1      46.228  32.977  28.516  1.00  0.00     0.058 A 
ATOM     60  C   UNL A   1      46.098  33.917  27.481  1.00  0.00     0.135 A 
ATOM     61  C   UNL A   1      46.699  33.430  29.758  1.00  0.00     0.135 A 
ATOM     62  F   UNL A   1      45.670  33.532  26.268  1.00  0.00    -0.206 F 
ATOM     63  C   UNL A   1      46.456  35.249  27.659  1.00  0.00     0.059 A 
ATOM     64  C   UNL A   1      47.038  34.765  29.966  1.00  0.00     0.059 A 
ATOM     65  F   UNL A   1      46.846  32.573  30.780  1.00  0.00    -0.206 F 
ATOM     66  C   UNL A   1      46.930  35.662  28.904  1.00  0.00     0.060 A 
BRANCH  66  67
ATOM     67  S   UNL A   1      47.397  37.392  29.121  1.00  0.00     0.124 S 
ATOM     68  O   UNL A   1      46.211  38.077  28.617  1.00  0.00    -0.237 OA
ATOM     69  O   UNL A   1      47.616  37.482  30.561  1.00  0.00    -0.237 OA
ATOM     70  O   UNL A   1      48.596  37.524  28.298  1.00  0.00    -0.744 OA
ENDBRANCH  66  67
ENDBRANCH  45  59
BRANCH  46  71
ATOM     71  C   UNL A   1      43.301  23.528  27.015  1.00  0.00     0.058 A 
ATOM     72  C   UNL A   1      43.091  23.071  25.706  1.00  0.00     0.135 A 
ATOM     73  C   UNL A   1      43.104  22.619  28.066  1.00  0.00     0.135 A 
ATOM     74  F   UNL A   1      43.264  23.905  24.669  1.00  0.00    -0.206 F 
ATOM     75  C   UNL A   1      42.686  21.766  25.445  1.00  0.00     0.059 A 
ATOM     76  C   UNL A   1      42.717  21.303  27.829  1.00  0.00     0.059 A 
ATOM     77  F   UNL A   1      43.309  23.002  29.335  1.00  0.00    -0.206 F 
ATOM     78  C   UNL A   1      42.501  20.888  26.515  1.00  0.00     0.060 A 
BRANCH  78  79
ATOM     79  S   UNL A   1      42.024  19.182  26.164  1.00  0.00     0.124 S 
ATOM     80  O   UNL A   1      40.607  19.332  25.852  1.00  0.00    -0.237 OA
ATOM     81  O   UNL A   1      42.892  18.842  25.042  1.00  0.00    -0.237 OA
ATOM     82  O   UNL A   1      42.327  18.489  27.413  1.00  0.00    -0.744 OA
ENDBRANCH  78  79
ENDBRANCH  46  71
BRANCH  58  83
ATOM     83  C   UNL A   1      49.379  26.869  26.327  1.00  0.00     0.058 A 
ATOM     84  C   UNL A   1      50.251  26.225  27.217  1.00  0.00     0.135 A 
ATOM     85  C   UNL A   1      49.796  27.028  24.995  1.00  0.00     0.135 A 
ATOM     86  F   UNL A   1      49.899  26.055  28.502  1.00  0.00    -0.206 F 
ATOM     87  C   UNL A   1      51.498  25.767  26.807  1.00  0.00     0.059 A 
ATOM     88  C   UNL A   1      51.030  26.559  24.558  1.00  0.00     0.059 A 
ATOM     89  F   UNL A   1      48.994  27.630  24.103  1.00  0.00    -0.206 F 
ATOM     90  C   UNL A   1      51.878  25.938  25.474  1.00  0.00     0.060 A 
BRANCH  90  91
ATOM     91  S   UNL A   1      53.482  25.304  24.942  1.00  0.00     0.124 S 
ATOM     92  O   UNL A   1      53.452  25.592  23.512  1.00  0.00    -0.237 OA
ATOM     93  O   UNL A   1      54.415  26.104  25.730  1.00  0.00    -0.237 OA
ATOM     94  O   UNL A   1      53.423  23.890  25.301  1.00  0.00    -0.744 OA
ENDBRANCH  90  91
ENDBRANCH  58  83
ENDBRANCH  32  33
ENDBRANCH  24  27
ENDBRANCH  22  23
ENDBRANCH  21  22
ENDBRANCH   1  21
TORSDOF 17
ENDMDL
