MODEL 1
REMARK VINA RESULT:     -11.2      0.000      0.000
REMARK SMILES CC(C)CN(C)c1ccc([N+](=O)[O-])cc1C(=O)NCCCCNC(=O)c1ccc(-c2c3nc(c(-c4c(F)cc(S(=O)(=O)[O-])cc4F)c4ccc([nH]4)c(-c4c(F)cc(S(=O)(=O)[O-])cc4F)c4nc(c(-c5c(F)cc(S(=O)(=O)[O-])cc5F)c5ccc2[nH]5)C=C4)C=C3)cc1
REMARK SMILES IDX 20 1 19 2 18 3 16 4 17 5 15 7 7 8 8 9 9 10 14 11 10 12 5 13
REMARK SMILES IDX 6 14 4 15 2 16 1 17 3 18 11 19 12 20 13 21 21 22 22 23 23 24
REMARK SMILES IDX 24 25 25 27 26 28 27 29 91 30 28 31 90 32 29 33 30 34 31 35
REMARK SMILES IDX 84 36 32 37 89 38 83 39 85 40 33 41 88 42 82 43 81 44 34 46
REMARK SMILES IDX 68 47 47 48 67 49 48 50 51 51 66 52 86 53 49 54 50 55 65 57
REMARK SMILES IDX 87 58 52 59 35 60 36 61 45 62 37 63 38 64 44 65 46 66 39 67
REMARK SMILES IDX 40 68 41 69 42 70 43 71 69 72 70 73 79 74 71 75 72 76 78 77
REMARK SMILES IDX 80 78 73 79 74 80 75 81 76 82 77 83 53 84 54 85 63 86 55 87
REMARK SMILES IDX 56 88 62 89 64 90 57 91 58 92 59 93 60 94 61 95
REMARK H PARENT 18 6 23 26 85 45 51 56
REMARK Flexibility Score: inf
ROOT
ATOM      1  C   UNL A   1      34.921  29.685  27.204  1.00  0.00     0.023 C 
ENDROOT
BRANCH   1   2
ATOM      2  C   UNL A   1      33.770  29.065  26.415  1.00  0.00     0.116 C 
BRANCH   2   3
ATOM      3  N   UNL A   1      34.128  28.453  25.156  1.00  0.00    -0.352 N 
ATOM      4  C   UNL A   1      33.452  27.518  24.402  1.00  0.00     0.253 C 
ATOM      5  O   UNL A   1      33.985  27.171  23.343  1.00  0.00    -0.269 OA
ATOM      6  H   UNL A   1      34.986  28.750  24.779  1.00  0.00     0.163 HD
BRANCH   4   7
ATOM      7  C   UNL A   1      32.161  26.844  24.787  1.00  0.00     0.069 A 
ATOM      8  C   UNL A   1      30.836  27.274  24.512  1.00  0.00     0.050 A 
ATOM      9  C   UNL A   1      29.766  26.507  25.039  1.00  0.00     0.034 A 
ATOM     10  C   UNL A   1      29.965  25.303  25.712  1.00  0.00     0.088 A 
ATOM     11  C   UNL A   1      32.350  25.588  25.419  1.00  0.00     0.101 A 
ATOM     12  C   UNL A   1      31.260  24.823  25.850  1.00  0.00     0.270 A 
BRANCH   8  13
ATOM     13  N   UNL A   1      30.509  28.355  23.688  1.00  0.00    -0.374 N 
ATOM     14  C   UNL A   1      30.676  29.688  24.285  1.00  0.00     0.143 C 
BRANCH  13  15
ATOM     15  C   UNL A   1      29.381  28.217  22.731  1.00  0.00     0.119 C 
BRANCH  15  16
ATOM     16  C   UNL A   1      28.248  29.249  22.913  1.00  0.00     0.002 C 
ATOM     17  C   UNL A   1      28.018  30.081  21.648  1.00  0.00     0.009 C 
ATOM     18  C   UNL A   1      26.925  28.579  23.301  1.00  0.00     0.009 C 
ENDBRANCH  15  16
ENDBRANCH  13  15
ENDBRANCH   8  13
BRANCH  12  19
ATOM     19  N   UNL A   1      31.470  23.486  26.415  1.00  0.00     0.062 N 
ATOM     20  O   UNL A   1      30.718  23.129  27.334  1.00  0.00    -0.258 OA
ATOM     21  O   UNL A   1      32.365  22.786  25.926  1.00  0.00    -0.258 OA
ENDBRANCH  12  19
ENDBRANCH   4   7
ENDBRANCH   2   3
ENDBRANCH   1   2
BRANCH   1  22
ATOM     22  C   UNL A   1      34.672  31.106  27.738  1.00  0.00     0.023 C 
BRANCH  22  23
ATOM     23  C   UNL A   1      35.651  31.649  28.784  1.00  0.00     0.116 C 
BRANCH  23  24
ATOM     24  N   UNL A   1      35.608  30.976  30.072  1.00  0.00    -0.352 N 
ATOM     25  C   UNL A   1      36.579  30.298  30.782  1.00  0.00     0.251 C 
ATOM     26  H   UNL A   1      34.731  31.010  30.519  1.00  0.00     0.163 HD
ATOM     27  O   UNL A   1      36.286  29.802  31.861  1.00  0.00    -0.269 OA
BRANCH  25  28
ATOM     28  C   UNL A   1      37.949  30.113  30.238  1.00  0.00     0.039 A 
ATOM     29  C   UNL A   1      39.014  30.066  31.145  1.00  0.00     0.014 A 
ATOM     30  C   UNL A   1      38.211  30.012  28.871  1.00  0.00     0.014 A 
ATOM     31  C   UNL A   1      40.314  29.816  30.693  1.00  0.00     0.010 A 
ATOM     32  C   UNL A   1      39.499  29.693  28.425  1.00  0.00     0.010 A 
ATOM     33  C   UNL A   1      40.563  29.573  29.332  1.00  0.00    -0.014 A 
BRANCH  33  34
ATOM     34  C   UNL A   1      41.914  29.145  28.868  1.00  0.00     0.031 A 
ATOM     35  C   UNL A   1      43.053  30.127  28.774  1.00  0.00     0.074 A 
ATOM     36  C   UNL A   1      42.107  27.867  28.478  1.00  0.00     0.049 A 
ATOM     37  N   UNL A   1      44.282  29.930  28.364  1.00  0.00    -0.248 NA
ATOM     38  C   UNL A   1      42.772  31.514  29.174  1.00  0.00     0.031 C 
ATOM     39  C   UNL A   1      41.078  26.824  28.466  1.00  0.00     0.029 A 
ATOM     40  N   UNL A   1      43.228  27.228  28.008  1.00  0.00    -0.354 N 
ATOM     41  C   UNL A   1      44.915  31.164  28.446  1.00  0.00     0.074 A 
ATOM     42  C   UNL A   1      43.922  32.114  28.901  1.00  0.00     0.031 C 
ATOM     43  C   UNL A   1      41.620  25.674  28.035  1.00  0.00     0.029 A 
ATOM     44  C   UNL A   1      43.024  25.901  27.705  1.00  0.00     0.049 A 
ATOM     45  H   UNL A   1      44.098  27.676  27.899  1.00  0.00     0.167 HD
ATOM     46  C   UNL A   1      46.209  31.475  28.185  1.00  0.00     0.037 A 
ATOM     47  C   UNL A   1      43.863  24.969  27.210  1.00  0.00     0.037 A 
ATOM     48  C   UNL A   1      47.203  30.526  27.749  1.00  0.00     0.049 A 
ATOM     49  C   UNL A   1      45.296  25.337  26.934  1.00  0.00     0.074 A 
ATOM     50  C   UNL A   1      48.552  30.739  27.516  1.00  0.00     0.029 A 
ATOM     51  N   UNL A   1      46.961  29.188  27.474  1.00  0.00    -0.354 N 
ATOM     52  N   UNL A   1      45.892  26.495  27.085  1.00  0.00    -0.248 NA
ATOM     53  C   UNL A   1      46.173  24.270  26.433  1.00  0.00     0.031 C 
ATOM     54  C   UNL A   1      49.114  29.543  27.058  1.00  0.00     0.029 A 
ATOM     55  C   UNL A   1      48.128  28.570  27.056  1.00  0.00     0.049 A 
ATOM     56  H   UNL A   1      46.087  28.743  27.564  1.00  0.00     0.167 HD
ATOM     57  C   UNL A   1      47.220  26.289  26.724  1.00  0.00     0.074 A 
ATOM     58  C   UNL A   1      47.341  24.892  26.360  1.00  0.00     0.031 C 
ATOM     59  C   UNL A   1      48.245  27.177  26.701  1.00  0.00     0.037 A 
BRANCH  46  60
ATOM     60  C   UNL A   1      46.634  32.910  28.365  1.00  0.00     0.058 A 
ATOM     61  C   UNL A   1      46.572  33.835  27.312  1.00  0.00     0.135 A 
ATOM     62  C   UNL A   1      47.064  33.375  29.619  1.00  0.00     0.135 A 
ATOM     63  F   UNL A   1      46.178  33.444  26.090  1.00  0.00    -0.206 F 
ATOM     64  C   UNL A   1      46.952  35.162  27.485  1.00  0.00     0.059 A 
ATOM     65  C   UNL A   1      47.422  34.705  29.823  1.00  0.00     0.059 A 
ATOM     66  F   UNL A   1      47.139  32.535  30.663  1.00  0.00    -0.206 F 
ATOM     67  C   UNL A   1      47.377  35.588  28.745  1.00  0.00     0.060 A 
BRANCH  67  68
ATOM     68  S   UNL A   1      47.865  37.313  28.953  1.00  0.00     0.124 S 
ATOM     69  O   UNL A   1      46.793  38.006  28.245  1.00  0.00    -0.237 OA
ATOM     70  O   UNL A   1      47.866  37.465  30.405  1.00  0.00    -0.237 OA
ATOM     71  O   UNL A   1      49.178  37.375  28.318  1.00  0.00    -0.744 OA
ENDBRANCH  67  68
ENDBRANCH  46  60
BRANCH  47  72
ATOM     72  C   UNL A   1      43.374  23.585  26.964  1.00  0.00     0.058 A 
ATOM     73  C   UNL A   1      43.115  23.129  25.663  1.00  0.00     0.135 A 
ATOM     74  C   UNL A   1      43.166  22.688  28.023  1.00  0.00     0.135 A 
ATOM     75  F   UNL A   1      43.291  23.952  24.618  1.00  0.00    -0.206 F 
ATOM     76  C   UNL A   1      42.652  21.840  25.420  1.00  0.00     0.059 A 
ATOM     77  C   UNL A   1      42.730  21.385  27.805  1.00  0.00     0.059 A 
ATOM     78  F   UNL A   1      43.415  23.069  29.286  1.00  0.00    -0.206 F 
ATOM     79  C   UNL A   1      42.467  20.973  26.498  1.00  0.00     0.060 A 
BRANCH  79  80
ATOM     80  S   UNL A   1      41.918  19.285  26.167  1.00  0.00     0.124 S 
ATOM     81  O   UNL A   1      42.257  18.615  27.418  1.00  0.00    -0.237 OA
ATOM     82  O   UNL A   1      40.494  19.471  25.907  1.00  0.00    -0.237 OA
ATOM     83  O   UNL A   1      42.713  18.895  25.006  1.00  0.00    -0.744 OA
ENDBRANCH  79  80
ENDBRANCH  47  72
BRANCH  59  84
ATOM     84  C   UNL A   1      49.602  26.660  26.306  1.00  0.00     0.058 A 
ATOM     85  C   UNL A   1      50.047  26.682  24.975  1.00  0.00     0.135 A 
ATOM     86  C   UNL A   1      50.486  26.170  27.282  1.00  0.00     0.135 A 
ATOM     87  F   UNL A   1      49.241  27.134  24.001  1.00  0.00    -0.206 F 
ATOM     88  C   UNL A   1      51.308  26.211  24.621  1.00  0.00     0.059 A 
ATOM     89  C   UNL A   1      51.762  25.720  26.955  1.00  0.00     0.059 A 
ATOM     90  F   UNL A   1      50.117  26.135  28.573  1.00  0.00    -0.206 F 
ATOM     91  C   UNL A   1      52.159  25.731  25.619  1.00  0.00     0.060 A 
BRANCH  91  92
ATOM     92  S   UNL A   1      53.800  25.144  25.151  1.00  0.00     0.124 S 
ATOM     93  O   UNL A   1      53.529  23.750  24.815  1.00  0.00    -0.237 OA
ATOM     94  O   UNL A   1      54.136  26.012  24.027  1.00  0.00    -0.237 OA
ATOM     95  O   UNL A   1      54.594  25.356  26.358  1.00  0.00    -0.744 OA
ENDBRANCH  91  92
ENDBRANCH  59  84
ENDBRANCH  33  34
ENDBRANCH  25  28
ENDBRANCH  23  24
ENDBRANCH  22  23
ENDBRANCH   1  22
TORSDOF 18
ENDMDL
MODEL 2
REMARK VINA RESULT:     -11.1      4.099     10.679
REMARK SMILES CC(C)CN(C)c1ccc([N+](=O)[O-])cc1C(=O)NCCCCNC(=O)c1ccc(-c2c3nc(c(-c4c(F)cc(S(=O)(=O)[O-])cc4F)c4ccc([nH]4)c(-c4c(F)cc(S(=O)(=O)[O-])cc4F)c4nc(c(-c5c(F)cc(S(=O)(=O)[O-])cc5F)c5ccc2[nH]5)C=C4)C=C3)cc1
REMARK SMILES IDX 20 1 19 2 18 3 16 4 17 5 15 7 7 8 8 9 9 10 14 11 10 12 5 13
REMARK SMILES IDX 6 14 4 15 2 16 1 17 3 18 11 19 12 20 13 21 21 22 22 23 23 24
REMARK SMILES IDX 24 25 25 27 26 28 27 29 91 30 28 31 90 32 29 33 30 34 31 35
REMARK SMILES IDX 84 36 32 37 89 38 83 39 85 40 33 41 88 42 82 43 81 44 34 46
REMARK SMILES IDX 68 47 47 48 67 49 48 50 51 51 66 52 86 53 49 54 50 55 65 57
REMARK SMILES IDX 87 58 52 59 35 60 36 61 45 62 37 63 38 64 44 65 46 66 39 67
REMARK SMILES IDX 40 68 41 69 42 70 43 71 69 72 70 73 79 74 71 75 72 76 78 77
REMARK SMILES IDX 80 78 73 79 74 80 75 81 76 82 77 83 53 84 54 85 63 86 55 87
REMARK SMILES IDX 56 88 62 89 64 90 57 91 58 92 59 93 60 94 61 95
REMARK H PARENT 18 6 23 26 85 45 51 56
REMARK Flexibility Score: inf
ROOT
ATOM      1  C   UNL A   1      37.284  33.355  29.167  1.00  0.00     0.023 C 
ENDROOT
BRANCH   1   2
ATOM      2  C   UNL A   1      37.545  34.056  30.498  1.00  0.00     0.116 C 
BRANCH   2   3
ATOM      3  N   UNL A   1      36.580  33.801  31.543  1.00  0.00    -0.352 N 
ATOM      4  C   UNL A   1      36.706  33.075  32.708  1.00  0.00     0.253 C 
ATOM      5  O   UNL A   1      35.713  33.030  33.442  1.00  0.00    -0.269 OA
ATOM      6  H   UNL A   1      35.696  34.210  31.401  1.00  0.00     0.163 HD
BRANCH   4   7
ATOM      7  C   UNL A   1      37.920  32.290  33.127  1.00  0.00     0.069 A 
ATOM      8  C   UNL A   1      39.083  32.766  33.788  1.00  0.00     0.050 A 
ATOM      9  C   UNL A   1      40.138  31.847  34.021  1.00  0.00     0.034 A 
ATOM     10  C   UNL A   1      40.028  30.488  33.733  1.00  0.00     0.088 A 
ATOM     11  C   UNL A   1      37.795  30.896  32.894  1.00  0.00     0.101 A 
ATOM     12  C   UNL A   1      38.830  30.011  33.218  1.00  0.00     0.270 A 
BRANCH   8  13
ATOM     13  N   UNL A   1      39.231  34.060  34.297  1.00  0.00    -0.374 N 
ATOM     14  C   UNL A   1      40.585  34.628  34.218  1.00  0.00     0.143 C 
BRANCH  13  15
ATOM     15  C   UNL A   1      38.435  34.462  35.485  1.00  0.00     0.119 C 
BRANCH  15  16
ATOM     16  C   UNL A   1      38.821  33.745  36.796  1.00  0.00     0.002 C 
ATOM     17  C   UNL A   1      38.971  34.723  37.965  1.00  0.00     0.009 C 
ATOM     18  C   UNL A   1      37.792  32.677  37.185  1.00  0.00     0.009 C 
ENDBRANCH  15  16
ENDBRANCH  13  15
ENDBRANCH   8  13
BRANCH  12  19
ATOM     19  N   UNL A   1      38.648  28.565  33.058  1.00  0.00     0.062 N 
ATOM     20  O   UNL A   1      39.667  27.870  32.933  1.00  0.00    -0.258 OA
ATOM     21  O   UNL A   1      37.492  28.123  33.080  1.00  0.00    -0.258 OA
ENDBRANCH  12  19
ENDBRANCH   4   7
ENDBRANCH   2   3
ENDBRANCH   1   2
BRANCH   1  22
ATOM     22  C   UNL A   1      35.843  33.448  28.637  1.00  0.00     0.023 C 
BRANCH  22  23
ATOM     23  C   UNL A   1      34.764  32.657  29.383  1.00  0.00     0.116 C 
BRANCH  23  24
ATOM     24  N   UNL A   1      34.077  31.653  28.587  1.00  0.00    -0.352 N 
ATOM     25  C   UNL A   1      34.492  30.430  28.101  1.00  0.00     0.251 C 
ATOM     26  H   UNL A   1      33.149  31.887  28.352  1.00  0.00     0.163 HD
ATOM     27  O   UNL A   1      33.713  29.762  27.435  1.00  0.00    -0.269 OA
BRANCH  25  28
ATOM     28  C   UNL A   1      35.876  29.937  28.323  1.00  0.00     0.039 A 
ATOM     29  C   UNL A   1      36.786  30.040  27.264  1.00  0.00     0.014 A 
ATOM     30  C   UNL A   1      36.287  29.358  29.525  1.00  0.00     0.014 A 
ATOM     31  C   UNL A   1      38.120  29.662  27.444  1.00  0.00     0.010 A 
ATOM     32  C   UNL A   1      37.636  29.045  29.726  1.00  0.00     0.010 A 
ATOM     33  C   UNL A   1      38.573  29.210  28.695  1.00  0.00    -0.014 A 
BRANCH  33  34
ATOM     34  C   UNL A   1      40.024  28.963  28.937  1.00  0.00     0.031 A 
ATOM     35  C   UNL A   1      40.658  27.640  28.591  1.00  0.00     0.074 A 
ATOM     36  C   UNL A   1      40.770  29.922  29.525  1.00  0.00     0.049 A 
ATOM     37  N   UNL A   1      41.896  27.248  28.762  1.00  0.00    -0.248 NA
ATOM     38  C   UNL A   1      39.785  26.620  27.992  1.00  0.00     0.031 C 
ATOM     39  C   UNL A   1      40.273  31.229  29.962  1.00  0.00     0.029 A 
ATOM     40  N   UNL A   1      42.101  29.947  29.864  1.00  0.00    -0.354 N 
ATOM     41  C   UNL A   1      41.949  25.937  28.304  1.00  0.00     0.074 A 
ATOM     42  C   UNL A   1      40.607  25.585  27.890  1.00  0.00     0.031 C 
ATOM     43  C   UNL A   1      41.287  31.934  30.488  1.00  0.00     0.029 A 
ATOM     44  C   UNL A   1      42.499  31.121  30.461  1.00  0.00     0.049 A 
ATOM     45  H   UNL A   1      42.714  29.195  29.695  1.00  0.00     0.167 HD
ATOM     46  C   UNL A   1      43.019  25.109  28.218  1.00  0.00     0.037 A 
ATOM     47  C   UNL A   1      43.700  31.504  30.942  1.00  0.00     0.037 A 
ATOM     48  C   UNL A   1      44.360  25.465  28.613  1.00  0.00     0.049 A 
ATOM     49  C   UNL A   1      44.874  30.569  30.829  1.00  0.00     0.074 A 
ATOM     50  C   UNL A   1      45.516  24.711  28.508  1.00  0.00     0.029 A 
ATOM     51  N   UNL A   1      44.724  26.671  29.193  1.00  0.00    -0.354 N 
ATOM     52  N   UNL A   1      44.916  29.358  30.329  1.00  0.00    -0.248 NA
ATOM     53  C   UNL A   1      46.163  31.057  31.336  1.00  0.00     0.031 C 
ATOM     54  C   UNL A   1      46.571  25.442  29.065  1.00  0.00     0.029 A 
ATOM     55  C   UNL A   1      46.083  26.674  29.469  1.00  0.00     0.049 A 
ATOM     56  H   UNL A   1      44.109  27.416  29.381  1.00  0.00     0.167 HD
ATOM     57  C   UNL A   1      46.242  28.950  30.433  1.00  0.00     0.074 A 
ATOM     58  C   UNL A   1      46.970  30.049  31.034  1.00  0.00     0.031 C 
ATOM     59  C   UNL A   1      46.804  27.773  30.062  1.00  0.00     0.037 A 
BRANCH  46  60
ATOM     60  C   UNL A   1      42.790  23.724  27.669  1.00  0.00     0.058 A 
ATOM     61  C   UNL A   1      42.883  23.451  26.296  1.00  0.00     0.135 A 
ATOM     62  C   UNL A   1      42.518  22.650  28.532  1.00  0.00     0.135 A 
ATOM     63  F   UNL A   1      43.129  24.441  25.424  1.00  0.00    -0.206 F 
ATOM     64  C   UNL A   1      42.684  22.169  25.793  1.00  0.00     0.059 A 
ATOM     65  C   UNL A   1      42.344  21.353  28.055  1.00  0.00     0.059 A 
ATOM     66  F   UNL A   1      42.422  22.852  29.856  1.00  0.00    -0.206 F 
ATOM     67  C   UNL A   1      42.414  21.126  26.681  1.00  0.00     0.060 A 
BRANCH  67  68
ATOM     68  S   UNL A   1      42.159  19.468  26.012  1.00  0.00     0.124 S 
ATOM     69  O   UNL A   1      42.939  19.530  24.780  1.00  0.00    -0.237 OA
ATOM     70  O   UNL A   1      42.707  18.619  27.066  1.00  0.00    -0.237 OA
ATOM     71  O   UNL A   1      40.713  19.391  25.836  1.00  0.00    -0.744 OA
ENDBRANCH  67  68
ENDBRANCH  46  60
BRANCH  47  72
ATOM     72  C   UNL A   1      43.857  32.850  31.557  1.00  0.00     0.058 A 
ATOM     73  C   UNL A   1      43.807  33.021  32.949  1.00  0.00     0.135 A 
ATOM     74  C   UNL A   1      44.073  33.990  30.767  1.00  0.00     0.135 A 
ATOM     75  F   UNL A   1      43.595  31.963  33.746  1.00  0.00    -0.206 F 
ATOM     76  C   UNL A   1      43.947  34.275  33.535  1.00  0.00     0.059 A 
ATOM     77  C   UNL A   1      44.244  35.250  31.330  1.00  0.00     0.059 A 
ATOM     78  F   UNL A   1      44.146  33.878  29.431  1.00  0.00    -0.206 F 
ATOM     79  C   UNL A   1      44.170  35.384  32.717  1.00  0.00     0.060 A 
BRANCH  79  80
ATOM     80  S   UNL A   1      44.406  36.998  33.491  1.00  0.00     0.124 S 
ATOM     81  O   UNL A   1      45.823  36.956  33.833  1.00  0.00    -0.237 OA
ATOM     82  O   UNL A   1      44.034  37.911  32.415  1.00  0.00    -0.237 OA
ATOM     83  O   UNL A   1      43.482  36.965  34.622  1.00  0.00    -0.744 OA
ENDBRANCH  79  80
ENDBRANCH  47  72
BRANCH  59  84
ATOM     84  C   UNL A   1      48.289  27.621  30.255  1.00  0.00     0.058 A 
ATOM     85  C   UNL A   1      49.211  28.033  29.281  1.00  0.00     0.135 A 
ATOM     86  C   UNL A   1      48.797  27.088  31.451  1.00  0.00     0.135 A 
ATOM     87  F   UNL A   1      48.780  28.544  28.116  1.00  0.00    -0.206 F 
ATOM     88  C   UNL A   1      50.583  27.898  29.473  1.00  0.00     0.059 A 
ATOM     89  C   UNL A   1      50.166  26.969  31.677  1.00  0.00     0.059 A 
ATOM     90  F   UNL A   1      47.961  26.686  32.422  1.00  0.00    -0.206 F 
ATOM     91  C   UNL A   1      51.051  27.363  30.675  1.00  0.00     0.060 A 
BRANCH  91  92
ATOM     92  S   UNL A   1      52.833  27.212  30.922  1.00  0.00     0.124 S 
ATOM     93  O   UNL A   1      53.328  28.388  30.213  1.00  0.00    -0.237 OA
ATOM     94  O   UNL A   1      52.953  27.252  32.376  1.00  0.00    -0.237 OA
ATOM     95  O   UNL A   1      53.154  25.927  30.308  1.00  0.00    -0.744 OA
ENDBRANCH  91  92
ENDBRANCH  59  84
ENDBRANCH  33  34
ENDBRANCH  25  28
ENDBRANCH  23  24
ENDBRANCH  22  23
ENDBRANCH   1  22
TORSDOF 18
ENDMDL
MODEL 3
REMARK VINA RESULT:     -10.6      5.596     12.706
REMARK SMILES CC(C)CN(C)c1ccc([N+](=O)[O-])cc1C(=O)NCCCCNC(=O)c1ccc(-c2c3nc(c(-c4c(F)cc(S(=O)(=O)[O-])cc4F)c4ccc([nH]4)c(-c4c(F)cc(S(=O)(=O)[O-])cc4F)c4nc(c(-c5c(F)cc(S(=O)(=O)[O-])cc5F)c5ccc2[nH]5)C=C4)C=C3)cc1
REMARK SMILES IDX 20 1 19 2 18 3 16 4 17 5 15 7 7 8 8 9 9 10 14 11 10 12 5 13
REMARK SMILES IDX 6 14 4 15 2 16 1 17 3 18 11 19 12 20 13 21 21 22 22 23 23 24
REMARK SMILES IDX 24 25 25 27 26 28 27 29 91 30 28 31 90 32 29 33 30 34 31 35
REMARK SMILES IDX 84 36 32 37 89 38 83 39 85 40 33 41 88 42 82 43 81 44 34 46
REMARK SMILES IDX 68 47 47 48 67 49 48 50 51 51 66 52 86 53 49 54 50 55 65 57
REMARK SMILES IDX 87 58 52 59 35 60 36 61 45 62 37 63 38 64 44 65 46 66 39 67
REMARK SMILES IDX 40 68 41 69 42 70 43 71 69 72 70 73 79 74 71 75 72 76 78 77
REMARK SMILES IDX 80 78 73 79 74 80 75 81 76 82 77 83 53 84 54 85 63 86 55 87
REMARK SMILES IDX 56 88 62 89 64 90 57 91 58 92 59 93 60 94 61 95
REMARK H PARENT 18 6 23 26 85 45 51 56
REMARK Flexibility Score: inf
ROOT
ATOM      1  C   UNL A   1      43.930  21.041  25.641  1.00  0.00     0.023 C 
ENDROOT
BRANCH   1   2
ATOM      2  C   UNL A   1      44.615  22.376  25.922  1.00  0.00     0.116 C 
BRANCH   2   3
ATOM      3  N   UNL A   1      45.564  22.819  24.927  1.00  0.00    -0.352 N 
ATOM      4  C   UNL A   1      46.194  24.036  24.781  1.00  0.00     0.253 C 
ATOM      5  O   UNL A   1      46.981  24.143  23.835  1.00  0.00    -0.269 OA
ATOM      6  H   UNL A   1      45.797  22.146  24.247  1.00  0.00     0.163 HD
BRANCH   4   7
ATOM      7  C   UNL A   1      45.958  25.255  25.635  1.00  0.00     0.069 A 
ATOM      8  C   UNL A   1      46.769  25.754  26.687  1.00  0.00     0.050 A 
ATOM      9  C   UNL A   1      46.307  26.889  27.402  1.00  0.00     0.034 A 
ATOM     10  C   UNL A   1      45.158  27.588  27.039  1.00  0.00     0.088 A 
ATOM     11  C   UNL A   1      44.824  26.009  25.235  1.00  0.00     0.101 A 
ATOM     12  C   UNL A   1      44.450  27.172  25.919  1.00  0.00     0.270 A 
BRANCH   8  13
ATOM     13  N   UNL A   1      48.033  25.256  27.018  1.00  0.00    -0.374 N 
ATOM     14  C   UNL A   1      48.329  25.162  28.455  1.00  0.00     0.143 C 
BRANCH  13  15
ATOM     15  C   UNL A   1      49.189  25.586  26.145  1.00  0.00     0.119 C 
BRANCH  15  16
ATOM     16  C   UNL A   1      50.371  26.267  26.868  1.00  0.00     0.002 C 
ATOM     17  C   UNL A   1      51.675  25.479  26.707  1.00  0.00     0.009 C 
ATOM     18  C   UNL A   1      50.602  27.695  26.361  1.00  0.00     0.009 C 
ENDBRANCH  15  16
ENDBRANCH  13  15
ENDBRANCH   8  13
BRANCH  12  19
ATOM     19  N   UNL A   1      43.333  27.989  25.435  1.00  0.00     0.062 N 
ATOM     20  O   UNL A   1      42.705  27.574  24.450  1.00  0.00    -0.258 OA
ATOM     21  O   UNL A   1      43.069  29.029  26.051  1.00  0.00    -0.258 OA
ENDBRANCH  12  19
ENDBRANCH   4   7
ENDBRANCH   2   3
ENDBRANCH   1   2
BRANCH   1  22
ATOM     22  C   UNL A   1      42.429  20.982  25.969  1.00  0.00     0.023 C 
BRANCH  22  23
ATOM     23  C   UNL A   1      41.670  22.310  26.048  1.00  0.00     0.116 C 
BRANCH  23  24
ATOM     24  N   UNL A   1      40.231  22.208  25.863  1.00  0.00    -0.352 N 
ATOM     25  C   UNL A   1      39.207  23.080  26.171  1.00  0.00     0.251 C 
ATOM     26  H   UNL A   1      39.935  21.368  25.444  1.00  0.00     0.163 HD
ATOM     27  O   UNL A   1      38.055  22.752  25.921  1.00  0.00    -0.269 OA
BRANCH  25  28
ATOM     28  C   UNL A   1      39.468  24.376  26.849  1.00  0.00     0.039 A 
ATOM     29  C   UNL A   1      39.038  24.523  28.172  1.00  0.00     0.014 A 
ATOM     30  C   UNL A   1      40.095  25.447  26.210  1.00  0.00     0.014 A 
ATOM     31  C   UNL A   1      39.326  25.694  28.880  1.00  0.00     0.010 A 
ATOM     32  C   UNL A   1      40.445  26.590  26.939  1.00  0.00     0.010 A 
ATOM     33  C   UNL A   1      40.081  26.720  28.288  1.00  0.00    -0.014 A 
BRANCH  33  34
ATOM     34  C   UNL A   1      40.531  27.896  29.088  1.00  0.00     0.031 A 
ATOM     35  C   UNL A   1      41.876  27.907  29.768  1.00  0.00     0.074 A 
ATOM     36  C   UNL A   1      39.698  28.946  29.249  1.00  0.00     0.049 A 
ATOM     37  N   UNL A   1      42.411  28.834  30.523  1.00  0.00    -0.248 NA
ATOM     38  C   UNL A   1      42.722  26.718  29.591  1.00  0.00     0.031 C 
ATOM     39  C   UNL A   1      38.347  29.044  28.692  1.00  0.00     0.029 A 
ATOM     40  N   UNL A   1      39.858  30.127  29.931  1.00  0.00    -0.354 N 
ATOM     41  C   UNL A   1      43.647  28.337  30.920  1.00  0.00     0.074 A 
ATOM     42  C   UNL A   1      43.763  27.008  30.359  1.00  0.00     0.031 C 
ATOM     43  C   UNL A   1      37.812  30.226  29.035  1.00  0.00     0.029 A 
ATOM     44  C   UNL A   1      38.764  30.959  29.866  1.00  0.00     0.049 A 
ATOM     45  H   UNL A   1      40.680  30.358  30.422  1.00  0.00     0.167 HD
ATOM     46  C   UNL A   1      44.606  28.939  31.667  1.00  0.00     0.037 A 
ATOM     47  C   UNL A   1      38.541  32.170  30.415  1.00  0.00     0.037 A 
ATOM     48  C   UNL A   1      44.498  30.270  32.212  1.00  0.00     0.049 A 
ATOM     49  C   UNL A   1      39.623  32.820  31.235  1.00  0.00     0.074 A 
ATOM     50  C   UNL A   1      45.442  30.983  32.931  1.00  0.00     0.029 A 
ATOM     51  N   UNL A   1      43.383  31.087  32.104  1.00  0.00    -0.354 N 
ATOM     52  N   UNL A   1      40.812  32.361  31.540  1.00  0.00    -0.248 NA
ATOM     53  C   UNL A   1      39.337  34.156  31.775  1.00  0.00     0.031 C 
ATOM     54  C   UNL A   1      44.882  32.212  33.297  1.00  0.00     0.029 A 
ATOM     55  C   UNL A   1      43.607  32.287  32.760  1.00  0.00     0.049 A 
ATOM     56  H   UNL A   1      42.553  30.849  31.631  1.00  0.00     0.167 HD
ATOM     57  C   UNL A   1      41.428  33.364  32.283  1.00  0.00     0.074 A 
ATOM     58  C   UNL A   1      40.482  34.457  32.370  1.00  0.00     0.031 C 
ATOM     59  C   UNL A   1      42.664  33.376  32.839  1.00  0.00     0.037 A 
BRANCH  46  60
ATOM     60  C   UNL A   1      45.867  28.163  31.943  1.00  0.00     0.058 A 
ATOM     61  C   UNL A   1      46.982  28.242  31.093  1.00  0.00     0.135 A 
ATOM     62  C   UNL A   1      45.979  27.367  33.095  1.00  0.00     0.135 A 
ATOM     63  F   UNL A   1      46.927  28.980  29.973  1.00  0.00    -0.206 F 
ATOM     64  C   UNL A   1      48.151  27.536  31.357  1.00  0.00     0.059 A 
ATOM     65  C   UNL A   1      47.149  26.674  33.394  1.00  0.00     0.059 A 
ATOM     66  F   UNL A   1      44.946  27.257  33.945  1.00  0.00    -0.206 F 
ATOM     67  C   UNL A   1      48.224  26.753  32.511  1.00  0.00     0.060 A 
BRANCH  67  68
ATOM     68  S   UNL A   1      49.749  25.842  32.839  1.00  0.00     0.124 S 
ATOM     69  O   UNL A   1      50.387  25.863  31.526  1.00  0.00    -0.237 OA
ATOM     70  O   UNL A   1      50.387  26.662  33.865  1.00  0.00    -0.237 OA
ATOM     71  O   UNL A   1      49.277  24.536  33.286  1.00  0.00    -0.744 OA
ENDBRANCH  67  68
ENDBRANCH  46  60
BRANCH  47  72
ATOM     72  C   UNL A   1      37.242  32.860  30.187  1.00  0.00     0.058 A 
ATOM     73  C   UNL A   1      36.175  32.709  31.085  1.00  0.00     0.135 A 
ATOM     74  C   UNL A   1      37.046  33.693  29.075  1.00  0.00     0.135 A 
ATOM     75  F   UNL A   1      36.311  31.918  32.160  1.00  0.00    -0.206 F 
ATOM     76  C   UNL A   1      34.955  33.345  30.881  1.00  0.00     0.059 A 
ATOM     77  C   UNL A   1      35.845  34.361  28.862  1.00  0.00     0.059 A 
ATOM     78  F   UNL A   1      38.041  33.884  28.194  1.00  0.00    -0.206 F 
ATOM     79  C   UNL A   1      34.800  34.173  29.768  1.00  0.00     0.060 A 
BRANCH  79  80
ATOM     80  S   UNL A   1      33.230  35.036  29.541  1.00  0.00     0.124 S 
ATOM     81  O   UNL A   1      32.585  34.210  28.527  1.00  0.00    -0.237 OA
ATOM     82  O   UNL A   1      32.651  34.975  30.880  1.00  0.00    -0.237 OA
ATOM     83  O   UNL A   1      33.640  36.368  29.105  1.00  0.00    -0.744 OA
ENDBRANCH  79  80
ENDBRANCH  47  72
BRANCH  59  84
ATOM     84  C   UNL A   1      43.089  34.627  33.559  1.00  0.00     0.058 A 
ATOM     85  C   UNL A   1      43.038  34.733  34.958  1.00  0.00     0.135 A 
ATOM     86  C   UNL A   1      43.591  35.724  32.839  1.00  0.00     0.135 A 
ATOM     87  F   UNL A   1      42.562  33.716  35.694  1.00  0.00    -0.206 F 
ATOM     88  C   UNL A   1      43.444  35.890  35.615  1.00  0.00     0.059 A 
ATOM     89  C   UNL A   1      44.029  36.881  33.478  1.00  0.00     0.059 A 
ATOM     90  F   UNL A   1      43.672  35.675  31.499  1.00  0.00    -0.206 F 
ATOM     91  C   UNL A   1      43.936  36.960  34.867  1.00  0.00     0.060 A 
BRANCH  91  92
ATOM     92  S   UNL A   1      44.479  38.448  35.732  1.00  0.00     0.124 S 
ATOM     93  O   UNL A   1      45.926  38.256  35.768  1.00  0.00    -0.237 OA
ATOM     94  O   UNL A   1      44.003  39.513  34.855  1.00  0.00    -0.237 OA
ATOM     95  O   UNL A   1      43.802  38.358  37.022  1.00  0.00    -0.744 OA
ENDBRANCH  91  92
ENDBRANCH  59  84
ENDBRANCH  33  34
ENDBRANCH  25  28
ENDBRANCH  23  24
ENDBRANCH  22  23
ENDBRANCH   1  22
TORSDOF 18
ENDMDL
