MODEL 1
REMARK VINA RESULT:     -12.5      0.000      0.000
REMARK SMILES Cc1cc(C(=O)NCCCCNC(=O)c2ccc(-c3c4nc(c(-c5c(F)cc(S(=O)(=O)[O-])cc5F)c5ccc([nH]5)c(-c5c(F)cc(S(=O)(=O)[O-])cc5F)c5nc(c(-c6c(F)cc(S(=O)(=O)[O-])cc6F)c6ccc3[nH]6)C=C5)C=C4)cc2)c(C#Cc2ccccc2)s1
REMARK SMILES IDX 10 1 9 2 8 3 7 4 5 5 6 6 4 8 1 9 2 10 3 11 90 12 81 13 82 14
REMARK SMILES IDX 83 15 84 16 85 17 89 18 86 19 88 20 87 21 11 22 12 23 13 24
REMARK SMILES IDX 14 26 15 27 16 28 80 29 17 30 79 31 18 32 19 33 20 34 73 35
REMARK SMILES IDX 21 36 78 37 72 38 74 39 22 40 77 41 71 42 70 43 23 45 57 46
REMARK SMILES IDX 36 47 56 48 37 49 40 50 55 51 75 52 38 53 39 54 54 56 76 57
REMARK SMILES IDX 41 58 24 59 25 60 34 61 26 62 27 63 33 64 35 65 28 66 29 67
REMARK SMILES IDX 30 68 31 69 32 70 58 71 59 72 68 73 60 74 61 75 67 76 69 77
REMARK SMILES IDX 62 78 63 79 64 80 65 81 66 82 42 83 43 84 52 85 44 86 45 87
REMARK SMILES IDX 51 88 53 89 46 90 47 91 48 92 49 93 50 94
REMARK H PARENT 7 7 12 25 74 44 40 55
REMARK Flexibility Score: inf
ROOT
ATOM      1  C   UNL A   1      39.119  22.113  26.254  1.00  0.00     0.023 C 
ENDROOT
BRANCH   1   2
ATOM      2  C   UNL A   1      38.641  23.576  26.332  1.00  0.00     0.023 C 
BRANCH   2   3
ATOM      3  C   UNL A   1      37.133  23.760  26.153  1.00  0.00     0.116 C 
BRANCH   3   4
ATOM      4  N   UNL A   1      36.756  23.757  24.755  1.00  0.00    -0.352 N 
ATOM      5  C   UNL A   1      35.706  23.252  24.030  1.00  0.00     0.253 C 
ATOM      6  O   UNL A   1      35.731  23.556  22.834  1.00  0.00    -0.269 OA
ATOM      7  H   UNL A   1      37.409  24.230  24.190  1.00  0.00     0.163 HD
BRANCH   5   8
ATOM      8  C   UNL A   1      34.614  22.448  24.610  1.00  0.00     0.066 A 
ATOM      9  C   UNL A   1      32.797  19.190  25.424  1.00  0.00     0.056 C 
ATOM     10  C   UNL A   1      33.288  20.586  25.253  1.00  0.00     0.004 A 
ATOM     11  C   UNL A   1      34.357  21.032  24.506  1.00  0.00     0.030 A 
ATOM     12  S   UNL A   1      32.490  21.875  26.009  1.00  0.00    -0.131 S 
ATOM     13  C   UNL A   1      33.585  23.025  25.359  1.00  0.00     0.090 A 
BRANCH  13  14
ATOM     14  C   UNL A   1      33.362  24.409  25.623  1.00  0.00    -0.050 C 
ATOM     15  C   UNL A   1      33.187  25.568  25.920  1.00  0.00    -0.061 C 
BRANCH  15  16
ATOM     16  C   UNL A   1      33.019  26.926  26.318  1.00  0.00     0.025 A 
ATOM     17  C   UNL A   1      34.050  27.850  26.134  1.00  0.00     0.017 A 
ATOM     18  C   UNL A   1      31.821  27.331  26.915  1.00  0.00     0.017 A 
ATOM     19  C   UNL A   1      33.890  29.169  26.564  1.00  0.00     0.001 A 
ATOM     20  C   UNL A   1      31.662  28.650  27.343  1.00  0.00     0.001 A 
ATOM     21  C   UNL A   1      32.698  29.567  27.173  1.00  0.00     0.000 A 
ENDBRANCH  15  16
ENDBRANCH  13  14
ENDBRANCH   5   8
ENDBRANCH   3   4
ENDBRANCH   2   3
ENDBRANCH   1   2
BRANCH   1  22
ATOM     22  C   UNL A   1      40.566  21.888  26.695  1.00  0.00     0.116 C 
BRANCH  22  23
ATOM     23  N   UNL A   1      41.539  22.192  25.667  1.00  0.00    -0.352 N 
ATOM     24  C   UNL A   1      42.441  23.193  25.448  1.00  0.00     0.251 C 
ATOM     25  H   UNL A   1      41.552  21.515  24.953  1.00  0.00     0.163 HD
ATOM     26  O   UNL A   1      43.238  22.991  24.526  1.00  0.00    -0.269 OA
BRANCH  24  27
ATOM     27  C   UNL A   1      42.477  24.501  26.153  1.00  0.00     0.039 A 
ATOM     28  C   UNL A   1      43.117  24.765  27.365  1.00  0.00     0.014 A 
ATOM     29  C   UNL A   1      41.701  25.519  25.565  1.00  0.00     0.014 A 
ATOM     30  C   UNL A   1      42.866  25.957  28.038  1.00  0.00     0.010 A 
ATOM     31  C   UNL A   1      41.464  26.716  26.223  1.00  0.00     0.010 A 
ATOM     32  C   UNL A   1      41.985  26.899  27.496  1.00  0.00    -0.014 A 
BRANCH  32  33
ATOM     33  C   UNL A   1      41.734  28.136  28.230  1.00  0.00     0.031 A 
ATOM     34  C   UNL A   1      42.828  29.134  28.073  1.00  0.00     0.074 A 
ATOM     35  C   UNL A   1      40.586  28.386  28.899  1.00  0.00     0.049 A 
ATOM     36  N   UNL A   1      43.659  29.539  28.975  1.00  0.00    -0.248 NA
ATOM     37  C   UNL A   1      43.165  29.591  26.712  1.00  0.00     0.031 C 
ATOM     38  C   UNL A   1      39.362  27.580  28.948  1.00  0.00     0.029 A 
ATOM     39  N   UNL A   1      40.243  29.478  29.643  1.00  0.00    -0.354 N 
ATOM     40  C   UNL A   1      44.473  30.481  28.352  1.00  0.00     0.074 A 
ATOM     41  C   UNL A   1      44.246  30.340  26.937  1.00  0.00     0.031 C 
ATOM     42  C   UNL A   1      38.352  28.311  29.476  1.00  0.00     0.029 A 
ATOM     43  C   UNL A   1      38.882  29.581  29.944  1.00  0.00     0.049 A 
ATOM     44  H   UNL A   1      40.904  30.142  29.945  1.00  0.00     0.167 HD
ATOM     45  C   UNL A   1      45.096  31.460  29.065  1.00  0.00     0.037 A 
ATOM     46  C   UNL A   1      38.250  30.646  30.515  1.00  0.00     0.037 A 
ATOM     47  C   UNL A   1      45.126  31.140  30.469  1.00  0.00     0.049 A 
ATOM     48  C   UNL A   1      39.300  31.425  31.224  1.00  0.00     0.074 A 
ATOM     49  C   UNL A   1      45.713  30.145  31.224  1.00  0.00     0.029 A 
ATOM     50  N   UNL A   1      44.144  31.686  31.259  1.00  0.00    -0.354 N 
ATOM     51  N   UNL A   1      39.952  30.972  32.261  1.00  0.00    -0.248 NA
ATOM     52  C   UNL A   1      39.967  32.476  30.471  1.00  0.00     0.031 C 
ATOM     53  C   UNL A   1      44.750  29.826  32.225  1.00  0.00     0.029 A 
ATOM     54  C   UNL A   1      43.669  30.697  32.081  1.00  0.00     0.049 A 
ATOM     55  H   UNL A   1      43.837  32.622  31.238  1.00  0.00     0.167 HD
ATOM     56  C   UNL A   1      41.268  31.352  32.042  1.00  0.00     0.074 A 
ATOM     57  C   UNL A   1      41.207  32.315  30.941  1.00  0.00     0.031 C 
ATOM     58  C   UNL A   1      42.308  30.642  32.568  1.00  0.00     0.037 A 
BRANCH  45  59
ATOM     59  C   UNL A   1      45.343  32.855  28.551  1.00  0.00     0.058 A 
ATOM     60  C   UNL A   1      46.657  33.364  28.516  1.00  0.00     0.135 A 
ATOM     61  C   UNL A   1      44.316  33.806  28.357  1.00  0.00     0.135 A 
ATOM     62  F   UNL A   1      47.709  32.553  28.711  1.00  0.00    -0.206 F 
ATOM     63  C   UNL A   1      46.928  34.722  28.346  1.00  0.00     0.059 A 
ATOM     64  C   UNL A   1      44.564  35.155  28.137  1.00  0.00     0.059 A 
ATOM     65  F   UNL A   1      43.020  33.486  28.466  1.00  0.00    -0.206 F 
ATOM     66  C   UNL A   1      45.872  35.611  28.162  1.00  0.00     0.060 A 
BRANCH  66  67
ATOM     67  S   UNL A   1      46.219  37.371  28.001  1.00  0.00     0.124 S 
ATOM     68  O   UNL A   1      45.613  37.676  26.710  1.00  0.00    -0.237 OA
ATOM     69  O   UNL A   1      45.539  37.916  29.172  1.00  0.00    -0.237 OA
ATOM     70  O   UNL A   1      47.677  37.432  28.045  1.00  0.00    -0.744 OA
ENDBRANCH  66  67
ENDBRANCH  45  59
BRANCH  46  71
ATOM     71  C   UNL A   1      36.940  31.264  30.142  1.00  0.00     0.058 A 
ATOM     72  C   UNL A   1      36.121  31.896  31.103  1.00  0.00     0.135 A 
ATOM     73  C   UNL A   1      36.614  31.528  28.797  1.00  0.00     0.135 A 
ATOM     74  F   UNL A   1      36.363  31.720  32.413  1.00  0.00    -0.206 F 
ATOM     75  C   UNL A   1      35.088  32.778  30.754  1.00  0.00     0.059 A 
ATOM     76  C   UNL A   1      35.589  32.402  28.425  1.00  0.00     0.059 A 
ATOM     77  F   UNL A   1      37.348  31.017  27.799  1.00  0.00    -0.206 F 
ATOM     78  C   UNL A   1      34.846  33.046  29.407  1.00  0.00     0.060 A 
BRANCH  78  79
ATOM     79  S   UNL A   1      33.642  34.320  28.947  1.00  0.00     0.124 S 
ATOM     80  O   UNL A   1      33.064  34.675  30.239  1.00  0.00    -0.237 OA
ATOM     81  O   UNL A   1      34.488  35.335  28.328  1.00  0.00    -0.237 OA
ATOM     82  O   UNL A   1      32.741  33.622  28.033  1.00  0.00    -0.744 OA
ENDBRANCH  78  79
ENDBRANCH  46  71
BRANCH  58  83
ATOM     83  C   UNL A   1      42.004  29.587  33.605  1.00  0.00     0.058 A 
ATOM     84  C   UNL A   1      41.639  28.258  33.318  1.00  0.00     0.135 A 
ATOM     85  C   UNL A   1      42.261  29.901  34.947  1.00  0.00     0.135 A 
ATOM     86  F   UNL A   1      41.467  27.849  32.053  1.00  0.00    -0.206 F 
ATOM     87  C   UNL A   1      41.509  27.296  34.325  1.00  0.00     0.059 A 
ATOM     88  C   UNL A   1      42.167  28.954  35.962  1.00  0.00     0.059 A 
ATOM     89  F   UNL A   1      42.669  31.137  35.280  1.00  0.00    -0.206 F 
ATOM     90  C   UNL A   1      41.780  27.654  35.646  1.00  0.00     0.060 A 
BRANCH  90  91
ATOM     91  S   UNL A   1      41.679  26.401  36.944  1.00  0.00     0.124 S 
ATOM     92  O   UNL A   1      41.714  25.160  36.177  1.00  0.00    -0.237 OA
ATOM     93  O   UNL A   1      42.865  26.683  37.748  1.00  0.00    -0.237 OA
ATOM     94  O   UNL A   1      40.407  26.691  37.602  1.00  0.00    -0.744 OA
ENDBRANCH  90  91
ENDBRANCH  58  83
ENDBRANCH  32  33
ENDBRANCH  24  27
ENDBRANCH  22  23
ENDBRANCH   1  22
TORSDOF 16
ENDMDL
MODEL 2
REMARK VINA RESULT:     -12.4      1.002      3.229
REMARK SMILES Cc1cc(C(=O)NCCCCNC(=O)c2ccc(-c3c4nc(c(-c5c(F)cc(S(=O)(=O)[O-])cc5F)c5ccc([nH]5)c(-c5c(F)cc(S(=O)(=O)[O-])cc5F)c5nc(c(-c6c(F)cc(S(=O)(=O)[O-])cc6F)c6ccc3[nH]6)C=C5)C=C4)cc2)c(C#Cc2ccccc2)s1
REMARK SMILES IDX 10 1 9 2 8 3 7 4 5 5 6 6 4 8 1 9 2 10 3 11 90 12 81 13 82 14
REMARK SMILES IDX 83 15 84 16 85 17 89 18 86 19 88 20 87 21 11 22 12 23 13 24
REMARK SMILES IDX 14 26 15 27 16 28 80 29 17 30 79 31 18 32 19 33 20 34 73 35
REMARK SMILES IDX 21 36 78 37 72 38 74 39 22 40 77 41 71 42 70 43 23 45 57 46
REMARK SMILES IDX 36 47 56 48 37 49 40 50 55 51 75 52 38 53 39 54 54 56 76 57
REMARK SMILES IDX 41 58 24 59 25 60 34 61 26 62 27 63 33 64 35 65 28 66 29 67
REMARK SMILES IDX 30 68 31 69 32 70 58 71 59 72 68 73 60 74 61 75 67 76 69 77
REMARK SMILES IDX 62 78 63 79 64 80 65 81 66 82 42 83 43 84 52 85 44 86 45 87
REMARK SMILES IDX 51 88 53 89 46 90 47 91 48 92 49 93 50 94
REMARK H PARENT 7 7 12 25 74 44 40 55
REMARK Flexibility Score: inf
ROOT
ATOM      1  C   UNL A   1      39.407  22.133  26.246  1.00  0.00     0.023 C 
ENDROOT
BRANCH   1   2
ATOM      2  C   UNL A   1      38.847  23.544  26.510  1.00  0.00     0.023 C 
BRANCH   2   3
ATOM      3  C   UNL A   1      37.425  23.768  25.992  1.00  0.00     0.116 C 
BRANCH   3   4
ATOM      4  N   UNL A   1      37.268  23.292  24.634  1.00  0.00    -0.352 N 
ATOM      5  C   UNL A   1      36.237  23.248  23.729  1.00  0.00     0.253 C 
ATOM      6  O   UNL A   1      36.562  22.821  22.618  1.00  0.00    -0.269 OA
ATOM      7  H   UNL A   1      38.099  22.907  24.274  1.00  0.00     0.163 HD
BRANCH   5   8
ATOM      8  C   UNL A   1      34.863  23.701  24.022  1.00  0.00     0.066 A 
ATOM      9  C   UNL A   1      32.112  26.319  24.409  1.00  0.00     0.056 C 
ATOM     10  C   UNL A   1      32.975  25.108  24.325  1.00  0.00     0.004 A 
ATOM     11  C   UNL A   1      34.338  25.040  24.127  1.00  0.00     0.030 A 
ATOM     12  S   UNL A   1      32.305  23.562  24.507  1.00  0.00    -0.131 S 
ATOM     13  C   UNL A   1      33.830  22.802  24.298  1.00  0.00     0.090 A 
BRANCH  13  14
ATOM     14  C   UNL A   1      33.910  21.383  24.421  1.00  0.00    -0.050 C 
ATOM     15  C   UNL A   1      33.919  20.184  24.574  1.00  0.00    -0.061 C 
BRANCH  15  16
ATOM     16  C   UNL A   1      33.870  18.773  24.767  1.00  0.00     0.025 A 
ATOM     17  C   UNL A   1      34.935  17.965  24.362  1.00  0.00     0.017 A 
ATOM     18  C   UNL A   1      32.740  18.191  25.349  1.00  0.00     0.017 A 
ATOM     19  C   UNL A   1      34.860  16.580  24.520  1.00  0.00     0.001 A 
ATOM     20  C   UNL A   1      32.665  16.806  25.507  1.00  0.00     0.001 A 
ATOM     21  C   UNL A   1      33.724  16.001  25.087  1.00  0.00     0.000 A 
ENDBRANCH  15  16
ENDBRANCH  13  14
ENDBRANCH   5   8
ENDBRANCH   3   4
ENDBRANCH   2   3
ENDBRANCH   1   2
BRANCH   1  22
ATOM     22  C   UNL A   1      40.873  21.943  26.639  1.00  0.00     0.116 C 
BRANCH  22  23
ATOM     23  N   UNL A   1      41.804  22.289  25.585  1.00  0.00    -0.352 N 
ATOM     24  C   UNL A   1      42.662  23.322  25.348  1.00  0.00     0.251 C 
ATOM     25  H   UNL A   1      41.821  21.616  24.866  1.00  0.00     0.163 HD
ATOM     26  O   UNL A   1      43.439  23.155  24.402  1.00  0.00    -0.269 OA
BRANCH  24  27
ATOM     27  C   UNL A   1      42.671  24.627  26.062  1.00  0.00     0.039 A 
ATOM     28  C   UNL A   1      43.314  24.899  27.269  1.00  0.00     0.014 A 
ATOM     29  C   UNL A   1      41.866  25.629  25.486  1.00  0.00     0.014 A 
ATOM     30  C   UNL A   1      43.040  26.080  27.953  1.00  0.00     0.010 A 
ATOM     31  C   UNL A   1      41.605  26.815  26.154  1.00  0.00     0.010 A 
ATOM     32  C   UNL A   1      42.131  27.003  27.423  1.00  0.00    -0.014 A 
BRANCH  32  33
ATOM     33  C   UNL A   1      41.856  28.228  28.168  1.00  0.00     0.031 A 
ATOM     34  C   UNL A   1      42.938  29.243  28.033  1.00  0.00     0.074 A 
ATOM     35  C   UNL A   1      40.697  28.456  28.826  1.00  0.00     0.049 A 
ATOM     36  N   UNL A   1      43.753  29.650  28.949  1.00  0.00    -0.248 NA
ATOM     37  C   UNL A   1      43.283  29.718  26.681  1.00  0.00     0.031 C 
ATOM     38  C   UNL A   1      39.484  27.633  28.853  1.00  0.00     0.029 A 
ATOM     39  N   UNL A   1      40.331  29.535  29.578  1.00  0.00    -0.354 N 
ATOM     40  C   UNL A   1      44.561  30.609  28.344  1.00  0.00     0.074 A 
ATOM     41  C   UNL A   1      44.351  30.480  26.926  1.00  0.00     0.031 C 
ATOM     42  C   UNL A   1      38.458  28.345  29.379  1.00  0.00     0.029 A 
ATOM     43  C   UNL A   1      38.965  29.616  29.865  1.00  0.00     0.049 A 
ATOM     44  H   UNL A   1      40.980  30.204  29.895  1.00  0.00     0.167 HD
ATOM     45  C   UNL A   1      45.162  31.588  29.075  1.00  0.00     0.037 A 
ATOM     46  C   UNL A   1      38.313  30.667  30.441  1.00  0.00     0.037 A 
ATOM     47  C   UNL A   1      45.181  31.254  30.475  1.00  0.00     0.049 A 
ATOM     48  C   UNL A   1      39.345  31.452  31.169  1.00  0.00     0.074 A 
ATOM     49  C   UNL A   1      45.774  30.259  31.226  1.00  0.00     0.029 A 
ATOM     50  N   UNL A   1      44.184  31.779  31.260  1.00  0.00    -0.354 N 
ATOM     51  N   UNL A   1      39.991  30.997  32.208  1.00  0.00    -0.248 NA
ATOM     52  C   UNL A   1      40.005  32.520  30.434  1.00  0.00     0.031 C 
ATOM     53  C   UNL A   1      44.804  29.917  32.213  1.00  0.00     0.029 A 
ATOM     54  C   UNL A   1      43.714  30.775  32.066  1.00  0.00     0.049 A 
ATOM     55  H   UNL A   1      43.864  32.710  31.245  1.00  0.00     0.167 HD
ATOM     56  C   UNL A   1      41.304  31.398  32.008  1.00  0.00     0.074 A 
ATOM     57  C   UNL A   1      41.242  32.371  30.917  1.00  0.00     0.031 C 
ATOM     58  C   UNL A   1      42.348  30.696  32.538  1.00  0.00     0.037 A 
BRANCH  45  59
ATOM     59  C   UNL A   1      45.396  32.992  28.578  1.00  0.00     0.058 A 
ATOM     60  C   UNL A   1      46.706  33.510  28.539  1.00  0.00     0.135 A 
ATOM     61  C   UNL A   1      44.361  33.938  28.406  1.00  0.00     0.135 A 
ATOM     62  F   UNL A   1      47.765  32.703  28.714  1.00  0.00    -0.206 F 
ATOM     63  C   UNL A   1      46.967  34.873  28.385  1.00  0.00     0.059 A 
ATOM     64  C   UNL A   1      44.598  35.292  28.202  1.00  0.00     0.059 A 
ATOM     65  F   UNL A   1      43.068  33.608  28.520  1.00  0.00    -0.206 F 
ATOM     66  C   UNL A   1      45.903  35.757  28.222  1.00  0.00     0.060 A 
BRANCH  66  67
ATOM     67  S   UNL A   1      46.237  37.521  28.083  1.00  0.00     0.124 S 
ATOM     68  O   UNL A   1      45.088  37.980  27.311  1.00  0.00    -0.237 OA
ATOM     69  O   UNL A   1      46.271  37.928  29.484  1.00  0.00    -0.237 OA
ATOM     70  O   UNL A   1      47.523  37.567  27.391  1.00  0.00    -0.744 OA
ENDBRANCH  66  67
ENDBRANCH  45  59
BRANCH  46  71
ATOM     71  C   UNL A   1      36.999  31.271  30.060  1.00  0.00     0.058 A 
ATOM     72  C   UNL A   1      36.141  31.842  31.025  1.00  0.00     0.135 A 
ATOM     73  C   UNL A   1      36.701  31.586  28.719  1.00  0.00     0.135 A 
ATOM     74  F   UNL A   1      36.353  31.615  32.332  1.00  0.00    -0.206 F 
ATOM     75  C   UNL A   1      35.096  32.716  30.686  1.00  0.00     0.059 A 
ATOM     76  C   UNL A   1      35.665  32.452  28.358  1.00  0.00     0.059 A 
ATOM     77  F   UNL A   1      37.473  31.135  27.720  1.00  0.00    -0.206 F 
ATOM     78  C   UNL A   1      34.882  33.036  29.346  1.00  0.00     0.060 A 
BRANCH  78  79
ATOM     79  S   UNL A   1      33.661  34.301  28.910  1.00  0.00     0.124 S 
ATOM     80  O   UNL A   1      32.757  33.564  28.033  1.00  0.00    -0.237 OA
ATOM     81  O   UNL A   1      33.121  34.673  30.214  1.00  0.00    -0.237 OA
ATOM     82  O   UNL A   1      34.461  35.334  28.254  1.00  0.00    -0.744 OA
ENDBRANCH  78  79
ENDBRANCH  46  71
BRANCH  58  83
ATOM     83  C   UNL A   1      42.047  29.626  33.560  1.00  0.00     0.058 A 
ATOM     84  C   UNL A   1      41.732  28.288  33.256  1.00  0.00     0.135 A 
ATOM     85  C   UNL A   1      42.257  29.940  34.911  1.00  0.00     0.135 A 
ATOM     86  F   UNL A   1      41.608  27.881  31.984  1.00  0.00    -0.206 F 
ATOM     87  C   UNL A   1      41.602  27.316  34.254  1.00  0.00     0.059 A 
ATOM     88  C   UNL A   1      42.162  28.984  35.918  1.00  0.00     0.059 A 
ATOM     89  F   UNL A   1      42.617  31.185  35.262  1.00  0.00    -0.206 F 
ATOM     90  C   UNL A   1      41.825  27.675  35.585  1.00  0.00     0.060 A 
BRANCH  90  91
ATOM     91  S   UNL A   1      41.725  26.412  36.872  1.00  0.00     0.124 S 
ATOM     92  O   UNL A   1      40.469  26.746  37.535  1.00  0.00    -0.237 OA
ATOM     93  O   UNL A   1      41.725  25.173  36.100  1.00  0.00    -0.237 OA
ATOM     94  O   UNL A   1      42.929  26.639  37.668  1.00  0.00    -0.744 OA
ENDBRANCH  90  91
ENDBRANCH  58  83
ENDBRANCH  32  33
ENDBRANCH  24  27
ENDBRANCH  22  23
ENDBRANCH   1  22
TORSDOF 16
ENDMDL
MODEL 3
REMARK VINA RESULT:     -12.2      3.346      9.454
REMARK SMILES Cc1cc(C(=O)NCCCCNC(=O)c2ccc(-c3c4nc(c(-c5c(F)cc(S(=O)(=O)[O-])cc5F)c5ccc([nH]5)c(-c5c(F)cc(S(=O)(=O)[O-])cc5F)c5nc(c(-c6c(F)cc(S(=O)(=O)[O-])cc6F)c6ccc3[nH]6)C=C5)C=C4)cc2)c(C#Cc2ccccc2)s1
REMARK SMILES IDX 10 1 9 2 8 3 7 4 5 5 6 6 4 8 1 9 2 10 3 11 90 12 81 13 82 14
REMARK SMILES IDX 83 15 84 16 85 17 89 18 86 19 88 20 87 21 11 22 12 23 13 24
REMARK SMILES IDX 14 26 15 27 16 28 80 29 17 30 79 31 18 32 19 33 20 34 73 35
REMARK SMILES IDX 21 36 78 37 72 38 74 39 22 40 77 41 71 42 70 43 23 45 57 46
REMARK SMILES IDX 36 47 56 48 37 49 40 50 55 51 75 52 38 53 39 54 54 56 76 57
REMARK SMILES IDX 41 58 24 59 25 60 34 61 26 62 27 63 33 64 35 65 28 66 29 67
REMARK SMILES IDX 30 68 31 69 32 70 58 71 59 72 68 73 60 74 61 75 67 76 69 77
REMARK SMILES IDX 62 78 63 79 64 80 65 81 66 82 42 83 43 84 52 85 44 86 45 87
REMARK SMILES IDX 51 88 53 89 46 90 47 91 48 92 49 93 50 94
REMARK H PARENT 7 7 12 25 74 44 40 55
REMARK Flexibility Score: inf
ROOT
ATOM      1  C   UNL A   1      32.972  29.936  26.045  1.00  0.00     0.023 C 
ENDROOT
BRANCH   1   2
ATOM      2  C   UNL A   1      31.740  29.429  26.817  1.00  0.00     0.023 C 
BRANCH   2   3
ATOM      3  C   UNL A   1      31.946  28.092  27.532  1.00  0.00     0.116 C 
BRANCH   3   4
ATOM      4  N   UNL A   1      30.917  27.135  27.184  1.00  0.00    -0.352 N 
ATOM      5  C   UNL A   1      30.758  26.186  26.205  1.00  0.00     0.253 C 
ATOM      6  O   UNL A   1      29.733  25.509  26.324  1.00  0.00    -0.269 OA
ATOM      7  H   UNL A   1      30.147  27.174  27.796  1.00  0.00     0.163 HD
BRANCH   5   8
ATOM      8  C   UNL A   1      31.728  25.952  25.119  1.00  0.00     0.066 A 
ATOM      9  C   UNL A   1      34.578  24.087  23.393  1.00  0.00     0.056 C 
ATOM     10  C   UNL A   1      33.473  24.985  23.830  1.00  0.00     0.004 A 
ATOM     11  C   UNL A   1      32.808  24.998  25.038  1.00  0.00     0.030 A 
ATOM     12  S   UNL A   1      32.894  26.199  22.800  1.00  0.00    -0.131 S 
ATOM     13  C   UNL A   1      31.742  26.727  23.956  1.00  0.00     0.090 A 
BRANCH  13  14
ATOM     14  C   UNL A   1      30.933  27.862  23.649  1.00  0.00    -0.050 C 
ATOM     15  C   UNL A   1      30.298  28.841  23.334  1.00  0.00    -0.061 C 
BRANCH  15  16
ATOM     16  C   UNL A   1      29.574  29.991  22.906  1.00  0.00     0.025 A 
ATOM     17  C   UNL A   1      29.245  30.999  23.815  1.00  0.00     0.017 A 
ATOM     18  C   UNL A   1      29.172  30.102  21.571  1.00  0.00     0.017 A 
ATOM     19  C   UNL A   1      28.501  32.103  23.393  1.00  0.00     0.001 A 
ATOM     20  C   UNL A   1      28.428  31.205  21.151  1.00  0.00     0.001 A 
ATOM     21  C   UNL A   1      28.089  32.203  22.064  1.00  0.00     0.000 A 
ENDBRANCH  15  16
ENDBRANCH  13  14
ENDBRANCH   5   8
ENDBRANCH   3   4
ENDBRANCH   2   3
ENDBRANCH   1   2
BRANCH   1  22
ATOM     22  C   UNL A   1      34.242  30.076  26.887  1.00  0.00     0.116 C 
BRANCH  22  23
ATOM     23  N   UNL A   1      34.129  31.056  27.947  1.00  0.00    -0.352 N 
ATOM     24  C   UNL A   1      34.979  31.589  28.872  1.00  0.00     0.251 C 
ATOM     25  H   UNL A   1      33.220  31.426  28.017  1.00  0.00     0.163 HD
ATOM     26  O   UNL A   1      34.536  32.560  29.495  1.00  0.00    -0.269 OA
BRANCH  24  27
ATOM     27  C   UNL A   1      36.317  31.051  29.235  1.00  0.00     0.039 A 
ATOM     28  C   UNL A   1      37.456  31.804  29.518  1.00  0.00     0.014 A 
ATOM     29  C   UNL A   1      36.431  29.649  29.184  1.00  0.00     0.014 A 
ATOM     30  C   UNL A   1      38.699  31.183  29.598  1.00  0.00     0.010 A 
ATOM     31  C   UNL A   1      37.664  29.022  29.282  1.00  0.00     0.010 A 
ATOM     32  C   UNL A   1      38.806  29.800  29.411  1.00  0.00    -0.014 A 
BRANCH  32  33
ATOM     33  C   UNL A   1      40.124  29.177  29.490  1.00  0.00     0.031 A 
ATOM     34  C   UNL A   1      40.601  29.010  30.891  1.00  0.00     0.074 A 
ATOM     35  C   UNL A   1      40.794  28.710  28.413  1.00  0.00     0.049 A 
ATOM     36  N   UNL A   1      41.581  29.623  31.466  1.00  0.00    -0.248 NA
ATOM     37  C   UNL A   1      39.775  28.216  31.819  1.00  0.00     0.031 C 
ATOM     38  C   UNL A   1      40.341  28.622  27.021  1.00  0.00     0.029 A 
ATOM     39  N   UNL A   1      42.033  28.141  28.349  1.00  0.00    -0.354 N 
ATOM     40  C   UNL A   1      41.645  29.116  32.761  1.00  0.00     0.074 A 
ATOM     41  C   UNL A   1      40.415  28.399  32.976  1.00  0.00     0.031 C 
ATOM     42  C   UNL A   1      41.183  27.833  26.313  1.00  0.00     0.029 A 
ATOM     43  C   UNL A   1      42.317  27.480  27.151  1.00  0.00     0.049 A 
ATOM     44  H   UNL A   1      42.678  28.193  29.091  1.00  0.00     0.167 HD
ATOM     45  C   UNL A   1      42.807  29.133  33.471  1.00  0.00     0.037 A 
ATOM     46  C   UNL A   1      43.396  26.688  26.890  1.00  0.00     0.037 A 
ATOM     47  C   UNL A   1      43.753  30.053  32.896  1.00  0.00     0.049 A 
ATOM     48  C   UNL A   1      44.443  27.071  27.875  1.00  0.00     0.074 A 
ATOM     49  C   UNL A   1      43.786  31.420  32.712  1.00  0.00     0.029 A 
ATOM     50  N   UNL A   1      44.698  29.533  32.046  1.00  0.00    -0.354 N 
ATOM     51  N   UNL A   1      45.024  28.240  27.886  1.00  0.00    -0.248 NA
ATOM     52  C   UNL A   1      44.464  26.345  29.135  1.00  0.00     0.031 C 
ATOM     53  C   UNL A   1      44.393  31.606  31.436  1.00  0.00     0.029 A 
ATOM     54  C   UNL A   1      44.773  30.354  30.950  1.00  0.00     0.049 A 
ATOM     55  H   UNL A   1      45.228  28.717  32.198  1.00  0.00     0.167 HD
ATOM     56  C   UNL A   1      45.091  28.586  29.227  1.00  0.00     0.074 A 
ATOM     57  C   UNL A   1      44.768  27.357  29.953  1.00  0.00     0.031 C 
ATOM     58  C   UNL A   1      45.114  29.892  29.622  1.00  0.00     0.037 A 
BRANCH  45  59
ATOM     59  C   UNL A   1      43.217  28.061  34.449  1.00  0.00     0.058 A 
ATOM     60  C   UNL A   1      43.500  28.407  35.785  1.00  0.00     0.135 A 
ATOM     61  C   UNL A   1      43.612  26.762  34.058  1.00  0.00     0.135 A 
ATOM     62  F   UNL A   1      43.188  29.625  36.257  1.00  0.00    -0.206 F 
ATOM     63  C   UNL A   1      44.166  27.543  36.656  1.00  0.00     0.059 A 
ATOM     64  C   UNL A   1      44.233  25.867  34.921  1.00  0.00     0.059 A 
ATOM     65  F   UNL A   1      43.500  26.334  32.794  1.00  0.00    -0.206 F 
ATOM     66  C   UNL A   1      44.533  26.275  36.211  1.00  0.00     0.060 A 
BRANCH  66  67
ATOM     67  S   UNL A   1      45.444  25.183  37.315  1.00  0.00     0.124 S 
ATOM     68  O   UNL A   1      46.816  25.635  37.113  1.00  0.00    -0.237 OA
ATOM     69  O   UNL A   1      44.849  25.503  38.608  1.00  0.00    -0.237 OA
ATOM     70  O   UNL A   1      45.136  23.851  36.802  1.00  0.00    -0.744 OA
ENDBRANCH  66  67
ENDBRANCH  45  59
BRANCH  46  71
ATOM     71  C   UNL A   1      43.439  25.373  26.178  1.00  0.00     0.058 A 
ATOM     72  C   UNL A   1      44.414  25.097  25.195  1.00  0.00     0.135 A 
ATOM     73  C   UNL A   1      42.734  24.255  26.666  1.00  0.00     0.135 A 
ATOM     74  F   UNL A   1      45.152  26.094  24.681  1.00  0.00    -0.206 F 
ATOM     75  C   UNL A   1      44.711  23.793  24.770  1.00  0.00     0.059 A 
ATOM     76  C   UNL A   1      43.011  22.948  26.257  1.00  0.00     0.059 A 
ATOM     77  F   UNL A   1      41.814  24.391  27.632  1.00  0.00    -0.206 F 
ATOM     78  C   UNL A   1      44.020  22.719  25.328  1.00  0.00     0.060 A 
BRANCH  78  79
ATOM     79  S   UNL A   1      44.518  21.024  24.927  1.00  0.00     0.124 S 
ATOM     80  O   UNL A   1      44.583  21.061  23.470  1.00  0.00    -0.237 OA
ATOM     81  O   UNL A   1      45.798  20.906  25.618  1.00  0.00    -0.237 OA
ATOM     82  O   UNL A   1      43.437  20.212  25.481  1.00  0.00    -0.744 OA
ENDBRANCH  78  79
ENDBRANCH  46  71
BRANCH  58  83
ATOM     83  C   UNL A   1      45.325  30.956  28.571  1.00  0.00     0.058 A 
ATOM     84  C   UNL A   1      44.301  31.551  27.810  1.00  0.00     0.135 A 
ATOM     85  C   UNL A   1      46.608  31.510  28.457  1.00  0.00     0.135 A 
ATOM     86  F   UNL A   1      43.029  31.144  27.930  1.00  0.00    -0.206 F 
ATOM     87  C   UNL A   1      44.551  32.628  26.954  1.00  0.00     0.059 A 
ATOM     88  C   UNL A   1      46.875  32.600  27.634  1.00  0.00     0.059 A 
ATOM     89  F   UNL A   1      47.617  31.025  29.199  1.00  0.00    -0.206 F 
ATOM     90  C   UNL A   1      45.843  33.150  26.877  1.00  0.00     0.060 A 
BRANCH  90  91
ATOM     91  S   UNL A   1      46.160  34.584  25.824  1.00  0.00     0.124 S 
ATOM     92  O   UNL A   1      47.571  34.416  25.493  1.00  0.00    -0.237 OA
ATOM     93  O   UNL A   1      45.222  34.381  24.724  1.00  0.00    -0.237 OA
ATOM     94  O   UNL A   1      45.853  35.719  26.691  1.00  0.00    -0.744 OA
ENDBRANCH  90  91
ENDBRANCH  58  83
ENDBRANCH  32  33
ENDBRANCH  24  27
ENDBRANCH  22  23
ENDBRANCH   1  22
TORSDOF 16
ENDMDL
