MODEL 1
REMARK VINA RESULT:     -10.7      0.000      0.000
REMARK SMILES CC[NH2+]C(C)(C)C(=O)N[C@@](C)(C(=O)NCCCCNC(=O)c1ccc(-c2c3nc(c(-c4c(F)cc(S(=O)(=O)[O-])cc4F)c4ccc([nH]4)c(-c4c(F)cc(S(=O)(=O)[O-])cc4F)c4nc(c(-c5c(F)cc(S(=O)(=O)[O-])cc5F)c5ccc2[nH]5)C=C4)C=C3)cc1)C(F)(F)F
REMARK SMILES IDX 16 1 15 2 14 3 12 4 13 5 10 7 11 8 9 9 7 10 8 11 4 13 5 14
REMARK SMILES IDX 6 15 3 16 2 19 1 20 88 21 89 22 90 23 91 24 17 25 18 26
REMARK SMILES IDX 19 27 20 28 21 30 22 31 23 32 87 33 24 34 86 35 25 36 26 37
REMARK SMILES IDX 27 38 80 39 28 40 85 41 79 42 81 43 29 44 84 45 78 46 77 47
REMARK SMILES IDX 30 49 64 50 43 51 63 52 44 53 47 54 62 55 82 56 45 57 46 58
REMARK SMILES IDX 61 60 83 61 48 62 31 63 32 64 41 65 33 66 34 67 40 68 42 69
REMARK SMILES IDX 35 70 36 71 37 72 38 73 39 74 65 75 66 76 75 77 67 78 68 79
REMARK SMILES IDX 74 80 76 81 69 82 70 83 71 84 72 85 73 86 49 87 50 88 59 89
REMARK SMILES IDX 51 90 52 91 58 92 60 93 53 94 54 95 55 96 56 97 57 98
REMARK H PARENT 14 6 9 12 3 17 3 18 19 29 81 48 47 59
REMARK Flexibility Score: inf
ROOT
ATOM      1  C   UNL A   1      37.554  23.778  25.839  1.00  0.00     0.023 C 
ENDROOT
BRANCH   1   2
ATOM      2  C   UNL A   1      36.871  23.263  24.577  1.00  0.00     0.116 C 
BRANCH   2   3
ATOM      3  N   UNL A   1      36.486  21.866  24.696  1.00  0.00    -0.354 N 
ATOM      4  C   UNL A   1      35.288  21.214  24.765  1.00  0.00     0.254 C 
ATOM      5  O   UNL A   1      35.373  19.985  24.841  1.00  0.00    -0.272 OA
ATOM      6  H   UNL A   1      37.258  21.256  24.733  1.00  0.00     0.163 HD
BRANCH   4   7
ATOM      7  C   UNL A   1      33.925  21.944  24.783  1.00  0.00     0.212 C 
ATOM      8  C   UNL A   1      32.743  20.953  24.667  1.00  0.00     0.056 C 
BRANCH   7   9
ATOM      9  N   UNL A   1      33.913  22.809  23.526  1.00  0.00    -0.329 N 
ATOM     10  C   UNL A   1      33.332  23.899  22.954  1.00  0.00     0.281 C 
ATOM     11  O   UNL A   1      33.917  24.278  21.931  1.00  0.00    -0.268 OA
ATOM     12  H   UNL A   1      34.570  22.442  22.892  1.00  0.00     0.165 HD
BRANCH  10  13
ATOM     13  C   UNL A   1      32.047  24.586  23.479  1.00  0.00     0.169 C 
ATOM     14  C   UNL A   1      30.910  23.560  23.544  1.00  0.00     0.090 C 
ATOM     15  C   UNL A   1      31.771  25.776  22.534  1.00  0.00     0.090 C 
BRANCH  13  16
ATOM     16  N   UNL A   1      32.206  25.273  24.797  1.00  0.00    -0.334 N 
ATOM     17  H   UNL A   1      31.289  25.279  25.244  1.00  0.00     0.347 HD
ATOM     18  H   UNL A   1      32.934  24.736  25.269  1.00  0.00     0.347 HD
BRANCH  16  19
ATOM     19  C   UNL A   1      32.704  26.645  24.816  1.00  0.00     0.257 C 
ATOM     20  C   UNL A   1      33.430  26.874  26.139  1.00  0.00     0.071 C 
ENDBRANCH  16  19
ENDBRANCH  13  16
ENDBRANCH  10  13
ENDBRANCH   7   9
BRANCH   7  21
ATOM     21  C   UNL A   1      33.786  22.507  26.234  1.00  0.00     0.420 C 
ATOM     22  F   UNL A   1      32.535  22.608  26.709  1.00  0.00    -0.168 F 
ATOM     23  F   UNL A   1      34.480  21.756  27.126  1.00  0.00    -0.168 F 
ATOM     24  F   UNL A   1      34.338  23.748  26.329  1.00  0.00    -0.168 F 
ENDBRANCH   7  21
ENDBRANCH   4   7
ENDBRANCH   2   3
ENDBRANCH   1   2
BRANCH   1  25
ATOM     25  C   UNL A   1      38.635  22.859  26.408  1.00  0.00     0.023 C 
BRANCH  25  26
ATOM     26  C   UNL A   1      39.845  23.568  27.005  1.00  0.00     0.116 C 
BRANCH  26  27
ATOM     27  N   UNL A   1      40.666  24.232  26.002  1.00  0.00    -0.352 N 
ATOM     28  C   UNL A   1      41.234  25.482  26.040  1.00  0.00     0.251 C 
ATOM     29  H   UNL A   1      40.837  23.713  25.184  1.00  0.00     0.163 HD
ATOM     30  O   UNL A   1      41.781  25.934  25.037  1.00  0.00    -0.269 OA
BRANCH  28  31
ATOM     31  C   UNL A   1      41.154  26.288  27.276  1.00  0.00     0.039 A 
ATOM     32  C   UNL A   1      42.096  27.296  27.485  1.00  0.00     0.014 A 
ATOM     33  C   UNL A   1      40.140  26.067  28.212  1.00  0.00     0.014 A 
ATOM     34  C   UNL A   1      41.980  28.127  28.602  1.00  0.00     0.010 A 
ATOM     35  C   UNL A   1      39.977  26.948  29.277  1.00  0.00     0.010 A 
ATOM     36  C   UNL A   1      40.897  27.986  29.486  1.00  0.00    -0.014 A 
BRANCH  36  37
ATOM     37  C   UNL A   1      40.713  28.918  30.629  1.00  0.00     0.031 A 
ATOM     38  C   UNL A   1      41.556  28.774  31.868  1.00  0.00     0.074 A 
ATOM     39  C   UNL A   1      39.750  29.861  30.572  1.00  0.00     0.049 A 
ATOM     40  N   UNL A   1      41.515  29.464  32.979  1.00  0.00    -0.248 NA
ATOM     41  C   UNL A   1      42.558  27.697  31.870  1.00  0.00     0.031 C 
ATOM     42  C   UNL A   1      38.831  30.064  29.450  1.00  0.00     0.029 A 
ATOM     43  N   UNL A   1      39.379  30.820  31.480  1.00  0.00    -0.354 N 
ATOM     44  C   UNL A   1      42.475  28.902  33.811  1.00  0.00     0.074 A 
ATOM     45  C   UNL A   1      43.040  27.775  33.102  1.00  0.00     0.031 C 
ATOM     46  C   UNL A   1      38.024  31.102  29.723  1.00  0.00     0.029 A 
ATOM     47  C   UNL A   1      38.337  31.612  31.055  1.00  0.00     0.049 A 
ATOM     48  H   UNL A   1      39.817  30.933  32.354  1.00  0.00     0.167 HD
ATOM     49  C   UNL A   1      42.871  29.304  35.043  1.00  0.00     0.037 A 
ATOM     50  C   UNL A   1      37.701  32.628  31.668  1.00  0.00     0.037 A 
ATOM     51  C   UNL A   1      42.316  30.438  35.736  1.00  0.00     0.049 A 
ATOM     52  C   UNL A   1      38.154  33.053  33.039  1.00  0.00     0.074 A 
ATOM     53  C   UNL A   1      42.685  30.961  36.963  1.00  0.00     0.029 A 
ATOM     54  N   UNL A   1      41.272  31.224  35.265  1.00  0.00    -0.354 N 
ATOM     55  N   UNL A   1      39.112  32.554  33.783  1.00  0.00    -0.248 NA
ATOM     56  C   UNL A   1      37.447  34.186  33.651  1.00  0.00     0.031 C 
ATOM     57  C   UNL A   1      41.831  32.029  37.259  1.00  0.00     0.029 A 
ATOM     58  C   UNL A   1      40.970  32.212  36.189  1.00  0.00     0.049 A 
ATOM     59  H   UNL A   1      40.816  31.099  34.402  1.00  0.00     0.167 HD
ATOM     60  C   UNL A   1      39.142  33.329  34.937  1.00  0.00     0.074 A 
ATOM     61  C   UNL A   1      38.117  34.341  34.784  1.00  0.00     0.031 C 
ATOM     62  C   UNL A   1      39.948  33.216  36.023  1.00  0.00     0.037 A 
BRANCH  49  63
ATOM     63  C   UNL A   1      43.960  28.514  35.720  1.00  0.00     0.058 A 
ATOM     64  C   UNL A   1      45.319  28.815  35.527  1.00  0.00     0.135 A 
ATOM     65  C   UNL A   1      43.642  27.467  36.601  1.00  0.00     0.135 A 
ATOM     66  F   UNL A   1      45.682  29.795  34.685  1.00  0.00    -0.206 F 
ATOM     67  C   UNL A   1      46.322  28.087  36.157  1.00  0.00     0.059 A 
ATOM     68  C   UNL A   1      44.628  26.747  37.268  1.00  0.00     0.059 A 
ATOM     69  F   UNL A   1      42.360  27.136  36.824  1.00  0.00    -0.206 F 
ATOM     70  C   UNL A   1      45.968  27.054  37.027  1.00  0.00     0.060 A 
BRANCH  70  71
ATOM     71  S   UNL A   1      47.283  26.125  37.840  1.00  0.00     0.124 S 
ATOM     72  O   UNL A   1      48.441  26.488  37.028  1.00  0.00    -0.237 OA
ATOM     73  O   UNL A   1      47.261  26.673  39.193  1.00  0.00    -0.237 OA
ATOM     74  O   UNL A   1      46.845  24.738  37.722  1.00  0.00    -0.744 OA
ENDBRANCH  70  71
ENDBRANCH  49  63
BRANCH  50  75
ATOM     75  C   UNL A   1      36.582  33.329  30.982  1.00  0.00     0.058 A 
ATOM     76  C   UNL A   1      35.252  33.139  31.387  1.00  0.00     0.135 A 
ATOM     77  C   UNL A   1      36.818  34.209  29.914  1.00  0.00     0.135 A 
ATOM     78  F   UNL A   1      34.972  32.302  32.398  1.00  0.00    -0.206 F 
ATOM     79  C   UNL A   1      34.195  33.779  30.746  1.00  0.00     0.059 A 
ATOM     80  C   UNL A   1      35.782  34.884  29.277  1.00  0.00     0.059 A 
ATOM     81  F   UNL A   1      38.073  34.440  29.498  1.00  0.00    -0.206 F 
ATOM     82  C   UNL A   1      34.471  34.653  29.694  1.00  0.00     0.060 A 
BRANCH  82  83
ATOM     83  S   UNL A   1      33.096  35.515  28.901  1.00  0.00     0.124 S 
ATOM     84  O   UNL A   1      33.798  36.500  28.086  1.00  0.00    -0.237 OA
ATOM     85  O   UNL A   1      32.437  34.435  28.175  1.00  0.00    -0.237 OA
ATOM     86  O   UNL A   1      32.342  36.053  30.030  1.00  0.00    -0.744 OA
ENDBRANCH  82  83
ENDBRANCH  50  75
BRANCH  62  87
ATOM     87  C   UNL A   1      39.779  34.234  37.119  1.00  0.00     0.058 A 
ATOM     88  C   UNL A   1      38.922  34.015  38.209  1.00  0.00     0.135 A 
ATOM     89  C   UNL A   1      40.520  35.427  37.098  1.00  0.00     0.135 A 
ATOM     90  F   UNL A   1      38.187  32.895  38.278  1.00  0.00    -0.206 F 
ATOM     91  C   UNL A   1      38.783  34.957  39.223  1.00  0.00     0.059 A 
ATOM     92  C   UNL A   1      40.422  36.368  38.118  1.00  0.00     0.059 A 
ATOM     93  F   UNL A   1      41.365  35.681  36.085  1.00  0.00    -0.206 F 
ATOM     94  C   UNL A   1      39.538  36.131  39.169  1.00  0.00     0.060 A 
BRANCH  94  95
ATOM     95  S   UNL A   1      39.365  37.334  40.505  1.00  0.00     0.124 S 
ATOM     96  O   UNL A   1      40.667  37.993  40.476  1.00  0.00    -0.237 OA
ATOM     97  O   UNL A   1      38.236  38.141  40.053  1.00  0.00    -0.237 OA
ATOM     98  O   UNL A   1      39.107  36.505  41.678  1.00  0.00    -0.744 OA
ENDBRANCH  94  95
ENDBRANCH  62  87
ENDBRANCH  36  37
ENDBRANCH  28  31
ENDBRANCH  26  27
ENDBRANCH  25  26
ENDBRANCH   1  25
TORSDOF 19
ENDMDL
MODEL 2
REMARK VINA RESULT:     -10.6      6.771     12.169
REMARK SMILES CC[NH2+]C(C)(C)C(=O)N[C@@](C)(C(=O)NCCCCNC(=O)c1ccc(-c2c3nc(c(-c4c(F)cc(S(=O)(=O)[O-])cc4F)c4ccc([nH]4)c(-c4c(F)cc(S(=O)(=O)[O-])cc4F)c4nc(c(-c5c(F)cc(S(=O)(=O)[O-])cc5F)c5ccc2[nH]5)C=C4)C=C3)cc1)C(F)(F)F
REMARK SMILES IDX 16 1 15 2 14 3 12 4 13 5 10 7 11 8 9 9 7 10 8 11 4 13 5 14
REMARK SMILES IDX 6 15 3 16 2 19 1 20 88 21 89 22 90 23 91 24 17 25 18 26
REMARK SMILES IDX 19 27 20 28 21 30 22 31 23 32 87 33 24 34 86 35 25 36 26 37
REMARK SMILES IDX 27 38 80 39 28 40 85 41 79 42 81 43 29 44 84 45 78 46 77 47
REMARK SMILES IDX 30 49 64 50 43 51 63 52 44 53 47 54 62 55 82 56 45 57 46 58
REMARK SMILES IDX 61 60 83 61 48 62 31 63 32 64 41 65 33 66 34 67 40 68 42 69
REMARK SMILES IDX 35 70 36 71 37 72 38 73 39 74 65 75 66 76 75 77 67 78 68 79
REMARK SMILES IDX 74 80 76 81 69 82 70 83 71 84 72 85 73 86 49 87 50 88 59 89
REMARK SMILES IDX 51 90 52 91 58 92 60 93 53 94 54 95 55 96 56 97 57 98
REMARK H PARENT 14 6 9 12 3 17 3 18 19 29 81 48 47 59
REMARK Flexibility Score: inf
ROOT
ATOM      1  C   UNL A   1      32.591  29.224  27.312  1.00  0.00     0.023 C 
ENDROOT
BRANCH   1   2
ATOM      2  C   UNL A   1      31.933  27.923  26.866  1.00  0.00     0.116 C 
BRANCH   2   3
ATOM      3  N   UNL A   1      31.365  28.027  25.532  1.00  0.00    -0.354 N 
ATOM      4  C   UNL A   1      31.376  27.222  24.430  1.00  0.00     0.254 C 
ATOM      5  O   UNL A   1      30.743  27.659  23.465  1.00  0.00    -0.272 OA
ATOM      6  H   UNL A   1      30.861  28.862  25.393  1.00  0.00     0.163 HD
BRANCH   4   7
ATOM      7  C   UNL A   1      32.144  25.881  24.368  1.00  0.00     0.212 C 
ATOM      8  C   UNL A   1      31.727  25.039  23.138  1.00  0.00     0.056 C 
BRANCH   7   9
ATOM      9  N   UNL A   1      31.713  25.109  25.611  1.00  0.00    -0.329 N 
ATOM     10  C   UNL A   1      32.001  24.023  26.378  1.00  0.00     0.281 C 
ATOM     11  O   UNL A   1      31.398  24.019  27.458  1.00  0.00    -0.268 OA
ATOM     12  H   UNL A   1      30.938  25.569  26.006  1.00  0.00     0.165 HD
BRANCH  10  13
ATOM     13  C   UNL A   1      32.944  22.870  25.949  1.00  0.00     0.169 C 
ATOM     14  C   UNL A   1      32.251  22.013  24.885  1.00  0.00     0.090 C 
ATOM     15  C   UNL A   1      33.310  22.104  27.239  1.00  0.00     0.090 C 
BRANCH  13  16
ATOM     16  N   UNL A   1      34.287  23.316  25.467  1.00  0.00    -0.334 N 
ATOM     17  H   UNL A   1      34.337  23.094  24.473  1.00  0.00     0.347 HD
ATOM     18  H   UNL A   1      34.320  24.307  25.711  1.00  0.00     0.347 HD
BRANCH  16  19
ATOM     19  C   UNL A   1      35.479  22.754  26.095  1.00  0.00     0.257 C 
ATOM     20  C   UNL A   1      36.630  23.740  25.911  1.00  0.00     0.071 C 
ENDBRANCH  16  19
ENDBRANCH  13  16
ENDBRANCH  10  13
ENDBRANCH   7   9
BRANCH   7  21
ATOM     21  C   UNL A   1      33.623  26.276  24.051  1.00  0.00     0.420 C 
ATOM     22  F   UNL A   1      34.274  25.478  23.190  1.00  0.00    -0.168 F 
ATOM     23  F   UNL A   1      33.704  27.535  23.551  1.00  0.00    -0.168 F 
ATOM     24  F   UNL A   1      34.370  26.312  25.189  1.00  0.00    -0.168 F 
ENDBRANCH   7  21
ENDBRANCH   4   7
ENDBRANCH   2   3
ENDBRANCH   1   2
BRANCH   1  25
ATOM     25  C   UNL A   1      33.970  29.490  26.709  1.00  0.00     0.023 C 
BRANCH  25  26
ATOM     26  C   UNL A   1      35.148  29.246  27.645  1.00  0.00     0.116 C 
BRANCH  26  27
ATOM     27  N   UNL A   1      35.233  30.225  28.719  1.00  0.00    -0.352 N 
ATOM     28  C   UNL A   1      36.316  30.568  29.491  1.00  0.00     0.251 C 
ATOM     29  H   UNL A   1      34.399  30.707  28.919  1.00  0.00     0.163 HD
ATOM     30  O   UNL A   1      36.166  31.320  30.451  1.00  0.00    -0.269 OA
BRANCH  28  31
ATOM     31  C   UNL A   1      37.647  30.006  29.182  1.00  0.00     0.039 A 
ATOM     32  C   UNL A   1      38.001  29.806  27.847  1.00  0.00     0.014 A 
ATOM     33  C   UNL A   1      38.551  29.701  30.203  1.00  0.00     0.014 A 
ATOM     34  C   UNL A   1      39.288  29.364  27.534  1.00  0.00     0.010 A 
ATOM     35  C   UNL A   1      39.858  29.342  29.886  1.00  0.00     0.010 A 
ATOM     36  C   UNL A   1      40.240  29.165  28.548  1.00  0.00    -0.014 A 
BRANCH  36  37
ATOM     37  C   UNL A   1      41.638  28.778  28.223  1.00  0.00     0.031 A 
ATOM     38  C   UNL A   1      42.723  29.820  28.183  1.00  0.00     0.074 A 
ATOM     39  C   UNL A   1      41.919  27.496  27.911  1.00  0.00     0.049 A 
ATOM     40  N   UNL A   1      43.989  29.681  27.881  1.00  0.00    -0.248 NA
ATOM     41  C   UNL A   1      42.332  31.203  28.497  1.00  0.00     0.031 C 
ATOM     42  C   UNL A   1      40.943  26.405  27.860  1.00  0.00     0.029 A 
ATOM     43  N   UNL A   1      43.104  26.894  27.572  1.00  0.00    -0.354 N 
ATOM     44  C   UNL A   1      44.540  30.955  27.961  1.00  0.00     0.074 A 
ATOM     45  C   UNL A   1      43.460  31.863  28.278  1.00  0.00     0.031 C 
ATOM     46  C   UNL A   1      41.574  25.263  27.540  1.00  0.00     0.029 A 
ATOM     47  C   UNL A   1      42.989  25.546  27.322  1.00  0.00     0.049 A 
ATOM     48  H   UNL A   1      43.958  27.381  27.514  1.00  0.00     0.167 HD
ATOM     49  C   UNL A   1      45.833  31.331  27.811  1.00  0.00     0.037 A 
ATOM     50  C   UNL A   1      43.916  24.640  26.954  1.00  0.00     0.037 A 
ATOM     51  C   UNL A   1      46.907  30.419  27.514  1.00  0.00     0.049 A 
ATOM     52  C   UNL A   1      45.345  25.083  26.787  1.00  0.00     0.074 A 
ATOM     53  C   UNL A   1      48.259  30.691  27.395  1.00  0.00     0.029 A 
ATOM     54  N   UNL A   1      46.753  29.058  27.282  1.00  0.00    -0.354 N 
ATOM     55  N   UNL A   1      45.861  26.281  26.935  1.00  0.00    -0.248 NA
ATOM     56  C   UNL A   1      46.321  24.051  26.414  1.00  0.00     0.031 C 
ATOM     57  C   UNL A   1      48.915  29.507  27.042  1.00  0.00     0.029 A 
ATOM     58  C   UNL A   1      47.982  28.484  26.999  1.00  0.00     0.049 A 
ATOM     59  H   UNL A   1      45.896  28.574  27.316  1.00  0.00     0.167 HD
ATOM     60  C   UNL A   1      47.224  26.139  26.702  1.00  0.00     0.074 A 
ATOM     61  C   UNL A   1      47.455  24.738  26.419  1.00  0.00     0.031 C 
ATOM     62  C   UNL A   1      48.198  27.084  26.723  1.00  0.00     0.037 A 
BRANCH  49  63
ATOM     63  C   UNL A   1      46.159  32.792  27.972  1.00  0.00     0.058 A 
ATOM     64  C   UNL A   1      46.000  33.705  26.916  1.00  0.00     0.135 A 
ATOM     65  C   UNL A   1      46.601  33.295  29.207  1.00  0.00     0.135 A 
ATOM     66  F   UNL A   1      45.595  33.278  25.708  1.00  0.00    -0.206 F 
ATOM     67  C   UNL A   1      46.297  35.054  27.068  1.00  0.00     0.059 A 
ATOM     68  C   UNL A   1      46.872  34.647  29.392  1.00  0.00     0.059 A 
ATOM     69  F   UNL A   1      46.770  32.469  30.252  1.00  0.00    -0.206 F 
ATOM     70  C   UNL A   1      46.733  35.518  28.311  1.00  0.00     0.060 A 
BRANCH  70  71
ATOM     71  S   UNL A   1      47.108  37.274  28.492  1.00  0.00     0.124 S 
ATOM     72  O   UNL A   1      45.812  37.879  28.194  1.00  0.00    -0.237 OA
ATOM     73  O   UNL A   1      47.542  37.357  29.882  1.00  0.00    -0.237 OA
ATOM     74  O   UNL A   1      48.150  37.504  27.497  1.00  0.00    -0.744 OA
ENDBRANCH  70  71
ENDBRANCH  49  63
BRANCH  50  75
ATOM     75  C   UNL A   1      43.525  23.221  26.738  1.00  0.00     0.058 A 
ATOM     76  C   UNL A   1      43.178  22.394  27.816  1.00  0.00     0.135 A 
ATOM     77  C   UNL A   1      43.481  22.665  25.450  1.00  0.00     0.135 A 
ATOM     78  F   UNL A   1      43.210  22.875  29.069  1.00  0.00    -0.206 F 
ATOM     79  C   UNL A   1      42.821  21.061  27.629  1.00  0.00     0.059 A 
ATOM     80  C   UNL A   1      43.100  21.345  25.234  1.00  0.00     0.059 A 
ATOM     81  F   UNL A   1      43.787  23.417  24.381  1.00  0.00    -0.206 F 
ATOM     82  C   UNL A   1      42.782  20.547  26.333  1.00  0.00     0.060 A 
BRANCH  82  83
ATOM     83  S   UNL A   1      42.272  18.830  26.098  1.00  0.00     0.124 S 
ATOM     84  O   UNL A   1      42.545  18.260  27.412  1.00  0.00    -0.237 OA
ATOM     85  O   UNL A   1      40.865  18.976  25.744  1.00  0.00    -0.237 OA
ATOM     86  O   UNL A   1      43.139  18.368  25.018  1.00  0.00    -0.744 OA
ENDBRANCH  82  83
ENDBRANCH  50  75
BRANCH  62  87
ATOM     87  C   UNL A   1      49.610  26.630  26.468  1.00  0.00     0.058 A 
ATOM     88  C   UNL A   1      50.402  26.065  27.481  1.00  0.00     0.135 A 
ATOM     89  C   UNL A   1      50.162  26.721  25.180  1.00  0.00     0.135 A 
ATOM     90  F   UNL A   1      49.926  25.958  28.731  1.00  0.00    -0.206 F 
ATOM     91  C   UNL A   1      51.702  25.637  27.232  1.00  0.00     0.059 A 
ATOM     92  C   UNL A   1      51.448  26.269  24.901  1.00  0.00     0.059 A 
ATOM     93  F   UNL A   1      49.444  27.241  24.171  1.00  0.00    -0.206 F 
ATOM     94  C   UNL A   1      52.216  25.743  25.938  1.00  0.00     0.060 A 
BRANCH  94  95
ATOM     95  S   UNL A   1      53.896  25.160  25.624  1.00  0.00     0.124 S 
ATOM     96  O   UNL A   1      54.606  25.672  26.792  1.00  0.00    -0.237 OA
ATOM     97  O   UNL A   1      53.720  23.712  25.574  1.00  0.00    -0.237 OA
ATOM     98  O   UNL A   1      54.242  25.789  24.353  1.00  0.00    -0.744 OA
ENDBRANCH  94  95
ENDBRANCH  62  87
ENDBRANCH  36  37
ENDBRANCH  28  31
ENDBRANCH  26  27
ENDBRANCH  25  26
ENDBRANCH   1  25
TORSDOF 19
ENDMDL
MODEL 3
REMARK VINA RESULT:     -10.6      4.865     10.376
REMARK SMILES CC[NH2+]C(C)(C)C(=O)N[C@@](C)(C(=O)NCCCCNC(=O)c1ccc(-c2c3nc(c(-c4c(F)cc(S(=O)(=O)[O-])cc4F)c4ccc([nH]4)c(-c4c(F)cc(S(=O)(=O)[O-])cc4F)c4nc(c(-c5c(F)cc(S(=O)(=O)[O-])cc5F)c5ccc2[nH]5)C=C4)C=C3)cc1)C(F)(F)F
REMARK SMILES IDX 16 1 15 2 14 3 12 4 13 5 10 7 11 8 9 9 7 10 8 11 4 13 5 14
REMARK SMILES IDX 6 15 3 16 2 19 1 20 88 21 89 22 90 23 91 24 17 25 18 26
REMARK SMILES IDX 19 27 20 28 21 30 22 31 23 32 87 33 24 34 86 35 25 36 26 37
REMARK SMILES IDX 27 38 80 39 28 40 85 41 79 42 81 43 29 44 84 45 78 46 77 47
REMARK SMILES IDX 30 49 64 50 43 51 63 52 44 53 47 54 62 55 82 56 45 57 46 58
REMARK SMILES IDX 61 60 83 61 48 62 31 63 32 64 41 65 33 66 34 67 40 68 42 69
REMARK SMILES IDX 35 70 36 71 37 72 38 73 39 74 65 75 66 76 75 77 67 78 68 79
REMARK SMILES IDX 74 80 76 81 69 82 70 83 71 84 72 85 73 86 49 87 50 88 59 89
REMARK SMILES IDX 51 90 52 91 58 92 60 93 53 94 54 95 55 96 56 97 57 98
REMARK H PARENT 14 6 9 12 3 17 3 18 19 29 81 48 47 59
REMARK Flexibility Score: inf
ROOT
ATOM      1  C   UNL A   1      31.438  28.546  25.686  1.00  0.00     0.023 C 
ENDROOT
BRANCH   1   2
ATOM      2  C   UNL A   1      31.146  27.717  24.440  1.00  0.00     0.116 C 
BRANCH   2   3
ATOM      3  N   UNL A   1      30.819  26.339  24.765  1.00  0.00    -0.354 N 
ATOM      4  C   UNL A   1      31.291  25.128  24.349  1.00  0.00     0.254 C 
ATOM      5  O   UNL A   1      30.758  24.153  24.887  1.00  0.00    -0.272 OA
ATOM      6  H   UNL A   1      30.099  26.262  25.433  1.00  0.00     0.163 HD
BRANCH   4   7
ATOM      7  C   UNL A   1      32.383  24.970  23.266  1.00  0.00     0.212 C 
ATOM      8  C   UNL A   1      32.158  25.940  22.080  1.00  0.00     0.056 C 
BRANCH   7   9
ATOM      9  N   UNL A   1      32.216  23.552  22.726  1.00  0.00    -0.329 N 
ATOM     10  C   UNL A   1      32.398  22.238  23.030  1.00  0.00     0.281 C 
ATOM     11  O   UNL A   1      31.843  21.475  22.229  1.00  0.00    -0.268 OA
ATOM     12  H   UNL A   1      31.833  23.609  21.821  1.00  0.00     0.165 HD
BRANCH  10  13
ATOM     13  C   UNL A   1      33.246  21.721  24.219  1.00  0.00     0.169 C 
ATOM     14  C   UNL A   1      34.730  21.991  23.943  1.00  0.00     0.090 C 
ATOM     15  C   UNL A   1      32.896  20.227  24.387  1.00  0.00     0.090 C 
BRANCH  13  16
ATOM     16  N   UNL A   1      32.853  22.279  25.548  1.00  0.00    -0.334 N 
ATOM     17  H   UNL A   1      32.278  23.102  25.370  1.00  0.00     0.347 HD
ATOM     18  H   UNL A   1      32.390  21.498  26.017  1.00  0.00     0.347 HD
BRANCH  16  19
ATOM     19  C   UNL A   1      33.903  22.680  26.479  1.00  0.00     0.257 C 
ATOM     20  C   UNL A   1      33.948  21.668  27.620  1.00  0.00     0.071 C 
ENDBRANCH  16  19
ENDBRANCH  13  16
ENDBRANCH  10  13
ENDBRANCH   7   9
BRANCH   7  21
ATOM     21  C   UNL A   1      33.693  25.506  23.929  1.00  0.00     0.420 C 
ATOM     22  F   UNL A   1      34.825  24.869  23.595  1.00  0.00    -0.168 F 
ATOM     23  F   UNL A   1      33.889  26.819  23.649  1.00  0.00    -0.168 F 
ATOM     24  F   UNL A   1      33.605  25.455  25.287  1.00  0.00    -0.168 F 
ENDBRANCH   7  21
ENDBRANCH   4   7
ENDBRANCH   2   3
ENDBRANCH   1   2
BRANCH   1  25
ATOM     25  C   UNL A   1      32.188  27.806  26.793  1.00  0.00     0.023 C 
BRANCH  25  26
ATOM     26  C   UNL A   1      33.531  28.411  27.186  1.00  0.00     0.116 C 
BRANCH  26  27
ATOM     27  N   UNL A   1      33.430  29.808  27.582  1.00  0.00    -0.352 N 
ATOM     28  C   UNL A   1      34.371  30.605  28.186  1.00  0.00     0.251 C 
ATOM     29  H   UNL A   1      32.566  30.241  27.392  1.00  0.00     0.163 HD
ATOM     30  O   UNL A   1      34.060  31.728  28.577  1.00  0.00    -0.269 OA
BRANCH  28  31
ATOM     31  C   UNL A   1      35.743  30.096  28.390  1.00  0.00     0.039 A 
ATOM     32  C   UNL A   1      36.639  30.125  27.320  1.00  0.00     0.014 A 
ATOM     33  C   UNL A   1      36.152  29.616  29.638  1.00  0.00     0.014 A 
ATOM     34  C   UNL A   1      37.965  29.735  27.521  1.00  0.00     0.010 A 
ATOM     35  C   UNL A   1      37.491  29.308  29.856  1.00  0.00     0.010 A 
ATOM     36  C   UNL A   1      38.413  29.360  28.800  1.00  0.00    -0.014 A 
BRANCH  36  37
ATOM     37  C   UNL A   1      39.840  29.026  29.046  1.00  0.00     0.031 A 
ATOM     38  C   UNL A   1      40.774  30.060  29.613  1.00  0.00     0.074 A 
ATOM     39  C   UNL A   1      40.306  27.806  28.706  1.00  0.00     0.049 A 
ATOM     40  N   UNL A   1      42.056  29.967  29.859  1.00  0.00    -0.248 NA
ATOM     41  C   UNL A   1      40.200  31.379  29.921  1.00  0.00     0.031 C 
ATOM     42  C   UNL A   1      39.513  26.737  28.096  1.00  0.00     0.029 A 
ATOM     43  N   UNL A   1      41.560  27.262  28.820  1.00  0.00    -0.354 N 
ATOM     44  C   UNL A   1      42.441  31.213  30.340  1.00  0.00     0.074 A 
ATOM     45  C   UNL A   1      41.272  32.063  30.294  1.00  0.00     0.031 C 
ATOM     46  C   UNL A   1      40.291  25.657  27.917  1.00  0.00     0.029 A 
ATOM     47  C   UNL A   1      41.647  25.968  28.360  1.00  0.00     0.049 A 
ATOM     48  H   UNL A   1      42.328  27.750  29.196  1.00  0.00     0.167 HD
ATOM     49  C   UNL A   1      43.651  31.606  30.805  1.00  0.00     0.037 A 
ATOM     50  C   UNL A   1      42.698  25.128  28.296  1.00  0.00     0.037 A 
ATOM     51  C   UNL A   1      44.807  30.749  30.866  1.00  0.00     0.049 A 
ATOM     52  C   UNL A   1      44.034  25.589  28.812  1.00  0.00     0.074 A 
ATOM     53  C   UNL A   1      46.064  31.034  31.369  1.00  0.00     0.029 A 
ATOM     54  N   UNL A   1      44.851  29.440  30.404  1.00  0.00    -0.354 N 
ATOM     55  N   UNL A   1      44.364  26.749  29.330  1.00  0.00    -0.248 NA
ATOM     56  C   UNL A   1      45.141  24.625  28.747  1.00  0.00     0.031 C 
ATOM     57  C   UNL A   1      46.882  29.917  31.165  1.00  0.00     0.029 A 
ATOM     58  C   UNL A   1      46.119  28.914  30.590  1.00  0.00     0.049 A 
ATOM     59  H   UNL A   1      44.091  28.957  30.005  1.00  0.00     0.167 HD
ATOM     60  C   UNL A   1      45.706  26.644  29.677  1.00  0.00     0.074 A 
ATOM     61  C   UNL A   1      46.122  25.302  29.326  1.00  0.00     0.031 C 
ATOM     62  C   UNL A   1      46.520  27.573  30.239  1.00  0.00     0.037 A 
BRANCH  49  63
ATOM     63  C   UNL A   1      43.787  33.025  31.290  1.00  0.00     0.058 A 
ATOM     64  C   UNL A   1      43.624  33.362  32.645  1.00  0.00     0.135 A 
ATOM     65  C   UNL A   1      44.120  34.057  30.398  1.00  0.00     0.135 A 
ATOM     66  F   UNL A   1      43.289  32.419  33.540  1.00  0.00    -0.206 F 
ATOM     67  C   UNL A   1      43.754  34.672  33.090  1.00  0.00     0.059 A 
ATOM     68  C   UNL A   1      44.288  35.370  30.827  1.00  0.00     0.059 A 
ATOM     69  F   UNL A   1      44.289  33.794  29.092  1.00  0.00    -0.206 F 
ATOM     70  C   UNL A   1      44.087  35.671  32.174  1.00  0.00     0.060 A 
BRANCH  70  71
ATOM     71  S   UNL A   1      44.258  37.365  32.772  1.00  0.00     0.124 S 
ATOM     72  O   UNL A   1      43.098  37.481  33.652  1.00  0.00    -0.237 OA
ATOM     73  O   UNL A   1      45.557  37.331  33.437  1.00  0.00    -0.237 OA
ATOM     74  O   UNL A   1      44.202  38.165  31.553  1.00  0.00    -0.744 OA
ENDBRANCH  70  71
ENDBRANCH  49  63
BRANCH  50  75
ATOM     75  C   UNL A   1      42.524  23.759  27.740  1.00  0.00     0.058 A 
ATOM     76  C   UNL A   1      42.411  22.644  28.584  1.00  0.00     0.135 A 
ATOM     77  C   UNL A   1      42.459  23.537  26.355  1.00  0.00     0.135 A 
ATOM     78  F   UNL A   1      42.474  22.801  29.915  1.00  0.00    -0.206 F 
ATOM     79  C   UNL A   1      42.259  21.356  28.077  1.00  0.00     0.059 A 
ATOM     80  C   UNL A   1      42.278  22.264  25.825  1.00  0.00     0.059 A 
ATOM     81  F   UNL A   1      42.545  24.571  25.503  1.00  0.00    -0.206 F 
ATOM     82  C   UNL A   1      42.190  21.177  26.694  1.00  0.00     0.060 A 
BRANCH  82  83
ATOM     83  S   UNL A   1      41.946  19.509  26.049  1.00  0.00     0.124 S 
ATOM     84  O   UNL A   1      42.805  19.521  24.870  1.00  0.00    -0.237 OA
ATOM     85  O   UNL A   1      42.399  18.682  27.162  1.00  0.00    -0.237 OA
ATOM     86  O   UNL A   1      40.511  19.459  25.784  1.00  0.00    -0.744 OA
ENDBRANCH  82  83
ENDBRANCH  50  75
BRANCH  62  87
ATOM     87  C   UNL A   1      47.935  27.161  30.545  1.00  0.00     0.058 A 
ATOM     88  C   UNL A   1      49.003  27.492  29.697  1.00  0.00     0.135 A 
ATOM     89  C   UNL A   1      48.229  26.462  31.726  1.00  0.00     0.135 A 
ATOM     90  F   UNL A   1      48.778  28.156  28.552  1.00  0.00    -0.206 F 
ATOM     91  C   UNL A   1      50.309  27.117  29.994  1.00  0.00     0.059 A 
ATOM     92  C   UNL A   1      49.532  26.105  32.060  1.00  0.00     0.059 A 
ATOM     93  F   UNL A   1      47.247  26.131  32.580  1.00  0.00    -0.206 F 
ATOM     94  C   UNL A   1      50.563  26.423  31.179  1.00  0.00     0.060 A 
BRANCH  94  95
ATOM     95  S   UNL A   1      52.267  25.964  31.564  1.00  0.00     0.124 S 
ATOM     96  O   UNL A   1      52.649  27.015  32.502  1.00  0.00    -0.237 OA
ATOM     97  O   UNL A   1      52.108  24.631  32.137  1.00  0.00    -0.237 OA
ATOM     98  O   UNL A   1      52.933  26.008  30.267  1.00  0.00    -0.744 OA
ENDBRANCH  94  95
ENDBRANCH  62  87
ENDBRANCH  36  37
ENDBRANCH  28  31
ENDBRANCH  26  27
ENDBRANCH  25  26
ENDBRANCH   1  25
TORSDOF 19
ENDMDL
