MODEL 1
REMARK VINA RESULT:     -13.2      0.000      0.000
REMARK SMILES CCc1cc(C(=O)c2[nH]c3cc(Cl)ccc3c2CC(=O)NCCCCNC(=O)c2ccc(-c3c4nc(c(-c5c(F)cc(S(=O)(=O)[O-])cc5F)c5ccc([nH]5)c(-c5c(F)cc(S(=O)(=O)[O-])cc5F)c5nc(c(-c6c(F)cc(S(=O)(=O)[O-])cc6F)c6ccc3[nH]6)C=C5)C=C4)cc2)ncc1Cl
REMARK SMILES IDX 23 1 22 2 21 3 19 4 20 5 18 7 17 8 8 9 9 10 10 11 16 13
REMARK SMILES IDX 11 14 15 15 12 16 14 17 13 18 6 19 7 20 5 21 3 22 4 23 97 24
REMARK SMILES IDX 96 25 98 26 95 27 2 28 1 29 24 30 25 31 26 32 27 33 28 35
REMARK SMILES IDX 29 36 30 37 94 38 31 39 93 40 32 41 33 42 34 43 87 44 35 45
REMARK SMILES IDX 92 46 86 47 88 48 36 49 91 50 85 51 84 52 37 54 71 55 50 56
REMARK SMILES IDX 70 57 51 58 54 59 69 60 89 61 52 62 53 63 68 65 90 66 55 67
REMARK SMILES IDX 38 68 39 69 48 70 40 71 41 72 47 73 49 74 42 75 43 76 44 77
REMARK SMILES IDX 45 78 46 79 72 80 73 81 82 82 74 83 75 84 81 85 83 86 76 87
REMARK SMILES IDX 77 88 78 89 79 90 80 91 56 92 57 93 66 94 58 95 59 96 65 97
REMARK SMILES IDX 67 98 60 99 61 100 62 101 63 102 64 103
REMARK H PARENT 21 6 9 12 26 34 88 53 54 64
REMARK Flexibility Score: inf
ROOT
ATOM      1  C   UNL A   1      32.772  28.547  27.361  1.00  0.00     0.023 C 
ENDROOT
BRANCH   1   2
ATOM      2  C   UNL A   1      32.652  27.435  26.323  1.00  0.00     0.116 C 
BRANCH   2   3
ATOM      3  N   UNL A   1      31.736  26.384  26.713  1.00  0.00    -0.356 N 
ATOM      4  C   UNL A   1      31.859  25.032  26.568  1.00  0.00     0.224 C 
ATOM      5  O   UNL A   1      31.069  24.310  27.181  1.00  0.00    -0.275 OA
ATOM      6  H   UNL A   1      30.905  26.689  27.144  1.00  0.00     0.163 HD
BRANCH   4   7
ATOM      7  C   UNL A   1      33.019  24.426  25.793  1.00  0.00     0.138 C 
BRANCH   7   8
ATOM      8  C   UNL A   1      32.677  23.811  24.463  1.00  0.00    -0.002 A 
ATOM      9  C   UNL A   1      32.324  24.469  23.286  1.00  0.00     0.093 A 
ATOM     10  N   UNL A   1      32.163  23.507  22.314  1.00  0.00    -0.351 N 
ATOM     11  C   UNL A   1      32.261  22.248  22.849  1.00  0.00     0.048 A 
ATOM     12  H   UNL A   1      32.000  23.697  21.361  1.00  0.00     0.167 HD
ATOM     13  C   UNL A   1      32.574  22.401  24.198  1.00  0.00     0.004 A 
ATOM     14  C   UNL A   1      32.113  20.996  22.237  1.00  0.00     0.047 A 
ATOM     15  C   UNL A   1      32.737  21.239  24.982  1.00  0.00     0.012 A 
ATOM     16  C   UNL A   1      32.280  19.866  23.040  1.00  0.00     0.043 A 
ATOM     17  C   UNL A   1      32.587  19.977  24.392  1.00  0.00     0.021 A 
ATOM     18  Cl  UNL A   1      32.099  18.303  22.338  1.00  0.00    -0.084 Cl
BRANCH   9  19
ATOM     19  C   UNL A   1      32.203  25.896  23.023  1.00  0.00     0.227 C 
ATOM     20  O   UNL A   1      33.165  26.574  22.680  1.00  0.00    -0.285 OA
BRANCH  19  21
ATOM     21  C   UNL A   1      30.848  26.541  23.175  1.00  0.00     0.113 A 
ATOM     22  C   UNL A   1      29.323  28.408  22.878  1.00  0.00    -0.026 A 
ATOM     23  C   UNL A   1      30.594  27.831  22.701  1.00  0.00     0.037 A 
ATOM     24  C   UNL A   1      28.330  27.612  23.473  1.00  0.00     0.062 A 
ATOM     25  C   UNL A   1      28.664  26.333  23.900  1.00  0.00     0.132 A 
ATOM     26  Cl  UNL A   1      26.706  28.152  23.680  1.00  0.00    -0.082 Cl
ATOM     27  N   UNL A   1      29.898  25.791  23.782  1.00  0.00    -0.251 NA
BRANCH  22  28
ATOM     28  C   UNL A   1      29.011  29.809  22.396  1.00  0.00     0.034 C 
ATOM     29  C   UNL A   1      29.045  30.910  23.452  1.00  0.00     0.009 C 
ENDBRANCH  22  28
ENDBRANCH  19  21
ENDBRANCH   9  19
ENDBRANCH   7   8
ENDBRANCH   4   7
ENDBRANCH   2   3
ENDBRANCH   1   2
BRANCH   1  30
ATOM     30  C   UNL A   1      33.803  29.637  27.051  1.00  0.00     0.023 C 
BRANCH  30  31
ATOM     31  C   UNL A   1      35.132  29.542  27.797  1.00  0.00     0.116 C 
BRANCH  31  32
ATOM     32  N   UNL A   1      35.164  30.334  29.014  1.00  0.00    -0.352 N 
ATOM     33  C   UNL A   1      36.207  30.606  29.863  1.00  0.00     0.251 C 
ATOM     34  H   UNL A   1      34.303  30.738  29.270  1.00  0.00     0.163 HD
ATOM     35  O   UNL A   1      35.987  31.238  30.893  1.00  0.00    -0.269 OA
BRANCH  33  36
ATOM     36  C   UNL A   1      37.577  30.123  29.574  1.00  0.00     0.039 A 
ATOM     37  C   UNL A   1      38.001  30.111  28.240  1.00  0.00     0.014 A 
ATOM     38  C   UNL A   1      38.426  29.643  30.577  1.00  0.00     0.014 A 
ATOM     39  C   UNL A   1      39.288  29.676  27.916  1.00  0.00     0.010 A 
ATOM     40  C   UNL A   1      39.721  29.232  30.257  1.00  0.00     0.010 A 
ATOM     41  C   UNL A   1      40.163  29.252  28.926  1.00  0.00    -0.014 A 
BRANCH  41  42
ATOM     42  C   UNL A   1      41.548  28.839  28.602  1.00  0.00     0.031 A 
ATOM     43  C   UNL A   1      42.667  29.835  28.638  1.00  0.00     0.074 A 
ATOM     44  C   UNL A   1      41.792  27.569  28.234  1.00  0.00     0.049 A 
ATOM     45  N   UNL A   1      43.917  29.683  28.282  1.00  0.00    -0.248 NA
ATOM     46  C   UNL A   1      42.335  31.181  29.126  1.00  0.00     0.031 C 
ATOM     47  C   UNL A   1      40.787  26.509  28.137  1.00  0.00     0.029 A 
ATOM     48  N   UNL A   1      42.962  26.956  27.867  1.00  0.00    -0.354 N 
ATOM     49  C   UNL A   1      44.512  30.923  28.458  1.00  0.00     0.074 A 
ATOM     50  C   UNL A   1      43.493  31.810  28.982  1.00  0.00     0.031 C 
ATOM     51  C   UNL A   1      41.386  25.373  27.749  1.00  0.00     0.029 A 
ATOM     52  C   UNL A   1      42.811  25.629  27.553  1.00  0.00     0.049 A 
ATOM     53  H   UNL A   1      43.827  27.424  27.831  1.00  0.00     0.167 HD
ATOM     54  C   UNL A   1      45.788  31.294  28.194  1.00  0.00     0.037 A 
ATOM     55  C   UNL A   1      43.718  24.721  27.148  1.00  0.00     0.037 A 
ATOM     56  C   UNL A   1      46.814  30.412  27.709  1.00  0.00     0.049 A 
ATOM     57  C   UNL A   1      45.150  25.126  26.975  1.00  0.00     0.074 A 
ATOM     58  C   UNL A   1      48.128  30.704  27.387  1.00  0.00     0.029 A 
ATOM     59  N   UNL A   1      46.644  29.052  27.498  1.00  0.00    -0.354 N 
ATOM     60  N   UNL A   1      45.690  26.312  27.111  1.00  0.00    -0.248 NA
ATOM     61  C   UNL A   1      46.097  24.068  26.594  1.00  0.00     0.031 C 
ATOM     62  C   UNL A   1      48.758  29.514  26.994  1.00  0.00     0.029 A 
ATOM     63  C   UNL A   1      47.834  28.485  27.072  1.00  0.00     0.049 A 
ATOM     64  H   UNL A   1      45.801  28.561  27.631  1.00  0.00     0.167 HD
ATOM     65  C   UNL A   1      47.037  26.150  26.819  1.00  0.00     0.074 A 
ATOM     66  C   UNL A   1      47.236  24.745  26.517  1.00  0.00     0.031 C 
ATOM     67  C   UNL A   1      48.018  27.085  26.792  1.00  0.00     0.037 A 
BRANCH  54  68
ATOM     68  C   UNL A   1      46.115  32.740  28.409  1.00  0.00     0.058 A 
ATOM     69  C   UNL A   1      45.966  33.682  27.380  1.00  0.00     0.135 A 
ATOM     70  C   UNL A   1      46.631  33.175  29.638  1.00  0.00     0.135 A 
ATOM     71  F   UNL A   1      45.496  33.305  26.182  1.00  0.00    -0.206 F 
ATOM     72  C   UNL A   1      46.346  35.009  27.555  1.00  0.00     0.059 A 
ATOM     73  C   UNL A   1      47.014  34.497  29.836  1.00  0.00     0.059 A 
ATOM     74  F   UNL A   1      46.803  32.305  30.646  1.00  0.00    -0.206 F 
ATOM     75  C   UNL A   1      46.887  35.402  28.781  1.00  0.00     0.060 A 
BRANCH  75  76
ATOM     76  S   UNL A   1      47.446  37.103  29.017  1.00  0.00     0.124 S 
ATOM     77  O   UNL A   1      48.617  37.145  28.147  1.00  0.00    -0.237 OA
ATOM     78  O   UNL A   1      46.303  37.894  28.573  1.00  0.00    -0.237 OA
ATOM     79  O   UNL A   1      47.719  37.156  30.450  1.00  0.00    -0.744 OA
ENDBRANCH  75  76
ENDBRANCH  54  68
BRANCH  55  80
ATOM     80  C   UNL A   1      43.280  23.330  26.893  1.00  0.00     0.058 A 
ATOM     81  C   UNL A   1      43.205  22.836  25.585  1.00  0.00     0.135 A 
ATOM     82  C   UNL A   1      42.999  22.457  27.951  1.00  0.00     0.135 A 
ATOM     83  F   UNL A   1      43.472  23.643  24.546  1.00  0.00    -0.206 F 
ATOM     84  C   UNL A   1      42.876  21.510  25.329  1.00  0.00     0.059 A 
ATOM     85  C   UNL A   1      42.671  21.125  27.721  1.00  0.00     0.059 A 
ATOM     86  F   UNL A   1      43.069  22.890  29.219  1.00  0.00    -0.206 F 
ATOM     87  C   UNL A   1      42.613  20.661  26.405  1.00  0.00     0.060 A 
BRANCH  87  88
ATOM     88  S   UNL A   1      42.282  18.911  26.102  1.00  0.00     0.124 S 
ATOM     89  O   UNL A   1      43.201  18.624  25.008  1.00  0.00    -0.237 OA
ATOM     90  O   UNL A   1      42.605  18.290  27.383  1.00  0.00    -0.237 OA
ATOM     91  O   UNL A   1      40.862  18.911  25.759  1.00  0.00    -0.744 OA
ENDBRANCH  87  88
ENDBRANCH  55  80
BRANCH  67  92
ATOM     92  C   UNL A   1      49.391  26.609  26.428  1.00  0.00     0.058 A 
ATOM     93  C   UNL A   1      49.888  26.770  25.126  1.00  0.00     0.135 A 
ATOM     94  C   UNL A   1      50.216  25.999  27.382  1.00  0.00     0.135 A 
ATOM     95  F   UNL A   1      49.129  27.345  24.180  1.00  0.00    -0.206 F 
ATOM     96  C   UNL A   1      51.160  26.330  24.778  1.00  0.00     0.059 A 
ATOM     97  C   UNL A   1      51.491  25.549  27.055  1.00  0.00     0.059 A 
ATOM     98  F   UNL A   1      49.779  25.820  28.638  1.00  0.00    -0.206 F 
ATOM     99  C   UNL A   1      51.951  25.711  25.747  1.00  0.00     0.060 A 
BRANCH  99 100
ATOM    100  S   UNL A   1      53.609  25.140  25.313  1.00  0.00     0.124 S 
ATOM    101  O   UNL A   1      53.460  23.693  25.430  1.00  0.00    -0.237 OA
ATOM    102  O   UNL A   1      53.789  25.649  23.957  1.00  0.00    -0.237 OA
ATOM    103  O   UNL A   1      54.447  25.774  26.327  1.00  0.00    -0.744 OA
ENDBRANCH  99 100
ENDBRANCH  67  92
ENDBRANCH  41  42
ENDBRANCH  33  36
ENDBRANCH  31  32
ENDBRANCH  30  31
ENDBRANCH   1  30
TORSDOF 18
ENDMDL
MODEL 2
REMARK VINA RESULT:     -13.0      1.323      2.094
REMARK SMILES CCc1cc(C(=O)c2[nH]c3cc(Cl)ccc3c2CC(=O)NCCCCNC(=O)c2ccc(-c3c4nc(c(-c5c(F)cc(S(=O)(=O)[O-])cc5F)c5ccc([nH]5)c(-c5c(F)cc(S(=O)(=O)[O-])cc5F)c5nc(c(-c6c(F)cc(S(=O)(=O)[O-])cc6F)c6ccc3[nH]6)C=C5)C=C4)cc2)ncc1Cl
REMARK SMILES IDX 23 1 22 2 21 3 19 4 20 5 18 7 17 8 8 9 9 10 10 11 16 13
REMARK SMILES IDX 11 14 15 15 12 16 14 17 13 18 6 19 7 20 5 21 3 22 4 23 97 24
REMARK SMILES IDX 96 25 98 26 95 27 2 28 1 29 24 30 25 31 26 32 27 33 28 35
REMARK SMILES IDX 29 36 30 37 94 38 31 39 93 40 32 41 33 42 34 43 87 44 35 45
REMARK SMILES IDX 92 46 86 47 88 48 36 49 91 50 85 51 84 52 37 54 71 55 50 56
REMARK SMILES IDX 70 57 51 58 54 59 69 60 89 61 52 62 53 63 68 65 90 66 55 67
REMARK SMILES IDX 38 68 39 69 48 70 40 71 41 72 47 73 49 74 42 75 43 76 44 77
REMARK SMILES IDX 45 78 46 79 72 80 73 81 82 82 74 83 75 84 81 85 83 86 76 87
REMARK SMILES IDX 77 88 78 89 79 90 80 91 56 92 57 93 66 94 58 95 59 96 65 97
REMARK SMILES IDX 67 98 60 99 61 100 62 101 63 102 64 103
REMARK H PARENT 21 6 9 12 26 34 88 53 54 64
REMARK Flexibility Score: inf
ROOT
ATOM      1  C   UNL A   1      33.377  27.942  25.486  1.00  0.00     0.023 C 
ENDROOT
BRANCH   1   2
ATOM      2  C   UNL A   1      33.822  26.586  26.026  1.00  0.00     0.116 C 
BRANCH   2   3
ATOM      3  N   UNL A   1      34.543  25.792  25.056  1.00  0.00    -0.356 N 
ATOM      4  C   UNL A   1      34.756  24.443  25.028  1.00  0.00     0.224 C 
ATOM      5  O   UNL A   1      35.195  23.947  23.987  1.00  0.00    -0.275 OA
ATOM      6  H   UNL A   1      34.938  26.296  24.308  1.00  0.00     0.163 HD
BRANCH   4   7
ATOM      7  C   UNL A   1      34.330  23.556  26.188  1.00  0.00     0.138 C 
BRANCH   7   8
ATOM      8  C   UNL A   1      33.459  22.380  25.835  1.00  0.00    -0.002 A 
ATOM      9  C   UNL A   1      32.072  22.286  25.942  1.00  0.00     0.093 A 
ATOM     10  N   UNL A   1      31.709  21.053  25.446  1.00  0.00    -0.351 N 
ATOM     11  C   UNL A   1      32.814  20.296  25.156  1.00  0.00     0.048 A 
ATOM     12  H   UNL A   1      30.779  20.755  25.318  1.00  0.00     0.167 HD
ATOM     13  C   UNL A   1      33.931  21.094  25.397  1.00  0.00     0.004 A 
ATOM     14  C   UNL A   1      32.905  18.979  24.685  1.00  0.00     0.047 A 
ATOM     15  C   UNL A   1      35.209  20.542  25.165  1.00  0.00     0.012 A 
ATOM     16  C   UNL A   1      34.184  18.463  24.466  1.00  0.00     0.043 A 
ATOM     17  C   UNL A   1      35.323  19.226  24.701  1.00  0.00     0.021 A 
ATOM     18  Cl  UNL A   1      34.350  16.845  23.897  1.00  0.00    -0.084 Cl
BRANCH   9  19
ATOM     19  C   UNL A   1      31.109  23.276  26.399  1.00  0.00     0.227 C 
ATOM     20  O   UNL A   1      30.517  23.158  27.466  1.00  0.00    -0.285 OA
BRANCH  19  21
ATOM     21  C   UNL A   1      30.846  24.479  25.526  1.00  0.00     0.113 A 
ATOM     22  C   UNL A   1      31.032  25.673  23.419  1.00  0.00    -0.026 A 
ATOM     23  C   UNL A   1      31.278  24.527  24.198  1.00  0.00     0.037 A 
ATOM     24  C   UNL A   1      30.285  26.705  24.009  1.00  0.00     0.062 A 
ATOM     25  C   UNL A   1      29.880  26.568  25.331  1.00  0.00     0.132 A 
ATOM     26  Cl  UNL A   1      29.834  28.133  23.154  1.00  0.00    -0.082 Cl
ATOM     27  N   UNL A   1      30.158  25.493  26.103  1.00  0.00    -0.251 NA
BRANCH  22  28
ATOM     28  C   UNL A   1      31.499  25.774  21.982  1.00  0.00     0.034 C 
ATOM     29  C   UNL A   1      32.997  25.609  21.745  1.00  0.00     0.009 C 
ENDBRANCH  22  28
ENDBRANCH  19  21
ENDBRANCH   9  19
ENDBRANCH   7   8
ENDBRANCH   4   7
ENDBRANCH   2   3
ENDBRANCH   1   2
BRANCH   1  30
ATOM     30  C   UNL A   1      33.826  29.161  26.299  1.00  0.00     0.023 C 
BRANCH  30  31
ATOM     31  C   UNL A   1      34.921  28.917  27.335  1.00  0.00     0.116 C 
BRANCH  31  32
ATOM     32  N   UNL A   1      34.894  29.868  28.432  1.00  0.00    -0.352 N 
ATOM     33  C   UNL A   1      35.906  30.297  29.253  1.00  0.00     0.251 C 
ATOM     34  H   UNL A   1      34.013  30.267  28.615  1.00  0.00     0.163 HD
ATOM     35  O   UNL A   1      35.638  31.054  30.183  1.00  0.00    -0.269 OA
BRANCH  33  36
ATOM     36  C   UNL A   1      37.300  29.837  29.058  1.00  0.00     0.039 A 
ATOM     37  C   UNL A   1      37.835  29.894  27.765  1.00  0.00     0.014 A 
ATOM     38  C   UNL A   1      38.067  29.312  30.103  1.00  0.00     0.014 A 
ATOM     39  C   UNL A   1      39.148  29.484  27.529  1.00  0.00     0.010 A 
ATOM     40  C   UNL A   1      39.388  28.925  29.873  1.00  0.00     0.010 A 
ATOM     41  C   UNL A   1      39.939  29.015  28.586  1.00  0.00    -0.014 A 
BRANCH  41  42
ATOM     42  C   UNL A   1      41.351  28.626  28.360  1.00  0.00     0.031 A 
ATOM     43  C   UNL A   1      42.445  29.647  28.450  1.00  0.00     0.074 A 
ATOM     44  C   UNL A   1      41.645  27.356  28.033  1.00  0.00     0.049 A 
ATOM     45  N   UNL A   1      43.717  29.516  28.178  1.00  0.00    -0.248 NA
ATOM     46  C   UNL A   1      42.054  30.994  28.890  1.00  0.00     0.031 C 
ATOM     47  C   UNL A   1      40.670  26.273  27.891  1.00  0.00     0.029 A 
ATOM     48  N   UNL A   1      42.848  26.762  27.753  1.00  0.00    -0.354 N 
ATOM     49  C   UNL A   1      44.275  30.772  28.368  1.00  0.00     0.074 A 
ATOM     50  C   UNL A   1      43.205  31.646  28.808  1.00  0.00     0.031 C 
ATOM     51  C   UNL A   1      41.316  25.143  27.563  1.00  0.00     0.029 A 
ATOM     52  C   UNL A   1      42.745  25.427  27.456  1.00  0.00     0.049 A 
ATOM     53  H   UNL A   1      43.704  27.249  27.764  1.00  0.00     0.167 HD
ATOM     54  C   UNL A   1      45.557  31.166  28.179  1.00  0.00     0.037 A 
ATOM     55  C   UNL A   1      43.695  24.532  27.127  1.00  0.00     0.037 A 
ATOM     56  C   UNL A   1      46.630  30.299  27.779  1.00  0.00     0.049 A 
ATOM     57  C   UNL A   1      45.127  24.965  27.039  1.00  0.00     0.074 A 
ATOM     58  C   UNL A   1      47.956  30.613  27.536  1.00  0.00     0.029 A 
ATOM     59  N   UNL A   1      46.503  28.931  27.582  1.00  0.00    -0.354 N 
ATOM     60  N   UNL A   1      45.632  26.165  27.186  1.00  0.00    -0.248 NA
ATOM     61  C   UNL A   1      46.118  23.922  26.739  1.00  0.00     0.031 C 
ATOM     62  C   UNL A   1      48.635  29.431  27.207  1.00  0.00     0.029 A 
ATOM     63  C   UNL A   1      47.728  28.384  27.244  1.00  0.00     0.049 A 
ATOM     64  H   UNL A   1      45.663  28.424  27.671  1.00  0.00     0.167 HD
ATOM     65  C   UNL A   1      46.999  26.027  26.985  1.00  0.00     0.074 A 
ATOM     66  C   UNL A   1      47.245  24.622  26.722  1.00  0.00     0.031 C 
ATOM     67  C   UNL A   1      47.959  26.983  27.003  1.00  0.00     0.037 A 
BRANCH  54  68
ATOM     68  C   UNL A   1      45.840  32.622  28.388  1.00  0.00     0.058 A 
ATOM     69  C   UNL A   1      46.218  33.119  29.644  1.00  0.00     0.135 A 
ATOM     70  C   UNL A   1      45.681  33.534  27.334  1.00  0.00     0.135 A 
ATOM     71  F   UNL A   1      46.360  32.284  30.685  1.00  0.00    -0.206 F 
ATOM     72  C   UNL A   1      46.402  34.481  29.858  1.00  0.00     0.059 A 
ATOM     73  C   UNL A   1      45.864  34.899  27.524  1.00  0.00     0.059 A 
ATOM     74  F   UNL A   1      45.308  33.104  26.119  1.00  0.00    -0.206 F 
ATOM     75  C   UNL A   1      46.205  35.365  28.795  1.00  0.00     0.060 A 
BRANCH  75  76
ATOM     76  S   UNL A   1      46.377  37.143  29.056  1.00  0.00     0.124 S 
ATOM     77  O   UNL A   1      46.377  37.638  27.682  1.00  0.00    -0.237 OA
ATOM     78  O   UNL A   1      45.196  37.480  29.846  1.00  0.00    -0.237 OA
ATOM     79  O   UNL A   1      47.648  37.244  29.765  1.00  0.00    -0.744 OA
ENDBRANCH  75  76
ENDBRANCH  54  68
BRANCH  55  80
ATOM     80  C   UNL A   1      43.304  23.128  26.870  1.00  0.00     0.058 A 
ATOM     81  C   UNL A   1      43.315  22.612  25.568  1.00  0.00     0.135 A 
ATOM     82  C   UNL A   1      42.983  22.264  27.925  1.00  0.00     0.135 A 
ATOM     83  F   UNL A   1      43.623  23.410  24.533  1.00  0.00    -0.206 F 
ATOM     84  C   UNL A   1      43.030  21.276  25.316  1.00  0.00     0.059 A 
ATOM     85  C   UNL A   1      42.698  20.923  27.699  1.00  0.00     0.059 A 
ATOM     86  F   UNL A   1      42.970  22.719  29.187  1.00  0.00    -0.206 F 
ATOM     87  C   UNL A   1      42.725  20.437  26.390  1.00  0.00     0.060 A 
BRANCH  87  88
ATOM     88  S   UNL A   1      42.451  18.675  26.097  1.00  0.00     0.124 S 
ATOM     89  O   UNL A   1      43.379  18.412  25.004  1.00  0.00    -0.237 OA
ATOM     90  O   UNL A   1      42.795  18.073  27.381  1.00  0.00    -0.237 OA
ATOM     91  O   UNL A   1      41.032  18.627  25.755  1.00  0.00    -0.744 OA
ENDBRANCH  87  88
ENDBRANCH  55  80
BRANCH  67  92
ATOM     92  C   UNL A   1      49.363  26.531  26.738  1.00  0.00     0.058 A 
ATOM     93  C   UNL A   1      49.861  26.458  25.429  1.00  0.00     0.135 A 
ATOM     94  C   UNL A   1      50.216  26.177  27.792  1.00  0.00     0.135 A 
ATOM     95  F   UNL A   1      49.076  26.784  24.388  1.00  0.00    -0.206 F 
ATOM     96  C   UNL A   1      51.161  26.038  25.171  1.00  0.00     0.059 A 
ATOM     97  C   UNL A   1      51.519  25.752  27.558  1.00  0.00     0.059 A 
ATOM     98  F   UNL A   1      49.778  26.227  29.060  1.00  0.00    -0.206 F 
ATOM     99  C   UNL A   1      51.980  25.677  26.242  1.00  0.00     0.060 A 
BRANCH  99 100
ATOM    100  S   UNL A   1      53.674  25.136  25.926  1.00  0.00     0.124 S 
ATOM    101  O   UNL A   1      53.460  23.780  25.431  1.00  0.00    -0.237 OA
ATOM    102  O   UNL A   1      54.150  26.101  24.939  1.00  0.00    -0.237 OA
ATOM    103  O   UNL A   1      54.300  25.238  27.241  1.00  0.00    -0.744 OA
ENDBRANCH  99 100
ENDBRANCH  67  92
ENDBRANCH  41  42
ENDBRANCH  33  36
ENDBRANCH  31  32
ENDBRANCH  30  31
ENDBRANCH   1  30
TORSDOF 18
ENDMDL
MODEL 3
REMARK VINA RESULT:     -12.9      0.386      1.444
REMARK SMILES CCc1cc(C(=O)c2[nH]c3cc(Cl)ccc3c2CC(=O)NCCCCNC(=O)c2ccc(-c3c4nc(c(-c5c(F)cc(S(=O)(=O)[O-])cc5F)c5ccc([nH]5)c(-c5c(F)cc(S(=O)(=O)[O-])cc5F)c5nc(c(-c6c(F)cc(S(=O)(=O)[O-])cc6F)c6ccc3[nH]6)C=C5)C=C4)cc2)ncc1Cl
REMARK SMILES IDX 23 1 22 2 21 3 19 4 20 5 18 7 17 8 8 9 9 10 10 11 16 13
REMARK SMILES IDX 11 14 15 15 12 16 14 17 13 18 6 19 7 20 5 21 3 22 4 23 97 24
REMARK SMILES IDX 96 25 98 26 95 27 2 28 1 29 24 30 25 31 26 32 27 33 28 35
REMARK SMILES IDX 29 36 30 37 94 38 31 39 93 40 32 41 33 42 34 43 87 44 35 45
REMARK SMILES IDX 92 46 86 47 88 48 36 49 91 50 85 51 84 52 37 54 71 55 50 56
REMARK SMILES IDX 70 57 51 58 54 59 69 60 89 61 52 62 53 63 68 65 90 66 55 67
REMARK SMILES IDX 38 68 39 69 48 70 40 71 41 72 47 73 49 74 42 75 43 76 44 77
REMARK SMILES IDX 45 78 46 79 72 80 73 81 82 82 74 83 75 84 81 85 83 86 76 87
REMARK SMILES IDX 77 88 78 89 79 90 80 91 56 92 57 93 66 94 58 95 59 96 65 97
REMARK SMILES IDX 67 98 60 99 61 100 62 101 63 102 64 103
REMARK H PARENT 21 6 9 12 26 34 88 53 54 64
REMARK Flexibility Score: inf
ROOT
ATOM      1  C   UNL A   1      32.753  28.217  27.281  1.00  0.00     0.023 C 
ENDROOT
BRANCH   1   2
ATOM      2  C   UNL A   1      31.785  27.588  26.283  1.00  0.00     0.116 C 
BRANCH   2   3
ATOM      3  N   UNL A   1      31.208  26.346  26.750  1.00  0.00    -0.356 N 
ATOM      4  C   UNL A   1      31.662  25.068  26.593  1.00  0.00     0.224 C 
ATOM      5  O   UNL A   1      31.141  24.180  27.273  1.00  0.00    -0.275 OA
ATOM      6  H   UNL A   1      30.367  26.436  27.254  1.00  0.00     0.163 HD
BRANCH   4   7
ATOM      7  C   UNL A   1      32.868  24.765  25.718  1.00  0.00     0.138 C 
BRANCH   7   8
ATOM      8  C   UNL A   1      32.582  24.064  24.416  1.00  0.00    -0.002 A 
ATOM      9  C   UNL A   1      32.247  24.644  23.194  1.00  0.00     0.093 A 
ATOM     10  N   UNL A   1      32.140  23.623  22.275  1.00  0.00    -0.351 N 
ATOM     11  C   UNL A   1      32.254  22.400  22.885  1.00  0.00     0.048 A 
ATOM     12  H   UNL A   1      32.000  23.753  21.309  1.00  0.00     0.167 HD
ATOM     13  C   UNL A   1      32.523  22.639  24.232  1.00  0.00     0.004 A 
ATOM     14  C   UNL A   1      32.157  21.111  22.344  1.00  0.00     0.047 A 
ATOM     15  C   UNL A   1      32.693  21.529  25.086  1.00  0.00     0.012 A 
ATOM     16  C   UNL A   1      32.330  20.034  23.216  1.00  0.00     0.043 A 
ATOM     17  C   UNL A   1      32.593  20.231  24.567  1.00  0.00     0.021 A 
ATOM     18  Cl  UNL A   1      32.209  18.429  22.602  1.00  0.00    -0.084 Cl
BRANCH   9  19
ATOM     19  C   UNL A   1      32.097  26.049  22.844  1.00  0.00     0.227 C 
ATOM     20  O   UNL A   1      33.029  26.706  22.394  1.00  0.00    -0.285 OA
BRANCH  19  21
ATOM     21  C   UNL A   1      30.749  26.697  23.041  1.00  0.00     0.113 A 
ATOM     22  C   UNL A   1      29.233  28.583  22.834  1.00  0.00    -0.026 A 
ATOM     23  C   UNL A   1      30.497  28.004  22.616  1.00  0.00     0.037 A 
ATOM     24  C   UNL A   1      28.245  27.774  23.418  1.00  0.00     0.062 A 
ATOM     25  C   UNL A   1      28.577  26.479  23.795  1.00  0.00     0.132 A 
ATOM     26  Cl  UNL A   1      26.628  28.317  23.670  1.00  0.00    -0.082 Cl
ATOM     27  N   UNL A   1      29.804  25.933  23.638  1.00  0.00    -0.251 NA
BRANCH  22  28
ATOM     28  C   UNL A   1      28.923  30.002  22.406  1.00  0.00     0.034 C 
ATOM     29  C   UNL A   1      29.136  31.087  23.457  1.00  0.00     0.009 C 
ENDBRANCH  22  28
ENDBRANCH  19  21
ENDBRANCH   9  19
ENDBRANCH   7   8
ENDBRANCH   4   7
ENDBRANCH   2   3
ENDBRANCH   1   2
BRANCH   1  30
ATOM     30  C   UNL A   1      33.874  29.067  26.674  1.00  0.00     0.023 C 
BRANCH  30  31
ATOM     31  C   UNL A   1      35.198  29.082  27.434  1.00  0.00     0.116 C 
BRANCH  31  32
ATOM     32  N   UNL A   1      35.181  29.953  28.597  1.00  0.00    -0.352 N 
ATOM     33  C   UNL A   1      36.200  30.318  29.440  1.00  0.00     0.251 C 
ATOM     34  H   UNL A   1      34.303  30.340  28.813  1.00  0.00     0.163 HD
ATOM     35  O   UNL A   1      35.940  31.007  30.423  1.00  0.00    -0.269 OA
BRANCH  33  36
ATOM     36  C   UNL A   1      37.591  29.868  29.204  1.00  0.00     0.039 A 
ATOM     37  C   UNL A   1      38.058  29.846  27.884  1.00  0.00     0.014 A 
ATOM     38  C   UNL A   1      38.420  29.429  30.241  1.00  0.00     0.014 A 
ATOM     39  C   UNL A   1      39.365  29.442  27.608  1.00  0.00     0.010 A 
ATOM     40  C   UNL A   1      39.736  29.049  29.968  1.00  0.00     0.010 A 
ATOM     41  C   UNL A   1      40.219  29.059  28.652  1.00  0.00    -0.014 A 
BRANCH  41  42
ATOM     42  C   UNL A   1      41.624  28.679  28.379  1.00  0.00     0.031 A 
ATOM     43  C   UNL A   1      42.710  29.712  28.405  1.00  0.00     0.074 A 
ATOM     44  C   UNL A   1      41.918  27.405  28.067  1.00  0.00     0.049 A 
ATOM     45  N   UNL A   1      43.973  29.587  28.086  1.00  0.00    -0.248 NA
ATOM     46  C   UNL A   1      42.323  31.064  28.832  1.00  0.00     0.031 C 
ATOM     47  C   UNL A   1      40.950  26.310  27.986  1.00  0.00     0.029 A 
ATOM     48  N   UNL A   1      43.116  26.817  27.753  1.00  0.00    -0.354 N 
ATOM     49  C   UNL A   1      44.524  30.852  28.228  1.00  0.00     0.074 A 
ATOM     50  C   UNL A   1      43.464  31.725  28.692  1.00  0.00     0.031 C 
ATOM     51  C   UNL A   1      41.594  25.180  27.657  1.00  0.00     0.029 A 
ATOM     52  C   UNL A   1      43.015  25.475  27.488  1.00  0.00     0.049 A 
ATOM     53  H   UNL A   1      43.967  27.312  27.721  1.00  0.00     0.167 HD
ATOM     54  C   UNL A   1      45.794  31.254  27.982  1.00  0.00     0.037 A 
ATOM     55  C   UNL A   1      43.961  24.582  27.141  1.00  0.00     0.037 A 
ATOM     56  C   UNL A   1      46.860  30.388  27.557  1.00  0.00     0.049 A 
ATOM     57  C   UNL A   1      45.383  25.026  26.988  1.00  0.00     0.074 A 
ATOM     58  C   UNL A   1      48.172  30.710  27.257  1.00  0.00     0.029 A 
ATOM     59  N   UNL A   1      46.738  29.016  27.395  1.00  0.00    -0.354 N 
ATOM     60  N   UNL A   1      45.881  26.234  27.091  1.00  0.00    -0.248 NA
ATOM     61  C   UNL A   1      46.373  23.987  26.672  1.00  0.00     0.031 C 
ATOM     62  C   UNL A   1      48.849  29.528  26.927  1.00  0.00     0.029 A 
ATOM     63  C   UNL A   1      47.956  28.473  27.021  1.00  0.00     0.049 A 
ATOM     64  H   UNL A   1      45.908  28.503  27.526  1.00  0.00     0.167 HD
ATOM     65  C   UNL A   1      47.241  26.105  26.840  1.00  0.00     0.074 A 
ATOM     66  C   UNL A   1      47.491  24.697  26.597  1.00  0.00     0.031 C 
ATOM     67  C   UNL A   1      48.192  27.069  26.800  1.00  0.00     0.037 A 
BRANCH  54  68
ATOM     68  C   UNL A   1      46.070  32.717  28.149  1.00  0.00     0.058 A 
ATOM     69  C   UNL A   1      46.491  33.244  29.379  1.00  0.00     0.135 A 
ATOM     70  C   UNL A   1      45.861  33.604  27.083  1.00  0.00     0.135 A 
ATOM     71  F   UNL A   1      46.683  32.433  30.430  1.00  0.00    -0.206 F 
ATOM     72  C   UNL A   1      46.670  34.612  29.556  1.00  0.00     0.059 A 
ATOM     73  C   UNL A   1      46.037  34.975  27.237  1.00  0.00     0.059 A 
ATOM     74  F   UNL A   1      45.445  33.146  25.892  1.00  0.00    -0.206 F 
ATOM     75  C   UNL A   1      46.422  35.471  28.484  1.00  0.00     0.060 A 
BRANCH  75  76
ATOM     76  S   UNL A   1      46.586  37.256  28.701  1.00  0.00     0.124 S 
ATOM     77  O   UNL A   1      46.928  37.344  30.117  1.00  0.00    -0.237 OA
ATOM     78  O   UNL A   1      47.655  37.608  27.771  1.00  0.00    -0.237 OA
ATOM     79  O   UNL A   1      45.261  37.748  28.339  1.00  0.00    -0.744 OA
ENDBRANCH  75  76
ENDBRANCH  54  68
BRANCH  55  80
ATOM     80  C   UNL A   1      43.574  23.169  26.929  1.00  0.00     0.058 A 
ATOM     81  C   UNL A   1      43.185  22.367  28.009  1.00  0.00     0.135 A 
ATOM     82  C   UNL A   1      43.519  22.622  25.641  1.00  0.00     0.135 A 
ATOM     83  F   UNL A   1      43.220  22.860  29.258  1.00  0.00    -0.206 F 
ATOM     84  C   UNL A   1      42.740  21.064  27.821  1.00  0.00     0.059 A 
ATOM     85  C   UNL A   1      43.074  21.322  25.427  1.00  0.00     0.059 A 
ATOM     86  F   UNL A   1      43.875  23.361  24.579  1.00  0.00    -0.206 F 
ATOM     87  C   UNL A   1      42.685  20.551  26.524  1.00  0.00     0.060 A 
BRANCH  87  88
ATOM     88  S   UNL A   1      42.016  18.896  26.246  1.00  0.00     0.124 S 
ATOM     89  O   UNL A   1      40.638  19.196  25.877  1.00  0.00    -0.237 OA
ATOM     90  O   UNL A   1      42.862  18.377  25.175  1.00  0.00    -0.237 OA
ATOM     91  O   UNL A   1      42.204  18.255  27.544  1.00  0.00    -0.744 OA
ENDBRANCH  87  88
ENDBRANCH  55  80
BRANCH  67  92
ATOM     92  C   UNL A   1      49.588  26.626  26.490  1.00  0.00     0.058 A 
ATOM     93  C   UNL A   1      50.067  26.622  25.171  1.00  0.00     0.135 A 
ATOM     94  C   UNL A   1      50.454  26.210  27.511  1.00  0.00     0.135 A 
ATOM     95  F   UNL A   1      49.269  27.008  24.162  1.00  0.00    -0.206 F 
ATOM     96  C   UNL A   1      51.360  26.209  24.872  1.00  0.00     0.059 A 
ATOM     97  C   UNL A   1      51.751  25.792  27.234  1.00  0.00     0.059 A 
ATOM     98  F   UNL A   1      50.035  26.192  28.786  1.00  0.00    -0.206 F 
ATOM     99  C   UNL A   1      52.193  25.786  25.909  1.00  0.00     0.060 A 
BRANCH  99 100
ATOM    100  S   UNL A   1      53.878  25.254  25.539  1.00  0.00     0.124 S 
ATOM    101  O   UNL A   1      54.065  25.788  24.194  1.00  0.00    -0.237 OA
ATOM    102  O   UNL A   1      54.665  25.896  26.587  1.00  0.00    -0.237 OA
ATOM    103  O   UNL A   1      53.790  23.800  25.635  1.00  0.00    -0.744 OA
ENDBRANCH  99 100
ENDBRANCH  67  92
ENDBRANCH  41  42
ENDBRANCH  33  36
ENDBRANCH  31  32
ENDBRANCH  30  31
ENDBRANCH   1  30
TORSDOF 18
ENDMDL
