MODEL 1
REMARK VINA RESULT:     -11.9      0.000      0.000
REMARK SMILES C[C@@H](C(=O)NCCCCNC(=O)c1ccc(-c2c3nc(c(-c4c(F)cc(S(=O)(=O)[O-])cc4F)c4ccc([nH]4)c(-c4c(F)cc(S(=O)(=O)[O-])cc4F)c4nc(c(-c5c(F)cc(S(=O)(=O)[O-])cc5F)c5ccc2[nH]5)C=C4)C=C3)cc1)c1ccccc1-c1ccn(C(F)F)c(=O)c1
REMARK SMILES IDX 7 1 6 2 5 3 3 4 4 5 2 7 1 8 79 9 80 10 84 11 81 12 83 13
REMARK SMILES IDX 82 14 85 15 86 16 94 17 87 18 92 19 88 20 93 21 89 22 90 23
REMARK SMILES IDX 91 24 8 25 9 26 10 27 11 28 12 30 13 31 14 32 78 33 15 34
REMARK SMILES IDX 77 35 16 36 17 37 18 38 71 39 19 40 76 41 70 42 72 43 20 44
REMARK SMILES IDX 75 45 69 46 68 47 21 49 55 50 34 51 54 52 35 53 38 54 53 55
REMARK SMILES IDX 73 56 36 57 37 58 52 60 74 61 39 62 22 63 23 64 32 65 24 66
REMARK SMILES IDX 25 67 31 68 33 69 26 70 27 71 28 72 29 73 30 74 56 75 57 76
REMARK SMILES IDX 66 77 58 78 59 79 65 80 67 81 60 82 61 83 62 84 63 85 64 86
REMARK SMILES IDX 40 87 41 88 50 89 42 90 43 91 49 92 51 93 44 94 45 95 46 96
REMARK SMILES IDX 47 97 48 98
REMARK H PARENT 5 6 10 29 72 48 38 59
REMARK Flexibility Score: inf
ROOT
ATOM      1  C   UNL A   1      33.645  27.408  24.918  1.00  0.00     0.023 C 
ENDROOT
BRANCH   1   2
ATOM      2  C   UNL A   1      33.762  25.899  25.119  1.00  0.00     0.116 C 
BRANCH   2   3
ATOM      3  N   UNL A   1      34.542  25.251  24.086  1.00  0.00    -0.356 N 
ATOM      4  C   UNL A   1      34.821  23.929  23.919  1.00  0.00     0.227 C 
ATOM      5  O   UNL A   1      34.907  23.555  22.746  1.00  0.00    -0.274 OA
ATOM      6  H   UNL A   1      34.925  25.854  23.408  1.00  0.00     0.163 HD
BRANCH   4   7
ATOM      7  C   UNL A   1      34.902  22.937  25.095  1.00  0.00     0.106 C 
ATOM      8  C   UNL A   1      36.276  22.574  25.667  1.00  0.00     0.023 C 
BRANCH   7   9
ATOM      9  C   UNL A   1      34.166  21.601  24.855  1.00  0.00    -0.028 A 
ATOM     10  C   UNL A   1      34.959  20.434  24.928  1.00  0.00     0.005 A 
ATOM     11  C   UNL A   1      32.801  21.468  24.481  1.00  0.00    -0.014 A 
ATOM     12  C   UNL A   1      34.435  19.175  24.635  1.00  0.00     0.000 A 
ATOM     13  C   UNL A   1      32.297  20.187  24.178  1.00  0.00     0.009 A 
ATOM     14  C   UNL A   1      33.106  19.053  24.252  1.00  0.00     0.001 A 
BRANCH  11  15
ATOM     15  C   UNL A   1      31.831  22.590  24.458  1.00  0.00    -0.011 A 
ATOM     16  C   UNL A   1      31.379  23.262  23.256  1.00  0.00     0.027 A 
ATOM     17  C   UNL A   1      31.416  23.056  25.652  1.00  0.00     0.080 A 
ATOM     18  C   UNL A   1      30.727  24.429  23.335  1.00  0.00     0.095 A 
ATOM     19  C   UNL A   1      30.627  24.313  25.755  1.00  0.00     0.255 A 
ATOM     20  N   UNL A   1      30.391  24.973  24.560  1.00  0.00    -0.258 N 
ATOM     21  O   UNL A   1      30.263  24.689  26.865  1.00  0.00    -0.269 OA
BRANCH  20  22
ATOM     22  C   UNL A   1      29.778  26.274  24.647  1.00  0.00     0.451 C 
ATOM     23  F   UNL A   1      30.381  27.161  23.822  1.00  0.00    -0.185 F 
ATOM     24  F   UNL A   1      28.466  26.204  24.309  1.00  0.00    -0.185 F 
ENDBRANCH  20  22
ENDBRANCH  11  15
ENDBRANCH   7   9
ENDBRANCH   4   7
ENDBRANCH   2   3
ENDBRANCH   1   2
BRANCH   1  25
ATOM     25  C   UNL A   1      32.720  28.131  25.902  1.00  0.00     0.023 C 
BRANCH  25  26
ATOM     26  C   UNL A   1      33.317  28.449  27.270  1.00  0.00     0.116 C 
BRANCH  26  27
ATOM     27  N   UNL A   1      33.303  29.870  27.585  1.00  0.00    -0.352 N 
ATOM     28  C   UNL A   1      34.301  30.660  28.104  1.00  0.00     0.251 C 
ATOM     29  H   UNL A   1      32.456  30.333  27.399  1.00  0.00     0.163 HD
ATOM     30  O   UNL A   1      34.059  31.826  28.403  1.00  0.00    -0.269 OA
BRANCH  28  31
ATOM     31  C   UNL A   1      35.648  30.095  28.342  1.00  0.00     0.039 A 
ATOM     32  C   UNL A   1      36.558  30.066  27.282  1.00  0.00     0.014 A 
ATOM     33  C   UNL A   1      36.023  29.621  29.602  1.00  0.00     0.014 A 
ATOM     34  C   UNL A   1      37.871  29.646  27.508  1.00  0.00     0.010 A 
ATOM     35  C   UNL A   1      37.348  29.262  29.840  1.00  0.00     0.010 A 
ATOM     36  C   UNL A   1      38.290  29.289  28.801  1.00  0.00    -0.014 A 
BRANCH  36  37
ATOM     37  C   UNL A   1      39.719  29.001  29.090  1.00  0.00     0.031 A 
ATOM     38  C   UNL A   1      40.618  30.067  29.656  1.00  0.00     0.074 A 
ATOM     39  C   UNL A   1      40.224  27.792  28.768  1.00  0.00     0.049 A 
ATOM     40  N   UNL A   1      41.901  30.015  29.904  1.00  0.00    -0.248 NA
ATOM     41  C   UNL A   1      39.998  31.366  29.965  1.00  0.00     0.031 C 
ATOM     42  C   UNL A   1      39.466  26.693  28.163  1.00  0.00     0.029 A 
ATOM     43  N   UNL A   1      41.495  27.287  28.888  1.00  0.00    -0.354 N 
ATOM     44  C   UNL A   1      42.247  31.272  30.385  1.00  0.00     0.074 A 
ATOM     45  C   UNL A   1      41.046  32.079  30.358  1.00  0.00     0.031 C 
ATOM     46  C   UNL A   1      40.282  25.643  27.977  1.00  0.00     0.029 A 
ATOM     47  C   UNL A   1      41.628  26.004  28.409  1.00  0.00     0.049 A 
ATOM     48  H   UNL A   1      42.242  27.795  29.280  1.00  0.00     0.167 HD
ATOM     49  C   UNL A   1      43.452  31.706  30.825  1.00  0.00     0.037 A 
ATOM     50  C   UNL A   1      42.713  25.210  28.313  1.00  0.00     0.037 A 
ATOM     51  C   UNL A   1      44.638  30.889  30.872  1.00  0.00     0.049 A 
ATOM     52  C   UNL A   1      44.041  25.722  28.805  1.00  0.00     0.074 A 
ATOM     53  C   UNL A   1      45.886  31.217  31.374  1.00  0.00     0.029 A 
ATOM     54  N   UNL A   1      44.729  29.591  30.397  1.00  0.00    -0.354 N 
ATOM     55  N   UNL A   1      44.329  26.886  29.336  1.00  0.00    -0.248 NA
ATOM     56  C   UNL A   1      45.189  24.813  28.689  1.00  0.00     0.031 C 
ATOM     57  C   UNL A   1      46.745  30.135  31.158  1.00  0.00     0.029 A 
ATOM     58  C   UNL A   1      46.019  29.113  30.567  1.00  0.00     0.049 A 
ATOM     59  H   UNL A   1      43.987  29.082  29.997  1.00  0.00     0.167 HD
ATOM     60  C   UNL A   1      45.686  26.841  29.633  1.00  0.00     0.074 A 
ATOM     61  C   UNL A   1      46.156  25.528  29.245  1.00  0.00     0.031 C 
ATOM     62  C   UNL A   1      46.473  27.802  30.177  1.00  0.00     0.037 A 
BRANCH  49  63
ATOM     63  C   UNL A   1      43.560  33.127  31.305  1.00  0.00     0.058 A 
ATOM     64  C   UNL A   1      43.459  33.452  32.667  1.00  0.00     0.135 A 
ATOM     65  C   UNL A   1      43.851  34.165  30.403  1.00  0.00     0.135 A 
ATOM     66  F   UNL A   1      43.168  32.502  33.569  1.00  0.00    -0.206 F 
ATOM     67  C   UNL A   1      43.634  34.756  33.118  1.00  0.00     0.059 A 
ATOM     68  C   UNL A   1      44.053  35.473  30.835  1.00  0.00     0.059 A 
ATOM     69  F   UNL A   1      43.956  33.908  29.090  1.00  0.00    -0.206 F 
ATOM     70  C   UNL A   1      43.937  35.759  32.195  1.00  0.00     0.060 A 
BRANCH  70  71
ATOM     71  S   UNL A   1      44.204  37.437  32.804  1.00  0.00     0.124 S 
ATOM     72  O   UNL A   1      44.170  38.207  31.563  1.00  0.00    -0.237 OA
ATOM     73  O   UNL A   1      43.065  37.628  33.697  1.00  0.00    -0.237 OA
ATOM     74  O   UNL A   1      45.505  37.360  33.459  1.00  0.00    -0.744 OA
ENDBRANCH  70  71
ENDBRANCH  49  63
BRANCH  50  75
ATOM     75  C   UNL A   1      42.598  23.849  27.723  1.00  0.00     0.058 A 
ATOM     76  C   UNL A   1      42.496  22.713  28.538  1.00  0.00     0.135 A 
ATOM     77  C   UNL A   1      42.602  23.657  26.333  1.00  0.00     0.135 A 
ATOM     78  F   UNL A   1      42.491  22.844  29.874  1.00  0.00    -0.206 F 
ATOM     79  C   UNL A   1      42.431  21.432  27.999  1.00  0.00     0.059 A 
ATOM     80  C   UNL A   1      42.511  22.389  25.769  1.00  0.00     0.059 A 
ATOM     81  F   UNL A   1      42.678  24.713  25.507  1.00  0.00    -0.206 F 
ATOM     82  C   UNL A   1      42.441  21.280  26.612  1.00  0.00     0.060 A 
BRANCH  82  83
ATOM     83  S   UNL A   1      42.330  19.616  25.918  1.00  0.00     0.124 S 
ATOM     84  O   UNL A   1      40.956  19.592  25.432  1.00  0.00    -0.237 OA
ATOM     85  O   UNL A   1      43.371  19.639  24.895  1.00  0.00    -0.237 OA
ATOM     86  O   UNL A   1      42.611  18.757  27.066  1.00  0.00    -0.744 OA
ENDBRANCH  82  83
ENDBRANCH  50  75
BRANCH  62  87
ATOM     87  C   UNL A   1      47.920  27.463  30.406  1.00  0.00     0.058 A 
ATOM     88  C   UNL A   1      48.346  26.801  31.568  1.00  0.00     0.135 A 
ATOM     89  C   UNL A   1      48.886  27.762  29.430  1.00  0.00     0.135 A 
ATOM     90  F   UNL A   1      47.464  26.499  32.535  1.00  0.00    -0.206 F 
ATOM     91  C   UNL A   1      49.682  26.469  31.766  1.00  0.00     0.059 A 
ATOM     92  C   UNL A   1      50.222  27.414  29.596  1.00  0.00     0.059 A 
ATOM     93  F   UNL A   1      48.530  28.386  28.296  1.00  0.00    -0.206 F 
ATOM     94  C   UNL A   1      50.613  26.779  30.773  1.00  0.00     0.060 A 
BRANCH  94  95
ATOM     95  S   UNL A   1      52.339  26.316  31.031  1.00  0.00     0.124 S 
ATOM     96  O   UNL A   1      52.823  26.210  29.658  1.00  0.00    -0.237 OA
ATOM     97  O   UNL A   1      52.855  27.445  31.798  1.00  0.00    -0.237 OA
ATOM     98  O   UNL A   1      52.247  25.058  31.764  1.00  0.00    -0.744 OA
ENDBRANCH  94  95
ENDBRANCH  62  87
ENDBRANCH  36  37
ENDBRANCH  28  31
ENDBRANCH  26  27
ENDBRANCH  25  26
ENDBRANCH   1  25
TORSDOF 17
ENDMDL
MODEL 2
REMARK VINA RESULT:     -11.7      0.469      8.139
REMARK SMILES C[C@@H](C(=O)NCCCCNC(=O)c1ccc(-c2c3nc(c(-c4c(F)cc(S(=O)(=O)[O-])cc4F)c4ccc([nH]4)c(-c4c(F)cc(S(=O)(=O)[O-])cc4F)c4nc(c(-c5c(F)cc(S(=O)(=O)[O-])cc5F)c5ccc2[nH]5)C=C4)C=C3)cc1)c1ccccc1-c1ccn(C(F)F)c(=O)c1
REMARK SMILES IDX 7 1 6 2 5 3 3 4 4 5 2 7 1 8 79 9 80 10 84 11 81 12 83 13
REMARK SMILES IDX 82 14 85 15 86 16 94 17 87 18 92 19 88 20 93 21 89 22 90 23
REMARK SMILES IDX 91 24 8 25 9 26 10 27 11 28 12 30 13 31 14 32 78 33 15 34
REMARK SMILES IDX 77 35 16 36 17 37 18 38 71 39 19 40 76 41 70 42 72 43 20 44
REMARK SMILES IDX 75 45 69 46 68 47 21 49 55 50 34 51 54 52 35 53 38 54 53 55
REMARK SMILES IDX 73 56 36 57 37 58 52 60 74 61 39 62 22 63 23 64 32 65 24 66
REMARK SMILES IDX 25 67 31 68 33 69 26 70 27 71 28 72 29 73 30 74 56 75 57 76
REMARK SMILES IDX 66 77 58 78 59 79 65 80 67 81 60 82 61 83 62 84 63 85 64 86
REMARK SMILES IDX 40 87 41 88 50 89 42 90 43 91 49 92 51 93 44 94 45 95 46 96
REMARK SMILES IDX 47 97 48 98
REMARK H PARENT 5 6 10 29 72 48 38 59
REMARK Flexibility Score: inf
ROOT
ATOM      1  C   UNL A   1      33.620  27.410  24.754  1.00  0.00     0.023 C 
ENDROOT
BRANCH   1   2
ATOM      2  C   UNL A   1      33.791  25.922  25.052  1.00  0.00     0.116 C 
BRANCH   2   3
ATOM      3  N   UNL A   1      34.631  25.246  24.087  1.00  0.00    -0.356 N 
ATOM      4  C   UNL A   1      34.900  23.917  23.960  1.00  0.00     0.227 C 
ATOM      5  O   UNL A   1      35.063  23.523  22.801  1.00  0.00    -0.274 OA
ATOM      6  H   UNL A   1      35.072  25.831  23.429  1.00  0.00     0.163 HD
BRANCH   4   7
ATOM      7  C   UNL A   1      34.881  22.943  25.154  1.00  0.00     0.106 C 
ATOM      8  C   UNL A   1      36.204  22.573  25.830  1.00  0.00     0.023 C 
BRANCH   7   9
ATOM      9  C   UNL A   1      34.147  21.612  24.880  1.00  0.00    -0.028 A 
ATOM     10  C   UNL A   1      34.933  20.441  24.963  1.00  0.00     0.005 A 
ATOM     11  C   UNL A   1      32.793  21.488  24.466  1.00  0.00    -0.014 A 
ATOM     12  C   UNL A   1      34.413  19.188  24.643  1.00  0.00     0.000 A 
ATOM     13  C   UNL A   1      32.294  20.212  24.135  1.00  0.00     0.009 A 
ATOM     14  C   UNL A   1      33.096  19.074  24.221  1.00  0.00     0.001 A 
BRANCH  11  15
ATOM     15  C   UNL A   1      31.828  22.614  24.425  1.00  0.00    -0.011 A 
ATOM     16  C   UNL A   1      31.446  23.328  23.223  1.00  0.00     0.027 A 
ATOM     17  C   UNL A   1      31.347  23.041  25.608  1.00  0.00     0.080 A 
ATOM     18  C   UNL A   1      30.794  24.494  23.304  1.00  0.00     0.095 A 
ATOM     19  C   UNL A   1      30.556  24.298  25.710  1.00  0.00     0.255 A 
ATOM     20  N   UNL A   1      30.389  24.998  24.526  1.00  0.00    -0.258 N 
ATOM     21  O   UNL A   1      30.131  24.637  26.809  1.00  0.00    -0.269 OA
BRANCH  20  22
ATOM     22  C   UNL A   1      29.775  26.297  24.622  1.00  0.00     0.451 C 
ATOM     23  F   UNL A   1      29.932  27.005  23.479  1.00  0.00    -0.185 F 
ATOM     24  F   UNL A   1      28.446  26.178  24.869  1.00  0.00    -0.185 F 
ENDBRANCH  20  22
ENDBRANCH  11  15
ENDBRANCH   7   9
ENDBRANCH   4   7
ENDBRANCH   2   3
ENDBRANCH   1   2
BRANCH   1  25
ATOM     25  C   UNL A   1      32.894  28.217  25.834  1.00  0.00     0.023 C 
BRANCH  25  26
ATOM     26  C   UNL A   1      33.654  28.419  27.142  1.00  0.00     0.116 C 
BRANCH  26  27
ATOM     27  N   UNL A   1      33.613  29.793  27.621  1.00  0.00    -0.352 N 
ATOM     28  C   UNL A   1      34.605  30.545  28.206  1.00  0.00     0.251 C 
ATOM     29  H   UNL A   1      32.750  30.251  27.510  1.00  0.00     0.163 HD
ATOM     30  O   UNL A   1      34.341  31.661  28.645  1.00  0.00    -0.269 OA
BRANCH  28  31
ATOM     31  C   UNL A   1      35.970  29.995  28.344  1.00  0.00     0.039 A 
ATOM     32  C   UNL A   1      36.844  30.091  27.257  1.00  0.00     0.014 A 
ATOM     33  C   UNL A   1      36.399  29.411  29.539  1.00  0.00     0.014 A 
ATOM     34  C   UNL A   1      38.173  29.685  27.400  1.00  0.00     0.010 A 
ATOM     35  C   UNL A   1      37.740  29.066  29.699  1.00  0.00     0.010 A 
ATOM     36  C   UNL A   1      38.644  29.217  28.637  1.00  0.00    -0.014 A 
BRANCH  36  37
ATOM     37  C   UNL A   1      40.089  28.939  28.851  1.00  0.00     0.031 A 
ATOM     38  C   UNL A   1      40.672  27.597  28.504  1.00  0.00     0.074 A 
ATOM     39  C   UNL A   1      40.860  29.881  29.433  1.00  0.00     0.049 A 
ATOM     40  N   UNL A   1      41.890  27.157  28.688  1.00  0.00    -0.248 NA
ATOM     41  C   UNL A   1      39.764  26.614  27.890  1.00  0.00     0.031 C 
ATOM     42  C   UNL A   1      40.398  31.203  29.865  1.00  0.00     0.029 A 
ATOM     43  N   UNL A   1      42.189  29.870  29.777  1.00  0.00    -0.354 N 
ATOM     44  C   UNL A   1      41.895  25.846  28.225  1.00  0.00     0.074 A 
ATOM     45  C   UNL A   1      40.548  25.548  27.787  1.00  0.00     0.031 C 
ATOM     46  C   UNL A   1      41.427  31.877  30.404  1.00  0.00     0.029 A 
ATOM     47  C   UNL A   1      42.611  31.025  30.394  1.00  0.00     0.049 A 
ATOM     48  H   UNL A   1      42.785  29.107  29.599  1.00  0.00     0.167 HD
ATOM     49  C   UNL A   1      42.932  24.978  28.156  1.00  0.00     0.037 A 
ATOM     50  C   UNL A   1      43.811  31.358  30.909  1.00  0.00     0.037 A 
ATOM     51  C   UNL A   1      44.276  25.289  28.570  1.00  0.00     0.049 A 
ATOM     52  C   UNL A   1      44.945  30.370  30.823  1.00  0.00     0.074 A 
ATOM     53  C   UNL A   1      45.411  24.502  28.467  1.00  0.00     0.029 A 
ATOM     54  N   UNL A   1      44.669  26.475  29.173  1.00  0.00    -0.354 N 
ATOM     55  N   UNL A   1      44.949  29.165  30.303  1.00  0.00    -0.248 NA
ATOM     56  C   UNL A   1      46.235  30.786  31.389  1.00  0.00     0.031 C 
ATOM     57  C   UNL A   1      46.479  25.191  29.050  1.00  0.00     0.029 A 
ATOM     58  C   UNL A   1      46.022  26.429  29.472  1.00  0.00     0.049 A 
ATOM     59  H   UNL A   1      44.075  27.237  29.360  1.00  0.00     0.167 HD
ATOM     60  C   UNL A   1      46.246  28.689  30.464  1.00  0.00     0.074 A 
ATOM     61  C   UNL A   1      47.002  29.743  31.107  1.00  0.00     0.031 C 
ATOM     62  C   UNL A   1      46.763  27.487  30.112  1.00  0.00     0.037 A 
BRANCH  49  63
ATOM     63  C   UNL A   1      42.670  23.605  27.601  1.00  0.00     0.058 A 
ATOM     64  C   UNL A   1      42.756  23.340  26.226  1.00  0.00     0.135 A 
ATOM     65  C   UNL A   1      42.413  22.525  28.463  1.00  0.00     0.135 A 
ATOM     66  F   UNL A   1      42.985  24.337  25.357  1.00  0.00    -0.206 F 
ATOM     67  C   UNL A   1      42.587  22.054  25.722  1.00  0.00     0.059 A 
ATOM     68  C   UNL A   1      42.265  21.227  27.982  1.00  0.00     0.059 A 
ATOM     69  F   UNL A   1      42.319  22.725  29.787  1.00  0.00    -0.206 F 
ATOM     70  C   UNL A   1      42.348  21.002  26.609  1.00  0.00     0.060 A 
BRANCH  70  71
ATOM     71  S   UNL A   1      42.176  19.335  25.940  1.00  0.00     0.124 S 
ATOM     72  O   UNL A   1      40.735  19.258  25.716  1.00  0.00    -0.237 OA
ATOM     73  O   UNL A   1      42.999  19.396  24.736  1.00  0.00    -0.237 OA
ATOM     74  O   UNL A   1      42.691  18.484  27.007  1.00  0.00    -0.744 OA
ENDBRANCH  70  71
ENDBRANCH  49  63
BRANCH  50  75
ATOM     75  C   UNL A   1      44.008  32.681  31.559  1.00  0.00     0.058 A 
ATOM     76  C   UNL A   1      43.761  32.859  32.928  1.00  0.00     0.135 A 
ATOM     77  C   UNL A   1      44.433  33.797  30.822  1.00  0.00     0.135 A 
ATOM     78  F   UNL A   1      43.349  31.824  33.675  1.00  0.00    -0.206 F 
ATOM     79  C   UNL A   1      43.900  34.102  33.539  1.00  0.00     0.059 A 
ATOM     80  C   UNL A   1      44.605  35.043  31.415  1.00  0.00     0.059 A 
ATOM     81  F   UNL A   1      44.703  33.676  29.513  1.00  0.00    -0.206 F 
ATOM     82  C   UNL A   1      44.321  35.189  32.773  1.00  0.00     0.060 A 
BRANCH  82  83
ATOM     83  S   UNL A   1      44.526  36.793  33.577  1.00  0.00     0.124 S 
ATOM     84  O   UNL A   1      45.331  36.438  34.739  1.00  0.00    -0.237 OA
ATOM     85  O   UNL A   1      45.201  37.572  32.543  1.00  0.00    -0.237 OA
ATOM     86  O   UNL A   1      43.152  37.202  33.859  1.00  0.00    -0.744 OA
ENDBRANCH  82  83
ENDBRANCH  50  75
BRANCH  62  87
ATOM     87  C   UNL A   1      48.220  27.252  30.394  1.00  0.00     0.058 A 
ATOM     88  C   UNL A   1      48.652  26.652  31.587  1.00  0.00     0.135 A 
ATOM     89  C   UNL A   1      49.195  27.589  29.440  1.00  0.00     0.135 A 
ATOM     90  F   UNL A   1      47.761  26.318  32.535  1.00  0.00    -0.206 F 
ATOM     91  C   UNL A   1      50.000  26.416  31.835  1.00  0.00     0.059 A 
ATOM     92  C   UNL A   1      50.546  27.337  29.656  1.00  0.00     0.059 A 
ATOM     93  F   UNL A   1      48.836  28.157  28.277  1.00  0.00    -0.206 F 
ATOM     94  C   UNL A   1      50.940  26.761  30.863  1.00  0.00     0.060 A 
BRANCH  94  95
ATOM     95  S   UNL A   1      52.683  26.422  31.185  1.00  0.00     0.124 S 
ATOM     96  O   UNL A   1      52.605  25.187  31.959  1.00  0.00    -0.237 OA
ATOM     97  O   UNL A   1      53.232  26.292  29.839  1.00  0.00    -0.237 OA
ATOM     98  O   UNL A   1      53.127  27.600  31.924  1.00  0.00    -0.744 OA
ENDBRANCH  94  95
ENDBRANCH  62  87
ENDBRANCH  36  37
ENDBRANCH  28  31
ENDBRANCH  26  27
ENDBRANCH  25  26
ENDBRANCH   1  25
TORSDOF 17
ENDMDL
MODEL 3
REMARK VINA RESULT:     -11.7      5.192     10.291
REMARK SMILES C[C@@H](C(=O)NCCCCNC(=O)c1ccc(-c2c3nc(c(-c4c(F)cc(S(=O)(=O)[O-])cc4F)c4ccc([nH]4)c(-c4c(F)cc(S(=O)(=O)[O-])cc4F)c4nc(c(-c5c(F)cc(S(=O)(=O)[O-])cc5F)c5ccc2[nH]5)C=C4)C=C3)cc1)c1ccccc1-c1ccn(C(F)F)c(=O)c1
REMARK SMILES IDX 7 1 6 2 5 3 3 4 4 5 2 7 1 8 79 9 80 10 84 11 81 12 83 13
REMARK SMILES IDX 82 14 85 15 86 16 94 17 87 18 92 19 88 20 93 21 89 22 90 23
REMARK SMILES IDX 91 24 8 25 9 26 10 27 11 28 12 30 13 31 14 32 78 33 15 34
REMARK SMILES IDX 77 35 16 36 17 37 18 38 71 39 19 40 76 41 70 42 72 43 20 44
REMARK SMILES IDX 75 45 69 46 68 47 21 49 55 50 34 51 54 52 35 53 38 54 53 55
REMARK SMILES IDX 73 56 36 57 37 58 52 60 74 61 39 62 22 63 23 64 32 65 24 66
REMARK SMILES IDX 25 67 31 68 33 69 26 70 27 71 28 72 29 73 30 74 56 75 57 76
REMARK SMILES IDX 66 77 58 78 59 79 65 80 67 81 60 82 61 83 62 84 63 85 64 86
REMARK SMILES IDX 40 87 41 88 50 89 42 90 43 91 49 92 51 93 44 94 45 95 46 96
REMARK SMILES IDX 47 97 48 98
REMARK H PARENT 5 6 10 29 72 48 38 59
REMARK Flexibility Score: inf
ROOT
ATOM      1  C   UNL A   1      38.523  23.681  26.768  1.00  0.00     0.023 C 
ENDROOT
BRANCH   1   2
ATOM      2  C   UNL A   1      37.414  23.394  25.759  1.00  0.00     0.116 C 
BRANCH   2   3
ATOM      3  N   UNL A   1      36.845  22.072  25.906  1.00  0.00    -0.356 N 
ATOM      4  C   UNL A   1      36.055  21.372  25.044  1.00  0.00     0.227 C 
ATOM      5  O   UNL A   1      36.226  20.150  25.051  1.00  0.00    -0.274 OA
ATOM      6  H   UNL A   1      37.060  21.613  26.750  1.00  0.00     0.163 HD
BRANCH   4   7
ATOM      7  C   UNL A   1      35.106  22.055  24.041  1.00  0.00     0.106 C 
ATOM      8  C   UNL A   1      35.637  23.209  23.185  1.00  0.00     0.023 C 
BRANCH   7   9
ATOM      9  C   UNL A   1      33.776  22.546  24.653  1.00  0.00    -0.028 A 
ATOM     10  C   UNL A   1      33.670  23.938  24.872  1.00  0.00     0.005 A 
ATOM     11  C   UNL A   1      32.713  21.711  25.091  1.00  0.00    -0.014 A 
ATOM     12  C   UNL A   1      32.562  24.495  25.508  1.00  0.00     0.000 A 
ATOM     13  C   UNL A   1      31.609  22.296  25.743  1.00  0.00     0.009 A 
ATOM     14  C   UNL A   1      31.534  23.673  25.950  1.00  0.00     0.001 A 
BRANCH  11  15
ATOM     15  C   UNL A   1      32.646  20.250  24.843  1.00  0.00    -0.011 A 
ATOM     16  C   UNL A   1      32.891  19.233  25.845  1.00  0.00     0.027 A 
ATOM     17  C   UNL A   1      32.420  19.862  23.573  1.00  0.00     0.080 A 
ATOM     18  C   UNL A   1      33.083  17.957  25.487  1.00  0.00     0.095 A 
ATOM     19  C   UNL A   1      32.555  18.437  23.168  1.00  0.00     0.255 A 
ATOM     20  N   UNL A   1      32.960  17.565  24.166  1.00  0.00    -0.258 N 
ATOM     21  O   UNL A   1      32.327  18.133  22.001  1.00  0.00    -0.269 OA
BRANCH  20  22
ATOM     22  C   UNL A   1      33.262  16.215  23.766  1.00  0.00     0.451 C 
ATOM     23  F   UNL A   1      34.390  16.160  23.020  1.00  0.00    -0.185 F 
ATOM     24  F   UNL A   1      33.434  15.424  24.855  1.00  0.00    -0.185 F 
ENDBRANCH  20  22
ENDBRANCH  11  15
ENDBRANCH   7   9
ENDBRANCH   4   7
ENDBRANCH   2   3
ENDBRANCH   1   2
BRANCH   1  25
ATOM     25  C   UNL A   1      39.631  22.625  26.843  1.00  0.00     0.023 C 
BRANCH  25  26
ATOM     26  C   UNL A   1      41.047  23.156  27.047  1.00  0.00     0.116 C 
BRANCH  26  27
ATOM     27  N   UNL A   1      41.484  24.047  25.982  1.00  0.00    -0.352 N 
ATOM     28  C   UNL A   1      41.735  25.398  26.020  1.00  0.00     0.251 C 
ATOM     29  H   UNL A   1      41.619  23.620  25.106  1.00  0.00     0.163 HD
ATOM     30  O   UNL A   1      41.992  25.997  24.980  1.00  0.00    -0.269 OA
BRANCH  28  31
ATOM     31  C   UNL A   1      41.652  26.133  27.301  1.00  0.00     0.039 A 
ATOM     32  C   UNL A   1      42.698  26.993  27.648  1.00  0.00     0.014 A 
ATOM     33  C   UNL A   1      40.545  25.999  28.143  1.00  0.00     0.014 A 
ATOM     34  C   UNL A   1      42.590  27.785  28.794  1.00  0.00     0.010 A 
ATOM     35  C   UNL A   1      40.411  26.835  29.250  1.00  0.00     0.010 A 
ATOM     36  C   UNL A   1      41.424  27.750  29.576  1.00  0.00    -0.014 A 
BRANCH  36  37
ATOM     37  C   UNL A   1      41.226  28.703  30.699  1.00  0.00     0.031 A 
ATOM     38  C   UNL A   1      42.042  28.589  31.957  1.00  0.00     0.074 A 
ATOM     39  C   UNL A   1      40.250  29.631  30.608  1.00  0.00     0.049 A 
ATOM     40  N   UNL A   1      41.956  29.286  33.060  1.00  0.00    -0.248 NA
ATOM     41  C   UNL A   1      43.075  27.541  31.988  1.00  0.00     0.031 C 
ATOM     42  C   UNL A   1      39.355  29.807  29.461  1.00  0.00     0.029 A 
ATOM     43  N   UNL A   1      39.834  30.589  31.499  1.00  0.00    -0.354 N 
ATOM     44  C   UNL A   1      42.911  28.758  33.920  1.00  0.00     0.074 A 
ATOM     45  C   UNL A   1      43.540  27.655  33.225  1.00  0.00     0.031 C 
ATOM     46  C   UNL A   1      38.507  30.818  29.713  1.00  0.00     0.029 A 
ATOM     47  C   UNL A   1      38.767  31.335  31.052  1.00  0.00     0.049 A 
ATOM     48  H   UNL A   1      40.259  30.730  32.376  1.00  0.00     0.167 HD
ATOM     49  C   UNL A   1      43.245  29.167  35.168  1.00  0.00     0.037 A 
ATOM     50  C   UNL A   1      38.066  32.314  31.656  1.00  0.00     0.037 A 
ATOM     51  C   UNL A   1      42.631  30.281  35.843  1.00  0.00     0.049 A 
ATOM     52  C   UNL A   1      38.455  32.745  33.045  1.00  0.00     0.074 A 
ATOM     53  C   UNL A   1      42.955  30.820  37.077  1.00  0.00     0.029 A 
ATOM     54  N   UNL A   1      41.568  31.023  35.352  1.00  0.00    -0.354 N 
ATOM     55  N   UNL A   1      39.419  32.287  33.809  1.00  0.00    -0.248 NA
ATOM     56  C   UNL A   1      37.667  33.824  33.654  1.00  0.00     0.031 C 
ATOM     57  C   UNL A   1      42.057  31.856  37.354  1.00  0.00     0.029 A 
ATOM     58  C   UNL A   1      41.205  31.996  36.270  1.00  0.00     0.049 A 
ATOM     59  H   UNL A   1      41.135  30.880  34.480  1.00  0.00     0.167 HD
ATOM     60  C   UNL A   1      39.363  33.037  34.979  1.00  0.00     0.074 A 
ATOM     61  C   UNL A   1      38.286  33.990  34.813  1.00  0.00     0.031 C 
ATOM     62  C   UNL A   1      40.132  32.941  36.091  1.00  0.00     0.037 A 
BRANCH  49  63
ATOM     63  C   UNL A   1      44.330  28.419  35.891  1.00  0.00     0.058 A 
ATOM     64  C   UNL A   1      45.680  28.778  35.761  1.00  0.00     0.135 A 
ATOM     65  C   UNL A   1      44.009  27.387  36.789  1.00  0.00     0.135 A 
ATOM     66  F   UNL A   1      46.045  29.747  34.907  1.00  0.00    -0.206 F 
ATOM     67  C   UNL A   1      46.677  28.134  36.489  1.00  0.00     0.059 A 
ATOM     68  C   UNL A   1      44.987  26.746  37.544  1.00  0.00     0.059 A 
ATOM     69  F   UNL A   1      42.732  27.004  36.948  1.00  0.00    -0.206 F 
ATOM     70  C   UNL A   1      46.319  27.123  37.383  1.00  0.00     0.060 A 
BRANCH  70  71
ATOM     71  S   UNL A   1      47.620  26.330  38.350  1.00  0.00     0.124 S 
ATOM     72  O   UNL A   1      48.227  25.449  37.356  1.00  0.00    -0.237 OA
ATOM     73  O   UNL A   1      48.435  27.468  38.768  1.00  0.00    -0.237 OA
ATOM     74  O   UNL A   1      46.890  25.660  39.420  1.00  0.00    -0.744 OA
ENDBRANCH  70  71
ENDBRANCH  49  63
BRANCH  50  75
ATOM     75  C   UNL A   1      36.919  32.955  30.959  1.00  0.00     0.058 A 
ATOM     76  C   UNL A   1      35.596  32.613  31.275  1.00  0.00     0.135 A 
ATOM     77  C   UNL A   1      37.123  33.911  29.952  1.00  0.00     0.135 A 
ATOM     78  F   UNL A   1      35.350  31.701  32.228  1.00  0.00    -0.206 F 
ATOM     79  C   UNL A   1      34.516  33.174  30.601  1.00  0.00     0.059 A 
ATOM     80  C   UNL A   1      36.058  34.506  29.282  1.00  0.00     0.059 A 
ATOM     81  F   UNL A   1      38.368  34.290  29.624  1.00  0.00    -0.206 F 
ATOM     82  C   UNL A   1      34.758  34.119  29.603  1.00  0.00     0.060 A 
BRANCH  82  83
ATOM     83  S   UNL A   1      33.350  34.863  28.750  1.00  0.00     0.124 S 
ATOM     84  O   UNL A   1      33.967  36.026  28.125  1.00  0.00    -0.237 OA
ATOM     85  O   UNL A   1      32.939  33.793  27.845  1.00  0.00    -0.237 OA
ATOM     86  O   UNL A   1      32.415  35.147  29.835  1.00  0.00    -0.744 OA
ENDBRANCH  82  83
ENDBRANCH  50  75
BRANCH  62  87
ATOM     87  C   UNL A   1      39.853  33.907  37.209  1.00  0.00     0.058 A 
ATOM     88  C   UNL A   1      39.026  33.564  38.290  1.00  0.00     0.135 A 
ATOM     89  C   UNL A   1      40.456  35.176  37.223  1.00  0.00     0.135 A 
ATOM     90  F   UNL A   1      38.418  32.366  38.320  1.00  0.00    -0.206 F 
ATOM     91  C   UNL A   1      38.787  34.452  39.333  1.00  0.00     0.059 A 
ATOM     92  C   UNL A   1      40.254  36.069  38.270  1.00  0.00     0.059 A 
ATOM     93  F   UNL A   1      41.264  35.552  36.218  1.00  0.00    -0.206 F 
ATOM     94  C   UNL A   1      39.407  35.703  39.315  1.00  0.00     0.060 A 
BRANCH  94  95
ATOM     95  S   UNL A   1      39.113  36.834  40.690  1.00  0.00     0.124 S 
ATOM     96  O   UNL A   1      40.475  37.180  41.083  1.00  0.00    -0.237 OA
ATOM     97  O   UNL A   1      38.346  37.903  40.057  1.00  0.00    -0.237 OA
ATOM     98  O   UNL A   1      38.370  36.020  41.646  1.00  0.00    -0.744 OA
ENDBRANCH  94  95
ENDBRANCH  62  87
ENDBRANCH  36  37
ENDBRANCH  28  31
ENDBRANCH  26  27
ENDBRANCH  25  26
ENDBRANCH   1  25
TORSDOF 17
ENDMDL
