MODEL 1
REMARK VINA RESULT:     -12.5      0.000      0.000
REMARK SMILES Cc1cc(S(F)(F)(F)(F)F)cc2c1O[C@H](C(F)(F)F)C(C(=O)NCCCCNC(=O)c1ccc(-c3c4nc(c(-c5c(F)cc(S(=O)(=O)[O-])cc5F)c5ccc([nH]5)c(-c5c(F)cc(S(=O)(=O)[O-])cc5F)c5nc(c(-c6c(F)cc(S(=O)(=O)[O-])cc6F)c6ccc3[nH]6)C=C5)C=C4)cc1)=C2
REMARK SMILES IDX 26 1 25 2 24 3 23 4 21 5 22 6 20 8 1 9 2 10 3 11 13 12 4 13
REMARK SMILES IDX 12 14 14 15 11 16 97 17 15 18 5 19 6 20 7 21 8 22 9 23 10 24
REMARK SMILES IDX 16 25 17 26 18 27 19 28 27 29 28 30 29 31 30 33 31 34 32 35
REMARK SMILES IDX 96 36 33 37 95 38 34 39 35 40 36 41 89 42 37 43 94 44 88 45
REMARK SMILES IDX 90 46 38 47 93 48 87 49 86 50 39 52 73 53 52 54 72 55 53 56
REMARK SMILES IDX 56 57 71 58 91 59 54 60 55 61 70 63 92 64 57 65 40 66 41 67
REMARK SMILES IDX 50 68 42 69 43 70 49 71 51 72 44 73 45 74 46 75 47 76 48 77
REMARK SMILES IDX 74 78 75 79 84 80 76 81 77 82 83 83 85 84 78 85 79 86 80 87
REMARK SMILES IDX 81 88 82 89 58 90 59 91 68 92 60 93 61 94 67 95 69 96 62 97
REMARK SMILES IDX 63 98 64 99 65 100 66 101
REMARK H PARENT 23 7 28 32 90 51 56 62
REMARK Flexibility Score: inf
ROOT
ATOM      1  C   UNL A   1      34.290  28.240  25.422  1.00  0.00     0.023 C 
ENDROOT
BRANCH   1   2
ATOM      2  C   UNL A   1      33.063  28.678  24.637  1.00  0.00     0.023 C 
BRANCH   2   3
ATOM      3  C   UNL A   1      32.244  27.456  24.255  1.00  0.00     0.116 C 
BRANCH   3   4
ATOM      4  N   UNL A   1      31.087  27.340  25.156  1.00  0.00    -0.352 N 
ATOM      5  C   UNL A   1      30.780  26.053  25.794  1.00  0.00     0.251 C 
ATOM      6  O   UNL A   1      29.780  25.953  26.574  1.00  0.00    -0.270 OA
ATOM      7  H   UNL A   1      30.519  28.124  25.330  1.00  0.00     0.163 HD
BRANCH   5   8
ATOM      8  C   UNL A   1      31.657  24.840  25.525  1.00  0.00     0.067 C 
ATOM      9  C   UNL A   1      33.429  20.197  24.222  1.00  0.00     0.048 C 
ATOM     10  C   UNL A   1      34.033  21.480  24.770  1.00  0.00    -0.007 A 
ATOM     11  C   UNL A   1      35.384  21.556  25.028  1.00  0.00     0.031 A 
ATOM     12  C   UNL A   1      33.226  22.589  25.014  1.00  0.00     0.130 A 
ATOM     13  C   UNL A   1      35.945  22.722  25.533  1.00  0.00     0.108 A 
ATOM     14  C   UNL A   1      33.801  23.775  25.523  1.00  0.00     0.019 A 
ATOM     15  O   UNL A   1      31.780  22.571  24.760  1.00  0.00    -0.475 OA
ATOM     16  C   UNL A   1      35.174  23.824  25.774  1.00  0.00     0.036 A 
ATOM     17  C   UNL A   1      32.930  24.925  25.771  1.00  0.00     0.025 C 
ATOM     18  C   UNL A   1      31.061  23.684  25.022  1.00  0.00     0.314 C 
BRANCH  13  19
ATOM     19  S   UNL A   1      37.721  22.783  25.875  1.00  0.00     0.310 S 
ATOM     20  F   UNL A   1      37.916  24.062  24.956  1.00  0.00    -0.094 F 
ATOM     21  F   UNL A   1      37.971  21.907  24.589  1.00  0.00    -0.094 F 
ATOM     22  F   UNL A   1      39.247  22.837  26.169  1.00  0.00    -0.094 F 
ATOM     23  F   UNL A   1      37.464  23.775  27.077  1.00  0.00    -0.094 F 
ATOM     24  F   UNL A   1      36.181  22.831  25.524  1.00  0.00    -0.094 F 
ENDBRANCH  13  19
BRANCH  18  25
ATOM     25  C   UNL A   1      30.625  24.120  23.634  1.00  0.00     0.429 C 
ATOM     26  F   UNL A   1      31.629  24.748  23.029  1.00  0.00    -0.167 F 
ATOM     27  F   UNL A   1      30.276  23.051  22.922  1.00  0.00    -0.167 F 
ATOM     28  F   UNL A   1      29.584  24.944  23.735  1.00  0.00    -0.167 F 
ENDBRANCH  18  25
ENDBRANCH   5   8
ENDBRANCH   3   4
ENDBRANCH   2   3
ENDBRANCH   1   2
BRANCH   1  29
ATOM     29  C   UNL A   1      33.969  28.244  26.907  1.00  0.00     0.116 C 
BRANCH  29  30
ATOM     30  N   UNL A   1      33.452  29.565  27.293  1.00  0.00    -0.352 N 
ATOM     31  C   UNL A   1      34.336  30.537  27.953  1.00  0.00     0.251 C 
ATOM     32  H   UNL A   1      32.513  29.799  27.109  1.00  0.00     0.163 HD
ATOM     33  O   UNL A   1      33.889  31.679  28.286  1.00  0.00    -0.269 OA
BRANCH  31  34
ATOM     34  C   UNL A   1      35.785  30.175  28.236  1.00  0.00     0.039 A 
ATOM     35  C   UNL A   1      36.185  29.838  29.524  1.00  0.00     0.014 A 
ATOM     36  C   UNL A   1      36.689  30.173  27.280  1.00  0.00     0.014 A 
ATOM     37  C   UNL A   1      37.353  29.051  29.637  1.00  0.00     0.010 A 
ATOM     38  C   UNL A   1      38.022  29.849  27.556  1.00  0.00     0.010 A 
ATOM     39  C   UNL A   1      38.357  29.298  28.704  1.00  0.00    -0.014 A 
BRANCH  39  40
ATOM     40  C   UNL A   1      39.804  28.942  29.003  1.00  0.00     0.031 A 
ATOM     41  C   UNL A   1      40.254  27.670  28.645  1.00  0.00     0.074 A 
ATOM     42  C   UNL A   1      40.596  29.900  29.615  1.00  0.00     0.049 A 
ATOM     43  N   UNL A   1      41.485  27.172  28.786  1.00  0.00    -0.248 NA
ATOM     44  C   UNL A   1      39.407  26.640  28.028  1.00  0.00     0.031 C 
ATOM     45  C   UNL A   1      40.151  31.189  29.970  1.00  0.00     0.029 A 
ATOM     46  N   UNL A   1      41.919  29.794  29.981  1.00  0.00    -0.354 N 
ATOM     47  C   UNL A   1      41.535  25.927  28.310  1.00  0.00     0.074 A 
ATOM     48  C   UNL A   1      40.198  25.564  27.821  1.00  0.00     0.031 C 
ATOM     49  C   UNL A   1      41.188  31.844  30.555  1.00  0.00     0.029 A 
ATOM     50  C   UNL A   1      42.297  30.979  30.572  1.00  0.00     0.049 A 
ATOM     51  H   UNL A   1      42.494  29.007  29.846  1.00  0.00     0.167 HD
ATOM     52  C   UNL A   1      42.644  25.081  28.262  1.00  0.00     0.037 A 
ATOM     53  C   UNL A   1      43.535  31.304  31.106  1.00  0.00     0.037 A 
ATOM     54  C   UNL A   1      43.892  25.423  28.755  1.00  0.00     0.049 A 
ATOM     55  C   UNL A   1      44.629  30.436  31.111  1.00  0.00     0.074 A 
ATOM     56  C   UNL A   1      45.023  24.584  28.708  1.00  0.00     0.029 A 
ATOM     57  N   UNL A   1      44.265  26.598  29.369  1.00  0.00    -0.354 N 
ATOM     58  N   UNL A   1      44.690  29.206  30.599  1.00  0.00    -0.248 NA
ATOM     59  C   UNL A   1      45.935  30.758  31.701  1.00  0.00     0.031 C 
ATOM     60  C   UNL A   1      46.061  25.241  29.293  1.00  0.00     0.029 A 
ATOM     61  C   UNL A   1      45.594  26.501  29.717  1.00  0.00     0.049 A 
ATOM     62  H   UNL A   1      43.681  27.375  29.531  1.00  0.00     0.167 HD
ATOM     63  C   UNL A   1      45.910  28.694  30.777  1.00  0.00     0.074 A 
ATOM     64  C   UNL A   1      46.726  29.681  31.495  1.00  0.00     0.031 C 
ATOM     65  C   UNL A   1      46.375  27.443  30.366  1.00  0.00     0.037 A 
BRANCH  52  66
ATOM     66  C   UNL A   1      42.472  23.708  27.633  1.00  0.00     0.058 A 
ATOM     67  C   UNL A   1      42.319  22.606  28.450  1.00  0.00     0.135 A 
ATOM     68  C   UNL A   1      42.556  23.527  26.261  1.00  0.00     0.135 A 
ATOM     69  F   UNL A   1      42.237  22.770  29.768  1.00  0.00    -0.206 F 
ATOM     70  C   UNL A   1      42.253  21.387  27.937  1.00  0.00     0.059 A 
ATOM     71  C   UNL A   1      42.477  22.236  25.756  1.00  0.00     0.059 A 
ATOM     72  F   UNL A   1      42.708  24.566  25.446  1.00  0.00    -0.206 F 
ATOM     73  C   UNL A   1      42.324  21.179  26.634  1.00  0.00     0.060 A 
BRANCH  73  74
ATOM     74  S   UNL A   1      42.221  19.491  25.989  1.00  0.00     0.124 S 
ATOM     75  O   UNL A   1      43.087  19.370  24.734  1.00  0.00    -0.237 OA
ATOM     76  O   UNL A   1      42.722  18.509  27.052  1.00  0.00    -0.237 OA
ATOM     77  O   UNL A   1      40.597  19.127  25.599  1.00  0.00    -0.744 OA
ENDBRANCH  73  74
ENDBRANCH  52  66
BRANCH  53  78
ATOM     78  C   UNL A   1      43.711  32.683  31.720  1.00  0.00     0.058 A 
ATOM     79  C   UNL A   1      44.035  33.750  30.905  1.00  0.00     0.135 A 
ATOM     80  C   UNL A   1      43.465  32.910  33.066  1.00  0.00     0.135 A 
ATOM     81  F   UNL A   1      44.272  33.543  29.614  1.00  0.00    -0.206 F 
ATOM     82  C   UNL A   1      44.111  34.977  31.396  1.00  0.00     0.059 A 
ATOM     83  C   UNL A   1      43.548  34.209  33.545  1.00  0.00     0.059 A 
ATOM     84  F   UNL A   1      43.155  31.904  33.880  1.00  0.00    -0.206 F 
ATOM     85  C   UNL A   1      43.877  35.228  32.673  1.00  0.00     0.060 A 
BRANCH  85  86
ATOM     86  S   UNL A   1      43.990  36.928  33.284  1.00  0.00     0.124 S 
ATOM     87  O   UNL A   1      45.258  37.086  34.126  1.00  0.00    -0.237 OA
ATOM     88  O   UNL A   1      44.041  37.895  32.098  1.00  0.00    -0.237 OA
ATOM     89  O   UNL A   1      42.620  37.280  34.247  1.00  0.00    -0.744 OA
ENDBRANCH  85  86
ENDBRANCH  53  78
BRANCH  65  90
ATOM     90  C   UNL A   1      47.827  27.094  30.651  1.00  0.00     0.058 A 
ATOM     91  C   UNL A   1      48.828  27.519  29.801  1.00  0.00     0.135 A 
ATOM     92  C   UNL A   1      48.162  26.343  31.769  1.00  0.00     0.135 A 
ATOM     93  F   UNL A   1      48.517  28.240  28.727  1.00  0.00    -0.206 F 
ATOM     94  C   UNL A   1      50.094  27.219  30.043  1.00  0.00     0.059 A 
ATOM     95  C   UNL A   1      49.500  26.052  31.996  1.00  0.00     0.059 A 
ATOM     96  F   UNL A   1      47.221  25.913  32.605  1.00  0.00    -0.206 F 
ATOM     97  C   UNL A   1      50.449  26.510  31.103  1.00  0.00     0.060 A 
BRANCH  97  98
ATOM     98  S   UNL A   1      52.196  26.137  31.386  1.00  0.00     0.124 S 
ATOM     99  O   UNL A   1      52.804  27.203  32.302  1.00  0.00    -0.237 OA
ATOM    100  O   UNL A   1      52.324  24.762  32.047  1.00  0.00    -0.237 OA
ATOM    101  O   UNL A   1      53.028  26.130  29.892  1.00  0.00    -0.744 OA
ENDBRANCH  97  98
ENDBRANCH  65  90
ENDBRANCH  39  40
ENDBRANCH  31  34
ENDBRANCH  29  30
ENDBRANCH   1  29
TORSDOF 16
ENDMDL
MODEL 2
REMARK VINA RESULT:     -12.5      4.850     10.139
REMARK SMILES Cc1cc(S(F)(F)(F)(F)F)cc2c1O[C@H](C(F)(F)F)C(C(=O)NCCCCNC(=O)c1ccc(-c3c4nc(c(-c5c(F)cc(S(=O)(=O)[O-])cc5F)c5ccc([nH]5)c(-c5c(F)cc(S(=O)(=O)[O-])cc5F)c5nc(c(-c6c(F)cc(S(=O)(=O)[O-])cc6F)c6ccc3[nH]6)C=C5)C=C4)cc1)=C2
REMARK SMILES IDX 26 1 25 2 24 3 23 4 21 5 22 6 20 8 1 9 2 10 3 11 13 12 4 13
REMARK SMILES IDX 12 14 14 15 11 16 97 17 15 18 5 19 6 20 7 21 8 22 9 23 10 24
REMARK SMILES IDX 16 25 17 26 18 27 19 28 27 29 28 30 29 31 30 33 31 34 32 35
REMARK SMILES IDX 96 36 33 37 95 38 34 39 35 40 36 41 89 42 37 43 94 44 88 45
REMARK SMILES IDX 90 46 38 47 93 48 87 49 86 50 39 52 73 53 52 54 72 55 53 56
REMARK SMILES IDX 56 57 71 58 91 59 54 60 55 61 70 63 92 64 57 65 40 66 41 67
REMARK SMILES IDX 50 68 42 69 43 70 49 71 51 72 44 73 45 74 46 75 47 76 48 77
REMARK SMILES IDX 74 78 75 79 84 80 76 81 77 82 83 83 85 84 78 85 79 86 80 87
REMARK SMILES IDX 81 88 82 89 58 90 59 91 68 92 60 93 61 94 67 95 69 96 62 97
REMARK SMILES IDX 63 98 64 99 65 100 66 101
REMARK H PARENT 23 7 28 32 90 51 56 62
REMARK Flexibility Score: inf
ROOT
ATOM      1  C   UNL A   1      38.158  23.355  26.254  1.00  0.00     0.023 C 
ENDROOT
BRANCH   1   2
ATOM      2  C   UNL A   1      38.261  21.961  25.655  1.00  0.00     0.023 C 
BRANCH   2   3
ATOM      3  C   UNL A   1      36.993  21.649  24.878  1.00  0.00     0.116 C 
BRANCH   3   4
ATOM      4  N   UNL A   1      36.000  21.050  25.783  1.00  0.00    -0.352 N 
ATOM      5  C   UNL A   1      34.713  21.723  26.011  1.00  0.00     0.251 C 
ATOM      6  O   UNL A   1      33.855  21.204  26.792  1.00  0.00    -0.270 OA
ATOM      7  H   UNL A   1      36.197  20.198  26.236  1.00  0.00     0.163 HD
BRANCH   5   8
ATOM      8  C   UNL A   1      34.408  23.038  25.312  1.00  0.00     0.067 C 
ATOM      9  C   UNL A   1      33.425  26.693  21.838  1.00  0.00     0.048 C 
ATOM     10  C   UNL A   1      33.570  26.637  23.350  1.00  0.00    -0.007 A 
ATOM     11  C   UNL A   1      33.426  27.781  24.103  1.00  0.00     0.031 A 
ATOM     12  C   UNL A   1      33.849  25.429  23.986  1.00  0.00     0.130 A 
ATOM     13  C   UNL A   1      33.562  27.742  25.485  1.00  0.00     0.108 A 
ATOM     14  C   UNL A   1      33.980  25.392  25.392  1.00  0.00     0.019 A 
ATOM     15  O   UNL A   1      34.014  24.176  23.238  1.00  0.00    -0.475 OA
ATOM     16  C   UNL A   1      33.828  26.568  26.131  1.00  0.00     0.036 A 
ATOM     17  C   UNL A   1      34.273  24.111  26.034  1.00  0.00     0.025 C 
ATOM     18  C   UNL A   1      34.283  23.043  23.923  1.00  0.00     0.314 C 
BRANCH  13  19
ATOM     19  S   UNL A   1      33.381  29.267  26.443  1.00  0.00     0.310 S 
ATOM     20  F   UNL A   1      33.313  28.470  27.814  1.00  0.00    -0.094 F 
ATOM     21  F   UNL A   1      31.816  29.106  26.352  1.00  0.00    -0.094 F 
ATOM     22  F   UNL A   1      33.226  30.576  27.268  1.00  0.00    -0.094 F 
ATOM     23  F   UNL A   1      34.946  29.336  26.643  1.00  0.00    -0.094 F 
ATOM     24  F   UNL A   1      33.551  27.879  25.705  1.00  0.00    -0.094 F 
ENDBRANCH  13  19
BRANCH  18  25
ATOM     25  C   UNL A   1      33.020  22.227  23.708  1.00  0.00     0.429 C 
ATOM     26  F   UNL A   1      32.518  22.494  22.506  1.00  0.00    -0.167 F 
ATOM     27  F   UNL A   1      33.310  20.931  23.790  1.00  0.00    -0.167 F 
ATOM     28  F   UNL A   1      32.126  22.541  24.642  1.00  0.00    -0.167 F 
ENDBRANCH  18  25
ENDBRANCH   5   8
ENDBRANCH   3   4
ENDBRANCH   2   3
ENDBRANCH   1   2
BRANCH   1  29
ATOM     29  C   UNL A   1      39.436  23.678  27.009  1.00  0.00     0.116 C 
BRANCH  29  30
ATOM     30  N   UNL A   1      40.536  23.867  26.051  1.00  0.00    -0.352 N 
ATOM     31  C   UNL A   1      41.458  25.002  26.204  1.00  0.00     0.251 C 
ATOM     32  H   UNL A   1      40.655  23.232  25.307  1.00  0.00     0.163 HD
ATOM     33  O   UNL A   1      42.408  25.165  25.376  1.00  0.00    -0.269 OA
BRANCH  31  34
ATOM     34  C   UNL A   1      41.273  25.980  27.353  1.00  0.00     0.039 A 
ATOM     35  C   UNL A   1      40.014  26.178  27.911  1.00  0.00     0.014 A 
ATOM     36  C   UNL A   1      42.288  26.657  27.844  1.00  0.00     0.014 A 
ATOM     37  C   UNL A   1      39.980  26.671  29.234  1.00  0.00     0.010 A 
ATOM     38  C   UNL A   1      42.103  27.564  28.895  1.00  0.00     0.010 A 
ATOM     39  C   UNL A   1      40.980  27.577  29.582  1.00  0.00    -0.014 A 
BRANCH  39  40
ATOM     40  C   UNL A   1      40.780  28.558  30.726  1.00  0.00     0.031 A 
ATOM     41  C   UNL A   1      39.789  29.531  30.589  1.00  0.00     0.074 A 
ATOM     42  C   UNL A   1      41.592  28.430  31.841  1.00  0.00     0.049 A 
ATOM     43  N   UNL A   1      39.431  30.458  31.480  1.00  0.00    -0.248 NA
ATOM     44  C   UNL A   1      38.951  29.691  29.393  1.00  0.00     0.031 C 
ATOM     45  C   UNL A   1      42.588  27.444  31.990  1.00  0.00     0.029 A 
ATOM     46  N   UNL A   1      41.591  29.204  32.979  1.00  0.00    -0.354 N 
ATOM     47  C   UNL A   1      38.431  31.199  30.997  1.00  0.00     0.074 A 
ATOM     48  C   UNL A   1      38.112  30.720  29.645  1.00  0.00     0.031 C 
ATOM     49  C   UNL A   1      43.186  27.630  33.195  1.00  0.00     0.029 A 
ATOM     50  C   UNL A   1      42.575  28.733  33.820  1.00  0.00     0.049 A 
ATOM     51  H   UNL A   1      40.992  29.964  33.160  1.00  0.00     0.167 HD
ATOM     52  C   UNL A   1      37.773  32.253  31.632  1.00  0.00     0.037 A 
ATOM     53  C   UNL A   1      42.935  29.226  35.065  1.00  0.00     0.037 A 
ATOM     54  C   UNL A   1      38.104  32.717  32.894  1.00  0.00     0.049 A 
ATOM     55  C   UNL A   1      42.315  30.318  35.675  1.00  0.00     0.074 A 
ATOM     56  C   UNL A   1      37.445  33.774  33.551  1.00  0.00     0.029 A 
ATOM     57  N   UNL A   1      39.103  32.262  33.725  1.00  0.00    -0.354 N 
ATOM     58  N   UNL A   1      41.290  31.032  35.209  1.00  0.00    -0.248 NA
ATOM     59  C   UNL A   1      42.708  30.868  36.979  1.00  0.00     0.031 C 
ATOM     60  C   UNL A   1      38.044  33.960  34.758  1.00  0.00     0.029 A 
ATOM     61  C   UNL A   1      39.089  33.022  34.873  1.00  0.00     0.049 A 
ATOM     62  H   UNL A   1      39.723  31.520  33.531  1.00  0.00     0.167 HD
ATOM     63  C   UNL A   1      40.959  31.986  36.084  1.00  0.00     0.074 A 
ATOM     64  C   UNL A   1      41.871  31.898  37.231  1.00  0.00     0.031 C 
ATOM     65  C   UNL A   1      39.929  32.922  35.971  1.00  0.00     0.037 A 
BRANCH  52  66
ATOM     66  C   UNL A   1      36.627  32.930  30.896  1.00  0.00     0.058 A 
ATOM     67  C   UNL A   1      36.907  33.928  29.983  1.00  0.00     0.135 A 
ATOM     68  C   UNL A   1      35.305  32.630  31.187  1.00  0.00     0.135 A 
ATOM     69  F   UNL A   1      38.173  34.221  29.697  1.00  0.00    -0.206 F 
ATOM     70  C   UNL A   1      35.930  34.596  29.390  1.00  0.00     0.059 A 
ATOM     71  C   UNL A   1      34.305  33.345  30.542  1.00  0.00     0.059 A 
ATOM     72  F   UNL A   1      35.001  31.678  32.064  1.00  0.00    -0.206 F 
ATOM     73  C   UNL A   1      34.659  34.331  29.641  1.00  0.00     0.060 A 
BRANCH  73  74
ATOM     74  S   UNL A   1      33.366  35.273  28.794  1.00  0.00     0.124 S 
ATOM     75  O   UNL A   1      34.010  36.295  27.856  1.00  0.00    -0.237 OA
ATOM     76  O   UNL A   1      32.488  34.316  27.982  1.00  0.00    -0.237 OA
ATOM     77  O   UNL A   1      32.403  36.086  29.949  1.00  0.00    -0.744 OA
ENDBRANCH  73  74
ENDBRANCH  52  66
BRANCH  53  78
ATOM     78  C   UNL A   1      44.070  28.538  35.807  1.00  0.00     0.058 A 
ATOM     79  C   UNL A   1      43.783  27.496  36.666  1.00  0.00     0.135 A 
ATOM     80  C   UNL A   1      45.395  28.875  35.571  1.00  0.00     0.135 A 
ATOM     81  F   UNL A   1      42.516  27.165  36.898  1.00  0.00    -0.206 F 
ATOM     82  C   UNL A   1      44.754  26.822  37.261  1.00  0.00     0.059 A 
ATOM     83  C   UNL A   1      46.387  28.144  36.207  1.00  0.00     0.059 A 
ATOM     84  F   UNL A   1      45.706  29.877  34.753  1.00  0.00    -0.206 F 
ATOM     85  C   UNL A   1      46.028  27.114  37.054  1.00  0.00     0.060 A 
BRANCH  85  86
ATOM     86  S   UNL A   1      47.312  26.153  37.890  1.00  0.00     0.124 S 
ATOM     87  O   UNL A   1      48.188  27.088  38.727  1.00  0.00    -0.237 OA
ATOM     88  O   UNL A   1      46.658  25.113  38.803  1.00  0.00    -0.237 OA
ATOM     89  O   UNL A   1      48.280  25.358  36.724  1.00  0.00    -0.744 OA
ENDBRANCH  85  86
ENDBRANCH  53  78
BRANCH  65  90
ATOM     90  C   UNL A   1      39.718  33.892  37.123  1.00  0.00     0.058 A 
ATOM     91  C   UNL A   1      38.953  33.528  38.211  1.00  0.00     0.135 A 
ATOM     92  C   UNL A   1      40.294  35.154  37.090  1.00  0.00     0.135 A 
ATOM     93  F   UNL A   1      38.397  32.320  38.251  1.00  0.00    -0.206 F 
ATOM     94  C   UNL A   1      38.765  34.368  39.218  1.00  0.00     0.059 A 
ATOM     95  C   UNL A   1      40.082  36.006  38.165  1.00  0.00     0.059 A 
ATOM     96  F   UNL A   1      41.033  35.538  36.054  1.00  0.00    -0.206 F 
ATOM     97  C   UNL A   1      39.304  35.576  39.222  1.00  0.00     0.060 A 
BRANCH  97  98
ATOM     98  S   UNL A   1      39.020  36.678  40.629  1.00  0.00     0.124 S 
ATOM     99  O   UNL A   1      38.105  35.985  41.643  1.00  0.00    -0.237 OA
ATOM    100  O   UNL A   1      40.357  37.012  41.294  1.00  0.00    -0.237 OA
ATOM    101  O   UNL A   1      38.278  38.119  40.085  1.00  0.00    -0.744 OA
ENDBRANCH  97  98
ENDBRANCH  65  90
ENDBRANCH  39  40
ENDBRANCH  31  34
ENDBRANCH  29  30
ENDBRANCH   1  29
TORSDOF 16
ENDMDL
MODEL 3
REMARK VINA RESULT:     -12.4      2.931      3.830
REMARK SMILES Cc1cc(S(F)(F)(F)(F)F)cc2c1O[C@H](C(F)(F)F)C(C(=O)NCCCCNC(=O)c1ccc(-c3c4nc(c(-c5c(F)cc(S(=O)(=O)[O-])cc5F)c5ccc([nH]5)c(-c5c(F)cc(S(=O)(=O)[O-])cc5F)c5nc(c(-c6c(F)cc(S(=O)(=O)[O-])cc6F)c6ccc3[nH]6)C=C5)C=C4)cc1)=C2
REMARK SMILES IDX 26 1 25 2 24 3 23 4 21 5 22 6 20 8 1 9 2 10 3 11 13 12 4 13
REMARK SMILES IDX 12 14 14 15 11 16 97 17 15 18 5 19 6 20 7 21 8 22 9 23 10 24
REMARK SMILES IDX 16 25 17 26 18 27 19 28 27 29 28 30 29 31 30 33 31 34 32 35
REMARK SMILES IDX 96 36 33 37 95 38 34 39 35 40 36 41 89 42 37 43 94 44 88 45
REMARK SMILES IDX 90 46 38 47 93 48 87 49 86 50 39 52 73 53 52 54 72 55 53 56
REMARK SMILES IDX 56 57 71 58 91 59 54 60 55 61 70 63 92 64 57 65 40 66 41 67
REMARK SMILES IDX 50 68 42 69 43 70 49 71 51 72 44 73 45 74 46 75 47 76 48 77
REMARK SMILES IDX 74 78 75 79 84 80 76 81 77 82 83 83 85 84 78 85 79 86 80 87
REMARK SMILES IDX 81 88 82 89 58 90 59 91 68 92 60 93 61 94 67 95 69 96 62 97
REMARK SMILES IDX 63 98 64 99 65 100 66 101
REMARK H PARENT 23 7 28 32 90 51 56 62
REMARK Flexibility Score: inf
ROOT
ATOM      1  C   UNL A   1      34.752  30.003  27.297  1.00  0.00     0.023 C 
ENDROOT
BRANCH   1   2
ATOM      2  C   UNL A   1      33.437  30.766  27.273  1.00  0.00     0.023 C 
BRANCH   2   3
ATOM      3  C   UNL A   1      32.352  29.887  26.671  1.00  0.00     0.116 C 
BRANCH   3   4
ATOM      4  N   UNL A   1      32.327  30.072  25.212  1.00  0.00    -0.352 N 
ATOM      5  C   UNL A   1      32.451  28.909  24.322  1.00  0.00     0.251 C 
ATOM      6  O   UNL A   1      32.428  29.068  23.061  1.00  0.00    -0.270 OA
ATOM      7  H   UNL A   1      32.226  30.974  24.832  1.00  0.00     0.163 HD
BRANCH   5   8
ATOM      8  C   UNL A   1      32.606  27.515  24.909  1.00  0.00     0.067 C 
ATOM      9  C   UNL A   1      31.860  23.046  27.331  1.00  0.00     0.048 C 
ATOM     10  C   UNL A   1      32.992  23.682  26.541  1.00  0.00    -0.007 A 
ATOM     11  C   UNL A   1      34.173  22.999  26.350  1.00  0.00     0.031 A 
ATOM     12  C   UNL A   1      32.845  24.959  26.004  1.00  0.00     0.130 A 
ATOM     13  C   UNL A   1      35.216  23.573  25.634  1.00  0.00     0.108 A 
ATOM     14  C   UNL A   1      33.906  25.538  25.273  1.00  0.00     0.019 A 
ATOM     15  O   UNL A   1      31.611  25.737  26.175  1.00  0.00    -0.475 OA
ATOM     16  C   UNL A   1      35.092  24.822  25.093  1.00  0.00     0.036 A 
ATOM     17  C   UNL A   1      33.724  26.880  24.720  1.00  0.00     0.025 C 
ATOM     18  C   UNL A   1      31.542  26.970  25.626  1.00  0.00     0.314 C 
BRANCH  13  19
ATOM     19  S   UNL A   1      36.760  22.655  25.413  1.00  0.00     0.310 S 
ATOM     20  F   UNL A   1      37.281  23.673  24.315  1.00  0.00    -0.094 F 
ATOM     21  F   UNL A   1      36.080  21.847  24.243  1.00  0.00    -0.094 F 
ATOM     22  F   UNL A   1      38.086  21.866  25.223  1.00  0.00    -0.094 F 
ATOM     23  F   UNL A   1      37.466  23.567  26.492  1.00  0.00    -0.094 F 
ATOM     24  F   UNL A   1      35.456  23.539  25.540  1.00  0.00    -0.094 F 
ENDBRANCH  13  19
BRANCH  18  25
ATOM     25  C   UNL A   1      30.485  26.785  24.549  1.00  0.00     0.429 C 
ATOM     26  F   UNL A   1      29.910  27.953  24.286  1.00  0.00    -0.167 F 
ATOM     27  F   UNL A   1      31.057  26.312  23.445  1.00  0.00    -0.167 F 
ATOM     28  F   UNL A   1      29.565  25.923  24.976  1.00  0.00    -0.167 F 
ENDBRANCH  18  25
ENDBRANCH   5   8
ENDBRANCH   3   4
ENDBRANCH   2   3
ENDBRANCH   1   2
BRANCH   1  29
ATOM     29  C   UNL A   1      35.766  30.767  28.131  1.00  0.00     0.116 C 
BRANCH  29  30
ATOM     30  N   UNL A   1      35.407  30.665  29.553  1.00  0.00    -0.352 N 
ATOM     31  C   UNL A   1      36.397  30.186  30.529  1.00  0.00     0.251 C 
ATOM     32  H   UNL A   1      34.504  30.919  29.852  1.00  0.00     0.163 HD
ATOM     33  O   UNL A   1      36.086  30.098  31.757  1.00  0.00    -0.269 OA
BRANCH  31  34
ATOM     34  C   UNL A   1      37.791  29.795  30.066  1.00  0.00     0.039 A 
ATOM     35  C   UNL A   1      37.998  29.334  28.770  1.00  0.00     0.014 A 
ATOM     36  C   UNL A   1      38.828  29.881  30.871  1.00  0.00     0.014 A 
ATOM     37  C   UNL A   1      39.304  29.471  28.252  1.00  0.00     0.010 A 
ATOM     38  C   UNL A   1      40.105  29.508  30.437  1.00  0.00     0.010 A 
ATOM     39  C   UNL A   1      40.349  29.307  29.159  1.00  0.00    -0.014 A 
BRANCH  39  40
ATOM     40  C   UNL A   1      41.737  28.906  28.685  1.00  0.00     0.031 A 
ATOM     41  C   UNL A   1      41.945  27.576  28.318  1.00  0.00     0.074 A 
ATOM     42  C   UNL A   1      42.717  29.883  28.645  1.00  0.00     0.049 A 
ATOM     43  N   UNL A   1      43.067  27.027  27.847  1.00  0.00    -0.248 NA
ATOM     44  C   UNL A   1      40.916  26.529  28.394  1.00  0.00     0.031 C 
ATOM     45  C   UNL A   1      42.512  31.230  29.006  1.00  0.00     0.029 A 
ATOM     46  N   UNL A   1      44.032  29.745  28.261  1.00  0.00    -0.354 N 
ATOM     47  C   UNL A   1      42.874  25.732  27.591  1.00  0.00     0.074 A 
ATOM     48  C   UNL A   1      41.490  25.391  27.944  1.00  0.00     0.031 C 
ATOM     49  C   UNL A   1      43.690  31.890  28.853  1.00  0.00     0.029 A 
ATOM     50  C   UNL A   1      44.650  30.969  28.393  1.00  0.00     0.049 A 
ATOM     51  H   UNL A   1      44.458  28.915  27.947  1.00  0.00     0.167 HD
ATOM     52  C   UNL A   1      43.798  24.823  27.074  1.00  0.00     0.037 A 
ATOM     53  C   UNL A   1      45.975  31.283  28.135  1.00  0.00     0.037 A 
ATOM     54  C   UNL A   1      45.111  25.148  26.774  1.00  0.00     0.049 A 
ATOM     55  C   UNL A   1      46.915  30.360  27.674  1.00  0.00     0.074 A 
ATOM     56  C   UNL A   1      46.054  24.245  26.245  1.00  0.00     0.029 A 
ATOM     57  N   UNL A   1      45.735  26.366  26.930  1.00  0.00    -0.354 N 
ATOM     58  N   UNL A   1      46.711  29.075  27.379  1.00  0.00    -0.248 NA
ATOM     59  C   UNL A   1      48.329  30.674  27.426  1.00  0.00     0.031 C 
ATOM     60  C   UNL A   1      47.232  24.906  26.092  1.00  0.00     0.029 A 
ATOM     61  C   UNL A   1      47.045  26.234  26.525  1.00  0.00     0.049 A 
ATOM     62  H   UNL A   1      45.317  27.189  27.272  1.00  0.00     0.167 HD
ATOM     63  C   UNL A   1      47.845  28.517  26.947  1.00  0.00     0.074 A 
ATOM     64  C   UNL A   1      48.903  29.536  26.978  1.00  0.00     0.031 C 
ATOM     65  C   UNL A   1      48.038  27.201  26.524  1.00  0.00     0.037 A 
BRANCH  52  66
ATOM     66  C   UNL A   1      43.338  23.395  26.825  1.00  0.00     0.058 A 
ATOM     67  C   UNL A   1      43.301  22.505  27.880  1.00  0.00     0.135 A 
ATOM     68  C   UNL A   1      43.042  22.944  25.548  1.00  0.00     0.135 A 
ATOM     69  F   UNL A   1      43.583  22.929  29.109  1.00  0.00    -0.206 F 
ATOM     70  C   UNL A   1      42.988  21.234  27.682  1.00  0.00     0.059 A 
ATOM     71  C   UNL A   1      42.711  21.607  25.377  1.00  0.00     0.059 A 
ATOM     72  F   UNL A   1      43.072  23.775  24.510  1.00  0.00    -0.206 F 
ATOM     73  C   UNL A   1      42.695  20.773  26.478  1.00  0.00     0.060 A 
BRANCH  73  74
ATOM     74  S   UNL A   1      42.267  19.026  26.269  1.00  0.00     0.124 S 
ATOM     75  O   UNL A   1      40.825  18.910  25.770  1.00  0.00    -0.237 OA
ATOM     76  O   UNL A   1      43.213  18.388  25.249  1.00  0.00    -0.237 OA
ATOM     77  O   UNL A   1      42.418  18.219  27.769  1.00  0.00    -0.744 OA
ENDBRANCH  73  74
ENDBRANCH  52  66
BRANCH  53  78
ATOM     78  C   UNL A   1      46.431  32.715  28.368  1.00  0.00     0.058 A 
ATOM     79  C   UNL A   1      46.337  33.631  27.339  1.00  0.00     0.135 A 
ATOM     80  C   UNL A   1      46.854  33.143  29.618  1.00  0.00     0.135 A 
ATOM     81  F   UNL A   1      45.932  33.230  26.138  1.00  0.00    -0.206 F 
ATOM     82  C   UNL A   1      46.645  34.902  27.535  1.00  0.00     0.059 A 
ATOM     83  C   UNL A   1      47.163  34.484  29.790  1.00  0.00     0.059 A 
ATOM     84  F   UNL A   1      46.960  32.286  30.630  1.00  0.00    -0.206 F 
ATOM     85  C   UNL A   1      47.046  35.344  28.716  1.00  0.00     0.060 A 
BRANCH  85  86
ATOM     86  S   UNL A   1      47.447  37.097  28.925  1.00  0.00     0.124 S 
ATOM     87  O   UNL A   1      46.154  37.909  29.016  1.00  0.00    -0.237 OA
ATOM     88  O   UNL A   1      48.260  37.285  30.208  1.00  0.00    -0.237 OA
ATOM     89  O   UNL A   1      48.364  37.636  27.585  1.00  0.00    -0.744 OA
ENDBRANCH  85  86
ENDBRANCH  53  78
BRANCH  65  90
ATOM     90  C   UNL A   1      49.421  26.804  26.035  1.00  0.00     0.058 A 
ATOM     91  C   UNL A   1      50.310  26.178  26.884  1.00  0.00     0.135 A 
ATOM     92  C   UNL A   1      49.805  27.068  24.728  1.00  0.00     0.135 A 
ATOM     93  F   UNL A   1      49.951  25.921  28.140  1.00  0.00    -0.206 F 
ATOM     94  C   UNL A   1      51.517  25.830  26.465  1.00  0.00     0.059 A 
ATOM     95  C   UNL A   1      51.075  26.683  24.320  1.00  0.00     0.059 A 
ATOM     96  F   UNL A   1      48.975  27.675  23.885  1.00  0.00    -0.206 F 
ATOM     97  C   UNL A   1      51.913  26.060  25.224  1.00  0.00     0.060 A 
BRANCH  97  98
ATOM     98  S   UNL A   1      53.571  25.555  24.705  1.00  0.00     0.124 S 
ATOM     99  O   UNL A   1      53.674  24.028  24.742  1.00  0.00    -0.237 OA
ATOM    100  O   UNL A   1      53.833  26.050  23.281  1.00  0.00    -0.237 OA
ATOM    101  O   UNL A   1      54.731  26.229  25.765  1.00  0.00    -0.744 OA
ENDBRANCH  97  98
ENDBRANCH  65  90
ENDBRANCH  39  40
ENDBRANCH  31  34
ENDBRANCH  29  30
ENDBRANCH   1  29
TORSDOF 16
ENDMDL
