MODEL 1
REMARK VINA RESULT:     -14.1      0.000      0.000
REMARK SMILES NS(=O)(=O)c1ccc(-n2nc(C(=O)NCCCCNC(=O)c3ccc(-c4c5nc(c(-c6c(F)cc(S(=O)(=O)[O-])cc6F)c6ccc([nH]6)c(-c6c(F)cc(S(=O)(=O)[O-])cc6F)c6nc(c(-c7c(F)cc(S(=O)(=O)[O-])cc7F)c7ccc4[nH]7)C=C6)C=C5)cc3)c(Cl)c2-c2ccc(Cl)cc2)cc1
REMARK SMILES IDX 16 1 15 2 14 3 12 4 13 5 11 7 9 8 10 9 90 10 88 11 89 12
REMARK SMILES IDX 8 13 5 14 6 15 99 16 7 17 98 18 2 19 3 20 4 21 1 22 91 25
REMARK SMILES IDX 92 26 97 27 93 28 96 29 94 30 95 31 17 32 18 33 19 34 20 35
REMARK SMILES IDX 21 37 22 38 23 39 87 40 24 41 86 42 25 43 26 44 27 45 80 46
REMARK SMILES IDX 28 47 85 48 79 49 81 50 29 51 84 52 78 53 77 54 30 56 64 57
REMARK SMILES IDX 43 58 63 59 44 60 47 61 62 62 82 63 45 64 46 65 61 67 83 68
REMARK SMILES IDX 48 69 31 70 32 71 41 72 33 73 34 74 40 75 42 76 35 77 36 78
REMARK SMILES IDX 37 79 38 80 39 81 65 82 66 83 75 84 67 85 68 86 74 87 76 88
REMARK SMILES IDX 69 89 70 90 71 91 72 92 73 93 49 94 50 95 59 96 51 97 52 98
REMARK SMILES IDX 58 99 60 100 53 101 54 102 55 103 56 104 57 105
REMARK H PARENT 14 6 1 23 1 24 19 36 81 55 47 66
REMARK Flexibility Score: inf
ROOT
ATOM      1  C   UNL A   1      36.208  21.219  24.791  1.00  0.00     0.023 C 
ENDROOT
BRANCH   1   2
ATOM      2  C   UNL A   1      34.854  21.114  25.517  1.00  0.00     0.116 C 
BRANCH   2   3
ATOM      3  N   UNL A   1      33.785  20.743  24.602  1.00  0.00    -0.351 N 
ATOM      4  C   UNL A   1      32.699  21.422  24.076  1.00  0.00     0.273 C 
ATOM      5  O   UNL A   1      32.006  20.774  23.287  1.00  0.00    -0.267 OA
ATOM      6  H   UNL A   1      33.846  19.811  24.290  1.00  0.00     0.163 HD
BRANCH   4   7
ATOM      7  C   UNL A   1      32.408  22.843  24.370  1.00  0.00     0.169 A 
ATOM      8  N   UNL A   1      31.685  24.843  23.977  1.00  0.00    -0.231 N 
ATOM      9  N   UNL A   1      31.648  23.571  23.512  1.00  0.00    -0.160 NA
ATOM     10  C   UNL A   1      32.475  24.956  25.101  1.00  0.00     0.094 A 
ATOM     11  C   UNL A   1      32.686  23.649  25.494  1.00  0.00     0.100 A 
ATOM     12  Cl  UNL A   1      33.094  23.233  27.089  1.00  0.00    -0.079 Cl
BRANCH   8  13
ATOM     13  C   UNL A   1      30.833  25.855  23.465  1.00  0.00     0.065 A 
ATOM     14  C   UNL A   1      29.313  28.105  22.871  1.00  0.00     0.082 A 
ATOM     15  C   UNL A   1      28.756  27.086  23.651  1.00  0.00     0.024 A 
ATOM     16  C   UNL A   1      30.605  27.984  22.349  1.00  0.00     0.024 A 
ATOM     17  C   UNL A   1      29.510  25.937  23.927  1.00  0.00     0.030 A 
ATOM     18  C   UNL A   1      31.371  26.862  22.657  1.00  0.00     0.030 A 
BRANCH  14  19
ATOM     19  S   UNL A   1      28.455  29.630  22.608  1.00  0.00     0.238 S 
ATOM     20  O   UNL A   1      27.190  29.576  23.291  1.00  0.00    -0.207 OA
ATOM     21  O   UNL A   1      28.565  30.014  21.214  1.00  0.00    -0.207 OA
BRANCH  19  22
ATOM     22  N   UNL A   1      29.402  30.721  23.460  1.00  0.00    -0.225 NA
ATOM     23  H   UNL A   1      29.305  31.649  23.048  1.00  0.00     0.137 HD
ATOM     24  H   UNL A   1      30.378  30.430  23.418  1.00  0.00     0.137 HD
ENDBRANCH  19  22
ENDBRANCH  14  19
ENDBRANCH   8  13
BRANCH  10  25
ATOM     25  C   UNL A   1      32.728  26.127  25.931  1.00  0.00     0.002 A 
ATOM     26  C   UNL A   1      31.671  26.634  26.701  1.00  0.00     0.012 A 
ATOM     27  C   UNL A   1      33.874  26.903  25.720  1.00  0.00     0.012 A 
ATOM     28  C   UNL A   1      31.728  27.937  27.195  1.00  0.00     0.021 A 
ATOM     29  C   UNL A   1      33.927  28.207  26.213  1.00  0.00     0.021 A 
ATOM     30  C   UNL A   1      32.845  28.726  26.926  1.00  0.00     0.041 A 
ATOM     31  Cl  UNL A   1      32.864  30.372  27.424  1.00  0.00    -0.084 Cl
ENDBRANCH  10  25
ENDBRANCH   4   7
ENDBRANCH   2   3
ENDBRANCH   1   2
BRANCH   1  32
ATOM     32  C   UNL A   1      36.666  22.608  24.346  1.00  0.00     0.023 C 
BRANCH  32  33
ATOM     33  C   UNL A   1      37.709  23.234  25.256  1.00  0.00     0.116 C 
BRANCH  33  34
ATOM     34  N   UNL A   1      38.418  22.260  26.092  1.00  0.00    -0.352 N 
ATOM     35  C   UNL A   1      39.557  22.480  26.848  1.00  0.00     0.251 C 
ATOM     36  H   UNL A   1      38.042  21.350  26.119  1.00  0.00     0.163 HD
ATOM     37  O   UNL A   1      40.274  21.553  27.207  1.00  0.00    -0.269 OA
BRANCH  35  38
ATOM     38  C   UNL A   1      39.878  23.868  27.216  1.00  0.00     0.039 A 
ATOM     39  C   UNL A   1      38.914  24.880  27.205  1.00  0.00     0.014 A 
ATOM     40  C   UNL A   1      41.174  24.112  27.662  1.00  0.00     0.014 A 
ATOM     41  C   UNL A   1      39.247  26.122  27.743  1.00  0.00     0.010 A 
ATOM     42  C   UNL A   1      41.440  25.268  28.342  1.00  0.00     0.010 A 
ATOM     43  C   UNL A   1      40.507  26.300  28.334  1.00  0.00    -0.014 A 
BRANCH  43  44
ATOM     44  C   UNL A   1      40.841  27.523  29.055  1.00  0.00     0.031 A 
ATOM     45  C   UNL A   1      41.919  28.346  28.435  1.00  0.00     0.074 A 
ATOM     46  C   UNL A   1      40.063  27.992  30.056  1.00  0.00     0.049 A 
ATOM     47  N   UNL A   1      43.089  28.602  28.917  1.00  0.00    -0.248 NA
ATOM     48  C   UNL A   1      41.736  28.823  27.053  1.00  0.00     0.031 C 
ATOM     49  C   UNL A   1      38.797  27.448  30.565  1.00  0.00     0.029 A 
ATOM     50  N   UNL A   1      40.182  29.150  30.755  1.00  0.00    -0.354 N 
ATOM     51  C   UNL A   1      43.702  29.466  28.012  1.00  0.00     0.074 A 
ATOM     52  C   UNL A   1      42.913  29.404  26.810  1.00  0.00     0.031 C 
ATOM     53  C   UNL A   1      38.155  28.394  31.284  1.00  0.00     0.029 A 
ATOM     54  C   UNL A   1      39.029  29.541  31.429  1.00  0.00     0.049 A 
ATOM     55  H   UNL A   1      41.017  29.672  30.783  1.00  0.00     0.167 HD
ATOM     56  C   UNL A   1      44.674  30.337  28.409  1.00  0.00     0.037 A 
ATOM     57  C   UNL A   1      38.805  30.747  32.013  1.00  0.00     0.037 A 
ATOM     58  C   UNL A   1      45.181  29.983  29.712  1.00  0.00     0.049 A 
ATOM     59  C   UNL A   1      40.147  31.349  32.258  1.00  0.00     0.074 A 
ATOM     60  C   UNL A   1      45.756  28.843  30.243  1.00  0.00     0.029 A 
ATOM     61  N   UNL A   1      44.747  30.716  30.794  1.00  0.00    -0.354 N 
ATOM     62  N   UNL A   1      41.019  30.842  33.092  1.00  0.00    -0.248 NA
ATOM     63  C   UNL A   1      40.709  32.191  31.210  1.00  0.00     0.031 C 
ATOM     64  C   UNL A   1      45.162  28.705  31.531  1.00  0.00     0.029 A 
ATOM     65  C   UNL A   1      44.344  29.815  31.748  1.00  0.00     0.049 A 
ATOM     66  H   UNL A   1      44.730  31.698  30.869  1.00  0.00     0.167 HD
ATOM     67  C   UNL A   1      42.240  30.938  32.436  1.00  0.00     0.074 A 
ATOM     68  C   UNL A   1      41.994  31.836  31.307  1.00  0.00     0.031 C 
ATOM     69  C   UNL A   1      43.257  30.054  32.674  1.00  0.00     0.037 A 
BRANCH  56  70
ATOM     70  C   UNL A   1      44.921  31.698  27.797  1.00  0.00     0.058 A 
ATOM     71  C   UNL A   1      46.142  31.946  27.135  1.00  0.00     0.135 A 
ATOM     72  C   UNL A   1      44.138  32.841  28.071  1.00  0.00     0.135 A 
ATOM     73  F   UNL A   1      46.972  30.936  26.828  1.00  0.00    -0.206 F 
ATOM     74  C   UNL A   1      46.586  33.236  26.839  1.00  0.00     0.059 A 
ATOM     75  C   UNL A   1      44.535  34.130  27.735  1.00  0.00     0.059 A 
ATOM     76  F   UNL A   1      42.995  32.777  28.763  1.00  0.00    -0.206 F 
ATOM     77  C   UNL A   1      45.779  34.323  27.158  1.00  0.00     0.060 A 
BRANCH  77  78
ATOM     78  S   UNL A   1      46.390  35.993  26.869  1.00  0.00     0.124 S 
ATOM     79  O   UNL A   1      47.217  35.799  25.685  1.00  0.00    -0.237 OA
ATOM     80  O   UNL A   1      45.150  36.737  26.671  1.00  0.00    -0.237 OA
ATOM     81  O   UNL A   1      47.110  36.303  28.100  1.00  0.00    -0.744 OA
ENDBRANCH  77  78
ENDBRANCH  56  70
BRANCH  57  82
ATOM     82  C   UNL A   1      37.536  31.531  32.003  1.00  0.00     0.058 A 
ATOM     83  C   UNL A   1      36.872  31.871  33.196  1.00  0.00     0.135 A 
ATOM     84  C   UNL A   1      37.082  32.193  30.841  1.00  0.00     0.135 A 
ATOM     85  F   UNL A   1      37.242  31.308  34.357  1.00  0.00    -0.206 F 
ATOM     86  C   UNL A   1      35.861  32.843  33.244  1.00  0.00     0.059 A 
ATOM     87  C   UNL A   1      36.070  33.153  30.861  1.00  0.00     0.059 A 
ATOM     88  F   UNL A   1      37.670  31.996  29.653  1.00  0.00    -0.206 F 
ATOM     89  C   UNL A   1      35.483  33.495  32.071  1.00  0.00     0.060 A 
BRANCH  89  90
ATOM     90  S   UNL A   1      34.317  34.878  32.144  1.00  0.00     0.124 S 
ATOM     91  O   UNL A   1      34.105  35.171  30.731  1.00  0.00    -0.237 OA
ATOM     92  O   UNL A   1      33.186  34.290  32.853  1.00  0.00    -0.237 OA
ATOM     93  O   UNL A   1      35.052  35.899  32.888  1.00  0.00    -0.744 OA
ENDBRANCH  89  90
ENDBRANCH  57  82
BRANCH  69  94
ATOM     94  C   UNL A   1      43.153  29.101  33.841  1.00  0.00     0.058 A 
ATOM     95  C   UNL A   1      43.377  29.452  35.186  1.00  0.00     0.135 A 
ATOM     96  C   UNL A   1      42.615  27.827  33.603  1.00  0.00     0.135 A 
ATOM     97  F   UNL A   1      43.783  30.684  35.519  1.00  0.00    -0.206 F 
ATOM     98  C   UNL A   1      43.116  28.567  36.236  1.00  0.00     0.059 A 
ATOM     99  C   UNL A   1      42.315  26.941  34.634  1.00  0.00     0.059 A 
ATOM    100  F   UNL A   1      42.315  27.449  32.348  1.00  0.00    -0.206 F 
ATOM    101  C   UNL A   1      42.582  27.312  35.949  1.00  0.00     0.060 A 
BRANCH 101 102
ATOM    102  S   UNL A   1      42.180  26.193  37.308  1.00  0.00     0.124 S 
ATOM    103  O   UNL A   1      40.816  26.591  37.640  1.00  0.00    -0.237 OA
ATOM    104  O   UNL A   1      42.323  24.877  36.689  1.00  0.00    -0.237 OA
ATOM    105  O   UNL A   1      43.186  26.508  38.319  1.00  0.00    -0.744 OA
ENDBRANCH 101 102
ENDBRANCH  69  94
ENDBRANCH  43  44
ENDBRANCH  35  38
ENDBRANCH  33  34
ENDBRANCH  32  33
ENDBRANCH   1  32
TORSDOF 18
ENDMDL
MODEL 2
REMARK VINA RESULT:     -13.9      3.160      9.446
REMARK SMILES NS(=O)(=O)c1ccc(-n2nc(C(=O)NCCCCNC(=O)c3ccc(-c4c5nc(c(-c6c(F)cc(S(=O)(=O)[O-])cc6F)c6ccc([nH]6)c(-c6c(F)cc(S(=O)(=O)[O-])cc6F)c6nc(c(-c7c(F)cc(S(=O)(=O)[O-])cc7F)c7ccc4[nH]7)C=C6)C=C5)cc3)c(Cl)c2-c2ccc(Cl)cc2)cc1
REMARK SMILES IDX 16 1 15 2 14 3 12 4 13 5 11 7 9 8 10 9 90 10 88 11 89 12
REMARK SMILES IDX 8 13 5 14 6 15 99 16 7 17 98 18 2 19 3 20 4 21 1 22 91 25
REMARK SMILES IDX 92 26 97 27 93 28 96 29 94 30 95 31 17 32 18 33 19 34 20 35
REMARK SMILES IDX 21 37 22 38 23 39 87 40 24 41 86 42 25 43 26 44 27 45 80 46
REMARK SMILES IDX 28 47 85 48 79 49 81 50 29 51 84 52 78 53 77 54 30 56 64 57
REMARK SMILES IDX 43 58 63 59 44 60 47 61 62 62 82 63 45 64 46 65 61 67 83 68
REMARK SMILES IDX 48 69 31 70 32 71 41 72 33 73 34 74 40 75 42 76 35 77 36 78
REMARK SMILES IDX 37 79 38 80 39 81 65 82 66 83 75 84 67 85 68 86 74 87 76 88
REMARK SMILES IDX 69 89 70 90 71 91 72 92 73 93 49 94 50 95 59 96 51 97 52 98
REMARK SMILES IDX 58 99 60 100 53 101 54 102 55 103 56 104 57 105
REMARK H PARENT 14 6 1 23 1 24 19 36 81 55 47 66
REMARK Flexibility Score: inf
ROOT
ATOM      1  C   UNL A   1      32.473  29.422  25.159  1.00  0.00     0.023 C 
ENDROOT
BRANCH   1   2
ATOM      2  C   UNL A   1      31.136  28.662  25.226  1.00  0.00     0.116 C 
BRANCH   2   3
ATOM      3  N   UNL A   1      30.611  28.385  23.897  1.00  0.00    -0.351 N 
ATOM      4  C   UNL A   1      30.813  27.365  22.984  1.00  0.00     0.273 C 
ATOM      5  O   UNL A   1      30.154  27.453  21.943  1.00  0.00    -0.267 OA
ATOM      6  H   UNL A   1      29.978  29.069  23.579  1.00  0.00     0.163 HD
BRANCH   4   7
ATOM      7  C   UNL A   1      31.696  26.205  23.241  1.00  0.00     0.169 A 
ATOM      8  N   UNL A   1      32.191  24.164  23.755  1.00  0.00    -0.231 N 
ATOM      9  N   UNL A   1      31.160  24.966  23.396  1.00  0.00    -0.160 NA
ATOM     10  C   UNL A   1      33.374  24.863  23.861  1.00  0.00     0.094 A 
ATOM     11  C   UNL A   1      33.101  26.076  23.261  1.00  0.00     0.100 A 
ATOM     12  Cl  UNL A   1      34.319  27.069  22.618  1.00  0.00    -0.079 Cl
BRANCH   8  13
ATOM     13  C   UNL A   1      32.063  22.751  23.797  1.00  0.00     0.065 A 
ATOM     14  C   UNL A   1      32.322  19.984  23.840  1.00  0.00     0.082 A 
ATOM     15  C   UNL A   1      32.154  20.640  22.615  1.00  0.00     0.024 A 
ATOM     16  C   UNL A   1      32.314  20.698  25.043  1.00  0.00     0.024 A 
ATOM     17  C   UNL A   1      31.994  22.032  22.594  1.00  0.00     0.030 A 
ATOM     18  C   UNL A   1      32.196  22.085  25.020  1.00  0.00     0.030 A 
BRANCH  14  19
ATOM     19  S   UNL A   1      32.664  18.249  23.910  1.00  0.00     0.238 S 
ATOM     20  O   UNL A   1      31.843  17.655  24.932  1.00  0.00    -0.207 OA
ATOM     21  O   UNL A   1      34.097  18.035  23.848  1.00  0.00    -0.207 OA
BRANCH  19  22
ATOM     22  N   UNL A   1      32.054  17.709  22.445  1.00  0.00    -0.225 NA
ATOM     23  H   UNL A   1      31.984  18.493  21.796  1.00  0.00     0.137 HD
ATOM     24  H   UNL A   1      31.130  17.304  22.589  1.00  0.00     0.137 HD
ENDBRANCH  19  22
ENDBRANCH  14  19
ENDBRANCH   8  13
BRANCH  10  25
ATOM     25  C   UNL A   1      34.710  24.365  24.164  1.00  0.00     0.002 A 
ATOM     26  C   UNL A   1      35.349  23.559  23.209  1.00  0.00     0.012 A 
ATOM     27  C   UNL A   1      35.199  24.416  25.474  1.00  0.00     0.012 A 
ATOM     28  C   UNL A   1      36.423  22.753  23.582  1.00  0.00     0.021 A 
ATOM     29  C   UNL A   1      36.273  23.607  25.845  1.00  0.00     0.021 A 
ATOM     30  C   UNL A   1      36.863  22.761  24.904  1.00  0.00     0.041 A 
ATOM     31  Cl  UNL A   1      38.103  21.675  25.396  1.00  0.00    -0.084 Cl
ENDBRANCH  10  25
ENDBRANCH   4   7
ENDBRANCH   2   3
ENDBRANCH   1   2
BRANCH   1  32
ATOM     32  C   UNL A   1      33.689  28.774  25.822  1.00  0.00     0.023 C 
BRANCH  32  33
ATOM     33  C   UNL A   1      34.056  29.383  27.165  1.00  0.00     0.116 C 
BRANCH  33  34
ATOM     34  N   UNL A   1      34.180  30.844  27.132  1.00  0.00    -0.352 N 
ATOM     35  C   UNL A   1      35.058  31.624  27.865  1.00  0.00     0.251 C 
ATOM     36  H   UNL A   1      33.573  31.322  26.522  1.00  0.00     0.163 HD
ATOM     37  O   UNL A   1      34.850  32.817  28.050  1.00  0.00    -0.269 OA
BRANCH  35  38
ATOM     38  C   UNL A   1      36.260  30.974  28.411  1.00  0.00     0.039 A 
ATOM     39  C   UNL A   1      36.480  29.599  28.291  1.00  0.00     0.014 A 
ATOM     40  C   UNL A   1      37.217  31.810  28.980  1.00  0.00     0.014 A 
ATOM     41  C   UNL A   1      37.722  29.089  28.665  1.00  0.00     0.010 A 
ATOM     42  C   UNL A   1      38.485  31.335  29.180  1.00  0.00     0.010 A 
ATOM     43  C   UNL A   1      38.729  29.969  29.085  1.00  0.00    -0.014 A 
BRANCH  43  44
ATOM     44  C   UNL A   1      40.091  29.505  29.327  1.00  0.00     0.031 A 
ATOM     45  C   UNL A   1      40.412  29.209  30.753  1.00  0.00     0.074 A 
ATOM     46  C   UNL A   1      40.905  29.133  28.314  1.00  0.00     0.049 A 
ATOM     47  N   UNL A   1      41.258  29.822  31.512  1.00  0.00    -0.248 NA
ATOM     48  C   UNL A   1      39.597  28.211  31.468  1.00  0.00     0.031 C 
ATOM     49  C   UNL A   1      40.611  29.076  26.876  1.00  0.00     0.029 A 
ATOM     50  N   UNL A   1      42.150  28.597  28.377  1.00  0.00    -0.354 N 
ATOM     51  C   UNL A   1      41.257  29.139  32.727  1.00  0.00     0.074 A 
ATOM     52  C   UNL A   1      40.088  28.298  32.706  1.00  0.00     0.031 C 
ATOM     53  C   UNL A   1      41.531  28.306  26.256  1.00  0.00     0.029 A 
ATOM     54  C   UNL A   1      42.565  27.958  27.211  1.00  0.00     0.049 A 
ATOM     55  H   UNL A   1      42.715  28.654  29.181  1.00  0.00     0.167 HD
ATOM     56  C   UNL A   1      42.346  29.149  33.548  1.00  0.00     0.037 A 
ATOM     57  C   UNL A   1      43.655  27.159  27.073  1.00  0.00     0.037 A 
ATOM     58  C   UNL A   1      43.266  30.193  33.170  1.00  0.00     0.049 A 
ATOM     59  C   UNL A   1      44.575  27.508  28.194  1.00  0.00     0.074 A 
ATOM     60  C   UNL A   1      43.157  31.564  33.024  1.00  0.00     0.029 A 
ATOM     61  N   UNL A   1      44.394  29.836  32.465  1.00  0.00    -0.354 N 
ATOM     62  N   UNL A   1      45.153  28.676  28.310  1.00  0.00    -0.248 NA
ATOM     63  C   UNL A   1      44.438  26.758  29.435  1.00  0.00     0.031 C 
ATOM     64  C   UNL A   1      43.882  31.860  31.833  1.00  0.00     0.029 A 
ATOM     65  C   UNL A   1      44.470  30.677  31.383  1.00  0.00     0.049 A 
ATOM     66  H   UNL A   1      45.025  29.115  32.695  1.00  0.00     0.167 HD
ATOM     67  C   UNL A   1      45.058  28.991  29.660  1.00  0.00     0.074 A 
ATOM     68  C   UNL A   1      44.665  27.741  30.312  1.00  0.00     0.031 C 
ATOM     69  C   UNL A   1      45.005  30.286  30.096  1.00  0.00     0.037 A 
BRANCH  56  70
ATOM     70  C   UNL A   1      42.757  28.013  34.458  1.00  0.00     0.058 A 
ATOM     71  C   UNL A   1      42.877  28.248  35.844  1.00  0.00     0.135 A 
ATOM     72  C   UNL A   1      43.299  26.792  34.002  1.00  0.00     0.135 A 
ATOM     73  F   UNL A   1      42.403  29.379  36.391  1.00  0.00    -0.206 F 
ATOM     74  C   UNL A   1      43.554  27.375  36.697  1.00  0.00     0.059 A 
ATOM     75  C   UNL A   1      43.929  25.881  34.843  1.00  0.00     0.059 A 
ATOM     76  F   UNL A   1      43.334  26.463  32.706  1.00  0.00    -0.206 F 
ATOM     77  C   UNL A   1      44.090  26.199  36.181  1.00  0.00     0.060 A 
BRANCH  77  78
ATOM     78  S   UNL A   1      45.050  25.118  37.255  1.00  0.00     0.124 S 
ATOM     79  O   UNL A   1      44.471  25.417  38.560  1.00  0.00    -0.237 OA
ATOM     80  O   UNL A   1      44.747  23.801  36.705  1.00  0.00    -0.237 OA
ATOM     81  O   UNL A   1      46.421  25.576  37.052  1.00  0.00    -0.744 OA
ENDBRANCH  77  78
ENDBRANCH  56  70
BRANCH  57  82
ATOM     82  C   UNL A   1      43.751  25.895  26.286  1.00  0.00     0.058 A 
ATOM     83  C   UNL A   1      44.840  25.642  25.432  1.00  0.00     0.135 A 
ATOM     84  C   UNL A   1      42.914  24.790  26.553  1.00  0.00     0.135 A 
ATOM     85  F   UNL A   1      45.704  26.624  25.132  1.00  0.00    -0.206 F 
ATOM     86  C   UNL A   1      45.112  24.364  24.918  1.00  0.00     0.059 A 
ATOM     87  C   UNL A   1      43.155  23.514  26.043  1.00  0.00     0.059 A 
ATOM     88  F   UNL A   1      41.876  24.890  27.395  1.00  0.00    -0.206 F 
ATOM     89  C   UNL A   1      44.274  23.300  25.250  1.00  0.00     0.060 A 
BRANCH  89  90
ATOM     90  S   UNL A   1      44.713  21.617  24.751  1.00  0.00     0.124 S 
ATOM     91  O   UNL A   1      46.029  21.454  25.359  1.00  0.00    -0.237 OA
ATOM     92  O   UNL A   1      43.634  20.831  25.339  1.00  0.00    -0.237 OA
ATOM     93  O   UNL A   1      44.705  21.685  23.291  1.00  0.00    -0.744 OA
ENDBRANCH  89  90
ENDBRANCH  57  82
BRANCH  69  94
ATOM     94  C   UNL A   1      45.295  31.408  29.126  1.00  0.00     0.058 A 
ATOM     95  C   UNL A   1      46.584  31.822  28.743  1.00  0.00     0.135 A 
ATOM     96  C   UNL A   1      44.218  31.954  28.411  1.00  0.00     0.135 A 
ATOM     97  F   UNL A   1      47.677  31.274  29.290  1.00  0.00    -0.206 F 
ATOM     98  C   UNL A   1      46.789  32.760  27.727  1.00  0.00     0.059 A 
ATOM     99  C   UNL A   1      44.399  32.864  27.373  1.00  0.00     0.059 A 
ATOM    100  F   UNL A   1      42.962  31.555  28.680  1.00  0.00    -0.206 F 
ATOM    101  C   UNL A   1      45.688  33.274  27.045  1.00  0.00     0.060 A 
BRANCH 101 102
ATOM    102  S   UNL A   1      45.954  34.435  25.687  1.00  0.00     0.124 S 
ATOM    103  O   UNL A   1      47.384  34.290  25.437  1.00  0.00    -0.237 OA
ATOM    104  O   UNL A   1      45.072  33.914  24.646  1.00  0.00    -0.237 OA
ATOM    105  O   UNL A   1      45.546  35.719  26.251  1.00  0.00    -0.744 OA
ENDBRANCH 101 102
ENDBRANCH  69  94
ENDBRANCH  43  44
ENDBRANCH  35  38
ENDBRANCH  33  34
ENDBRANCH  32  33
ENDBRANCH   1  32
TORSDOF 18
ENDMDL
MODEL 3
REMARK VINA RESULT:     -12.8      2.126      2.850
REMARK SMILES NS(=O)(=O)c1ccc(-n2nc(C(=O)NCCCCNC(=O)c3ccc(-c4c5nc(c(-c6c(F)cc(S(=O)(=O)[O-])cc6F)c6ccc([nH]6)c(-c6c(F)cc(S(=O)(=O)[O-])cc6F)c6nc(c(-c7c(F)cc(S(=O)(=O)[O-])cc7F)c7ccc4[nH]7)C=C6)C=C5)cc3)c(Cl)c2-c2ccc(Cl)cc2)cc1
REMARK SMILES IDX 16 1 15 2 14 3 12 4 13 5 11 7 9 8 10 9 90 10 88 11 89 12
REMARK SMILES IDX 8 13 5 14 6 15 99 16 7 17 98 18 2 19 3 20 4 21 1 22 91 25
REMARK SMILES IDX 92 26 97 27 93 28 96 29 94 30 95 31 17 32 18 33 19 34 20 35
REMARK SMILES IDX 21 37 22 38 23 39 87 40 24 41 86 42 25 43 26 44 27 45 80 46
REMARK SMILES IDX 28 47 85 48 79 49 81 50 29 51 84 52 78 53 77 54 30 56 64 57
REMARK SMILES IDX 43 58 63 59 44 60 47 61 62 62 82 63 45 64 46 65 61 67 83 68
REMARK SMILES IDX 48 69 31 70 32 71 41 72 33 73 34 74 40 75 42 76 35 77 36 78
REMARK SMILES IDX 37 79 38 80 39 81 65 82 66 83 75 84 67 85 68 86 74 87 76 88
REMARK SMILES IDX 69 89 70 90 71 91 72 92 73 93 49 94 50 95 59 96 51 97 52 98
REMARK SMILES IDX 58 99 60 100 53 101 54 102 55 103 56 104 57 105
REMARK H PARENT 14 6 1 23 1 24 19 36 81 55 47 66
REMARK Flexibility Score: inf
ROOT
ATOM      1  C   UNL A   1      34.989  22.498  26.766  1.00  0.00     0.023 C 
ENDROOT
BRANCH   1   2
ATOM      2  C   UNL A   1      33.767  22.582  27.698  1.00  0.00     0.116 C 
BRANCH   2   3
ATOM      3  N   UNL A   1      32.580  22.011  27.076  1.00  0.00    -0.351 N 
ATOM      4  C   UNL A   1      31.601  22.519  26.241  1.00  0.00     0.273 C 
ATOM      5  O   UNL A   1      30.743  21.708  25.882  1.00  0.00    -0.267 OA
ATOM      6  H   UNL A   1      32.447  21.061  27.296  1.00  0.00     0.163 HD
BRANCH   4   7
ATOM      7  C   UNL A   1      31.598  23.914  25.745  1.00  0.00     0.169 A 
ATOM      8  N   UNL A   1      31.921  26.050  25.828  1.00  0.00    -0.231 N 
ATOM      9  N   UNL A   1      32.221  24.889  26.457  1.00  0.00    -0.160 NA
ATOM     10  C   UNL A   1      31.097  25.849  24.742  1.00  0.00     0.094 A 
ATOM     11  C   UNL A   1      31.138  24.484  24.539  1.00  0.00     0.100 A 
ATOM     12  Cl  UNL A   1      30.780  23.775  23.038  1.00  0.00    -0.079 Cl
BRANCH   8  13
ATOM     13  C   UNL A   1      32.570  27.269  26.154  1.00  0.00     0.065 A 
ATOM     14  C   UNL A   1      33.937  29.431  27.243  1.00  0.00     0.082 A 
ATOM     15  C   UNL A   1      32.552  29.338  27.413  1.00  0.00     0.024 A 
ATOM     16  C   UNL A   1      34.633  28.477  26.493  1.00  0.00     0.024 A 
ATOM     17  C   UNL A   1      31.856  28.264  26.841  1.00  0.00     0.030 A 
ATOM     18  C   UNL A   1      33.949  27.388  25.958  1.00  0.00     0.030 A 
BRANCH  14  19
ATOM     19  S   UNL A   1      34.877  30.689  28.058  1.00  0.00     0.238 S 
ATOM     20  O   UNL A   1      33.973  31.667  28.603  1.00  0.00    -0.207 OA
ATOM     21  O   UNL A   1      36.010  31.059  27.231  1.00  0.00    -0.207 OA
BRANCH  19  22
ATOM     22  N   UNL A   1      35.517  29.860  29.367  1.00  0.00    -0.225 NA
ATOM     23  H   UNL A   1      36.121  30.485  29.902  1.00  0.00     0.137 HD
ATOM     24  H   UNL A   1      36.062  29.065  29.034  1.00  0.00     0.137 HD
ENDBRANCH  19  22
ENDBRANCH  14  19
ENDBRANCH   8  13
BRANCH  10  25
ATOM     25  C   UNL A   1      30.597  26.821  23.777  1.00  0.00     0.002 A 
ATOM     26  C   UNL A   1      31.524  27.658  23.139  1.00  0.00     0.012 A 
ATOM     27  C   UNL A   1      29.232  27.126  23.731  1.00  0.00     0.012 A 
ATOM     28  C   UNL A   1      31.095  28.833  22.523  1.00  0.00     0.021 A 
ATOM     29  C   UNL A   1      28.806  28.304  23.116  1.00  0.00     0.021 A 
ATOM     30  C   UNL A   1      29.741  29.163  22.538  1.00  0.00     0.041 A 
ATOM     31  Cl  UNL A   1      29.226  30.672  21.892  1.00  0.00    -0.084 Cl
ENDBRANCH  10  25
ENDBRANCH   4   7
ENDBRANCH   2   3
ENDBRANCH   1   2
BRANCH   1  32
ATOM     32  C   UNL A   1      35.624  23.813  26.311  1.00  0.00     0.023 C 
BRANCH  32  33
ATOM     33  C   UNL A   1      36.969  23.643  25.624  1.00  0.00     0.116 C 
BRANCH  33  34
ATOM     34  N   UNL A   1      37.764  22.534  26.161  1.00  0.00    -0.352 N 
ATOM     35  C   UNL A   1      39.068  22.589  26.626  1.00  0.00     0.251 C 
ATOM     36  H   UNL A   1      37.324  21.653  26.193  1.00  0.00     0.163 HD
ATOM     37  O   UNL A   1      39.761  21.582  26.706  1.00  0.00    -0.269 OA
BRANCH  35  38
ATOM     38  C   UNL A   1      39.594  23.901  27.034  1.00  0.00     0.039 A 
ATOM     39  C   UNL A   1      38.878  25.084  26.830  1.00  0.00     0.014 A 
ATOM     40  C   UNL A   1      40.808  23.903  27.715  1.00  0.00     0.014 A 
ATOM     41  C   UNL A   1      39.355  26.259  27.408  1.00  0.00     0.010 A 
ATOM     42  C   UNL A   1      41.177  25.015  28.422  1.00  0.00     0.010 A 
ATOM     43  C   UNL A   1      40.494  26.210  28.226  1.00  0.00    -0.014 A 
BRANCH  43  44
ATOM     44  C   UNL A   1      40.934  27.375  28.984  1.00  0.00     0.031 A 
ATOM     45  C   UNL A   1      41.950  28.226  28.300  1.00  0.00     0.074 A 
ATOM     46  C   UNL A   1      40.287  27.784  30.098  1.00  0.00     0.049 A 
ATOM     47  N   UNL A   1      43.174  28.432  28.659  1.00  0.00    -0.248 NA
ATOM     48  C   UNL A   1      41.620  28.801  26.984  1.00  0.00     0.031 C 
ATOM     49  C   UNL A   1      39.077  27.223  30.713  1.00  0.00     0.029 A 
ATOM     50  N   UNL A   1      40.510  28.888  30.855  1.00  0.00    -0.354 N 
ATOM     51  C   UNL A   1      43.697  29.349  27.749  1.00  0.00     0.074 A 
ATOM     52  C   UNL A   1      42.773  29.381  26.645  1.00  0.00     0.031 C 
ATOM     53  C   UNL A   1      38.541  28.124  31.564  1.00  0.00     0.029 A 
ATOM     54  C   UNL A   1      39.450  29.246  31.684  1.00  0.00     0.049 A 
ATOM     55  H   UNL A   1      41.353  29.396  30.822  1.00  0.00     0.167 HD
ATOM     56  C   UNL A   1      44.726  30.178  28.088  1.00  0.00     0.037 A 
ATOM     57  C   UNL A   1      39.321  30.412  32.370  1.00  0.00     0.037 A 
ATOM     58  C   UNL A   1      45.372  29.727  29.297  1.00  0.00     0.049 A 
ATOM     59  C   UNL A   1      40.695  30.978  32.498  1.00  0.00     0.074 A 
ATOM     60  C   UNL A   1      45.980  28.546  29.679  1.00  0.00     0.029 A 
ATOM     61  N   UNL A   1      45.081  30.388  30.470  1.00  0.00    -0.354 N 
ATOM     62  N   UNL A   1      41.646  30.403  33.189  1.00  0.00    -0.248 NA
ATOM     63  C   UNL A   1      41.150  31.883  31.451  1.00  0.00     0.031 C 
ATOM     64  C   UNL A   1      45.536  28.326  31.015  1.00  0.00     0.029 A 
ATOM     65  C   UNL A   1      44.771  29.428  31.401  1.00  0.00     0.049 A 
ATOM     66  H   UNL A   1      45.093  31.363  30.612  1.00  0.00     0.167 HD
ATOM     67  C   UNL A   1      42.785  30.528  32.403  1.00  0.00     0.074 A 
ATOM     68  C   UNL A   1      42.429  31.505  31.374  1.00  0.00     0.031 C 
ATOM     69  C   UNL A   1      43.804  29.617  32.461  1.00  0.00     0.037 A 
BRANCH  56  70
ATOM     70  C   UNL A   1      44.930  31.575  27.546  1.00  0.00     0.058 A 
ATOM     71  C   UNL A   1      46.131  31.886  26.875  1.00  0.00     0.135 A 
ATOM     72  C   UNL A   1      44.127  32.683  27.895  1.00  0.00     0.135 A 
ATOM     73  F   UNL A   1      46.978  30.914  26.499  1.00  0.00    -0.206 F 
ATOM     74  C   UNL A   1      46.539  33.200  26.640  1.00  0.00     0.059 A 
ATOM     75  C   UNL A   1      44.488  33.997  27.621  1.00  0.00     0.059 A 
ATOM     76  F   UNL A   1      43.000  32.555  28.605  1.00  0.00    -0.206 F 
ATOM     77  C   UNL A   1      45.715  34.250  27.032  1.00  0.00     0.060 A 
BRANCH  77  78
ATOM     78  S   UNL A   1      46.282  35.946  26.821  1.00  0.00     0.124 S 
ATOM     79  O   UNL A   1      46.974  35.864  25.541  1.00  0.00    -0.237 OA
ATOM     80  O   UNL A   1      45.024  36.686  26.824  1.00  0.00    -0.237 OA
ATOM     81  O   UNL A   1      47.131  36.162  27.988  1.00  0.00    -0.744 OA
ENDBRANCH  77  78
ENDBRANCH  56  70
BRANCH  57  82
ATOM     82  C   UNL A   1      38.076  31.211  32.561  1.00  0.00     0.058 A 
ATOM     83  C   UNL A   1      37.581  31.506  33.845  1.00  0.00     0.135 A 
ATOM     84  C   UNL A   1      37.485  31.930  31.498  1.00  0.00     0.135 A 
ATOM     85  F   UNL A   1      38.090  30.888  34.922  1.00  0.00    -0.206 F 
ATOM     86  C   UNL A   1      36.603  32.488  34.067  1.00  0.00     0.059 A 
ATOM     87  C   UNL A   1      36.503  32.900  31.692  1.00  0.00     0.059 A 
ATOM     88  F   UNL A   1      37.909  31.779  30.235  1.00  0.00    -0.206 F 
ATOM     89  C   UNL A   1      36.085  33.196  32.982  1.00  0.00     0.060 A 
BRANCH  89  90
ATOM     90  S   UNL A   1      34.965  34.589  33.267  1.00  0.00     0.124 S 
ATOM     91  O   UNL A   1      33.720  34.101  32.684  1.00  0.00    -0.237 OA
ATOM     92  O   UNL A   1      34.987  34.709  34.721  1.00  0.00    -0.237 OA
ATOM     93  O   UNL A   1      35.603  35.688  32.545  1.00  0.00    -0.744 OA
ENDBRANCH  89  90
ENDBRANCH  57  82
BRANCH  69  94
ATOM     94  C   UNL A   1      43.815  28.585  33.564  1.00  0.00     0.058 A 
ATOM     95  C   UNL A   1      44.263  28.822  34.878  1.00  0.00     0.135 A 
ATOM     96  C   UNL A   1      43.163  27.365  33.330  1.00  0.00     0.135 A 
ATOM     97  F   UNL A   1      44.796  30.000  35.224  1.00  0.00    -0.206 F 
ATOM     98  C   UNL A   1      44.106  27.877  35.895  1.00  0.00     0.059 A 
ATOM     99  C   UNL A   1      42.964  26.422  34.336  1.00  0.00     0.059 A 
ATOM    100  F   UNL A   1      42.651  27.100  32.116  1.00  0.00    -0.206 F 
ATOM    101  C   UNL A   1      43.452  26.678  35.614  1.00  0.00     0.060 A 
BRANCH 101 102
ATOM    102  S   UNL A   1      43.188  25.484  36.943  1.00  0.00     0.124 S 
ATOM    103  O   UNL A   1      42.808  26.346  38.057  1.00  0.00    -0.237 OA
ATOM    104  O   UNL A   1      42.125  24.639  36.404  1.00  0.00    -0.237 OA
ATOM    105  O   UNL A   1      44.485  24.828  37.076  1.00  0.00    -0.744 OA
ENDBRANCH 101 102
ENDBRANCH  69  94
ENDBRANCH  43  44
ENDBRANCH  35  38
ENDBRANCH  33  34
ENDBRANCH  32  33
ENDBRANCH   1  32
TORSDOF 18
ENDMDL
