MODEL 1
REMARK VINA RESULT:     -12.2      0.000      0.000
REMARK SMILES Cc1cc(F)c(-c2ccc(F)c(C(=O)NCCCCNC(=O)c3ccc(-c4c5nc(c(-c6c(F)cc(S(=O)(=O)[O-])cc6F)c6ccc([nH]6)c(-c6c(F)cc(S(=O)(=O)[O-])cc6F)c6nc(c(-c7c(F)cc(S(=O)(=O)[O-])cc7F)c7ccc4[nH]7)C=C6)C=C5)cc3)c2)cc1F
REMARK SMILES IDX 18 1 17 2 16 3 15 4 13 5 14 6 12 8 7 9 8 10 89 11 9 12 10 13
REMARK SMILES IDX 11 14 6 15 1 16 2 17 3 18 91 19 4 20 90 21 92 22 5 23 19 24
REMARK SMILES IDX 20 25 21 26 22 28 23 29 24 30 88 31 25 32 87 33 26 34 27 35
REMARK SMILES IDX 28 36 81 37 29 38 86 39 80 40 82 41 30 42 85 43 79 44 78 45
REMARK SMILES IDX 31 47 65 48 44 49 64 50 45 51 48 52 63 53 83 54 46 55 47 56
REMARK SMILES IDX 62 58 84 59 49 60 32 61 33 62 42 63 34 64 35 65 41 66 43 67
REMARK SMILES IDX 36 68 37 69 38 70 39 71 40 72 66 73 67 74 76 75 68 76 69 77
REMARK SMILES IDX 75 78 77 79 70 80 71 81 72 82 73 83 74 84 50 85 51 86 60 87
REMARK SMILES IDX 52 88 53 89 59 90 61 91 54 92 55 93 56 94 57 95 58 96
REMARK H PARENT 15 7 20 27 82 46 48 57
REMARK Flexibility Score: inf
ROOT
ATOM      1  C   UNL A   1      32.462  28.248  26.997  1.00  0.00     0.023 C 
ENDROOT
BRANCH   1   2
ATOM      2  C   UNL A   1      32.294  27.130  25.977  1.00  0.00     0.023 C 
BRANCH   2   3
ATOM      3  C   UNL A   1      30.872  26.791  25.553  1.00  0.00     0.116 C 
BRANCH   3   4
ATOM      4  N   UNL A   1      30.237  25.704  26.282  1.00  0.00    -0.352 N 
ATOM      5  C   UNL A   1      30.490  24.347  26.282  1.00  0.00     0.254 C 
ATOM      6  O   UNL A   1      29.891  23.636  27.086  1.00  0.00    -0.269 OA
ATOM      7  H   UNL A   1      29.503  25.984  26.876  1.00  0.00     0.163 HD
BRANCH   5   8
ATOM      8  C   UNL A   1      31.431  23.732  25.315  1.00  0.00     0.076 A 
ATOM      9  C   UNL A   1      33.665  22.898  24.774  1.00  0.00    -0.014 A 
ATOM     10  C   UNL A   1      33.308  22.898  23.416  1.00  0.00     0.012 A 
ATOM     11  C   UNL A   1      32.669  23.213  25.714  1.00  0.00     0.025 A 
ATOM     12  C   UNL A   1      32.027  23.280  23.014  1.00  0.00     0.041 A 
ATOM     13  C   UNL A   1      31.108  23.728  23.959  1.00  0.00     0.135 A 
ATOM     14  F   UNL A   1      29.932  24.196  23.516  1.00  0.00    -0.206 F 
BRANCH   9  15
ATOM     15  C   UNL A   1      35.070  22.758  25.209  1.00  0.00     0.020 A 
ATOM     16  C   UNL A   1      39.308  22.309  26.040  1.00  0.00     0.047 C 
ATOM     17  C   UNL A   1      37.849  22.478  25.753  1.00  0.00    -0.012 A 
ATOM     18  C   UNL A   1      37.211  23.710  25.927  1.00  0.00     0.046 A 
ATOM     19  C   UNL A   1      37.084  21.390  25.336  1.00  0.00     0.126 A 
ATOM     20  C   UNL A   1      35.845  23.840  25.655  1.00  0.00     0.131 A 
ATOM     21  C   UNL A   1      35.724  21.520  25.061  1.00  0.00     0.051 A 
ATOM     22  F   UNL A   1      37.661  20.192  25.167  1.00  0.00    -0.207 F 
ATOM     23  F   UNL A   1      35.289  25.051  25.807  1.00  0.00    -0.206 F 
ENDBRANCH   9  15
ENDBRANCH   5   8
ENDBRANCH   3   4
ENDBRANCH   2   3
ENDBRANCH   1   2
BRANCH   1  24
ATOM     24  C   UNL A   1      33.882  28.747  27.223  1.00  0.00     0.116 C 
BRANCH  24  25
ATOM     25  N   UNL A   1      33.964  30.043  27.884  1.00  0.00    -0.352 N 
ATOM     26  C   UNL A   1      35.028  30.655  28.516  1.00  0.00     0.251 C 
ATOM     27  H   UNL A   1      33.130  30.564  27.879  1.00  0.00     0.163 HD
ATOM     28  O   UNL A   1      34.872  31.737  29.063  1.00  0.00    -0.269 OA
BRANCH  26  29
ATOM     29  C   UNL A   1      36.340  29.970  28.577  1.00  0.00     0.039 A 
ATOM     30  C   UNL A   1      36.764  29.337  29.744  1.00  0.00     0.014 A 
ATOM     31  C   UNL A   1      37.186  30.023  27.464  1.00  0.00     0.014 A 
ATOM     32  C   UNL A   1      38.100  28.972  29.878  1.00  0.00     0.010 A 
ATOM     33  C   UNL A   1      38.502  29.562  27.570  1.00  0.00     0.010 A 
ATOM     34  C   UNL A   1      38.992  29.101  28.801  1.00  0.00    -0.014 A 
BRANCH  34  35
ATOM     35  C   UNL A   1      40.434  28.793  29.003  1.00  0.00     0.031 A 
ATOM     36  C   UNL A   1      41.002  27.458  28.587  1.00  0.00     0.074 A 
ATOM     37  C   UNL A   1      41.253  29.748  29.489  1.00  0.00     0.049 A 
ATOM     38  N   UNL A   1      42.233  27.020  28.683  1.00  0.00    -0.248 NA
ATOM     39  C   UNL A   1      40.072  26.485  27.990  1.00  0.00     0.031 C 
ATOM     40  C   UNL A   1      40.830  31.086  29.909  1.00  0.00     0.029 A 
ATOM     41  N   UNL A   1      42.611  29.755  29.680  1.00  0.00    -0.354 N 
ATOM     42  C   UNL A   1      42.220  25.722  28.184  1.00  0.00     0.074 A 
ATOM     43  C   UNL A   1      40.855  25.430  27.806  1.00  0.00     0.031 C 
ATOM     44  C   UNL A   1      41.912  31.803  30.251  1.00  0.00     0.029 A 
ATOM     45  C   UNL A   1      43.096  30.957  30.137  1.00  0.00     0.049 A 
ATOM     46  H   UNL A   1      43.184  28.973  29.508  1.00  0.00     0.167 HD
ATOM     47  C   UNL A   1      43.253  24.856  28.042  1.00  0.00     0.037 A 
ATOM     48  C   UNL A   1      44.351  31.338  30.444  1.00  0.00     0.037 A 
ATOM     49  C   UNL A   1      44.619  25.162  28.380  1.00  0.00     0.049 A 
ATOM     50  C   UNL A   1      45.473  30.353  30.297  1.00  0.00     0.074 A 
ATOM     51  C   UNL A   1      45.736  24.353  28.261  1.00  0.00     0.029 A 
ATOM     52  N   UNL A   1      45.058  26.375  28.888  1.00  0.00    -0.354 N 
ATOM     53  N   UNL A   1      45.433  29.120  29.852  1.00  0.00    -0.248 NA
ATOM     54  C   UNL A   1      46.810  30.803  30.710  1.00  0.00     0.031 C 
ATOM     55  C   UNL A   1      46.846  25.066  28.723  1.00  0.00     0.029 A 
ATOM     56  C   UNL A   1      46.427  26.332  29.098  1.00  0.00     0.049 A 
ATOM     57  H   UNL A   1      44.483  27.152  29.072  1.00  0.00     0.167 HD
ATOM     58  C   UNL A   1      46.736  28.647  29.929  1.00  0.00     0.074 A 
ATOM     59  C   UNL A   1      47.547  29.733  30.441  1.00  0.00     0.031 C 
ATOM     60  C   UNL A   1      47.217  27.421  29.612  1.00  0.00     0.037 A 
BRANCH  47  61
ATOM     61  C   UNL A   1      42.958  23.487  27.497  1.00  0.00     0.058 A 
ATOM     62  C   UNL A   1      43.156  23.175  26.144  1.00  0.00     0.135 A 
ATOM     63  C   UNL A   1      42.549  22.452  28.356  1.00  0.00     0.135 A 
ATOM     64  F   UNL A   1      43.529  24.131  25.279  1.00  0.00    -0.206 F 
ATOM     65  C   UNL A   1      42.954  21.887  25.657  1.00  0.00     0.059 A 
ATOM     66  C   UNL A   1      42.360  21.152  27.894  1.00  0.00     0.059 A 
ATOM     67  F   UNL A   1      42.344  22.697  29.659  1.00  0.00    -0.206 F 
ATOM     68  C   UNL A   1      42.559  20.881  26.542  1.00  0.00     0.060 A 
BRANCH  68  69
ATOM     69  S   UNL A   1      42.332  19.208  25.899  1.00  0.00     0.124 S 
ATOM     70  O   UNL A   1      40.886  19.166  25.704  1.00  0.00    -0.237 OA
ATOM     71  O   UNL A   1      43.134  19.230  24.681  1.00  0.00    -0.237 OA
ATOM     72  O   UNL A   1      42.845  18.359  26.970  1.00  0.00    -0.744 OA
ENDBRANCH  68  69
ENDBRANCH  47  61
BRANCH  48  73
ATOM     73  C   UNL A   1      44.602  32.718  30.935  1.00  0.00     0.058 A 
ATOM     74  C   UNL A   1      44.848  33.769  30.040  1.00  0.00     0.135 A 
ATOM     75  C   UNL A   1      44.574  33.015  32.306  1.00  0.00     0.135 A 
ATOM     76  F   UNL A   1      44.892  33.530  28.720  1.00  0.00    -0.206 F 
ATOM     77  C   UNL A   1      45.063  35.068  30.488  1.00  0.00     0.059 A 
ATOM     78  C   UNL A   1      44.762  34.309  32.776  1.00  0.00     0.059 A 
ATOM     79  F   UNL A   1      44.328  32.044  33.200  1.00  0.00    -0.206 F 
ATOM     80  C   UNL A   1      45.015  35.328  31.859  1.00  0.00     0.060 A 
BRANCH  80  81
ATOM     81  S   UNL A   1      45.236  37.027  32.429  1.00  0.00     0.124 S 
ATOM     82  O   UNL A   1      43.876  37.546  32.339  1.00  0.00    -0.237 OA
ATOM     83  O   UNL A   1      45.756  36.834  33.779  1.00  0.00    -0.237 OA
ATOM     84  O   UNL A   1      46.189  37.579  31.472  1.00  0.00    -0.744 OA
ENDBRANCH  80  81
ENDBRANCH  48  73
BRANCH  60  85
ATOM     85  C   UNL A   1      48.687  27.187  29.805  1.00  0.00     0.058 A 
ATOM     86  C   UNL A   1      49.614  27.525  28.809  1.00  0.00     0.135 A 
ATOM     87  C   UNL A   1      49.176  26.674  31.017  1.00  0.00     0.135 A 
ATOM     88  F   UNL A   1      49.194  28.012  27.631  1.00  0.00    -0.206 F 
ATOM     89  C   UNL A   1      50.981  27.348  29.001  1.00  0.00     0.059 A 
ATOM     90  C   UNL A   1      50.540  26.507  31.238  1.00  0.00     0.059 A 
ATOM     91  F   UNL A   1      48.327  26.344  32.003  1.00  0.00    -0.206 F 
ATOM     92  C   UNL A   1      51.433  26.839  30.220  1.00  0.00     0.060 A 
BRANCH  92  93
ATOM     93  S   UNL A   1      53.211  26.649  30.471  1.00  0.00     0.124 S 
ATOM     94  O   UNL A   1      53.254  25.590  31.474  1.00  0.00    -0.237 OA
ATOM     95  O   UNL A   1      53.678  26.278  29.138  1.00  0.00    -0.237 OA
ATOM     96  O   UNL A   1      53.632  27.968  30.932  1.00  0.00    -0.744 OA
ENDBRANCH  92  93
ENDBRANCH  60  85
ENDBRANCH  34  35
ENDBRANCH  26  29
ENDBRANCH  24  25
ENDBRANCH   1  24
TORSDOF 15
ENDMDL
MODEL 2
REMARK VINA RESULT:     -12.1      0.830      8.223
REMARK SMILES Cc1cc(F)c(-c2ccc(F)c(C(=O)NCCCCNC(=O)c3ccc(-c4c5nc(c(-c6c(F)cc(S(=O)(=O)[O-])cc6F)c6ccc([nH]6)c(-c6c(F)cc(S(=O)(=O)[O-])cc6F)c6nc(c(-c7c(F)cc(S(=O)(=O)[O-])cc7F)c7ccc4[nH]7)C=C6)C=C5)cc3)c2)cc1F
REMARK SMILES IDX 18 1 17 2 16 3 15 4 13 5 14 6 12 8 7 9 8 10 89 11 9 12 10 13
REMARK SMILES IDX 11 14 6 15 1 16 2 17 3 18 91 19 4 20 90 21 92 22 5 23 19 24
REMARK SMILES IDX 20 25 21 26 22 28 23 29 24 30 88 31 25 32 87 33 26 34 27 35
REMARK SMILES IDX 28 36 81 37 29 38 86 39 80 40 82 41 30 42 85 43 79 44 78 45
REMARK SMILES IDX 31 47 65 48 44 49 64 50 45 51 48 52 63 53 83 54 46 55 47 56
REMARK SMILES IDX 62 58 84 59 49 60 32 61 33 62 42 63 34 64 35 65 41 66 43 67
REMARK SMILES IDX 36 68 37 69 38 70 39 71 40 72 66 73 67 74 76 75 68 76 69 77
REMARK SMILES IDX 75 78 77 79 70 80 71 81 72 82 73 83 74 84 50 85 51 86 60 87
REMARK SMILES IDX 52 88 53 89 59 90 61 91 54 92 55 93 56 94 57 95 58 96
REMARK H PARENT 15 7 20 27 82 46 48 57
REMARK Flexibility Score: inf
ROOT
ATOM      1  C   UNL A   1      33.733  28.489  25.756  1.00  0.00     0.023 C 
ENDROOT
BRANCH   1   2
ATOM      2  C   UNL A   1      33.335  27.175  25.098  1.00  0.00     0.023 C 
BRANCH   2   3
ATOM      3  C   UNL A   1      31.892  27.047  24.628  1.00  0.00     0.116 C 
BRANCH   3   4
ATOM      4  N   UNL A   1      31.008  26.294  25.503  1.00  0.00    -0.352 N 
ATOM      5  C   UNL A   1      30.904  24.936  25.731  1.00  0.00     0.254 C 
ATOM      6  O   UNL A   1      30.152  24.544  26.620  1.00  0.00    -0.269 OA
ATOM      7  H   UNL A   1      30.377  26.845  26.020  1.00  0.00     0.163 HD
BRANCH   5   8
ATOM      8  C   UNL A   1      31.646  23.951  24.907  1.00  0.00     0.076 A 
ATOM      9  C   UNL A   1      33.693  22.697  24.440  1.00  0.00    -0.014 A 
ATOM     10  C   UNL A   1      33.171  22.368  23.178  1.00  0.00     0.012 A 
ATOM     11  C   UNL A   1      32.860  23.397  25.330  1.00  0.00     0.025 A 
ATOM     12  C   UNL A   1      31.899  22.797  22.796  1.00  0.00     0.041 A 
ATOM     13  C   UNL A   1      31.158  23.613  23.646  1.00  0.00     0.135 A 
ATOM     14  F   UNL A   1      29.994  24.098  23.191  1.00  0.00    -0.206 F 
BRANCH   9  15
ATOM     15  C   UNL A   1      35.117  22.490  24.772  1.00  0.00     0.020 A 
ATOM     16  C   UNL A   1      39.193  21.994  26.183  1.00  0.00     0.047 C 
ATOM     17  C   UNL A   1      37.786  22.151  25.700  1.00  0.00    -0.012 A 
ATOM     18  C   UNL A   1      37.009  21.043  25.347  1.00  0.00     0.046 A 
ATOM     19  C   UNL A   1      37.229  23.421  25.557  1.00  0.00     0.126 A 
ATOM     20  C   UNL A   1      35.698  21.218  24.894  1.00  0.00     0.131 A 
ATOM     21  C   UNL A   1      35.920  23.595  25.109  1.00  0.00     0.051 A 
ATOM     22  F   UNL A   1      37.947  24.507  25.877  1.00  0.00    -0.207 F 
ATOM     23  F   UNL A   1      34.986  20.119  24.601  1.00  0.00    -0.206 F 
ENDBRANCH   9  15
ENDBRANCH   5   8
ENDBRANCH   3   4
ENDBRANCH   2   3
ENDBRANCH   1   2
BRANCH   1  24
ATOM     24  C   UNL A   1      33.468  28.601  27.251  1.00  0.00     0.116 C 
BRANCH  24  25
ATOM     25  N   UNL A   1      33.557  29.957  27.775  1.00  0.00    -0.352 N 
ATOM     26  C   UNL A   1      34.639  30.643  28.290  1.00  0.00     0.251 C 
ATOM     27  H   UNL A   1      32.714  30.464  27.760  1.00  0.00     0.163 HD
ATOM     28  O   UNL A   1      34.490  31.773  28.734  1.00  0.00    -0.269 OA
BRANCH  26  29
ATOM     29  C   UNL A   1      35.965  29.985  28.355  1.00  0.00     0.039 A 
ATOM     30  C   UNL A   1      36.393  29.350  29.519  1.00  0.00     0.014 A 
ATOM     31  C   UNL A   1      36.817  30.067  27.249  1.00  0.00     0.014 A 
ATOM     32  C   UNL A   1      37.735  29.012  29.660  1.00  0.00     0.010 A 
ATOM     33  C   UNL A   1      38.141  29.632  27.360  1.00  0.00     0.010 A 
ATOM     34  C   UNL A   1      38.632  29.169  28.591  1.00  0.00    -0.014 A 
BRANCH  34  35
ATOM     35  C   UNL A   1      40.079  28.890  28.801  1.00  0.00     0.031 A 
ATOM     36  C   UNL A   1      40.965  29.898  29.490  1.00  0.00     0.074 A 
ATOM     37  C   UNL A   1      40.580  27.690  28.444  1.00  0.00     0.049 A 
ATOM     38  N   UNL A   1      42.244  29.820  29.763  1.00  0.00    -0.248 NA
ATOM     39  C   UNL A   1      40.342  31.158  29.928  1.00  0.00     0.031 C 
ATOM     40  C   UNL A   1      39.822  26.622  27.787  1.00  0.00     0.029 A 
ATOM     41  N   UNL A   1      41.831  27.153  28.610  1.00  0.00    -0.354 N 
ATOM     42  C   UNL A   1      42.580  31.022  30.377  1.00  0.00     0.074 A 
ATOM     43  C   UNL A   1      41.378  31.824  30.420  1.00  0.00     0.031 C 
ATOM     44  C   UNL A   1      40.604  25.539  27.661  1.00  0.00     0.029 A 
ATOM     45  C   UNL A   1      41.937  25.856  28.167  1.00  0.00     0.049 A 
ATOM     46  H   UNL A   1      42.582  27.650  29.006  1.00  0.00     0.167 HD
ATOM     47  C   UNL A   1      43.779  31.416  30.873  1.00  0.00     0.037 A 
ATOM     48  C   UNL A   1      42.988  25.015  28.155  1.00  0.00     0.037 A 
ATOM     49  C   UNL A   1      44.966  30.600  30.869  1.00  0.00     0.049 A 
ATOM     50  C   UNL A   1      44.309  25.485  28.692  1.00  0.00     0.074 A 
ATOM     51  C   UNL A   1      46.224  30.910  31.357  1.00  0.00     0.029 A 
ATOM     52  N   UNL A   1      45.041  29.311  30.364  1.00  0.00    -0.354 N 
ATOM     53  N   UNL A   1      44.611  26.636  29.241  1.00  0.00    -0.248 NA
ATOM     54  C   UNL A   1      45.437  24.547  28.592  1.00  0.00     0.031 C 
ATOM     55  C   UNL A   1      47.066  29.819  31.123  1.00  0.00     0.029 A 
ATOM     56  C   UNL A   1      46.325  28.817  30.520  1.00  0.00     0.049 A 
ATOM     57  H   UNL A   1      44.292  28.820  29.956  1.00  0.00     0.167 HD
ATOM     58  C   UNL A   1      45.962  26.562  29.554  1.00  0.00     0.074 A 
ATOM     59  C   UNL A   1      46.415  25.245  29.154  1.00  0.00     0.031 C 
ATOM     60  C   UNL A   1      46.759  27.505  30.114  1.00  0.00     0.037 A 
BRANCH  47  61
ATOM     61  C   UNL A   1      43.880  32.793  31.467  1.00  0.00     0.058 A 
ATOM     62  C   UNL A   1      44.123  33.922  30.670  1.00  0.00     0.135 A 
ATOM     63  C   UNL A   1      43.652  32.995  32.839  1.00  0.00     0.135 A 
ATOM     64  F   UNL A   1      44.365  33.782  29.358  1.00  0.00    -0.206 F 
ATOM     65  C   UNL A   1      44.141  35.204  31.212  1.00  0.00     0.059 A 
ATOM     66  C   UNL A   1      43.647  34.270  33.399  1.00  0.00     0.059 A 
ATOM     67  F   UNL A   1      43.417  31.949  33.646  1.00  0.00    -0.206 F 
ATOM     68  C   UNL A   1      43.898  35.368  32.578  1.00  0.00     0.060 A 
BRANCH  68  69
ATOM     69  S   UNL A   1      43.895  37.041  33.258  1.00  0.00     0.124 S 
ATOM     70  O   UNL A   1      45.139  37.046  34.022  1.00  0.00    -0.237 OA
ATOM     71  O   UNL A   1      43.888  37.867  32.056  1.00  0.00    -0.237 OA
ATOM     72  O   UNL A   1      42.672  37.083  34.053  1.00  0.00    -0.744 OA
ENDBRANCH  68  69
ENDBRANCH  47  61
BRANCH  48  73
ATOM     73  C   UNL A   1      42.830  23.646  27.600  1.00  0.00     0.058 A 
ATOM     74  C   UNL A   1      43.044  23.390  26.238  1.00  0.00     0.135 A 
ATOM     75  C   UNL A   1      42.488  22.565  28.426  1.00  0.00     0.135 A 
ATOM     76  F   UNL A   1      43.365  24.395  25.409  1.00  0.00    -0.206 F 
ATOM     77  C   UNL A   1      42.919  22.109  25.712  1.00  0.00     0.059 A 
ATOM     78  C   UNL A   1      42.381  21.271  27.928  1.00  0.00     0.059 A 
ATOM     79  F   UNL A   1      42.287  22.758  29.739  1.00  0.00    -0.206 F 
ATOM     80  C   UNL A   1      42.591  21.055  26.567  1.00  0.00     0.060 A 
BRANCH  80  81
ATOM     81  S   UNL A   1      42.488  19.385  25.889  1.00  0.00     0.124 S 
ATOM     82  O   UNL A   1      42.985  18.586  27.003  1.00  0.00    -0.237 OA
ATOM     83  O   UNL A   1      41.064  19.256  25.597  1.00  0.00    -0.237 OA
ATOM     84  O   UNL A   1      43.357  19.446  24.717  1.00  0.00    -0.744 OA
ENDBRANCH  80  81
ENDBRANCH  48  73
BRANCH  60  85
ATOM     85  C   UNL A   1      48.199  27.146  30.332  1.00  0.00     0.058 A 
ATOM     86  C   UNL A   1      49.186  27.496  29.399  1.00  0.00     0.135 A 
ATOM     87  C   UNL A   1      48.604  26.497  31.509  1.00  0.00     0.135 A 
ATOM     88  F   UNL A   1      48.846  28.112  28.255  1.00  0.00    -0.206 F 
ATOM     89  C   UNL A   1      50.527  27.201  29.617  1.00  0.00     0.059 A 
ATOM     90  C   UNL A   1      49.943  26.209  31.757  1.00  0.00     0.059 A 
ATOM     91  F   UNL A   1      47.698  26.149  32.435  1.00  0.00    -0.206 F 
ATOM     92  C   UNL A   1      50.896  26.557  30.800  1.00  0.00     0.060 A 
BRANCH  92  93
ATOM     93  S   UNL A   1      52.645  26.213  31.088  1.00  0.00     0.124 S 
ATOM     94  O   UNL A   1      52.578  24.959  31.832  1.00  0.00    -0.237 OA
ATOM     95  O   UNL A   1      53.173  26.116  29.730  1.00  0.00    -0.237 OA
ATOM     96  O   UNL A   1      53.098  27.373  31.850  1.00  0.00    -0.744 OA
ENDBRANCH  92  93
ENDBRANCH  60  85
ENDBRANCH  34  35
ENDBRANCH  26  29
ENDBRANCH  24  25
ENDBRANCH   1  24
TORSDOF 15
ENDMDL
MODEL 3
REMARK VINA RESULT:     -11.9      1.227      1.726
REMARK SMILES Cc1cc(F)c(-c2ccc(F)c(C(=O)NCCCCNC(=O)c3ccc(-c4c5nc(c(-c6c(F)cc(S(=O)(=O)[O-])cc6F)c6ccc([nH]6)c(-c6c(F)cc(S(=O)(=O)[O-])cc6F)c6nc(c(-c7c(F)cc(S(=O)(=O)[O-])cc7F)c7ccc4[nH]7)C=C6)C=C5)cc3)c2)cc1F
REMARK SMILES IDX 18 1 17 2 16 3 15 4 13 5 14 6 12 8 7 9 8 10 89 11 9 12 10 13
REMARK SMILES IDX 11 14 6 15 1 16 2 17 3 18 91 19 4 20 90 21 92 22 5 23 19 24
REMARK SMILES IDX 20 25 21 26 22 28 23 29 24 30 88 31 25 32 87 33 26 34 27 35
REMARK SMILES IDX 28 36 81 37 29 38 86 39 80 40 82 41 30 42 85 43 79 44 78 45
REMARK SMILES IDX 31 47 65 48 44 49 64 50 45 51 48 52 63 53 83 54 46 55 47 56
REMARK SMILES IDX 62 58 84 59 49 60 32 61 33 62 42 63 34 64 35 65 41 66 43 67
REMARK SMILES IDX 36 68 37 69 38 70 39 71 40 72 66 73 67 74 76 75 68 76 69 77
REMARK SMILES IDX 75 78 77 79 70 80 71 81 72 82 73 83 74 84 50 85 51 86 60 87
REMARK SMILES IDX 52 88 53 89 59 90 61 91 54 92 55 93 56 94 57 95 58 96
REMARK H PARENT 15 7 20 27 82 46 48 57
REMARK Flexibility Score: inf
ROOT
ATOM      1  C   UNL A   1      33.317  29.091  26.322  1.00  0.00     0.023 C 
ENDROOT
BRANCH   1   2
ATOM      2  C   UNL A   1      32.156  28.140  26.583  1.00  0.00     0.023 C 
BRANCH   2   3
ATOM      3  C   UNL A   1      32.395  26.664  26.297  1.00  0.00     0.116 C 
BRANCH   3   4
ATOM      4  N   UNL A   1      31.367  25.754  26.776  1.00  0.00    -0.352 N 
ATOM      5  C   UNL A   1      31.149  24.416  26.512  1.00  0.00     0.254 C 
ATOM      6  O   UNL A   1      30.274  23.827  27.140  1.00  0.00    -0.269 OA
ATOM      7  H   UNL A   1      30.716  26.160  27.393  1.00  0.00     0.163 HD
BRANCH   5   8
ATOM      8  C   UNL A   1      31.918  23.696  25.468  1.00  0.00     0.076 A 
ATOM      9  C   UNL A   1      34.009  22.691  24.694  1.00  0.00    -0.014 A 
ATOM     10  C   UNL A   1      33.478  22.652  23.394  1.00  0.00     0.012 A 
ATOM     11  C   UNL A   1      33.163  23.115  25.734  1.00  0.00     0.025 A 
ATOM     12  C   UNL A   1      32.181  23.099  23.138  1.00  0.00     0.041 A 
ATOM     13  C   UNL A   1      31.421  23.650  24.166  1.00  0.00     0.135 A 
ATOM     14  F   UNL A   1      30.229  24.175  23.851  1.00  0.00    -0.206 F 
BRANCH   9  15
ATOM     15  C   UNL A   1      35.447  22.477  24.955  1.00  0.00     0.020 A 
ATOM     16  C   UNL A   1      39.581  21.932  26.167  1.00  0.00     0.047 C 
ATOM     17  C   UNL A   1      38.153  22.106  25.751  1.00  0.00    -0.012 A 
ATOM     18  C   UNL A   1      37.373  21.016  25.354  1.00  0.00     0.046 A 
ATOM     19  C   UNL A   1      37.580  23.376  25.717  1.00  0.00     0.126 A 
ATOM     20  C   UNL A   1      36.043  21.206  24.967  1.00  0.00     0.131 A 
ATOM     21  C   UNL A   1      36.254  23.566  25.335  1.00  0.00     0.051 A 
ATOM     22  F   UNL A   1      38.302  24.446  26.083  1.00  0.00    -0.207 F 
ATOM     23  F   UNL A   1      35.329  20.123  24.627  1.00  0.00    -0.206 F 
ENDBRANCH   9  15
ENDBRANCH   5   8
ENDBRANCH   3   4
ENDBRANCH   2   3
ENDBRANCH   1   2
BRANCH   1  24
ATOM     24  C   UNL A   1      34.512  28.968  27.257  1.00  0.00     0.116 C 
BRANCH  24  25
ATOM     25  N   UNL A   1      34.611  30.033  28.246  1.00  0.00    -0.352 N 
ATOM     26  C   UNL A   1      35.686  30.445  29.007  1.00  0.00     0.251 C 
ATOM     27  H   UNL A   1      33.780  30.538  28.395  1.00  0.00     0.163 HD
ATOM     28  O   UNL A   1      35.544  31.336  29.832  1.00  0.00    -0.269 OA
BRANCH  26  29
ATOM     29  C   UNL A   1      36.994  29.765  28.862  1.00  0.00     0.039 A 
ATOM     30  C   UNL A   1      37.601  29.140  29.950  1.00  0.00     0.014 A 
ATOM     31  C   UNL A   1      37.651  29.814  27.628  1.00  0.00     0.014 A 
ATOM     32  C   UNL A   1      38.943  28.780  29.871  1.00  0.00     0.010 A 
ATOM     33  C   UNL A   1      38.968  29.357  27.525  1.00  0.00     0.010 A 
ATOM     34  C   UNL A   1      39.651  28.905  28.664  1.00  0.00    -0.014 A 
BRANCH  34  35
ATOM     35  C   UNL A   1      41.108  28.603  28.635  1.00  0.00     0.031 A 
ATOM     36  C   UNL A   1      41.604  27.242  28.211  1.00  0.00     0.074 A 
ATOM     37  C   UNL A   1      41.992  29.582  28.914  1.00  0.00     0.049 A 
ATOM     38  N   UNL A   1      42.835  26.805  28.121  1.00  0.00    -0.248 NA
ATOM     39  C   UNL A   1      40.591  26.239  27.842  1.00  0.00     0.031 C 
ATOM     40  C   UNL A   1      41.641  30.945  29.318  1.00  0.00     0.029 A 
ATOM     41  N   UNL A   1      43.363  29.594  28.869  1.00  0.00    -0.354 N 
ATOM     42  C   UNL A   1      42.744  25.479  27.712  1.00  0.00     0.074 A 
ATOM     43  C   UNL A   1      41.336  25.171  27.592  1.00  0.00     0.031 C 
ATOM     44  C   UNL A   1      42.761  31.676  29.425  1.00  0.00     0.029 A 
ATOM     45  C   UNL A   1      43.913  30.819  29.162  1.00  0.00     0.049 A 
ATOM     46  H   UNL A   1      43.902  28.800  28.650  1.00  0.00     0.167 HD
ATOM     47  C   UNL A   1      43.743  24.601  27.449  1.00  0.00     0.037 A 
ATOM     48  C   UNL A   1      45.200  31.212  29.226  1.00  0.00     0.037 A 
ATOM     49  C   UNL A   1      45.145  24.920  27.528  1.00  0.00     0.049 A 
ATOM     50  C   UNL A   1      46.286  30.214  28.950  1.00  0.00     0.074 A 
ATOM     51  C   UNL A   1      46.230  24.099  27.270  1.00  0.00     0.029 A 
ATOM     52  N   UNL A   1      45.658  26.160  27.879  1.00  0.00    -0.354 N 
ATOM     53  N   UNL A   1      46.176  28.957  28.594  1.00  0.00    -0.248 NA
ATOM     54  C   UNL A   1      47.671  30.682  29.099  1.00  0.00     0.031 C 
ATOM     55  C   UNL A   1      47.398  24.834  27.491  1.00  0.00     0.029 A 
ATOM     56  C   UNL A   1      47.042  26.123  27.853  1.00  0.00     0.049 A 
ATOM     57  H   UNL A   1      45.118  26.950  28.110  1.00  0.00     0.167 HD
ATOM     58  C   UNL A   1      47.476  28.483  28.476  1.00  0.00     0.074 A 
ATOM     59  C   UNL A   1      48.357  29.594  28.775  1.00  0.00     0.031 C 
ATOM     60  C   UNL A   1      47.903  27.236  28.157  1.00  0.00     0.037 A 
BRANCH  47  61
ATOM     61  C   UNL A   1      43.367  23.202  27.047  1.00  0.00     0.058 A 
ATOM     62  C   UNL A   1      43.525  22.747  25.729  1.00  0.00     0.135 A 
ATOM     63  C   UNL A   1      42.919  22.281  28.010  1.00  0.00     0.135 A 
ATOM     64  F   UNL A   1      43.933  23.591  24.769  1.00  0.00    -0.206 F 
ATOM     65  C   UNL A   1      43.246  21.430  25.377  1.00  0.00     0.059 A 
ATOM     66  C   UNL A   1      42.653  20.954  27.683  1.00  0.00     0.059 A 
ATOM     67  F   UNL A   1      42.749  22.666  29.284  1.00  0.00    -0.206 F 
ATOM     68  C   UNL A   1      42.814  20.540  26.362  1.00  0.00     0.060 A 
BRANCH  68  69
ATOM     69  S   UNL A   1      42.488  18.826  25.893  1.00  0.00     0.124 S 
ATOM     70  O   UNL A   1      43.244  18.717  24.648  1.00  0.00    -0.237 OA
ATOM     71  O   UNL A   1      43.028  18.084  27.027  1.00  0.00    -0.237 OA
ATOM     72  O   UNL A   1      41.037  18.782  25.750  1.00  0.00    -0.744 OA
ENDBRANCH  68  69
ENDBRANCH  47  61
BRANCH  48  73
ATOM     73  C   UNL A   1      45.523  32.618  29.582  1.00  0.00     0.058 A 
ATOM     74  C   UNL A   1      45.642  33.604  28.591  1.00  0.00     0.135 A 
ATOM     75  C   UNL A   1      45.693  33.006  30.919  1.00  0.00     0.135 A 
ATOM     76  F   UNL A   1      45.494  33.277  27.298  1.00  0.00    -0.206 F 
ATOM     77  C   UNL A   1      45.923  34.927  28.914  1.00  0.00     0.059 A 
ATOM     78  C   UNL A   1      45.952  34.326  31.269  1.00  0.00     0.059 A 
ATOM     79  F   UNL A   1      45.575  32.100  31.902  1.00  0.00    -0.206 F 
ATOM     80  C   UNL A   1      46.073  35.278  30.257  1.00  0.00     0.060 A 
BRANCH  80  81
ATOM     81  S   UNL A   1      46.380  37.008  30.674  1.00  0.00     0.124 S 
ATOM     82  O   UNL A   1      47.817  36.999  30.922  1.00  0.00    -0.237 OA
ATOM     83  O   UNL A   1      45.945  37.700  29.465  1.00  0.00    -0.237 OA
ATOM     84  O   UNL A   1      45.537  37.223  31.847  1.00  0.00    -0.744 OA
ENDBRANCH  80  81
ENDBRANCH  48  73
BRANCH  60  85
ATOM     85  C   UNL A   1      49.385  27.008  28.110  1.00  0.00     0.058 A 
ATOM     86  C   UNL A   1      50.131  27.308  26.961  1.00  0.00     0.135 A 
ATOM     87  C   UNL A   1      50.072  26.538  29.240  1.00  0.00     0.135 A 
ATOM     88  F   UNL A   1      49.518  27.754  25.853  1.00  0.00    -0.206 F 
ATOM     89  C   UNL A   1      51.511  27.136  26.928  1.00  0.00     0.059 A 
ATOM     90  C   UNL A   1      51.455  26.377  29.236  1.00  0.00     0.059 A 
ATOM     91  F   UNL A   1      49.402  26.245  30.366  1.00  0.00    -0.206 F 
ATOM     92  C   UNL A   1      52.164  26.671  28.072  1.00  0.00     0.060 A 
BRANCH  92  93
ATOM     93  S   UNL A   1      53.959  26.487  28.028  1.00  0.00     0.124 S 
ATOM     94  O   UNL A   1      54.268  26.288  29.441  1.00  0.00    -0.237 OA
ATOM     95  O   UNL A   1      54.134  25.318  27.171  1.00  0.00    -0.237 OA
ATOM     96  O   UNL A   1      54.416  27.750  27.457  1.00  0.00    -0.744 OA
ENDBRANCH  92  93
ENDBRANCH  60  85
ENDBRANCH  34  35
ENDBRANCH  26  29
ENDBRANCH  24  25
ENDBRANCH   1  24
TORSDOF 15
ENDMDL
