MODEL 1
REMARK VINA RESULT:     -14.5      0.000      0.000
REMARK SMILES Cc1cc(C(=O)NCCCCNC(=O)c2ccc(-c3c4nc(c(-c5c(F)cc(S(=O)(=O)[O-])cc5F)c5ccc([nH]5)c(-c5c(F)cc(S(=O)(=O)[O-])cc5F)c5nc(c(-c6c(F)cc(S(=O)(=O)[O-])cc6F)c6ccc3[nH]6)C=C5)C=C4)cc2)ccc1NC(=O)N1C[C@@H](C)[C@H](C)C1
REMARK SMILES IDX 10 1 9 2 8 3 7 4 5 5 6 6 4 8 1 9 2 10 3 11 83 12 82 13 81 14
REMARK SMILES IDX 84 15 85 16 86 18 87 19 88 20 93 21 89 22 91 23 90 24 92 25
REMARK SMILES IDX 11 26 12 27 13 28 14 30 15 31 16 32 80 33 17 34 79 35 18 36
REMARK SMILES IDX 19 37 20 38 73 39 21 40 78 41 72 42 74 43 22 44 77 45 71 46
REMARK SMILES IDX 70 47 23 49 57 50 36 51 56 52 37 53 40 54 55 55 75 56 38 57
REMARK SMILES IDX 39 58 54 60 76 61 41 62 24 63 25 64 34 65 26 66 27 67 33 68
REMARK SMILES IDX 35 69 28 70 29 71 30 72 31 73 32 74 58 75 59 76 68 77 60 78
REMARK SMILES IDX 61 79 67 80 69 81 62 82 63 83 64 84 65 85 66 86 42 87 43 88
REMARK SMILES IDX 52 89 44 90 45 91 51 92 53 93 46 94 47 95 48 96 49 97 50 98
REMARK H PARENT 7 7 84 17 12 29 74 48 40 59
REMARK Flexibility Score: inf
ROOT
ATOM      1  C   UNL A   1      32.966  30.436  27.273  1.00  0.00     0.023 C 
ENDROOT
BRANCH   1   2
ATOM      2  C   UNL A   1      32.223  29.401  26.433  1.00  0.00     0.023 C 
BRANCH   2   3
ATOM      3  C   UNL A   1      32.456  29.498  24.914  1.00  0.00     0.116 C 
BRANCH   3   4
ATOM      4  N   UNL A   1      31.238  29.746  24.142  1.00  0.00    -0.352 N 
ATOM      5  C   UNL A   1      30.323  28.885  23.574  1.00  0.00     0.251 C 
ATOM      6  O   UNL A   1      29.258  29.331  23.149  1.00  0.00    -0.269 OA
ATOM      7  H   UNL A   1      31.035  30.699  24.003  1.00  0.00     0.163 HD
BRANCH   5   8
ATOM      8  C   UNL A   1      30.578  27.426  23.483  1.00  0.00     0.040 A 
ATOM      9  C   UNL A   1      32.707  25.083  21.383  1.00  0.00     0.046 C 
ATOM     10  C   UNL A   1      31.646  25.529  22.351  1.00  0.00    -0.027 A 
ATOM     11  C   UNL A   1      31.452  26.922  22.511  1.00  0.00     0.019 A 
ATOM     12  C   UNL A   1      30.886  24.651  23.142  1.00  0.00     0.045 A 
ATOM     13  C   UNL A   1      30.163  25.174  24.219  1.00  0.00     0.027 A 
ATOM     14  C   UNL A   1      30.034  26.543  24.399  1.00  0.00     0.016 A 
BRANCH  12  15
ATOM     15  N   UNL A   1      30.872  23.261  22.907  1.00  0.00    -0.308 N 
ATOM     16  C   UNL A   1      31.903  22.371  23.064  1.00  0.00     0.321 C 
ATOM     17  H   UNL A   1      30.019  22.884  22.591  1.00  0.00     0.171 HD
ATOM     18  O   UNL A   1      31.996  21.423  22.284  1.00  0.00    -0.248 OA
ATOM     19  N   UNL A   1      32.781  22.560  24.104  1.00  0.00    -0.324 N 
ATOM     20  C   UNL A   1      34.138  22.049  24.054  1.00  0.00     0.125 C 
ATOM     21  C   UNL A   1      32.409  22.933  25.467  1.00  0.00     0.125 C 
ATOM     22  C   UNL A   1      34.570  21.889  25.509  1.00  0.00     0.010 C 
ATOM     23  C   UNL A   1      33.724  22.941  26.250  1.00  0.00     0.010 C 
ATOM     24  C   UNL A   1      36.067  22.096  25.699  1.00  0.00     0.010 C 
ATOM     25  C   UNL A   1      33.548  22.636  27.736  1.00  0.00     0.010 C 
ENDBRANCH  12  15
ENDBRANCH   5   8
ENDBRANCH   3   4
ENDBRANCH   2   3
ENDBRANCH   1   2
BRANCH   1  26
ATOM     26  C   UNL A   1      34.447  30.122  27.416  1.00  0.00     0.116 C 
BRANCH  26  27
ATOM     27  N   UNL A   1      35.268  31.288  27.716  1.00  0.00    -0.352 N 
ATOM     28  C   UNL A   1      36.543  31.315  28.257  1.00  0.00     0.251 C 
ATOM     29  H   UNL A   1      34.867  32.163  27.508  1.00  0.00     0.163 HD
ATOM     30  O   UNL A   1      37.066  32.353  28.625  1.00  0.00    -0.269 OA
BRANCH  28  31
ATOM     31  C   UNL A   1      37.288  30.038  28.286  1.00  0.00     0.039 A 
ATOM     32  C   UNL A   1      37.323  29.336  29.496  1.00  0.00     0.014 A 
ATOM     33  C   UNL A   1      38.161  29.726  27.248  1.00  0.00     0.014 A 
ATOM     34  C   UNL A   1      38.374  28.458  29.745  1.00  0.00     0.010 A 
ATOM     35  C   UNL A   1      39.257  28.938  27.534  1.00  0.00     0.010 A 
ATOM     36  C   UNL A   1      39.393  28.344  28.800  1.00  0.00    -0.014 A 
BRANCH  36  37
ATOM     37  C   UNL A   1      40.688  27.726  29.069  1.00  0.00     0.031 A 
ATOM     38  C   UNL A   1      40.937  26.315  28.688  1.00  0.00     0.074 A 
ATOM     39  C   UNL A   1      41.706  28.479  29.538  1.00  0.00     0.049 A 
ATOM     40  N   UNL A   1      41.943  25.606  29.077  1.00  0.00    -0.248 NA
ATOM     41  C   UNL A   1      40.002  25.561  27.861  1.00  0.00     0.031 C 
ATOM     42  C   UNL A   1      43.132  28.172  29.469  1.00  0.00     0.029 A 
ATOM     43  N   UNL A   1      41.647  29.611  30.343  1.00  0.00    -0.354 N 
ATOM     44  C   UNL A   1      41.959  24.442  28.337  1.00  0.00     0.074 A 
ATOM     45  C   UNL A   1      40.682  24.429  27.666  1.00  0.00     0.031 C 
ATOM     46  C   UNL A   1      43.789  28.937  30.354  1.00  0.00     0.029 A 
ATOM     47  C   UNL A   1      42.796  29.640  31.145  1.00  0.00     0.049 A 
ATOM     48  H   UNL A   1      40.923  30.278  30.347  1.00  0.00     0.167 HD
ATOM     49  C   UNL A   1      43.112  23.711  28.277  1.00  0.00     0.037 A 
ATOM     50  C   UNL A   1      42.709  29.555  32.509  1.00  0.00     0.037 A 
ATOM     51  C   UNL A   1      44.097  24.217  29.240  1.00  0.00     0.049 A 
ATOM     52  C   UNL A   1      43.345  28.316  33.099  1.00  0.00     0.074 A 
ATOM     53  C   UNL A   1      45.210  25.033  29.113  1.00  0.00     0.029 A 
ATOM     54  N   UNL A   1      43.833  24.132  30.605  1.00  0.00    -0.354 N 
ATOM     55  N   UNL A   1      43.709  27.277  32.399  1.00  0.00    -0.248 NA
ATOM     56  C   UNL A   1      43.604  28.137  34.527  1.00  0.00     0.031 C 
ATOM     57  C   UNL A   1      45.563  25.504  30.403  1.00  0.00     0.029 A 
ATOM     58  C   UNL A   1      44.682  24.956  31.319  1.00  0.00     0.049 A 
ATOM     59  H   UNL A   1      43.136  23.562  31.005  1.00  0.00     0.167 HD
ATOM     60  C   UNL A   1      44.185  26.299  33.232  1.00  0.00     0.074 A 
ATOM     61  C   UNL A   1      44.133  26.900  34.552  1.00  0.00     0.031 C 
ATOM     62  C   UNL A   1      44.565  25.072  32.767  1.00  0.00     0.037 A 
BRANCH  49  63
ATOM     63  C   UNL A   1      43.466  22.751  27.140  1.00  0.00     0.058 A 
ATOM     64  C   UNL A   1      42.786  21.518  26.999  1.00  0.00     0.135 A 
ATOM     65  C   UNL A   1      44.520  22.923  26.220  1.00  0.00     0.135 A 
ATOM     66  F   UNL A   1      41.683  21.241  27.708  1.00  0.00    -0.206 F 
ATOM     67  C   UNL A   1      43.201  20.503  26.128  1.00  0.00     0.059 A 
ATOM     68  C   UNL A   1      44.985  21.910  25.374  1.00  0.00     0.059 A 
ATOM     69  F   UNL A   1      45.118  24.104  26.042  1.00  0.00    -0.206 F 
ATOM     70  C   UNL A   1      44.331  20.692  25.348  1.00  0.00     0.060 A 
BRANCH  70  71
ATOM     71  S   UNL A   1      44.916  19.351  24.297  1.00  0.00     0.124 S 
ATOM     72  O   UNL A   1      46.356  19.382  24.531  1.00  0.00    -0.237 OA
ATOM     73  O   UNL A   1      44.207  18.199  24.847  1.00  0.00    -0.237 OA
ATOM     74  O   UNL A   1      44.498  19.759  22.959  1.00  0.00    -0.744 OA
ENDBRANCH  70  71
ENDBRANCH  49  63
BRANCH  50  75
ATOM     75  C   UNL A   1      41.533  30.275  33.067  1.00  0.00     0.058 A 
ATOM     76  C   UNL A   1      41.653  31.668  33.222  1.00  0.00     0.135 A 
ATOM     77  C   UNL A   1      40.241  29.737  32.977  1.00  0.00     0.135 A 
ATOM     78  F   UNL A   1      42.868  32.226  33.345  1.00  0.00    -0.206 F 
ATOM     79  C   UNL A   1      40.558  32.511  33.094  1.00  0.00     0.059 A 
ATOM     80  C   UNL A   1      39.124  30.566  32.858  1.00  0.00     0.059 A 
ATOM     81  F   UNL A   1      40.067  28.415  32.839  1.00  0.00    -0.206 F 
ATOM     82  C   UNL A   1      39.310  31.949  32.833  1.00  0.00     0.060 A 
BRANCH  82  83
ATOM     83  S   UNL A   1      38.005  33.053  32.242  1.00  0.00     0.124 S 
ATOM     84  O   UNL A   1      36.935  32.118  31.920  1.00  0.00    -0.237 OA
ATOM     85  O   UNL A   1      37.785  33.886  33.424  1.00  0.00    -0.237 OA
ATOM     86  O   UNL A   1      38.626  33.723  31.105  1.00  0.00    -0.744 OA
ENDBRANCH  82  83
ENDBRANCH  50  75
BRANCH  62  87
ATOM     87  C   UNL A   1      44.937  23.889  33.627  1.00  0.00     0.058 A 
ATOM     88  C   UNL A   1      44.031  22.895  34.028  1.00  0.00     0.135 A 
ATOM     89  C   UNL A   1      46.292  23.654  33.960  1.00  0.00     0.135 A 
ATOM     90  F   UNL A   1      42.736  22.954  33.682  1.00  0.00    -0.206 F 
ATOM     91  C   UNL A   1      44.427  21.775  34.764  1.00  0.00     0.059 A 
ATOM     92  C   UNL A   1      46.717  22.519  34.646  1.00  0.00     0.059 A 
ATOM     93  F   UNL A   1      47.256  24.524  33.617  1.00  0.00    -0.206 F 
ATOM     94  C   UNL A   1      45.773  21.595  35.067  1.00  0.00     0.060 A 
BRANCH  94  95
ATOM     95  S   UNL A   1      46.309  20.122  35.959  1.00  0.00     0.124 S 
ATOM     96  O   UNL A   1      45.733  19.061  35.141  1.00  0.00    -0.237 OA
ATOM     97  O   UNL A   1      47.765  20.227  35.920  1.00  0.00    -0.237 OA
ATOM     98  O   UNL A   1      45.712  20.301  37.278  1.00  0.00    -0.744 OA
ENDBRANCH  94  95
ENDBRANCH  62  87
ENDBRANCH  36  37
ENDBRANCH  28  31
ENDBRANCH  26  27
ENDBRANCH   1  26
TORSDOF 15
ENDMDL
MODEL 2
REMARK VINA RESULT:     -14.5      1.008      1.549
REMARK SMILES Cc1cc(C(=O)NCCCCNC(=O)c2ccc(-c3c4nc(c(-c5c(F)cc(S(=O)(=O)[O-])cc5F)c5ccc([nH]5)c(-c5c(F)cc(S(=O)(=O)[O-])cc5F)c5nc(c(-c6c(F)cc(S(=O)(=O)[O-])cc6F)c6ccc3[nH]6)C=C5)C=C4)cc2)ccc1NC(=O)N1C[C@@H](C)[C@H](C)C1
REMARK SMILES IDX 10 1 9 2 8 3 7 4 5 5 6 6 4 8 1 9 2 10 3 11 83 12 82 13 81 14
REMARK SMILES IDX 84 15 85 16 86 18 87 19 88 20 93 21 89 22 91 23 90 24 92 25
REMARK SMILES IDX 11 26 12 27 13 28 14 30 15 31 16 32 80 33 17 34 79 35 18 36
REMARK SMILES IDX 19 37 20 38 73 39 21 40 78 41 72 42 74 43 22 44 77 45 71 46
REMARK SMILES IDX 70 47 23 49 57 50 36 51 56 52 37 53 40 54 55 55 75 56 38 57
REMARK SMILES IDX 39 58 54 60 76 61 41 62 24 63 25 64 34 65 26 66 27 67 33 68
REMARK SMILES IDX 35 69 28 70 29 71 30 72 31 73 32 74 58 75 59 76 68 77 60 78
REMARK SMILES IDX 61 79 67 80 69 81 62 82 63 83 64 84 65 85 66 86 42 87 43 88
REMARK SMILES IDX 52 89 44 90 45 91 51 92 53 93 46 94 47 95 48 96 49 97 50 98
REMARK H PARENT 7 7 84 17 12 29 74 48 40 59
REMARK Flexibility Score: inf
ROOT
ATOM      1  C   UNL A   1      32.714  30.306  27.144  1.00  0.00     0.023 C 
ENDROOT
BRANCH   1   2
ATOM      2  C   UNL A   1      32.043  29.337  26.174  1.00  0.00     0.023 C 
BRANCH   2   3
ATOM      3  C   UNL A   1      32.169  29.705  24.685  1.00  0.00     0.116 C 
BRANCH   3   4
ATOM      4  N   UNL A   1      30.885  29.833  23.994  1.00  0.00    -0.352 N 
ATOM      5  C   UNL A   1      30.015  28.886  23.496  1.00  0.00     0.251 C 
ATOM      6  O   UNL A   1      28.889  29.230  23.141  1.00  0.00    -0.269 OA
ATOM      7  H   UNL A   1      30.589  30.762  23.861  1.00  0.00     0.163 HD
BRANCH   5   8
ATOM      8  C   UNL A   1      30.393  27.455  23.401  1.00  0.00     0.040 A 
ATOM      9  C   UNL A   1      32.575  25.278  21.179  1.00  0.00     0.046 C 
ATOM     10  C   UNL A   1      31.547  25.643  22.214  1.00  0.00    -0.027 A 
ATOM     11  C   UNL A   1      31.240  27.015  22.375  1.00  0.00     0.019 A 
ATOM     12  C   UNL A   1      30.925  24.713  23.064  1.00  0.00     0.045 A 
ATOM     13  C   UNL A   1      30.233  25.186  24.184  1.00  0.00     0.027 A 
ATOM     14  C   UNL A   1      29.995  26.540  24.360  1.00  0.00     0.016 A 
BRANCH  12  15
ATOM     15  N   UNL A   1      31.019  23.324  22.843  1.00  0.00    -0.308 N 
ATOM     16  C   UNL A   1      32.116  22.519  23.007  1.00  0.00     0.321 C 
ATOM     17  H   UNL A   1      30.198  22.878  22.532  1.00  0.00     0.171 HD
ATOM     18  O   UNL A   1      32.283  21.573  22.236  1.00  0.00    -0.248 OA
ATOM     19  N   UNL A   1      32.978  22.786  24.043  1.00  0.00    -0.324 N 
ATOM     20  C   UNL A   1      34.370  22.382  23.996  1.00  0.00     0.125 C 
ATOM     21  C   UNL A   1      32.579  23.142  25.404  1.00  0.00     0.125 C 
ATOM     22  C   UNL A   1      34.815  22.271  25.453  1.00  0.00     0.010 C 
ATOM     23  C   UNL A   1      33.890  23.261  26.185  1.00  0.00     0.010 C 
ATOM     24  C   UNL A   1      36.292  22.596  25.638  1.00  0.00     0.010 C 
ATOM     25  C   UNL A   1      33.739  22.958  27.673  1.00  0.00     0.010 C 
ENDBRANCH  12  15
ENDBRANCH   5   8
ENDBRANCH   3   4
ENDBRANCH   2   3
ENDBRANCH   1   2
BRANCH   1  26
ATOM     26  C   UNL A   1      34.197  30.023  27.324  1.00  0.00     0.116 C 
BRANCH  26  27
ATOM     27  N   UNL A   1      34.996  31.217  27.567  1.00  0.00    -0.352 N 
ATOM     28  C   UNL A   1      36.299  31.289  28.035  1.00  0.00     0.251 C 
ATOM     29  H   UNL A   1      34.557  32.077  27.376  1.00  0.00     0.163 HD
ATOM     30  O   UNL A   1      36.808  32.346  28.364  1.00  0.00    -0.269 OA
BRANCH  28  31
ATOM     31  C   UNL A   1      37.084  30.036  28.031  1.00  0.00     0.039 A 
ATOM     32  C   UNL A   1      37.069  29.260  29.195  1.00  0.00     0.014 A 
ATOM     33  C   UNL A   1      38.029  29.818  27.033  1.00  0.00     0.014 A 
ATOM     34  C   UNL A   1      38.133  28.400  29.454  1.00  0.00     0.010 A 
ATOM     35  C   UNL A   1      39.132  29.047  27.337  1.00  0.00     0.010 A 
ATOM     36  C   UNL A   1      39.211  28.377  28.570  1.00  0.00    -0.014 A 
BRANCH  36  37
ATOM     37  C   UNL A   1      40.508  27.783  28.881  1.00  0.00     0.031 A 
ATOM     38  C   UNL A   1      40.778  26.363  28.552  1.00  0.00     0.074 A 
ATOM     39  C   UNL A   1      41.510  28.564  29.340  1.00  0.00     0.049 A 
ATOM     40  N   UNL A   1      41.784  25.679  28.982  1.00  0.00    -0.248 NA
ATOM     41  C   UNL A   1      39.865  25.572  27.737  1.00  0.00     0.031 C 
ATOM     42  C   UNL A   1      42.939  28.270  29.304  1.00  0.00     0.029 A 
ATOM     43  N   UNL A   1      41.425  29.721  30.104  1.00  0.00    -0.354 N 
ATOM     44  C   UNL A   1      41.825  24.491  28.282  1.00  0.00     0.074 A 
ATOM     45  C   UNL A   1      40.560  24.441  27.591  1.00  0.00     0.031 C 
ATOM     46  C   UNL A   1      43.574  29.072  30.173  1.00  0.00     0.029 A 
ATOM     47  C   UNL A   1      42.560  29.790  30.924  1.00  0.00     0.049 A 
ATOM     48  H   UNL A   1      40.694  30.380  30.074  1.00  0.00     0.167 HD
ATOM     49  C   UNL A   1      42.987  23.771  28.265  1.00  0.00     0.037 A 
ATOM     50  C   UNL A   1      42.452  29.750  32.288  1.00  0.00     0.037 A 
ATOM     51  C   UNL A   1      43.950  24.321  29.226  1.00  0.00     0.049 A 
ATOM     52  C   UNL A   1      43.092  28.539  32.931  1.00  0.00     0.074 A 
ATOM     53  C   UNL A   1      45.057  25.143  29.089  1.00  0.00     0.029 A 
ATOM     54  N   UNL A   1      43.664  24.279  30.589  1.00  0.00    -0.354 N 
ATOM     55  N   UNL A   1      43.478  27.481  32.272  1.00  0.00    -0.248 NA
ATOM     56  C   UNL A   1      43.329  28.412  34.367  1.00  0.00     0.031 C 
ATOM     57  C   UNL A   1      45.383  25.662  30.368  1.00  0.00     0.029 A 
ATOM     58  C   UNL A   1      44.492  25.136  31.288  1.00  0.00     0.049 A 
ATOM     59  H   UNL A   1      42.967  23.715  30.997  1.00  0.00     0.167 HD
ATOM     60  C   UNL A   1      43.950  26.538  33.145  1.00  0.00     0.074 A 
ATOM     61  C   UNL A   1      43.870  27.182  34.443  1.00  0.00     0.031 C 
ATOM     62  C   UNL A   1      44.351  25.300  32.729  1.00  0.00     0.037 A 
BRANCH  49  63
ATOM     63  C   UNL A   1      43.370  22.777  27.168  1.00  0.00     0.058 A 
ATOM     64  C   UNL A   1      42.670  21.555  27.025  1.00  0.00     0.135 A 
ATOM     65  C   UNL A   1      44.466  22.906  26.291  1.00  0.00     0.135 A 
ATOM     66  F   UNL A   1      41.532  21.318  27.691  1.00  0.00    -0.206 F 
ATOM     67  C   UNL A   1      43.101  20.511  26.198  1.00  0.00     0.059 A 
ATOM     68  C   UNL A   1      44.946  21.863  25.491  1.00  0.00     0.059 A 
ATOM     69  F   UNL A   1      45.096  24.069  26.113  1.00  0.00    -0.206 F 
ATOM     70  C   UNL A   1      44.268  20.658  25.464  1.00  0.00     0.060 A 
BRANCH  70  71
ATOM     71  S   UNL A   1      44.869  19.281  24.471  1.00  0.00     0.124 S 
ATOM     72  O   UNL A   1      44.105  18.158  25.007  1.00  0.00    -0.237 OA
ATOM     73  O   UNL A   1      44.518  19.702  23.118  1.00  0.00    -0.237 OA
ATOM     74  O   UNL A   1      46.300  19.250  24.762  1.00  0.00    -0.744 OA
ENDBRANCH  70  71
ENDBRANCH  49  63
BRANCH  50  75
ATOM     75  C   UNL A   1      41.260  30.476  32.803  1.00  0.00     0.058 A 
ATOM     76  C   UNL A   1      40.121  29.705  33.096  1.00  0.00     0.135 A 
ATOM     77  C   UNL A   1      41.383  31.723  33.433  1.00  0.00     0.135 A 
ATOM     78  F   UNL A   1      39.943  28.519  32.492  1.00  0.00    -0.206 F 
ATOM     79  C   UNL A   1      39.245  30.057  34.113  1.00  0.00     0.059 A 
ATOM     80  C   UNL A   1      40.507  32.103  34.452  1.00  0.00     0.059 A 
ATOM     81  F   UNL A   1      42.443  32.505  33.184  1.00  0.00    -0.206 F 
ATOM     82  C   UNL A   1      39.497  31.221  34.837  1.00  0.00     0.060 A 
BRANCH  82  83
ATOM     83  S   UNL A   1      38.625  31.431  36.407  1.00  0.00     0.124 S 
ATOM     84  O   UNL A   1      38.213  30.067  36.713  1.00  0.00    -0.237 OA
ATOM     85  O   UNL A   1      39.690  31.975  37.249  1.00  0.00    -0.237 OA
ATOM     86  O   UNL A   1      37.551  32.358  36.070  1.00  0.00    -0.744 OA
ENDBRANCH  82  83
ENDBRANCH  50  75
BRANCH  62  87
ATOM     87  C   UNL A   1      44.721  24.151  33.635  1.00  0.00     0.058 A 
ATOM     88  C   UNL A   1      43.791  23.255  34.185  1.00  0.00     0.135 A 
ATOM     89  C   UNL A   1      46.083  23.839  33.863  1.00  0.00     0.135 A 
ATOM     90  F   UNL A   1      42.476  23.386  33.952  1.00  0.00    -0.206 F 
ATOM     91  C   UNL A   1      44.178  22.158  34.960  1.00  0.00     0.059 A 
ATOM     92  C   UNL A   1      46.492  22.723  34.588  1.00  0.00     0.059 A 
ATOM     93  F   UNL A   1      47.066  24.611  33.375  1.00  0.00    -0.206 F 
ATOM     94  C   UNL A   1      45.531  21.900  35.156  1.00  0.00     0.060 A 
BRANCH  94  95
ATOM     95  S   UNL A   1      46.048  20.453  36.099  1.00  0.00     0.124 S 
ATOM     96  O   UNL A   1      45.655  20.832  37.452  1.00  0.00    -0.237 OA
ATOM     97  O   UNL A   1      45.269  19.373  35.497  1.00  0.00    -0.237 OA
ATOM     98  O   UNL A   1      47.483  20.393  35.849  1.00  0.00    -0.744 OA
ENDBRANCH  94  95
ENDBRANCH  62  87
ENDBRANCH  36  37
ENDBRANCH  28  31
ENDBRANCH  26  27
ENDBRANCH   1  26
TORSDOF 15
ENDMDL
MODEL 3
REMARK VINA RESULT:     -14.4      4.384     11.363
REMARK SMILES Cc1cc(C(=O)NCCCCNC(=O)c2ccc(-c3c4nc(c(-c5c(F)cc(S(=O)(=O)[O-])cc5F)c5ccc([nH]5)c(-c5c(F)cc(S(=O)(=O)[O-])cc5F)c5nc(c(-c6c(F)cc(S(=O)(=O)[O-])cc6F)c6ccc3[nH]6)C=C5)C=C4)cc2)ccc1NC(=O)N1C[C@@H](C)[C@H](C)C1
REMARK SMILES IDX 10 1 9 2 8 3 7 4 5 5 6 6 4 8 1 9 2 10 3 11 83 12 82 13 81 14
REMARK SMILES IDX 84 15 85 16 86 18 87 19 88 20 93 21 89 22 91 23 90 24 92 25
REMARK SMILES IDX 11 26 12 27 13 28 14 30 15 31 16 32 80 33 17 34 79 35 18 36
REMARK SMILES IDX 19 37 20 38 73 39 21 40 78 41 72 42 74 43 22 44 77 45 71 46
REMARK SMILES IDX 70 47 23 49 57 50 36 51 56 52 37 53 40 54 55 55 75 56 38 57
REMARK SMILES IDX 39 58 54 60 76 61 41 62 24 63 25 64 34 65 26 66 27 67 33 68
REMARK SMILES IDX 35 69 28 70 29 71 30 72 31 73 32 74 58 75 59 76 68 77 60 78
REMARK SMILES IDX 61 79 67 80 69 81 62 82 63 83 64 84 65 85 66 86 42 87 43 88
REMARK SMILES IDX 52 89 44 90 45 91 51 92 53 93 46 94 47 95 48 96 49 97 50 98
REMARK H PARENT 7 7 84 17 12 29 74 48 40 59
REMARK Flexibility Score: inf
ROOT
ATOM      1  C   UNL A   1      37.878  22.186  25.110  1.00  0.00     0.023 C 
ENDROOT
BRANCH   1   2
ATOM      2  C   UNL A   1      36.382  22.110  24.813  1.00  0.00     0.023 C 
BRANCH   2   3
ATOM      3  C   UNL A   1      35.529  21.441  25.905  1.00  0.00     0.116 C 
BRANCH   3   4
ATOM      4  N   UNL A   1      34.746  20.300  25.430  1.00  0.00    -0.352 N 
ATOM      5  C   UNL A   1      33.572  20.232  24.710  1.00  0.00     0.251 C 
ATOM      6  O   UNL A   1      33.212  19.152  24.243  1.00  0.00    -0.269 OA
ATOM      7  H   UNL A   1      35.124  19.423  25.668  1.00  0.00     0.163 HD
BRANCH   5   8
ATOM      8  C   UNL A   1      32.741  21.435  24.459  1.00  0.00     0.040 A 
ATOM      9  C   UNL A   1      30.427  23.701  26.444  1.00  0.00     0.046 C 
ATOM     10  C   UNL A   1      31.105  23.083  25.254  1.00  0.00    -0.027 A 
ATOM     11  C   UNL A   1      31.969  21.987  25.490  1.00  0.00     0.019 A 
ATOM     12  C   UNL A   1      30.979  23.566  23.940  1.00  0.00     0.045 A 
ATOM     13  C   UNL A   1      31.886  23.121  22.972  1.00  0.00     0.027 A 
ATOM     14  C   UNL A   1      32.771  22.088  23.239  1.00  0.00     0.016 A 
BRANCH  12  15
ATOM     15  N   UNL A   1      29.997  24.514  23.587  1.00  0.00    -0.308 N 
ATOM     16  C   UNL A   1      29.942  25.837  23.939  1.00  0.00     0.321 C 
ATOM     17  H   UNL A   1      29.262  24.186  23.021  1.00  0.00     0.171 HD
ATOM     18  O   UNL A   1      28.843  26.356  24.140  1.00  0.00    -0.248 OA
ATOM     19  N   UNL A   1      31.117  26.542  24.033  1.00  0.00    -0.324 N 
ATOM     20  C   UNL A   1      31.233  27.716  24.877  1.00  0.00     0.125 C 
ATOM     21  C   UNL A   1      32.228  26.462  23.087  1.00  0.00     0.125 C 
ATOM     22  C   UNL A   1      32.372  28.540  24.280  1.00  0.00     0.010 C 
ATOM     23  C   UNL A   1      33.253  27.483  23.589  1.00  0.00     0.010 C 
ATOM     24  C   UNL A   1      33.127  29.341  25.333  1.00  0.00     0.010 C 
ATOM     25  C   UNL A   1      34.129  28.059  22.480  1.00  0.00     0.010 C 
ENDBRANCH  12  15
ENDBRANCH   5   8
ENDBRANCH   3   4
ENDBRANCH   2   3
ENDBRANCH   1   2
BRANCH   1  26
ATOM     26  C   UNL A   1      38.225  23.291  26.095  1.00  0.00     0.116 C 
BRANCH  26  27
ATOM     27  N   UNL A   1      39.409  23.010  26.898  1.00  0.00    -0.352 N 
ATOM     28  C   UNL A   1      40.247  23.918  27.525  1.00  0.00     0.251 C 
ATOM     29  H   UNL A   1      39.641  22.060  27.007  1.00  0.00     0.163 HD
ATOM     30  O   UNL A   1      41.305  23.579  28.026  1.00  0.00    -0.269 OA
BRANCH  28  31
ATOM     31  C   UNL A   1      39.760  25.309  27.647  1.00  0.00     0.039 A 
ATOM     32  C   UNL A   1      40.349  26.275  26.823  1.00  0.00     0.014 A 
ATOM     33  C   UNL A   1      38.985  25.675  28.743  1.00  0.00     0.014 A 
ATOM     34  C   UNL A   1      40.334  27.610  27.219  1.00  0.00     0.010 A 
ATOM     35  C   UNL A   1      39.060  26.978  29.188  1.00  0.00     0.010 A 
ATOM     36  C   UNL A   1      39.779  27.938  28.455  1.00  0.00    -0.014 A 
BRANCH  36  37
ATOM     37  C   UNL A   1      39.984  29.218  29.126  1.00  0.00     0.031 A 
ATOM     38  C   UNL A   1      38.946  30.274  29.058  1.00  0.00     0.074 A 
ATOM     39  C   UNL A   1      41.059  29.390  29.926  1.00  0.00     0.049 A 
ATOM     40  N   UNL A   1      39.114  31.504  29.409  1.00  0.00    -0.248 NA
ATOM     41  C   UNL A   1      37.620  30.019  28.510  1.00  0.00     0.031 C 
ATOM     42  C   UNL A   1      41.219  30.387  30.981  1.00  0.00     0.029 A 
ATOM     43  N   UNL A   1      42.314  28.801  29.830  1.00  0.00    -0.354 N 
ATOM     44  C   UNL A   1      37.877  32.116  29.428  1.00  0.00     0.074 A 
ATOM     45  C   UNL A   1      37.003  31.174  28.774  1.00  0.00     0.031 C 
ATOM     46  C   UNL A   1      42.521  30.501  31.284  1.00  0.00     0.029 A 
ATOM     47  C   UNL A   1      43.264  29.709  30.319  1.00  0.00     0.049 A 
ATOM     48  H   UNL A   1      42.503  27.901  29.479  1.00  0.00     0.167 HD
ATOM     49  C   UNL A   1      37.725  33.283  30.123  1.00  0.00     0.037 A 
ATOM     50  C   UNL A   1      44.241  30.218  29.507  1.00  0.00     0.037 A 
ATOM     51  C   UNL A   1      39.029  33.800  30.557  1.00  0.00     0.049 A 
ATOM     52  C   UNL A   1      44.156  31.713  29.288  1.00  0.00     0.074 A 
ATOM     53  C   UNL A   1      39.705  33.763  31.766  1.00  0.00     0.029 A 
ATOM     54  N   UNL A   1      39.958  34.211  29.605  1.00  0.00    -0.354 N 
ATOM     55  N   UNL A   1      43.118  32.438  29.600  1.00  0.00    -0.248 NA
ATOM     56  C   UNL A   1      45.223  32.507  28.683  1.00  0.00     0.031 C 
ATOM     57  C   UNL A   1      41.067  34.074  31.520  1.00  0.00     0.029 A 
ATOM     58  C   UNL A   1      41.216  34.325  30.166  1.00  0.00     0.049 A 
ATOM     59  H   UNL A   1      39.747  34.395  28.660  1.00  0.00     0.167 HD
ATOM     60  C   UNL A   1      43.326  33.736  29.214  1.00  0.00     0.074 A 
ATOM     61  C   UNL A   1      44.674  33.735  28.678  1.00  0.00     0.031 C 
ATOM     62  C   UNL A   1      42.365  34.697  29.353  1.00  0.00     0.037 A 
BRANCH  49  63
ATOM     63  C   UNL A   1      36.394  33.787  30.683  1.00  0.00     0.058 A 
ATOM     64  C   UNL A   1      35.367  34.227  29.814  1.00  0.00     0.135 A 
ATOM     65  C   UNL A   1      36.092  33.961  32.049  1.00  0.00     0.135 A 
ATOM     66  F   UNL A   1      35.435  34.026  28.491  1.00  0.00    -0.206 F 
ATOM     67  C   UNL A   1      34.221  34.901  30.253  1.00  0.00     0.059 A 
ATOM     68  C   UNL A   1      34.979  34.672  32.513  1.00  0.00     0.059 A 
ATOM     69  F   UNL A   1      36.823  33.397  33.012  1.00  0.00    -0.206 F 
ATOM     70  C   UNL A   1      34.055  35.158  31.605  1.00  0.00     0.060 A 
BRANCH  70  71
ATOM     71  S   UNL A   1      32.626  36.105  32.159  1.00  0.00     0.124 S 
ATOM     72  O   UNL A   1      31.699  35.053  32.564  1.00  0.00    -0.237 OA
ATOM     73  O   UNL A   1      33.190  36.907  33.239  1.00  0.00    -0.237 OA
ATOM     74  O   UNL A   1      32.231  36.853  30.968  1.00  0.00    -0.744 OA
ENDBRANCH  70  71
ENDBRANCH  49  63
BRANCH  50  75
ATOM     75  C   UNL A   1      44.763  29.227  28.528  1.00  0.00     0.058 A 
ATOM     76  C   UNL A   1      45.700  28.292  29.005  1.00  0.00     0.135 A 
ATOM     77  C   UNL A   1      44.041  28.895  27.372  1.00  0.00     0.135 A 
ATOM     78  F   UNL A   1      46.439  28.578  30.089  1.00  0.00    -0.206 F 
ATOM     79  C   UNL A   1      45.778  27.009  28.483  1.00  0.00     0.059 A 
ATOM     80  C   UNL A   1      44.111  27.614  26.824  1.00  0.00     0.059 A 
ATOM     81  F   UNL A   1      43.142  29.753  26.868  1.00  0.00    -0.206 F 
ATOM     82  C   UNL A   1      44.919  26.659  27.442  1.00  0.00     0.060 A 
BRANCH  82  83
ATOM     83  S   UNL A   1      44.725  24.898  27.078  1.00  0.00     0.124 S 
ATOM     84  O   UNL A   1      43.576  24.896  26.182  1.00  0.00    -0.237 OA
ATOM     85  O   UNL A   1      46.014  24.596  26.456  1.00  0.00    -0.237 OA
ATOM     86  O   UNL A   1      44.505  24.308  28.393  1.00  0.00    -0.744 OA
ENDBRANCH  82  83
ENDBRANCH  50  75
BRANCH  62  87
ATOM     87  C   UNL A   1      42.448  36.100  28.804  1.00  0.00     0.058 A 
ATOM     88  C   UNL A   1      43.171  37.140  29.411  1.00  0.00     0.135 A 
ATOM     89  C   UNL A   1      41.893  36.399  27.536  1.00  0.00     0.135 A 
ATOM     90  F   UNL A   1      43.829  36.948  30.565  1.00  0.00    -0.206 F 
ATOM     91  C   UNL A   1      43.285  38.408  28.835  1.00  0.00     0.059 A 
ATOM     92  C   UNL A   1      42.039  37.638  26.919  1.00  0.00     0.059 A 
ATOM     93  F   UNL A   1      41.194  35.483  26.848  1.00  0.00    -0.206 F 
ATOM     94  C   UNL A   1      42.717  38.647  27.588  1.00  0.00     0.060 A 
BRANCH  94  95
ATOM     95  S   UNL A   1      42.911  40.258  26.801  1.00  0.00     0.124 S 
ATOM     96  O   UNL A   1      43.263  41.098  27.941  1.00  0.00    -0.237 OA
ATOM     97  O   UNL A   1      43.981  40.025  25.836  1.00  0.00    -0.237 OA
ATOM     98  O   UNL A   1      41.595  40.499  26.218  1.00  0.00    -0.744 OA
ENDBRANCH  94  95
ENDBRANCH  62  87
ENDBRANCH  36  37
ENDBRANCH  28  31
ENDBRANCH  26  27
ENDBRANCH   1  26
TORSDOF 15
ENDMDL
