MODEL 1
REMARK VINA RESULT:     -10.6      0.000      0.000
REMARK SMILES C[C@@H](C(=O)NCCCCNC(=O)c1ccc(-c2c3nc(c(-c4c(F)cc(S(=O)(=O)[O-])cc4F)c4ccc([nH]4)c(-c4c(F)cc(S(=O)(=O)[O-])cc4F)c4nc(c(-c5c(F)cc(S(=O)(=O)[O-])cc5F)c5ccc2[nH]5)C=C4)C=C3)cc1)[C@@H](N[S@](=O)C(C)(C)C)C(C)(C)C
REMARK SMILES IDX 7 1 6 2 5 3 3 4 4 5 2 7 1 8 79 9 80 10 81 12 82 13 83 14
REMARK SMILES IDX 84 15 85 16 86 17 87 18 88 19 89 20 90 21 8 22 9 23 10 24
REMARK SMILES IDX 11 25 12 27 13 28 14 29 78 30 15 31 77 32 16 33 17 34 18 35
REMARK SMILES IDX 71 36 19 37 76 38 70 39 72 40 20 41 75 42 69 43 68 44 21 46
REMARK SMILES IDX 55 47 34 48 54 49 35 50 38 51 53 52 73 53 36 54 37 55 52 57
REMARK SMILES IDX 74 58 39 59 22 60 23 61 32 62 24 63 25 64 31 65 33 66 26 67
REMARK SMILES IDX 27 68 28 69 29 70 30 71 56 72 57 73 66 74 58 75 59 76 65 77
REMARK SMILES IDX 67 78 60 79 61 80 62 81 63 82 64 83 40 84 41 85 50 86 42 87
REMARK SMILES IDX 43 88 49 89 51 90 44 91 45 92 46 93 47 94 48 95
REMARK H PARENT 5 6 80 11 10 26 72 45 38 56
REMARK Flexibility Score: inf
ROOT
ATOM      1  C   UNL A   1      40.265  21.261  26.387  1.00  0.00     0.023 C 
ENDROOT
BRANCH   1   2
ATOM      2  C   UNL A   1      38.880  21.311  25.741  1.00  0.00     0.116 C 
BRANCH   2   3
ATOM      3  N   UNL A   1      38.145  22.429  26.288  1.00  0.00    -0.356 N 
ATOM      4  C   UNL A   1      37.152  23.159  25.707  1.00  0.00     0.224 C 
ATOM      5  O   UNL A   1      37.040  24.340  26.032  1.00  0.00    -0.275 OA
ATOM      6  H   UNL A   1      38.394  22.699  27.202  1.00  0.00     0.163 HD
BRANCH   4   7
ATOM      7  C   UNL A   1      36.185  22.477  24.745  1.00  0.00     0.094 C 
ATOM      8  C   UNL A   1      36.649  22.851  23.337  1.00  0.00     0.020 C 
BRANCH   7   9
ATOM      9  C   UNL A   1      34.707  22.885  25.137  1.00  0.00     0.085 C 
BRANCH   9  10
ATOM     10  N   UNL A   1      34.261  24.160  24.487  1.00  0.00    -0.233 NA
ATOM     11  H   UNL A   1      33.592  23.879  23.770  1.00  0.00     0.138 HD
BRANCH  10  12
ATOM     12  S   UNL A   1      33.542  25.452  25.286  1.00  0.00     0.097 S 
ATOM     13  O   UNL A   1      32.293  25.092  26.027  1.00  0.00    -0.242 OA
BRANCH  12  14
ATOM     14  C   UNL A   1      33.067  26.537  23.831  1.00  0.00     0.052 C 
ATOM     15  C   UNL A   1      33.829  27.868  23.900  1.00  0.00     0.027 C 
ATOM     16  C   UNL A   1      33.544  25.848  22.534  1.00  0.00     0.027 C 
ATOM     17  C   UNL A   1      31.539  26.679  23.699  1.00  0.00     0.027 C 
ENDBRANCH  12  14
ENDBRANCH  10  12
ENDBRANCH   9  10
BRANCH   9  18
ATOM     18  C   UNL A   1      33.642  21.728  24.737  1.00  0.00    -0.021 C 
ATOM     19  C   UNL A   1      34.253  20.310  24.685  1.00  0.00     0.012 C 
ATOM     20  C   UNL A   1      32.498  21.584  25.759  1.00  0.00     0.012 C 
ATOM     21  C   UNL A   1      32.978  22.028  23.374  1.00  0.00     0.012 C 
ENDBRANCH   9  18
ENDBRANCH   7   9
ENDBRANCH   4   7
ENDBRANCH   2   3
ENDBRANCH   1   2
BRANCH   1  22
ATOM     22  C   UNL A   1      40.463  22.270  27.528  1.00  0.00     0.023 C 
BRANCH  22  23
ATOM     23  C   UNL A   1      41.787  23.022  27.495  1.00  0.00     0.116 C 
BRANCH  23  24
ATOM     24  N   UNL A   1      41.932  23.817  26.287  1.00  0.00    -0.352 N 
ATOM     25  C   UNL A   1      41.722  25.158  26.105  1.00  0.00     0.251 C 
ATOM     26  H   UNL A   1      42.222  23.322  25.487  1.00  0.00     0.163 HD
ATOM     27  O   UNL A   1      41.704  25.619  24.961  1.00  0.00    -0.269 OA
BRANCH  25  28
ATOM     28  C   UNL A   1      41.507  26.043  27.268  1.00  0.00     0.039 A 
ATOM     29  C   UNL A   1      40.352  25.880  28.037  1.00  0.00     0.014 A 
ATOM     30  C   UNL A   1      42.422  27.053  27.585  1.00  0.00     0.014 A 
ATOM     31  C   UNL A   1      40.126  26.714  29.132  1.00  0.00     0.010 A 
ATOM     32  C   UNL A   1      42.238  27.825  28.727  1.00  0.00     0.010 A 
ATOM     33  C   UNL A   1      41.073  27.687  29.494  1.00  0.00    -0.014 A 
BRANCH  33  34
ATOM     34  C   UNL A   1      40.825  28.607  30.634  1.00  0.00     0.031 A 
ATOM     35  C   UNL A   1      41.659  28.496  31.884  1.00  0.00     0.074 A 
ATOM     36  C   UNL A   1      39.838  29.522  30.556  1.00  0.00     0.049 A 
ATOM     37  N   UNL A   1      41.599  29.201  32.984  1.00  0.00    -0.248 NA
ATOM     38  C   UNL A   1      42.677  27.431  31.915  1.00  0.00     0.031 C 
ATOM     39  C   UNL A   1      38.931  29.693  29.418  1.00  0.00     0.029 A 
ATOM     40  N   UNL A   1      39.433  30.480  31.449  1.00  0.00    -0.354 N 
ATOM     41  C   UNL A   1      42.552  28.657  33.838  1.00  0.00     0.074 A 
ATOM     42  C   UNL A   1      43.132  27.523  33.154  1.00  0.00     0.031 C 
ATOM     43  C   UNL A   1      38.104  30.722  29.666  1.00  0.00     0.029 A 
ATOM     44  C   UNL A   1      38.396  31.260  30.992  1.00  0.00     0.049 A 
ATOM     45  H   UNL A   1      39.846  30.600  32.335  1.00  0.00     0.167 HD
ATOM     46  C   UNL A   1      42.931  29.079  35.068  1.00  0.00     0.037 A 
ATOM     47  C   UNL A   1      37.760  32.296  31.573  1.00  0.00     0.037 A 
ATOM     48  C   UNL A   1      42.369  30.229  35.727  1.00  0.00     0.049 A 
ATOM     49  C   UNL A   1      38.209  32.756  32.935  1.00  0.00     0.074 A 
ATOM     50  C   UNL A   1      42.723  30.780  36.946  1.00  0.00     0.029 A 
ATOM     51  N   UNL A   1      41.333  31.003  35.224  1.00  0.00    -0.354 N 
ATOM     52  N   UNL A   1      39.160  32.273  33.699  1.00  0.00    -0.248 NA
ATOM     53  C   UNL A   1      37.508  33.914  33.506  1.00  0.00     0.031 C 
ATOM     54  C   UNL A   1      41.865  31.854  37.204  1.00  0.00     0.029 A 
ATOM     55  C   UNL A   1      41.021  32.015  36.116  1.00  0.00     0.049 A 
ATOM     56  H   UNL A   1      40.885  30.854  34.359  1.00  0.00     0.167 HD
ATOM     57  C   UNL A   1      39.201  33.095  34.821  1.00  0.00     0.074 A 
ATOM     58  C   UNL A   1      38.183  34.107  34.630  1.00  0.00     0.031 C 
ATOM     59  C   UNL A   1      40.014  33.025  35.905  1.00  0.00     0.037 A 
BRANCH  46  60
ATOM     60  C   UNL A   1      44.000  28.292  35.779  1.00  0.00     0.058 A 
ATOM     61  C   UNL A   1      43.690  27.233  36.651  1.00  0.00     0.135 A 
ATOM     62  C   UNL A   1      45.357  28.583  35.567  1.00  0.00     0.135 A 
ATOM     63  F   UNL A   1      42.409  26.920  36.904  1.00  0.00    -0.206 F 
ATOM     64  C   UNL A   1      44.683  26.519  37.313  1.00  0.00     0.059 A 
ATOM     65  C   UNL A   1      46.369  27.859  36.192  1.00  0.00     0.059 A 
ATOM     66  F   UNL A   1      45.714  29.582  34.745  1.00  0.00    -0.206 F 
ATOM     67  C   UNL A   1      46.021  26.841  37.077  1.00  0.00     0.060 A 
BRANCH  67  68
ATOM     68  S   UNL A   1      47.297  25.904  37.946  1.00  0.00     0.124 S 
ATOM     69  O   UNL A   1      48.464  26.155  37.106  1.00  0.00    -0.237 OA
ATOM     70  O   UNL A   1      47.312  26.540  39.259  1.00  0.00    -0.237 OA
ATOM     71  O   UNL A   1      46.791  24.535  37.922  1.00  0.00    -0.744 OA
ENDBRANCH  67  68
ENDBRANCH  46  60
BRANCH  47  72
ATOM     72  C   UNL A   1      36.667  33.000  30.851  1.00  0.00     0.058 A 
ATOM     73  C   UNL A   1      35.326  32.825  31.225  1.00  0.00     0.135 A 
ATOM     74  C   UNL A   1      36.936  33.865  29.779  1.00  0.00     0.135 A 
ATOM     75  F   UNL A   1      35.014  32.007  32.241  1.00  0.00    -0.206 F 
ATOM     76  C   UNL A   1      34.289  33.460  30.547  1.00  0.00     0.059 A 
ATOM     77  C   UNL A   1      35.921  34.535  29.104  1.00  0.00     0.059 A 
ATOM     78  F   UNL A   1      38.204  34.082  29.393  1.00  0.00    -0.206 F 
ATOM     79  C   UNL A   1      34.598  34.315  29.488  1.00  0.00     0.060 A 
BRANCH  79  80
ATOM     80  S   UNL A   1      33.248  35.165  28.643  1.00  0.00     0.124 S 
ATOM     81  O   UNL A   1      32.697  34.096  27.818  1.00  0.00    -0.237 OA
ATOM     82  O   UNL A   1      32.416  35.604  29.759  1.00  0.00    -0.237 OA
ATOM     83  O   UNL A   1      33.926  36.235  27.918  1.00  0.00    -0.744 OA
ENDBRANCH  79  80
ENDBRANCH  47  72
BRANCH  59  84
ATOM     84  C   UNL A   1      39.883  34.110  36.941  1.00  0.00     0.058 A 
ATOM     85  C   UNL A   1      40.474  35.372  36.783  1.00  0.00     0.135 A 
ATOM     86  C   UNL A   1      39.122  33.884  38.101  1.00  0.00     0.135 A 
ATOM     87  F   UNL A   1      41.211  35.642  35.694  1.00  0.00    -0.206 F 
ATOM     88  C   UNL A   1      40.353  36.358  37.757  1.00  0.00     0.059 A 
ATOM     89  C   UNL A   1      38.960  34.866  39.072  1.00  0.00     0.059 A 
ATOM     90  F   UNL A   1      38.521  32.699  38.297  1.00  0.00    -0.206 F 
ATOM     91  C   UNL A   1      39.596  36.094  38.901  1.00  0.00     0.060 A 
BRANCH  91  92
ATOM     92  S   UNL A   1      39.443  37.381  40.156  1.00  0.00     0.124 S 
ATOM     93  O   UNL A   1      38.966  36.616  41.304  1.00  0.00    -0.237 OA
ATOM     94  O   UNL A   1      40.809  37.886  40.255  1.00  0.00    -0.237 OA
ATOM     95  O   UNL A   1      38.478  38.309  39.576  1.00  0.00    -0.744 OA
ENDBRANCH  91  92
ENDBRANCH  59  84
ENDBRANCH  33  34
ENDBRANCH  25  28
ENDBRANCH  23  24
ENDBRANCH  22  23
ENDBRANCH   1  22
TORSDOF 19
ENDMDL
MODEL 2
REMARK VINA RESULT:     -10.4      5.209      7.139
REMARK SMILES C[C@@H](C(=O)NCCCCNC(=O)c1ccc(-c2c3nc(c(-c4c(F)cc(S(=O)(=O)[O-])cc4F)c4ccc([nH]4)c(-c4c(F)cc(S(=O)(=O)[O-])cc4F)c4nc(c(-c5c(F)cc(S(=O)(=O)[O-])cc5F)c5ccc2[nH]5)C=C4)C=C3)cc1)[C@@H](N[S@](=O)C(C)(C)C)C(C)(C)C
REMARK SMILES IDX 7 1 6 2 5 3 3 4 4 5 2 7 1 8 79 9 80 10 81 12 82 13 83 14
REMARK SMILES IDX 84 15 85 16 86 17 87 18 88 19 89 20 90 21 8 22 9 23 10 24
REMARK SMILES IDX 11 25 12 27 13 28 14 29 78 30 15 31 77 32 16 33 17 34 18 35
REMARK SMILES IDX 71 36 19 37 76 38 70 39 72 40 20 41 75 42 69 43 68 44 21 46
REMARK SMILES IDX 55 47 34 48 54 49 35 50 38 51 53 52 73 53 36 54 37 55 52 57
REMARK SMILES IDX 74 58 39 59 22 60 23 61 32 62 24 63 25 64 31 65 33 66 26 67
REMARK SMILES IDX 27 68 28 69 29 70 30 71 56 72 57 73 66 74 58 75 59 76 65 77
REMARK SMILES IDX 67 78 60 79 61 80 62 81 63 82 64 83 40 84 41 85 50 86 42 87
REMARK SMILES IDX 43 88 49 89 51 90 44 91 45 92 46 93 47 94 48 95
REMARK H PARENT 5 6 80 11 10 26 72 45 38 56
REMARK Flexibility Score: inf
ROOT
ATOM      1  C   UNL A   1      33.743  23.735  26.004  1.00  0.00     0.023 C 
ENDROOT
BRANCH   1   2
ATOM      2  C   UNL A   1      33.871  25.222  25.672  1.00  0.00     0.116 C 
BRANCH   2   3
ATOM      3  N   UNL A   1      33.321  25.460  24.356  1.00  0.00    -0.356 N 
ATOM      4  C   UNL A   1      32.047  25.803  24.018  1.00  0.00     0.224 C 
ATOM      5  O   UNL A   1      31.620  25.429  22.926  1.00  0.00    -0.275 OA
ATOM      6  H   UNL A   1      33.951  25.363  23.605  1.00  0.00     0.163 HD
BRANCH   4   7
ATOM      7  C   UNL A   1      31.234  26.687  24.957  1.00  0.00     0.094 C 
ATOM      8  C   UNL A   1      29.771  26.287  24.762  1.00  0.00     0.020 C 
BRANCH   7   9
ATOM      9  C   UNL A   1      31.599  28.201  24.674  1.00  0.00     0.085 C 
BRANCH   9  10
ATOM     10  N   UNL A   1      30.449  28.986  24.119  1.00  0.00    -0.233 NA
ATOM     11  H   UNL A   1      30.663  29.962  24.324  1.00  0.00     0.138 HD
BRANCH  10  12
ATOM     12  S   UNL A   1      29.950  28.966  22.514  1.00  0.00     0.097 S 
ATOM     13  O   UNL A   1      30.904  29.627  21.571  1.00  0.00    -0.242 OA
BRANCH  12  14
ATOM     14  C   UNL A   1      28.404  30.024  22.620  1.00  0.00     0.052 C 
ATOM     15  C   UNL A   1      28.004  30.510  21.220  1.00  0.00     0.027 C 
ATOM     16  C   UNL A   1      27.237  29.135  23.105  1.00  0.00     0.027 C 
ATOM     17  C   UNL A   1      28.549  31.143  23.670  1.00  0.00     0.027 C 
ENDBRANCH  12  14
ENDBRANCH  10  12
ENDBRANCH   9  10
BRANCH   9  18
ATOM     18  C   UNL A   1      32.109  28.955  26.018  1.00  0.00    -0.021 C 
ATOM     19  C   UNL A   1      31.609  28.303  27.325  1.00  0.00     0.012 C 
ATOM     20  C   UNL A   1      33.642  28.933  26.174  1.00  0.00     0.012 C 
ATOM     21  C   UNL A   1      31.689  30.442  26.016  1.00  0.00     0.012 C 
ENDBRANCH   9  18
ENDBRANCH   7   9
ENDBRANCH   4   7
ENDBRANCH   2   3
ENDBRANCH   1   2
BRANCH   1  22
ATOM     22  C   UNL A   1      34.981  23.133  26.684  1.00  0.00     0.023 C 
BRANCH  22  23
ATOM     23  C   UNL A   1      36.314  23.640  26.151  1.00  0.00     0.116 C 
BRANCH  23  24
ATOM     24  N   UNL A   1      37.316  22.589  26.099  1.00  0.00    -0.352 N 
ATOM     25  C   UNL A   1      38.673  22.681  26.259  1.00  0.00     0.251 C 
ATOM     26  H   UNL A   1      36.971  21.684  25.925  1.00  0.00     0.163 HD
ATOM     27  O   UNL A   1      39.383  21.710  25.984  1.00  0.00    -0.269 OA
BRANCH  25  28
ATOM     28  C   UNL A   1      39.284  23.935  26.746  1.00  0.00     0.039 A 
ATOM     29  C   UNL A   1      39.838  24.820  25.819  1.00  0.00     0.014 A 
ATOM     30  C   UNL A   1      39.339  24.226  28.113  1.00  0.00     0.014 A 
ATOM     31  C   UNL A   1      40.429  26.004  26.261  1.00  0.00     0.010 A 
ATOM     32  C   UNL A   1      39.850  25.446  28.544  1.00  0.00     0.010 A 
ATOM     33  C   UNL A   1      40.430  26.334  27.627  1.00  0.00    -0.014 A 
BRANCH  33  34
ATOM     34  C   UNL A   1      41.091  27.572  28.113  1.00  0.00     0.031 A 
ATOM     35  C   UNL A   1      42.586  27.721  27.995  1.00  0.00     0.074 A 
ATOM     36  C   UNL A   1      40.354  28.548  28.680  1.00  0.00     0.049 A 
ATOM     37  N   UNL A   1      43.349  28.720  28.359  1.00  0.00    -0.248 NA
ATOM     38  C   UNL A   1      43.327  26.585  27.420  1.00  0.00     0.031 C 
ATOM     39  C   UNL A   1      38.906  28.499  28.894  1.00  0.00     0.029 A 
ATOM     40  N   UNL A   1      40.721  29.772  29.177  1.00  0.00    -0.354 N 
ATOM     41  C   UNL A   1      44.652  28.326  28.075  1.00  0.00     0.074 A 
ATOM     42  C   UNL A   1      44.583  26.974  27.567  1.00  0.00     0.031 C 
ATOM     43  C   UNL A   1      38.503  29.657  29.442  1.00  0.00     0.029 A 
ATOM     44  C   UNL A   1      39.666  30.515  29.651  1.00  0.00     0.049 A 
ATOM     45  H   UNL A   1      41.654  30.090  29.195  1.00  0.00     0.167 HD
ATOM     46  C   UNL A   1      45.800  29.036  28.197  1.00  0.00     0.037 A 
ATOM     47  C   UNL A   1      39.638  31.753  30.185  1.00  0.00     0.037 A 
ATOM     48  C   UNL A   1      45.854  30.393  28.673  1.00  0.00     0.049 A 
ATOM     49  C   UNL A   1      40.925  32.527  30.297  1.00  0.00     0.074 A 
ATOM     50  C   UNL A   1      46.955  31.224  28.778  1.00  0.00     0.029 A 
ATOM     51  N   UNL A   1      44.761  31.118  29.126  1.00  0.00    -0.354 N 
ATOM     52  N   UNL A   1      42.140  32.166  29.958  1.00  0.00    -0.248 NA
ATOM     53  C   UNL A   1      40.833  33.885  30.851  1.00  0.00     0.031 C 
ATOM     54  C   UNL A   1      46.536  32.433  29.344  1.00  0.00     0.029 A 
ATOM     55  C   UNL A   1      45.164  32.379  29.531  1.00  0.00     0.049 A 
ATOM     56  H   UNL A   1      43.835  30.784  29.156  1.00  0.00     0.167 HD
ATOM     57  C   UNL A   1      42.950  33.268  30.215  1.00  0.00     0.074 A 
ATOM     58  C   UNL A   1      42.085  34.307  30.732  1.00  0.00     0.031 C 
ATOM     59  C   UNL A   1      44.287  33.409  30.030  1.00  0.00     0.037 A 
BRANCH  46  60
ATOM     60  C   UNL A   1      47.087  28.355  27.813  1.00  0.00     0.058 A 
ATOM     61  C   UNL A   1      47.580  28.381  26.497  1.00  0.00     0.135 A 
ATOM     62  C   UNL A   1      47.854  27.686  28.781  1.00  0.00     0.135 A 
ATOM     63  F   UNL A   1      46.882  28.992  25.526  1.00  0.00    -0.206 F 
ATOM     64  C   UNL A   1      48.764  27.739  26.148  1.00  0.00     0.059 A 
ATOM     65  C   UNL A   1      49.059  27.066  28.461  1.00  0.00     0.059 A 
ATOM     66  F   UNL A   1      47.435  27.628  30.054  1.00  0.00    -0.206 F 
ATOM     67  C   UNL A   1      49.496  27.083  27.138  1.00  0.00     0.060 A 
BRANCH  67  68
ATOM     68  S   UNL A   1      51.030  26.254  26.668  1.00  0.00     0.124 S 
ATOM     69  O   UNL A   1      52.017  27.022  27.420  1.00  0.00    -0.237 OA
ATOM     70  O   UNL A   1      50.801  24.889  27.131  1.00  0.00    -0.237 OA
ATOM     71  O   UNL A   1      51.076  26.422  25.219  1.00  0.00    -0.744 OA
ENDBRANCH  67  68
ENDBRANCH  46  60
BRANCH  47  72
ATOM     72  C   UNL A   1      38.345  32.355  30.607  1.00  0.00     0.058 A 
ATOM     73  C   UNL A   1      37.602  33.156  29.728  1.00  0.00     0.135 A 
ATOM     74  C   UNL A   1      37.822  32.140  31.892  1.00  0.00     0.135 A 
ATOM     75  F   UNL A   1      38.059  33.396  28.489  1.00  0.00    -0.206 F 
ATOM     76  C   UNL A   1      36.400  33.744  30.112  1.00  0.00     0.059 A 
ATOM     77  C   UNL A   1      36.609  32.692  32.291  1.00  0.00     0.059 A 
ATOM     78  F   UNL A   1      38.485  31.366  32.766  1.00  0.00    -0.206 F 
ATOM     79  C   UNL A   1      35.912  33.504  31.397  1.00  0.00     0.060 A 
BRANCH  79  80
ATOM     80  S   UNL A   1      34.332  34.239  31.871  1.00  0.00     0.124 S 
ATOM     81  O   UNL A   1      33.671  34.376  30.578  1.00  0.00    -0.237 OA
ATOM     82  O   UNL A   1      33.780  33.227  32.767  1.00  0.00    -0.237 OA
ATOM     83  O   UNL A   1      34.724  35.489  32.516  1.00  0.00    -0.744 OA
ENDBRANCH  79  80
ENDBRANCH  47  72
BRANCH  59  84
ATOM     84  C   UNL A   1      44.888  34.758  30.326  1.00  0.00     0.058 A 
ATOM     85  C   UNL A   1      45.362  35.102  31.601  1.00  0.00     0.135 A 
ATOM     86  C   UNL A   1      45.016  35.710  29.301  1.00  0.00     0.135 A 
ATOM     87  F   UNL A   1      45.265  34.230  32.617  1.00  0.00    -0.206 F 
ATOM     88  C   UNL A   1      45.902  36.358  31.860  1.00  0.00     0.059 A 
ATOM     89  C   UNL A   1      45.583  36.959  29.529  1.00  0.00     0.059 A 
ATOM     90  F   UNL A   1      44.592  35.428  28.058  1.00  0.00    -0.206 F 
ATOM     91  C   UNL A   1      46.005  37.281  30.818  1.00  0.00     0.060 A 
BRANCH  91  92
ATOM     92  S   UNL A   1      46.711  38.905  31.164  1.00  0.00     0.124 S 
ATOM     93  O   UNL A   1      46.175  39.181  32.493  1.00  0.00    -0.237 OA
ATOM     94  O   UNL A   1      48.146  38.643  31.101  1.00  0.00    -0.237 OA
ATOM     95  O   UNL A   1      46.185  39.742  30.090  1.00  0.00    -0.744 OA
ENDBRANCH  91  92
ENDBRANCH  59  84
ENDBRANCH  33  34
ENDBRANCH  25  28
ENDBRANCH  23  24
ENDBRANCH  22  23
ENDBRANCH   1  22
TORSDOF 19
ENDMDL
MODEL 3
REMARK VINA RESULT:     -10.3      3.050      9.462
REMARK SMILES C[C@@H](C(=O)NCCCCNC(=O)c1ccc(-c2c3nc(c(-c4c(F)cc(S(=O)(=O)[O-])cc4F)c4ccc([nH]4)c(-c4c(F)cc(S(=O)(=O)[O-])cc4F)c4nc(c(-c5c(F)cc(S(=O)(=O)[O-])cc5F)c5ccc2[nH]5)C=C4)C=C3)cc1)[C@@H](N[S@](=O)C(C)(C)C)C(C)(C)C
REMARK SMILES IDX 7 1 6 2 5 3 3 4 4 5 2 7 1 8 79 9 80 10 81 12 82 13 83 14
REMARK SMILES IDX 84 15 85 16 86 17 87 18 88 19 89 20 90 21 8 22 9 23 10 24
REMARK SMILES IDX 11 25 12 27 13 28 14 29 78 30 15 31 77 32 16 33 17 34 18 35
REMARK SMILES IDX 71 36 19 37 76 38 70 39 72 40 20 41 75 42 69 43 68 44 21 46
REMARK SMILES IDX 55 47 34 48 54 49 35 50 38 51 53 52 73 53 36 54 37 55 52 57
REMARK SMILES IDX 74 58 39 59 22 60 23 61 32 62 24 63 25 64 31 65 33 66 26 67
REMARK SMILES IDX 27 68 28 69 29 70 30 71 56 72 57 73 66 74 58 75 59 76 65 77
REMARK SMILES IDX 67 78 60 79 61 80 62 81 63 82 64 83 40 84 41 85 50 86 42 87
REMARK SMILES IDX 43 88 49 89 51 90 44 91 45 92 46 93 47 94 48 95
REMARK H PARENT 5 6 80 11 10 26 72 45 38 56
REMARK Flexibility Score: inf
ROOT
ATOM      1  C   UNL A   1      32.479  26.960  26.217  1.00  0.00     0.023 C 
ENDROOT
BRANCH   1   2
ATOM      2  C   UNL A   1      33.251  25.661  25.984  1.00  0.00     0.116 C 
BRANCH   2   3
ATOM      3  N   UNL A   1      32.316  24.614  25.634  1.00  0.00    -0.356 N 
ATOM      4  C   UNL A   1      32.270  23.861  24.501  1.00  0.00     0.224 C 
ATOM      5  O   UNL A   1      31.172  23.457  24.120  1.00  0.00    -0.275 OA
ATOM      6  H   UNL A   1      31.621  24.420  26.305  1.00  0.00     0.163 HD
BRANCH   4   7
ATOM      7  C   UNL A   1      33.570  23.489  23.795  1.00  0.00     0.094 C 
ATOM      8  C   UNL A   1      33.197  23.189  22.342  1.00  0.00     0.020 C 
BRANCH   7   9
ATOM      9  C   UNL A   1      34.271  22.322  24.602  1.00  0.00     0.085 C 
BRANCH   9  10
ATOM     10  N   UNL A   1      34.055  20.973  23.985  1.00  0.00    -0.233 NA
ATOM     11  H   UNL A   1      34.794  20.381  24.364  1.00  0.00     0.138 HD
BRANCH  10  12
ATOM     12  S   UNL A   1      32.646  20.065  24.113  1.00  0.00     0.097 S 
ATOM     13  O   UNL A   1      31.801  20.414  25.297  1.00  0.00    -0.242 OA
BRANCH  12  14
ATOM     14  C   UNL A   1      33.362  18.353  24.389  1.00  0.00     0.052 C 
ATOM     15  C   UNL A   1      32.640  17.665  25.556  1.00  0.00     0.027 C 
ATOM     16  C   UNL A   1      33.059  17.492  23.143  1.00  0.00     0.027 C 
ATOM     17  C   UNL A   1      34.897  18.390  24.517  1.00  0.00     0.027 C 
ENDBRANCH  12  14
ENDBRANCH  10  12
ENDBRANCH   9  10
BRANCH   9  18
ATOM     18  C   UNL A   1      35.871  22.558  24.726  1.00  0.00    -0.021 C 
ATOM     19  C   UNL A   1      36.590  22.681  23.364  1.00  0.00     0.012 C 
ATOM     20  C   UNL A   1      36.231  23.877  25.437  1.00  0.00     0.012 C 
ATOM     21  C   UNL A   1      36.541  21.425  25.537  1.00  0.00     0.012 C 
ENDBRANCH   9  18
ENDBRANCH   7   9
ENDBRANCH   4   7
ENDBRANCH   2   3
ENDBRANCH   1   2
BRANCH   1  22
ATOM     22  C   UNL A   1      33.038  28.168  25.451  1.00  0.00     0.023 C 
BRANCH  22  23
ATOM     23  C   UNL A   1      34.202  28.876  26.133  1.00  0.00     0.116 C 
BRANCH  23  24
ATOM     24  N   UNL A   1      33.850  30.222  26.553  1.00  0.00    -0.352 N 
ATOM     25  C   UNL A   1      34.424  31.002  27.522  1.00  0.00     0.251 C 
ATOM     26  H   UNL A   1      33.094  30.631  26.074  1.00  0.00     0.163 HD
ATOM     27  O   UNL A   1      33.862  32.043  27.873  1.00  0.00    -0.269 OA
BRANCH  25  28
ATOM     28  C   UNL A   1      35.697  30.595  28.150  1.00  0.00     0.039 A 
ATOM     29  C   UNL A   1      35.690  29.548  29.075  1.00  0.00     0.014 A 
ATOM     30  C   UNL A   1      36.892  31.261  27.855  1.00  0.00     0.014 A 
ATOM     31  C   UNL A   1      36.882  29.157  29.686  1.00  0.00     0.010 A 
ATOM     32  C   UNL A   1      38.091  30.813  28.399  1.00  0.00     0.010 A 
ATOM     33  C   UNL A   1      38.095  29.778  29.345  1.00  0.00    -0.014 A 
BRANCH  33  34
ATOM     34  C   UNL A   1      39.363  29.397  30.019  1.00  0.00     0.031 A 
ATOM     35  C   UNL A   1      39.786  30.106  31.280  1.00  0.00     0.074 A 
ATOM     36  C   UNL A   1      40.144  28.436  29.487  1.00  0.00     0.049 A 
ATOM     37  N   UNL A   1      40.853  29.922  32.014  1.00  0.00    -0.248 NA
ATOM     38  C   UNL A   1      38.909  31.186  31.764  1.00  0.00     0.031 C 
ATOM     39  C   UNL A   1      39.866  27.711  28.244  1.00  0.00     0.029 A 
ATOM     40  N   UNL A   1      41.328  27.900  29.924  1.00  0.00    -0.354 N 
ATOM     41  C   UNL A   1      40.784  30.869  33.030  1.00  0.00     0.074 A 
ATOM     42  C   UNL A   1      39.604  31.668  32.782  1.00  0.00     0.031 C 
ATOM     43  C   UNL A   1      40.831  26.800  28.042  1.00  0.00     0.029 A 
ATOM     44  C   UNL A   1      41.813  26.898  29.117  1.00  0.00     0.049 A 
ATOM     45  H   UNL A   1      41.789  28.205  30.739  1.00  0.00     0.167 HD
ATOM     46  C   UNL A   1      41.610  31.040  34.090  1.00  0.00     0.037 A 
ATOM     47  C   UNL A   1      42.920  26.138  29.236  1.00  0.00     0.037 A 
ATOM     48  C   UNL A   1      42.764  30.219  34.345  1.00  0.00     0.049 A 
ATOM     49  C   UNL A   1      43.815  26.338  30.431  1.00  0.00     0.074 A 
ATOM     50  C   UNL A   1      43.633  30.266  35.421  1.00  0.00     0.029 A 
ATOM     51  N   UNL A   1      43.212  29.202  33.515  1.00  0.00    -0.354 N 
ATOM     52  N   UNL A   1      43.697  27.192  31.420  1.00  0.00    -0.248 NA
ATOM     53  C   UNL A   1      44.987  25.458  30.533  1.00  0.00     0.031 C 
ATOM     54  C   UNL A   1      44.636  29.314  35.213  1.00  0.00     0.029 A 
ATOM     55  C   UNL A   1      44.356  28.628  34.042  1.00  0.00     0.049 A 
ATOM     56  H   UNL A   1      42.779  28.929  32.672  1.00  0.00     0.167 HD
ATOM     57  C   UNL A   1      44.753  26.921  32.284  1.00  0.00     0.074 A 
ATOM     58  C   UNL A   1      45.494  25.822  31.702  1.00  0.00     0.031 C 
ATOM     59  C   UNL A   1      45.074  27.522  33.458  1.00  0.00     0.037 A 
BRANCH  46  60
ATOM     60  C   UNL A   1      41.296  32.159  35.048  1.00  0.00     0.058 A 
ATOM     61  C   UNL A   1      41.861  33.439  34.909  1.00  0.00     0.135 A 
ATOM     62  C   UNL A   1      40.396  31.957  36.107  1.00  0.00     0.135 A 
ATOM     63  F   UNL A   1      42.740  33.686  33.925  1.00  0.00    -0.206 F 
ATOM     64  C   UNL A   1      41.575  34.464  35.806  1.00  0.00     0.059 A 
ATOM     65  C   UNL A   1      40.069  32.978  36.996  1.00  0.00     0.059 A 
ATOM     66  F   UNL A   1      39.825  30.757  36.289  1.00  0.00    -0.206 F 
ATOM     67  C   UNL A   1      40.678  34.222  36.847  1.00  0.00     0.060 A 
BRANCH  67  68
ATOM     68  S   UNL A   1      40.319  35.563  38.002  1.00  0.00     0.124 S 
ATOM     69  O   UNL A   1      39.242  34.981  38.797  1.00  0.00    -0.237 OA
ATOM     70  O   UNL A   1      41.595  35.733  38.689  1.00  0.00    -0.237 OA
ATOM     71  O   UNL A   1      39.928  36.667  37.130  1.00  0.00    -0.744 OA
ENDBRANCH  67  68
ENDBRANCH  46  60
BRANCH  47  72
ATOM     72  C   UNL A   1      43.216  25.087  28.227  1.00  0.00     0.058 A 
ATOM     73  C   UNL A   1      43.895  25.399  27.039  1.00  0.00     0.135 A 
ATOM     74  C   UNL A   1      42.835  23.751  28.427  1.00  0.00     0.135 A 
ATOM     75  F   UNL A   1      44.278  26.661  26.797  1.00  0.00    -0.206 F 
ATOM     76  C   UNL A   1      44.162  24.432  26.074  1.00  0.00     0.059 A 
ATOM     77  C   UNL A   1      43.116  22.760  27.492  1.00  0.00     0.059 A 
ATOM     78  F   UNL A   1      42.199  23.396  29.555  1.00  0.00    -0.206 F 
ATOM     79  C   UNL A   1      43.770  23.114  26.312  1.00  0.00     0.060 A 
BRANCH  79  80
ATOM     80  S   UNL A   1      44.158  21.860  25.072  1.00  0.00     0.124 S 
ATOM     81  O   UNL A   1      43.118  20.868  25.320  1.00  0.00    -0.237 OA
ATOM     82  O   UNL A   1      44.038  22.613  23.827  1.00  0.00    -0.237 OA
ATOM     83  O   UNL A   1      45.516  21.452  25.421  1.00  0.00    -0.744 OA
ENDBRANCH  79  80
ENDBRANCH  47  72
BRANCH  59  84
ATOM     84  C   UNL A   1      46.241  26.961  34.226  1.00  0.00     0.058 A 
ATOM     85  C   UNL A   1      47.550  27.436  34.052  1.00  0.00     0.135 A 
ATOM     86  C   UNL A   1      46.034  25.947  35.177  1.00  0.00     0.135 A 
ATOM     87  F   UNL A   1      47.805  28.403  33.158  1.00  0.00    -0.206 F 
ATOM     88  C   UNL A   1      48.619  26.896  34.761  1.00  0.00     0.059 A 
ATOM     89  C   UNL A   1      47.082  25.417  35.921  1.00  0.00     0.059 A 
ATOM     90  F   UNL A   1      44.799  25.466  35.395  1.00  0.00    -0.206 F 
ATOM     91  C   UNL A   1      48.375  25.884  35.691  1.00  0.00     0.060 A 
BRANCH  91  92
ATOM     92  S   UNL A   1      49.767  25.194  36.608  1.00  0.00     0.124 S 
ATOM     93  O   UNL A   1      50.637  26.358  36.741  1.00  0.00    -0.237 OA
ATOM     94  O   UNL A   1      49.133  24.732  37.840  1.00  0.00    -0.237 OA
ATOM     95  O   UNL A   1      50.262  24.137  35.732  1.00  0.00    -0.744 OA
ENDBRANCH  91  92
ENDBRANCH  59  84
ENDBRANCH  33  34
ENDBRANCH  25  28
ENDBRANCH  23  24
ENDBRANCH  22  23
ENDBRANCH   1  22
TORSDOF 19
ENDMDL
