MODEL 1
REMARK VINA RESULT:     -11.9      0.000      0.000
REMARK SMILES CN(C)C(=O)CCNC(=O)NC[C@H]1CC[C@@H](C(=O)NCCCCNC(=O)c2ccc(-c3c4nc(c(-c5c(F)cc(S(=O)(=O)[O-])cc5F)c5ccc([nH]5)c(-c5c(F)cc(S(=O)(=O)[O-])cc5F)c5nc(c(-c6c(F)cc(S(=O)(=O)[O-])cc6F)c6ccc3[nH]6)C=C5)C=C4)cc2)CC1
REMARK SMILES IDX 20 1 19 2 17 3 18 4 16 6 13 7 14 8 94 9 15 10 93 11 12 12
REMARK SMILES IDX 11 13 8 14 9 15 10 17 7 19 6 20 4 21 1 22 2 23 3 24 5 25
REMARK SMILES IDX 21 26 22 27 23 28 24 29 25 30 26 32 27 33 28 34 92 35 29 36
REMARK SMILES IDX 91 37 30 38 31 39 32 40 85 41 33 42 90 43 84 44 86 45 34 46
REMARK SMILES IDX 89 47 83 48 82 49 35 51 69 52 48 53 68 54 49 55 52 56 67 57
REMARK SMILES IDX 87 58 50 59 51 60 66 62 88 63 53 64 36 65 37 66 46 67 38 68
REMARK SMILES IDX 39 69 45 70 47 71 40 72 41 73 42 74 43 75 44 76 70 77 71 78
REMARK SMILES IDX 80 79 72 80 73 81 79 82 81 83 74 84 75 85 76 86 77 87 78 88
REMARK SMILES IDX 54 89 55 90 64 91 56 92 57 93 63 94 65 95 58 96 59 97 60 98
REMARK SMILES IDX 61 99 62 100
REMARK H PARENT 19 5 8 16 11 18 24 31 86 50 52 61
REMARK Flexibility Score: inf
ROOT
ATOM      1  C   UNL A   1      38.913  21.457  25.874  1.00  0.00     0.116 C 
ENDROOT
BRANCH   1   2
ATOM      2  N   UNL A   1      38.035  21.898  24.809  1.00  0.00    -0.356 N 
ATOM      3  C   UNL A   1      36.694  21.859  24.625  1.00  0.00     0.223 C 
ATOM      4  O   UNL A   1      36.275  22.478  23.636  1.00  0.00    -0.275 OA
ATOM      5  H   UNL A   1      38.517  22.316  24.059  1.00  0.00     0.163 HD
BRANCH   3   6
ATOM      6  C   UNL A   1      35.678  21.115  25.506  1.00  0.00     0.078 C 
ATOM      7  C   UNL A   1      32.685  21.506  25.531  1.00  0.00     0.008 C 
ATOM      8  C   UNL A   1      33.364  20.643  24.453  1.00  0.00     0.006 C 
ATOM      9  C   UNL A   1      33.628  22.487  26.242  1.00  0.00     0.006 C 
ATOM     10  C   UNL A   1      34.747  20.120  24.816  1.00  0.00     0.014 C 
ATOM     11  C   UNL A   1      34.999  21.938  26.593  1.00  0.00     0.014 C 
BRANCH   7  12
ATOM     12  C   UNL A   1      31.433  22.273  25.019  1.00  0.00     0.121 C 
BRANCH  12  13
ATOM     13  N   UNL A   1      30.334  22.321  25.972  1.00  0.00    -0.338 N 
ATOM     14  N   UNL A   1      30.354  24.499  26.877  1.00  0.00    -0.338 N 
ATOM     15  C   UNL A   1      29.993  23.208  26.921  1.00  0.00     0.314 C 
ATOM     16  H   UNL A   1      30.351  24.951  27.751  1.00  0.00     0.165 HD
ATOM     17  O   UNL A   1      29.333  22.812  27.882  1.00  0.00    -0.249 OA
ATOM     18  H   UNL A   1      29.722  21.553  25.908  1.00  0.00     0.165 HD
BRANCH  14  19
ATOM     19  C   UNL A   1      30.747  25.347  25.768  1.00  0.00     0.127 C 
BRANCH  19  20
ATOM     20  C   UNL A   1      32.137  25.949  25.949  1.00  0.00     0.121 C 
BRANCH  20  21
ATOM     21  C   UNL A   1      32.429  26.868  24.780  1.00  0.00     0.223 C 
ATOM     22  C   UNL A   1      33.093  27.163  22.453  1.00  0.00     0.146 C 
ATOM     23  N   UNL A   1      33.073  26.361  23.665  1.00  0.00    -0.349 N 
ATOM     24  C   UNL A   1      33.807  25.101  23.599  1.00  0.00     0.146 C 
ATOM     25  O   UNL A   1      31.997  28.024  24.821  1.00  0.00    -0.275 OA
ENDBRANCH  20  21
ENDBRANCH  19  20
ENDBRANCH  14  19
ENDBRANCH  12  13
ENDBRANCH   7  12
ENDBRANCH   3   6
ENDBRANCH   1   2
BRANCH   1  26
ATOM     26  C   UNL A   1      39.583  22.618  26.616  1.00  0.00     0.023 C 
BRANCH  26  27
ATOM     27  C   UNL A   1      40.914  22.289  27.291  1.00  0.00     0.023 C 
BRANCH  27  28
ATOM     28  C   UNL A   1      42.104  23.145  26.857  1.00  0.00     0.116 C 
BRANCH  28  29
ATOM     29  N   UNL A   1      41.806  24.138  25.834  1.00  0.00    -0.352 N 
ATOM     30  C   UNL A   1      41.684  25.505  25.990  1.00  0.00     0.251 C 
ATOM     31  H   UNL A   1      41.675  23.794  24.921  1.00  0.00     0.163 HD
ATOM     32  O   UNL A   1      41.481  26.227  25.020  1.00  0.00    -0.269 OA
BRANCH  30  33
ATOM     33  C   UNL A   1      41.677  26.065  27.362  1.00  0.00     0.039 A 
ATOM     34  C   UNL A   1      42.749  26.877  27.741  1.00  0.00     0.014 A 
ATOM     35  C   UNL A   1      40.568  25.919  28.199  1.00  0.00     0.014 A 
ATOM     36  C   UNL A   1      42.652  27.648  28.901  1.00  0.00     0.010 A 
ATOM     37  C   UNL A   1      40.446  26.738  29.319  1.00  0.00     0.010 A 
ATOM     38  C   UNL A   1      41.469  27.639  29.657  1.00  0.00    -0.014 A 
BRANCH  38  39
ATOM     39  C   UNL A   1      41.251  28.630  30.743  1.00  0.00     0.031 A 
ATOM     40  C   UNL A   1      42.058  28.576  32.006  1.00  0.00     0.074 A 
ATOM     41  C   UNL A   1      40.247  29.524  30.624  1.00  0.00     0.049 A 
ATOM     42  N   UNL A   1      41.952  29.312  33.082  1.00  0.00    -0.248 NA
ATOM     43  C   UNL A   1      43.100  27.541  32.083  1.00  0.00     0.031 C 
ATOM     44  C   UNL A   1      39.334  29.627  29.482  1.00  0.00     0.029 A 
ATOM     45  N   UNL A   1      39.815  30.505  31.481  1.00  0.00    -0.354 N 
ATOM     46  C   UNL A   1      42.889  28.812  33.976  1.00  0.00     0.074 A 
ATOM     47  C   UNL A   1      43.537  27.693  33.324  1.00  0.00     0.031 C 
ATOM     48  C   UNL A   1      38.461  30.624  29.704  1.00  0.00     0.029 A 
ATOM     49  C   UNL A   1      38.736  31.215  31.010  1.00  0.00     0.049 A 
ATOM     50  H   UNL A   1      40.237  30.683  32.352  1.00  0.00     0.167 HD
ATOM     51  C   UNL A   1      43.190  29.251  35.222  1.00  0.00     0.037 A 
ATOM     52  C   UNL A   1      38.042  32.227  31.564  1.00  0.00     0.037 A 
ATOM     53  C   UNL A   1      42.576  30.388  35.854  1.00  0.00     0.049 A 
ATOM     54  C   UNL A   1      38.447  32.749  32.912  1.00  0.00     0.074 A 
ATOM     55  C   UNL A   1      42.878  30.960  37.078  1.00  0.00     0.029 A 
ATOM     56  N   UNL A   1      41.537  31.128  35.313  1.00  0.00    -0.354 N 
ATOM     57  N   UNL A   1      39.392  32.316  33.709  1.00  0.00    -0.248 NA
ATOM     58  C   UNL A   1      37.698  33.902  33.432  1.00  0.00     0.031 C 
ATOM     59  C   UNL A   1      42.007  32.038  37.284  1.00  0.00     0.029 A 
ATOM     60  C   UNL A   1      41.179  32.147  36.180  1.00  0.00     0.049 A 
ATOM     61  H   UNL A   1      41.114  30.955  34.440  1.00  0.00     0.167 HD
ATOM     62  C   UNL A   1      39.362  33.148  34.820  1.00  0.00     0.074 A 
ATOM     63  C   UNL A   1      38.311  34.119  34.588  1.00  0.00     0.031 C 
ATOM     64  C   UNL A   1      40.135  33.109  35.932  1.00  0.00     0.037 A 
BRANCH  51  65
ATOM     65  C   UNL A   1      44.240  28.490  35.976  1.00  0.00     0.058 A 
ATOM     66  C   UNL A   1      45.604  28.791  35.838  1.00  0.00     0.135 A 
ATOM     67  C   UNL A   1      43.880  27.441  36.836  1.00  0.00     0.135 A 
ATOM     68  F   UNL A   1      45.998  29.775  35.014  1.00  0.00    -0.206 F 
ATOM     69  C   UNL A   1      46.580  28.054  36.498  1.00  0.00     0.059 A 
ATOM     70  C   UNL A   1      44.841  26.701  37.521  1.00  0.00     0.059 A 
ATOM     71  F   UNL A   1      42.590  27.113  37.000  1.00  0.00    -0.206 F 
ATOM     72  C   UNL A   1      46.188  27.002  37.327  1.00  0.00     0.060 A 
BRANCH  72  73
ATOM     73  S   UNL A   1      47.461  26.023  38.153  1.00  0.00     0.124 S 
ATOM     74  O   UNL A   1      48.185  25.471  37.012  1.00  0.00    -0.237 OA
ATOM     75  O   UNL A   1      48.179  27.026  38.933  1.00  0.00    -0.237 OA
ATOM     76  O   UNL A   1      46.690  25.062  38.935  1.00  0.00    -0.744 OA
ENDBRANCH  72  73
ENDBRANCH  51  65
BRANCH  52  77
ATOM     77  C   UNL A   1      36.909  32.834  30.820  1.00  0.00     0.058 A 
ATOM     78  C   UNL A   1      35.586  32.478  31.115  1.00  0.00     0.135 A 
ATOM     79  C   UNL A   1      37.127  33.806  29.833  1.00  0.00     0.135 A 
ATOM     80  F   UNL A   1      35.333  31.550  32.049  1.00  0.00    -0.206 F 
ATOM     81  C   UNL A   1      34.512  33.065  30.454  1.00  0.00     0.059 A 
ATOM     82  C   UNL A   1      36.068  34.418  29.169  1.00  0.00     0.059 A 
ATOM     83  F   UNL A   1      38.377  34.189  29.530  1.00  0.00    -0.206 F 
ATOM     84  C   UNL A   1      34.763  34.037  29.483  1.00  0.00     0.060 A 
BRANCH  84  85
ATOM     85  S   UNL A   1      33.365  34.853  28.683  1.00  0.00     0.124 S 
ATOM     86  O   UNL A   1      34.018  35.984  28.034  1.00  0.00    -0.237 OA
ATOM     87  O   UNL A   1      32.862  33.810  27.793  1.00  0.00    -0.237 OA
ATOM     88  O   UNL A   1      32.488  35.182  29.803  1.00  0.00    -0.744 OA
ENDBRANCH  84  85
ENDBRANCH  52  77
BRANCH  64  89
ATOM     89  C   UNL A   1      39.885  34.156  36.978  1.00  0.00     0.058 A 
ATOM     90  C   UNL A   1      39.083  33.892  38.097  1.00  0.00     0.135 A 
ATOM     91  C   UNL A   1      40.495  35.417  36.883  1.00  0.00     0.135 A 
ATOM     92  F   UNL A   1      38.473  32.703  38.226  1.00  0.00    -0.206 F 
ATOM     93  C   UNL A   1      38.883  34.850  39.086  1.00  0.00     0.059 A 
ATOM     94  C   UNL A   1      40.319  36.384  37.867  1.00  0.00     0.059 A 
ATOM     95  F   UNL A   1      41.275  35.714  35.832  1.00  0.00    -0.206 F 
ATOM     96  C   UNL A   1      39.505  36.093  38.963  1.00  0.00     0.060 A 
BRANCH  96  97
ATOM     97  S   UNL A   1      39.278  37.319  40.270  1.00  0.00     0.124 S 
ATOM     98  O   UNL A   1      38.489  38.336  39.583  1.00  0.00    -0.237 OA
ATOM     99  O   UNL A   1      38.576  36.561  41.300  1.00  0.00    -0.237 OA
ATOM    100  O   UNL A   1      40.645  37.704  40.609  1.00  0.00    -0.744 OA
ENDBRANCH  96  97
ENDBRANCH  64  89
ENDBRANCH  38  39
ENDBRANCH  30  33
ENDBRANCH  28  29
ENDBRANCH  27  28
ENDBRANCH  26  27
ENDBRANCH   1  26
TORSDOF 19
ENDMDL
MODEL 2
REMARK VINA RESULT:     -11.6      4.820     10.532
REMARK SMILES CN(C)C(=O)CCNC(=O)NC[C@H]1CC[C@@H](C(=O)NCCCCNC(=O)c2ccc(-c3c4nc(c(-c5c(F)cc(S(=O)(=O)[O-])cc5F)c5ccc([nH]5)c(-c5c(F)cc(S(=O)(=O)[O-])cc5F)c5nc(c(-c6c(F)cc(S(=O)(=O)[O-])cc6F)c6ccc3[nH]6)C=C5)C=C4)cc2)CC1
REMARK SMILES IDX 20 1 19 2 17 3 18 4 16 6 13 7 14 8 94 9 15 10 93 11 12 12
REMARK SMILES IDX 11 13 8 14 9 15 10 17 7 19 6 20 4 21 1 22 2 23 3 24 5 25
REMARK SMILES IDX 21 26 22 27 23 28 24 29 25 30 26 32 27 33 28 34 92 35 29 36
REMARK SMILES IDX 91 37 30 38 31 39 32 40 85 41 33 42 90 43 84 44 86 45 34 46
REMARK SMILES IDX 89 47 83 48 82 49 35 51 69 52 48 53 68 54 49 55 52 56 67 57
REMARK SMILES IDX 87 58 50 59 51 60 66 62 88 63 53 64 36 65 37 66 46 67 38 68
REMARK SMILES IDX 39 69 45 70 47 71 40 72 41 73 42 74 43 75 44 76 70 77 71 78
REMARK SMILES IDX 80 79 72 80 73 81 79 82 81 83 74 84 75 85 76 86 77 87 78 88
REMARK SMILES IDX 54 89 55 90 64 91 56 92 57 93 63 94 65 95 58 96 59 97 60 98
REMARK SMILES IDX 61 99 62 100
REMARK H PARENT 19 5 8 16 11 18 24 31 86 50 52 61
REMARK Flexibility Score: inf
ROOT
ATOM      1  C   UNL A   1      33.693  28.352  23.047  1.00  0.00     0.116 C 
ENDROOT
BRANCH   1   2
ATOM      2  N   UNL A   1      32.547  29.147  22.653  1.00  0.00    -0.356 N 
ATOM      3  C   UNL A   1      31.239  28.866  22.446  1.00  0.00     0.223 C 
ATOM      4  O   UNL A   1      30.507  29.848  22.257  1.00  0.00    -0.275 OA
ATOM      5  H   UNL A   1      32.767  30.095  22.505  1.00  0.00     0.163 HD
BRANCH   3   6
ATOM      6  C   UNL A   1      30.607  27.464  22.409  1.00  0.00     0.078 C 
ATOM      7  C   UNL A   1      31.502  25.040  23.969  1.00  0.00     0.008 C 
ATOM      8  C   UNL A   1      30.631  26.128  24.622  1.00  0.00     0.006 C 
ATOM      9  C   UNL A   1      32.242  25.498  22.704  1.00  0.00     0.006 C 
ATOM     10  C   UNL A   1      29.850  27.003  23.653  1.00  0.00     0.014 C 
ATOM     11  C   UNL A   1      31.438  26.368  21.755  1.00  0.00     0.014 C 
BRANCH   7  12
ATOM     12  C   UNL A   1      32.514  24.378  24.948  1.00  0.00     0.121 C 
BRANCH  12  13
ATOM     13  N   UNL A   1      31.943  24.009  26.234  1.00  0.00    -0.338 N 
ATOM     14  N   UNL A   1      31.120  21.815  25.974  1.00  0.00    -0.338 N 
ATOM     15  C   UNL A   1      31.161  22.988  26.622  1.00  0.00     0.314 C 
ATOM     16  H   UNL A   1      30.297  21.296  26.128  1.00  0.00     0.165 HD
ATOM     17  O   UNL A   1      30.440  23.146  27.608  1.00  0.00    -0.249 OA
ATOM     18  H   UNL A   1      32.175  24.631  26.962  1.00  0.00     0.165 HD
BRANCH  14  19
ATOM     19  C   UNL A   1      32.073  21.174  25.089  1.00  0.00     0.127 C 
BRANCH  19  20
ATOM     20  C   UNL A   1      32.884  20.085  25.784  1.00  0.00     0.121 C 
BRANCH  20  21
ATOM     21  C   UNL A   1      34.227  19.958  25.093  1.00  0.00     0.223 C 
ATOM     22  C   UNL A   1      36.607  20.484  25.009  1.00  0.00     0.146 C 
ATOM     23  N   UNL A   1      35.263  20.798  25.467  1.00  0.00    -0.349 N 
ATOM     24  C   UNL A   1      35.131  22.029  26.238  1.00  0.00     0.146 C 
ATOM     25  O   UNL A   1      34.383  19.043  24.279  1.00  0.00    -0.275 OA
ENDBRANCH  20  21
ENDBRANCH  19  20
ENDBRANCH  14  19
ENDBRANCH  12  13
ENDBRANCH   7  12
ENDBRANCH   3   6
ENDBRANCH   1   2
BRANCH   1  26
ATOM     26  C   UNL A   1      33.814  28.190  24.566  1.00  0.00     0.023 C 
BRANCH  26  27
ATOM     27  C   UNL A   1      33.249  29.341  25.399  1.00  0.00     0.023 C 
BRANCH  27  28
ATOM     28  C   UNL A   1      33.350  29.170  26.914  1.00  0.00     0.116 C 
BRANCH  28  29
ATOM     29  N   UNL A   1      33.406  30.415  27.670  1.00  0.00    -0.352 N 
ATOM     30  C   UNL A   1      34.492  30.961  28.324  1.00  0.00     0.251 C 
ATOM     31  H   UNL A   1      32.567  30.928  27.721  1.00  0.00     0.163 HD
ATOM     32  O   UNL A   1      34.402  32.051  28.879  1.00  0.00    -0.269 OA
BRANCH  30  33
ATOM     33  C   UNL A   1      35.726  30.151  28.450  1.00  0.00     0.039 A 
ATOM     34  C   UNL A   1      36.583  30.090  27.348  1.00  0.00     0.014 A 
ATOM     35  C   UNL A   1      36.105  29.591  29.672  1.00  0.00     0.014 A 
ATOM     36  C   UNL A   1      37.874  29.585  27.507  1.00  0.00     0.010 A 
ATOM     37  C   UNL A   1      37.414  29.149  29.844  1.00  0.00     0.010 A 
ATOM     38  C   UNL A   1      38.322  29.179  28.774  1.00  0.00    -0.014 A 
BRANCH  38  39
ATOM     39  C   UNL A   1      39.758  28.877  29.015  1.00  0.00     0.031 A 
ATOM     40  C   UNL A   1      40.689  29.936  29.528  1.00  0.00     0.074 A 
ATOM     41  C   UNL A   1      40.241  27.665  28.673  1.00  0.00     0.049 A 
ATOM     42  N   UNL A   1      41.980  29.870  29.724  1.00  0.00    -0.248 NA
ATOM     43  C   UNL A   1      40.098  31.249  29.829  1.00  0.00     0.031 C 
ATOM     44  C   UNL A   1      39.457  26.575  28.086  1.00  0.00     0.029 A 
ATOM     45  N   UNL A   1      41.511  27.151  28.753  1.00  0.00    -0.354 N 
ATOM     46  C   UNL A   1      42.364  31.137  30.143  1.00  0.00     0.074 A 
ATOM     47  C   UNL A   1      41.172  31.958  30.147  1.00  0.00     0.031 C 
ATOM     48  C   UNL A   1      40.259  25.519  27.873  1.00  0.00     0.029 A 
ATOM     49  C   UNL A   1      41.617  25.863  28.286  1.00  0.00     0.049 A 
ATOM     50  H   UNL A   1      42.275  27.658  29.111  1.00  0.00     0.167 HD
ATOM     51  C   UNL A   1      43.596  31.574  30.502  1.00  0.00     0.037 A 
ATOM     52  C   UNL A   1      42.684  25.047  28.196  1.00  0.00     0.037 A 
ATOM     53  C   UNL A   1      44.773  30.748  30.538  1.00  0.00     0.049 A 
ATOM     54  C   UNL A   1      44.024  25.527  28.675  1.00  0.00     0.074 A 
ATOM     55  C   UNL A   1      46.045  31.081  30.972  1.00  0.00     0.029 A 
ATOM     56  N   UNL A   1      44.824  29.426  30.127  1.00  0.00    -0.354 N 
ATOM     57  N   UNL A   1      44.351  26.705  29.147  1.00  0.00    -0.248 NA
ATOM     58  C   UNL A   1      45.135  24.567  28.620  1.00  0.00     0.031 C 
ATOM     59  C   UNL A   1      46.870  29.961  30.806  1.00  0.00     0.029 A 
ATOM     60  C   UNL A   1      46.106  28.928  30.289  1.00  0.00     0.049 A 
ATOM     61  H   UNL A   1      44.061  28.914  29.772  1.00  0.00     0.167 HD
ATOM     62  C   UNL A   1      45.703  26.627  29.456  1.00  0.00     0.074 A 
ATOM     63  C   UNL A   1      46.131  25.282  29.129  1.00  0.00     0.031 C 
ATOM     64  C   UNL A   1      46.515  27.585  29.964  1.00  0.00     0.037 A 
BRANCH  51  65
ATOM     65  C   UNL A   1      43.719  33.018  30.887  1.00  0.00     0.058 A 
ATOM     66  C   UNL A   1      44.029  34.005  29.938  1.00  0.00     0.135 A 
ATOM     67  C   UNL A   1      43.537  33.419  32.220  1.00  0.00     0.135 A 
ATOM     68  F   UNL A   1      44.228  33.668  28.654  1.00  0.00    -0.206 F 
ATOM     69  C   UNL A   1      44.192  35.336  30.303  1.00  0.00     0.059 A 
ATOM     70  C   UNL A   1      43.679  34.749  32.604  1.00  0.00     0.059 A 
ATOM     71  F   UNL A   1      43.242  32.513  33.164  1.00  0.00    -0.206 F 
ATOM     72  C   UNL A   1      44.028  35.696  31.642  1.00  0.00     0.060 A 
BRANCH  72  73
ATOM     73  S   UNL A   1      44.277  37.419  32.118  1.00  0.00     0.124 S 
ATOM     74  O   UNL A   1      45.725  37.461  32.300  1.00  0.00    -0.237 OA
ATOM     75  O   UNL A   1      43.764  38.148  30.962  1.00  0.00    -0.237 OA
ATOM     76  O   UNL A   1      43.485  37.549  33.337  1.00  0.00    -0.744 OA
ENDBRANCH  72  73
ENDBRANCH  51  65
BRANCH  52  77
ATOM     77  C   UNL A   1      42.515  23.674  27.657  1.00  0.00     0.058 A 
ATOM     78  C   UNL A   1      42.546  23.438  26.275  1.00  0.00     0.135 A 
ATOM     79  C   UNL A   1      42.362  22.572  28.510  1.00  0.00     0.135 A 
ATOM     80  F   UNL A   1      42.687  24.464  25.423  1.00  0.00    -0.206 F 
ATOM     81  C   UNL A   1      42.428  22.154  25.755  1.00  0.00     0.059 A 
ATOM     82  C   UNL A   1      42.256  21.276  28.014  1.00  0.00     0.059 A 
ATOM     83  F   UNL A   1      42.344  22.749  29.840  1.00  0.00    -0.206 F 
ATOM     84  C   UNL A   1      42.286  21.078  26.633  1.00  0.00     0.060 A 
BRANCH  84  85
ATOM     85  S   UNL A   1      42.211  19.404  25.959  1.00  0.00     0.124 S 
ATOM     86  O   UNL A   1      40.782  19.254  25.707  1.00  0.00    -0.237 OA
ATOM     87  O   UNL A   1      43.059  19.507  24.775  1.00  0.00    -0.237 OA
ATOM     88  O   UNL A   1      42.756  18.587  27.039  1.00  0.00    -0.744 OA
ENDBRANCH  84  85
ENDBRANCH  52  77
BRANCH  64  89
ATOM     89  C   UNL A   1      47.946  27.209  30.213  1.00  0.00     0.058 A 
ATOM     90  C   UNL A   1      48.938  27.435  29.248  1.00  0.00     0.135 A 
ATOM     91  C   UNL A   1      48.335  26.664  31.446  1.00  0.00     0.135 A 
ATOM     92  F   UNL A   1      48.612  27.947  28.050  1.00  0.00    -0.206 F 
ATOM     93  C   UNL A   1      50.272  27.123  29.493  1.00  0.00     0.059 A 
ATOM     94  C   UNL A   1      49.665  26.357  31.717  1.00  0.00     0.059 A 
ATOM     95  F   UNL A   1      47.423  26.434  32.402  1.00  0.00    -0.206 F 
ATOM     96  C   UNL A   1      50.625  26.584  30.730  1.00  0.00     0.060 A 
BRANCH  96  97
ATOM     97  S   UNL A   1      52.363  26.219  31.061  1.00  0.00     0.124 S 
ATOM     98  O   UNL A   1      52.267  24.941  31.758  1.00  0.00    -0.237 OA
ATOM     99  O   UNL A   1      52.940  26.169  29.722  1.00  0.00    -0.237 OA
ATOM    100  O   UNL A   1      52.793  27.350  31.878  1.00  0.00    -0.744 OA
ENDBRANCH  96  97
ENDBRANCH  64  89
ENDBRANCH  38  39
ENDBRANCH  30  33
ENDBRANCH  28  29
ENDBRANCH  27  28
ENDBRANCH  26  27
ENDBRANCH   1  26
TORSDOF 19
ENDMDL
MODEL 3
REMARK VINA RESULT:     -11.4      1.021      2.048
REMARK SMILES CN(C)C(=O)CCNC(=O)NC[C@H]1CC[C@@H](C(=O)NCCCCNC(=O)c2ccc(-c3c4nc(c(-c5c(F)cc(S(=O)(=O)[O-])cc5F)c5ccc([nH]5)c(-c5c(F)cc(S(=O)(=O)[O-])cc5F)c5nc(c(-c6c(F)cc(S(=O)(=O)[O-])cc6F)c6ccc3[nH]6)C=C5)C=C4)cc2)CC1
REMARK SMILES IDX 20 1 19 2 17 3 18 4 16 6 13 7 14 8 94 9 15 10 93 11 12 12
REMARK SMILES IDX 11 13 8 14 9 15 10 17 7 19 6 20 4 21 1 22 2 23 3 24 5 25
REMARK SMILES IDX 21 26 22 27 23 28 24 29 25 30 26 32 27 33 28 34 92 35 29 36
REMARK SMILES IDX 91 37 30 38 31 39 32 40 85 41 33 42 90 43 84 44 86 45 34 46
REMARK SMILES IDX 89 47 83 48 82 49 35 51 69 52 48 53 68 54 49 55 52 56 67 57
REMARK SMILES IDX 87 58 50 59 51 60 66 62 88 63 53 64 36 65 37 66 46 67 38 68
REMARK SMILES IDX 39 69 45 70 47 71 40 72 41 73 42 74 43 75 44 76 70 77 71 78
REMARK SMILES IDX 80 79 72 80 73 81 79 82 81 83 74 84 75 85 76 86 77 87 78 88
REMARK SMILES IDX 54 89 55 90 64 91 56 92 57 93 63 94 65 95 58 96 59 97 60 98
REMARK SMILES IDX 61 99 62 100
REMARK H PARENT 19 5 8 16 11 18 24 31 86 50 52 61
REMARK Flexibility Score: inf
ROOT
ATOM      1  C   UNL A   1      39.599  20.929  26.165  1.00  0.00     0.116 C 
ENDROOT
BRANCH   1   2
ATOM      2  N   UNL A   1      38.775  22.117  26.259  1.00  0.00    -0.356 N 
ATOM      3  C   UNL A   1      37.618  22.503  25.673  1.00  0.00     0.223 C 
ATOM      4  O   UNL A   1      37.119  23.548  26.117  1.00  0.00    -0.275 OA
ATOM      5  H   UNL A   1      39.134  22.787  26.885  1.00  0.00     0.163 HD
BRANCH   3   6
ATOM      6  C   UNL A   1      36.901  21.783  24.519  1.00  0.00     0.078 C 
ATOM      7  C   UNL A   1      33.933  21.769  23.969  1.00  0.00     0.008 C 
ATOM      8  C   UNL A   1      34.814  22.958  23.545  1.00  0.00     0.006 C 
ATOM      9  C   UNL A   1      34.551  20.882  25.060  1.00  0.00     0.006 C 
ATOM     10  C   UNL A   1      36.299  22.652  23.416  1.00  0.00     0.014 C 
ATOM     11  C   UNL A   1      36.033  20.593  24.905  1.00  0.00     0.014 C 
BRANCH   7  12
ATOM     12  C   UNL A   1      32.493  22.178  24.391  1.00  0.00     0.121 C 
BRANCH  12  13
ATOM     13  N   UNL A   1      32.255  22.122  25.825  1.00  0.00    -0.338 N 
ATOM     14  N   UNL A   1      31.967  24.356  26.525  1.00  0.00    -0.338 N 
ATOM     15  C   UNL A   1      32.232  23.066  26.781  1.00  0.00     0.314 C 
ATOM     16  H   UNL A   1      32.307  24.982  27.204  1.00  0.00     0.165 HD
ATOM     17  O   UNL A   1      32.480  22.732  27.940  1.00  0.00    -0.249 OA
ATOM     18  H   UNL A   1      32.077  21.214  26.161  1.00  0.00     0.165 HD
BRANCH  14  19
ATOM     19  C   UNL A   1      31.267  24.991  25.425  1.00  0.00     0.127 C 
BRANCH  19  20
ATOM     20  C   UNL A   1      30.583  26.291  25.833  1.00  0.00     0.121 C 
BRANCH  20  21
ATOM     21  C   UNL A   1      30.179  27.046  24.583  1.00  0.00     0.223 C 
ATOM     22  C   UNL A   1      30.631  28.794  22.943  1.00  0.00     0.146 C 
ATOM     23  N   UNL A   1      30.821  28.233  24.271  1.00  0.00    -0.349 N 
ATOM     24  C   UNL A   1      31.637  29.029  25.182  1.00  0.00     0.146 C 
ATOM     25  O   UNL A   1      29.350  26.529  23.828  1.00  0.00    -0.275 OA
ENDBRANCH  20  21
ENDBRANCH  19  20
ENDBRANCH  14  19
ENDBRANCH  12  13
ENDBRANCH   7  12
ENDBRANCH   3   6
ENDBRANCH   1   2
BRANCH   1  26
ATOM     26  C   UNL A   1      40.878  21.020  27.003  1.00  0.00     0.023 C 
BRANCH  26  27
ATOM     27  C   UNL A   1      42.046  21.755  26.346  1.00  0.00     0.023 C 
BRANCH  27  28
ATOM     28  C   UNL A   1      42.240  23.208  26.780  1.00  0.00     0.116 C 
BRANCH  28  29
ATOM     29  N   UNL A   1      41.863  24.202  25.785  1.00  0.00    -0.352 N 
ATOM     30  C   UNL A   1      41.696  25.561  25.965  1.00  0.00     0.251 C 
ATOM     31  H   UNL A   1      41.708  23.865  24.872  1.00  0.00     0.163 HD
ATOM     32  O   UNL A   1      41.426  26.287  25.015  1.00  0.00    -0.269 OA
BRANCH  30  33
ATOM     33  C   UNL A   1      41.723  26.103  27.343  1.00  0.00     0.039 A 
ATOM     34  C   UNL A   1      42.794  26.927  27.700  1.00  0.00     0.014 A 
ATOM     35  C   UNL A   1      40.645  25.928  28.214  1.00  0.00     0.014 A 
ATOM     36  C   UNL A   1      42.722  27.681  28.872  1.00  0.00     0.010 A 
ATOM     37  C   UNL A   1      40.546  26.730  29.348  1.00  0.00     0.010 A 
ATOM     38  C   UNL A   1      41.565  27.642  29.666  1.00  0.00    -0.014 A 
BRANCH  38  39
ATOM     39  C   UNL A   1      41.366  28.616  30.771  1.00  0.00     0.031 A 
ATOM     40  C   UNL A   1      42.190  28.537  32.023  1.00  0.00     0.074 A 
ATOM     41  C   UNL A   1      40.365  29.516  30.682  1.00  0.00     0.049 A 
ATOM     42  N   UNL A   1      42.102  29.254  33.113  1.00  0.00    -0.248 NA
ATOM     43  C   UNL A   1      43.228  27.496  32.067  1.00  0.00     0.031 C 
ATOM     44  C   UNL A   1      39.437  29.643  29.555  1.00  0.00     0.029 A 
ATOM     45  N   UNL A   1      39.948  30.483  31.561  1.00  0.00    -0.354 N 
ATOM     46  C   UNL A   1      43.049  28.734  33.985  1.00  0.00     0.074 A 
ATOM     47  C   UNL A   1      43.683  27.624  33.305  1.00  0.00     0.031 C 
ATOM     48  C   UNL A   1      38.572  30.639  29.805  1.00  0.00     0.029 A 
ATOM     49  C   UNL A   1      38.866  31.207  31.117  1.00  0.00     0.049 A 
ATOM     50  H   UNL A   1      40.383  30.645  32.429  1.00  0.00     0.167 HD
ATOM     51  C   UNL A   1      43.369  29.151  35.234  1.00  0.00     0.037 A 
ATOM     52  C   UNL A   1      38.185  32.212  31.698  1.00  0.00     0.037 A 
ATOM     53  C   UNL A   1      42.769  30.279  35.894  1.00  0.00     0.049 A 
ATOM     54  C   UNL A   1      38.610  32.709  33.049  1.00  0.00     0.074 A 
ATOM     55  C   UNL A   1      43.089  30.828  37.124  1.00  0.00     0.029 A 
ATOM     56  N   UNL A   1      41.725  31.033  35.380  1.00  0.00    -0.354 N 
ATOM     57  N   UNL A   1      39.564  32.257  33.826  1.00  0.00    -0.248 NA
ATOM     58  C   UNL A   1      37.874  33.856  33.600  1.00  0.00     0.031 C 
ATOM     59  C   UNL A   1      42.226  31.906  37.360  1.00  0.00     0.029 A 
ATOM     60  C   UNL A   1      41.384  32.038  36.269  1.00  0.00     0.049 A 
ATOM     61  H   UNL A   1      41.290  30.877  34.510  1.00  0.00     0.167 HD
ATOM     62  C   UNL A   1      39.553  33.071  34.952  1.00  0.00     0.074 A 
ATOM     63  C   UNL A   1      38.504  34.050  34.751  1.00  0.00     0.031 C 
ATOM     64  C   UNL A   1      40.341  33.009  36.052  1.00  0.00     0.037 A 
BRANCH  51  65
ATOM     65  C   UNL A   1      44.425  28.372  35.960  1.00  0.00     0.058 A 
ATOM     66  C   UNL A   1      44.093  27.298  36.803  1.00  0.00     0.135 A 
ATOM     67  C   UNL A   1      45.780  28.708  35.823  1.00  0.00     0.135 A 
ATOM     68  F   UNL A   1      42.809  26.950  36.978  1.00  0.00    -0.206 F 
ATOM     69  C   UNL A   1      45.067  26.608  37.515  1.00  0.00     0.059 A 
ATOM     70  C   UNL A   1      46.774  28.019  36.514  1.00  0.00     0.059 A 
ATOM     71  F   UNL A   1      46.147  29.727  35.032  1.00  0.00    -0.206 F 
ATOM     72  C   UNL A   1      46.404  26.985  37.373  1.00  0.00     0.060 A 
BRANCH  72  73
ATOM     73  S   UNL A   1      47.662  26.110  38.328  1.00  0.00     0.124 S 
ATOM     74  O   UNL A   1      48.780  27.046  38.257  1.00  0.00    -0.237 OA
ATOM     75  O   UNL A   1      47.032  25.976  39.639  1.00  0.00    -0.237 OA
ATOM     76  O   UNL A   1      47.836  24.863  37.591  1.00  0.00    -0.744 OA
ENDBRANCH  72  73
ENDBRANCH  51  65
BRANCH  52  77
ATOM     77  C   UNL A   1      37.045  32.836  30.980  1.00  0.00     0.058 A 
ATOM     78  C   UNL A   1      37.268  33.723  29.917  1.00  0.00     0.135 A 
ATOM     79  C   UNL A   1      35.719  32.529  31.315  1.00  0.00     0.135 A 
ATOM     80  F   UNL A   1      38.521  34.047  29.566  1.00  0.00    -0.206 F 
ATOM     81  C   UNL A   1      36.212  34.287  29.209  1.00  0.00     0.059 A 
ATOM     82  C   UNL A   1      34.646  33.069  30.612  1.00  0.00     0.059 A 
ATOM     83  F   UNL A   1      35.459  31.672  32.315  1.00  0.00    -0.206 F 
ATOM     84  C   UNL A   1      34.904  33.952  29.563  1.00  0.00     0.060 A 
BRANCH  84  85
ATOM     85  S   UNL A   1      33.537  34.625  28.592  1.00  0.00     0.124 S 
ATOM     86  O   UNL A   1      33.224  33.505  27.712  1.00  0.00    -0.237 OA
ATOM     87  O   UNL A   1      32.544  34.927  29.618  1.00  0.00    -0.237 OA
ATOM     88  O   UNL A   1      34.133  35.791  27.947  1.00  0.00    -0.744 OA
ENDBRANCH  84  85
ENDBRANCH  52  77
BRANCH  64  89
ATOM     89  C   UNL A   1      40.111  34.039  37.119  1.00  0.00     0.058 A 
ATOM     90  C   UNL A   1      40.761  35.281  37.087  1.00  0.00     0.135 A 
ATOM     91  C   UNL A   1      39.194  33.799  38.154  1.00  0.00     0.135 A 
ATOM     92  F   UNL A   1      41.652  35.552  36.120  1.00  0.00    -0.206 F 
ATOM     93  C   UNL A   1      40.518  36.250  38.054  1.00  0.00     0.059 A 
ATOM     94  C   UNL A   1      38.926  34.760  39.124  1.00  0.00     0.059 A 
ATOM     95  F   UNL A   1      38.544  32.627  38.224  1.00  0.00    -0.206 F 
ATOM     96  C   UNL A   1      39.599  35.981  39.069  1.00  0.00     0.060 A 
BRANCH  96  97
ATOM     97  S   UNL A   1      39.254  37.258  40.299  1.00  0.00     0.124 S 
ATOM     98  O   UNL A   1      40.601  37.691  40.657  1.00  0.00    -0.237 OA
ATOM     99  O   UNL A   1      38.458  38.221  39.544  1.00  0.00    -0.237 OA
ATOM    100  O   UNL A   1      38.528  36.535  41.339  1.00  0.00    -0.744 OA
ENDBRANCH  96  97
ENDBRANCH  64  89
ENDBRANCH  38  39
ENDBRANCH  30  33
ENDBRANCH  28  29
ENDBRANCH  27  28
ENDBRANCH  26  27
ENDBRANCH   1  26
TORSDOF 19
ENDMDL
