MODEL 1
REMARK VINA RESULT:     -11.2      0.000      0.000
REMARK SMILES CC(C)[C@H](NS(=O)(=O)c1cccc(F)c1)C(=O)NCCCCNC(=O)c1ccc(-c2c3nc(c(-c4c(F)cc(S(=O)(=O)[O-])cc4F)c4ccc([nH]4)c(-c4c(F)cc(S(=O)(=O)[O-])cc4F)c4nc(c(-c5c(F)cc(S(=O)(=O)[O-])cc5F)c5ccc2[nH]5)C=C4)C=C3)cc1
REMARK SMILES IDX 20 1 19 2 18 3 16 4 17 5 4 7 2 8 1 9 3 10 5 11 6 13 7 14
REMARK SMILES IDX 8 15 9 16 10 17 15 18 11 19 13 20 12 21 14 22 21 23 22 24
REMARK SMILES IDX 23 25 24 26 25 28 26 29 27 30 91 31 28 32 90 33 29 34 30 35
REMARK SMILES IDX 31 36 84 37 32 38 89 39 83 40 85 41 33 42 88 43 82 44 81 45
REMARK SMILES IDX 34 47 68 48 47 49 67 50 48 51 51 52 66 53 86 54 49 55 50 56
REMARK SMILES IDX 65 58 87 59 52 60 35 61 36 62 45 63 37 64 38 65 44 66 46 67
REMARK SMILES IDX 39 68 40 69 41 70 42 71 43 72 69 73 70 74 79 75 71 76 72 77
REMARK SMILES IDX 78 78 80 79 73 80 74 81 75 82 76 83 77 84 53 85 54 86 63 87
REMARK SMILES IDX 55 88 56 89 62 90 64 91 57 92 58 93 59 94 60 95 61 96
REMARK H PARENT 18 6 5 12 23 27 85 46 51 57
REMARK Flexibility Score: inf
ROOT
ATOM      1  C   UNL A   1      40.595  21.065  26.966  1.00  0.00     0.023 C 
ENDROOT
BRANCH   1   2
ATOM      2  C   UNL A   1      40.672  19.891  25.998  1.00  0.00     0.116 C 
BRANCH   2   3
ATOM      3  N   UNL A   1      41.529  18.831  26.478  1.00  0.00    -0.355 N 
ATOM      4  C   UNL A   1      42.867  18.641  26.307  1.00  0.00     0.238 C 
ATOM      5  O   UNL A   1      43.388  17.692  26.903  1.00  0.00    -0.273 OA
ATOM      6  H   UNL A   1      41.077  18.138  27.012  1.00  0.00     0.163 HD
BRANCH   4   7
ATOM      7  C   UNL A   1      43.712  19.535  25.384  1.00  0.00     0.161 C 
BRANCH   7   8
ATOM      8  C   UNL A   1      44.826  18.863  24.538  1.00  0.00     0.010 C 
ATOM      9  C   UNL A   1      44.918  19.233  23.055  1.00  0.00     0.009 C 
ATOM     10  C   UNL A   1      46.210  18.964  25.187  1.00  0.00     0.009 C 
ENDBRANCH   7   8
BRANCH   7  11
ATOM     11  N   UNL A   1      44.178  20.718  26.128  1.00  0.00    -0.198 NA
ATOM     12  H   UNL A   1      45.132  20.511  26.427  1.00  0.00     0.142 HD
BRANCH  11  13
ATOM     13  S   UNL A   1      44.222  22.229  25.425  1.00  0.00     0.241 S 
ATOM     14  O   UNL A   1      45.531  22.341  24.826  1.00  0.00    -0.207 OA
ATOM     15  O   UNL A   1      43.014  22.398  24.646  1.00  0.00    -0.207 OA
BRANCH  13  16
ATOM     16  C   UNL A   1      44.155  23.356  26.794  1.00  0.00     0.085 A 
ATOM     17  C   UNL A   1      44.779  24.607  26.698  1.00  0.00     0.022 A 
ATOM     18  C   UNL A   1      43.565  22.952  27.995  1.00  0.00     0.061 A 
ATOM     19  C   UNL A   1      44.761  25.479  27.787  1.00  0.00     0.004 A 
ATOM     20  C   UNL A   1      43.579  23.824  29.077  1.00  0.00     0.124 A 
ATOM     21  C   UNL A   1      44.161  25.085  28.981  1.00  0.00     0.039 A 
ATOM     22  F   UNL A   1      43.033  23.441  30.238  1.00  0.00    -0.207 F 
ENDBRANCH  13  16
ENDBRANCH  11  13
ENDBRANCH   7  11
ENDBRANCH   4   7
ENDBRANCH   2   3
ENDBRANCH   1   2
BRANCH   1  23
ATOM     23  C   UNL A   1      39.574  22.140  26.600  1.00  0.00     0.023 C 
BRANCH  23  24
ATOM     24  C   UNL A   1      39.965  23.566  26.971  1.00  0.00     0.116 C 
BRANCH  24  25
ATOM     25  N   UNL A   1      40.855  24.183  26.001  1.00  0.00    -0.352 N 
ATOM     26  C   UNL A   1      41.365  25.458  25.974  1.00  0.00     0.251 C 
ATOM     27  H   UNL A   1      41.131  23.603  25.256  1.00  0.00     0.163 HD
ATOM     28  O   UNL A   1      41.992  25.840  24.991  1.00  0.00    -0.269 OA
BRANCH  26  29
ATOM     29  C   UNL A   1      41.136  26.372  27.116  1.00  0.00     0.039 A 
ATOM     30  C   UNL A   1      40.259  25.980  28.128  1.00  0.00     0.014 A 
ATOM     31  C   UNL A   1      41.779  27.611  27.186  1.00  0.00     0.014 A 
ATOM     32  C   UNL A   1      40.065  26.810  29.235  1.00  0.00     0.010 A 
ATOM     33  C   UNL A   1      41.654  28.394  28.330  1.00  0.00     0.010 A 
ATOM     34  C   UNL A   1      40.780  28.013  29.357  1.00  0.00    -0.014 A 
BRANCH  34  35
ATOM     35  C   UNL A   1      40.587  28.905  30.529  1.00  0.00     0.031 A 
ATOM     36  C   UNL A   1      41.466  28.750  31.742  1.00  0.00     0.074 A 
ATOM     37  C   UNL A   1      39.607  29.831  30.516  1.00  0.00     0.049 A 
ATOM     38  N   UNL A   1      41.439  29.411  32.871  1.00  0.00    -0.248 NA
ATOM     39  C   UNL A   1      42.494  27.697  31.693  1.00  0.00     0.031 C 
ATOM     40  C   UNL A   1      38.658  30.045  29.421  1.00  0.00     0.029 A 
ATOM     41  N   UNL A   1      39.248  30.770  31.452  1.00  0.00    -0.354 N 
ATOM     42  C   UNL A   1      42.433  28.849  33.664  1.00  0.00     0.074 A 
ATOM     43  C   UNL A   1      43.002  27.750  32.916  1.00  0.00     0.031 C 
ATOM     44  C   UNL A   1      37.853  31.074  29.732  1.00  0.00     0.029 A 
ATOM     45  C   UNL A   1      38.205  31.574  31.057  1.00  0.00     0.049 A 
ATOM     46  H   UNL A   1      39.695  30.859  32.324  1.00  0.00     0.167 HD
ATOM     47  C   UNL A   1      42.859  29.234  34.889  1.00  0.00     0.037 A 
ATOM     48  C   UNL A   1      37.605  32.604  31.688  1.00  0.00     0.037 A 
ATOM     49  C   UNL A   1      42.317  30.353  35.614  1.00  0.00     0.049 A 
ATOM     50  C   UNL A   1      38.113  33.029  33.040  1.00  0.00     0.074 A 
ATOM     51  C   UNL A   1      42.705  30.850  36.846  1.00  0.00     0.029 A 
ATOM     52  N   UNL A   1      41.280  31.159  35.166  1.00  0.00    -0.354 N 
ATOM     53  N   UNL A   1      39.081  32.509  33.757  1.00  0.00    -0.248 NA
ATOM     54  C   UNL A   1      37.461  34.190  33.661  1.00  0.00     0.031 C 
ATOM     55  C   UNL A   1      41.881  31.933  37.159  1.00  0.00     0.029 A 
ATOM     56  C   UNL A   1      41.014  32.145  36.099  1.00  0.00     0.049 A 
ATOM     57  H   UNL A   1      40.805  31.044  34.312  1.00  0.00     0.167 HD
ATOM     58  C   UNL A   1      39.179  33.301  34.896  1.00  0.00     0.074 A 
ATOM     59  C   UNL A   1      38.175  34.338  34.769  1.00  0.00     0.031 C 
ATOM     60  C   UNL A   1      40.024  33.183  35.949  1.00  0.00     0.037 A 
BRANCH  47  61
ATOM     61  C   UNL A   1      43.987  28.460  35.517  1.00  0.00     0.058 A 
ATOM     62  C   UNL A   1      45.323  28.782  35.230  1.00  0.00     0.135 A 
ATOM     63  C   UNL A   1      43.745  27.359  36.356  1.00  0.00     0.135 A 
ATOM     64  F   UNL A   1      45.613  29.830  34.443  1.00  0.00    -0.206 F 
ATOM     65  C   UNL A   1      46.377  28.029  35.736  1.00  0.00     0.059 A 
ATOM     66  C   UNL A   1      44.784  26.610  36.896  1.00  0.00     0.059 A 
ATOM     67  F   UNL A   1      42.486  27.025  36.683  1.00  0.00    -0.206 F 
ATOM     68  C   UNL A   1      46.098  26.942  36.566  1.00  0.00     0.060 A 
BRANCH  68  69
ATOM     69  S   UNL A   1      47.478  25.987  37.230  1.00  0.00     0.124 S 
ATOM     70  O   UNL A   1      47.106  25.860  38.634  1.00  0.00    -0.237 OA
ATOM     71  O   UNL A   1      47.410  24.761  36.440  1.00  0.00    -0.237 OA
ATOM     72  O   UNL A   1      48.636  26.833  36.957  1.00  0.00    -0.744 OA
ENDBRANCH  68  69
ENDBRANCH  47  61
BRANCH  48  73
ATOM     73  C   UNL A   1      36.498  33.338  31.020  1.00  0.00     0.058 A 
ATOM     74  C   UNL A   1      35.165  33.181  31.429  1.00  0.00     0.135 A 
ATOM     75  C   UNL A   1      36.750  34.195  29.937  1.00  0.00     0.135 A 
ATOM     76  F   UNL A   1      34.867  32.362  32.451  1.00  0.00    -0.206 F 
ATOM     77  C   UNL A   1      34.122  33.830  30.779  1.00  0.00     0.059 A 
ATOM     78  C   UNL A   1      35.726  34.878  29.288  1.00  0.00     0.059 A 
ATOM     79  F   UNL A   1      38.009  34.387  29.515  1.00  0.00    -0.206 F 
ATOM     80  C   UNL A   1      34.412  34.676  29.707  1.00  0.00     0.060 A 
BRANCH  80  81
ATOM     81  S   UNL A   1      33.041  35.508  28.875  1.00  0.00     0.124 S 
ATOM     82  O   UNL A   1      32.421  34.397  28.159  1.00  0.00    -0.237 OA
ATOM     83  O   UNL A   1      32.280  36.041  30.000  1.00  0.00    -0.237 OA
ATOM     84  O   UNL A   1      33.706  36.502  28.040  1.00  0.00    -0.744 OA
ENDBRANCH  80  81
ENDBRANCH  48  73
BRANCH  60  85
ATOM     85  C   UNL A   1      39.947  34.227  37.028  1.00  0.00     0.058 A 
ATOM     86  C   UNL A   1      39.034  34.081  38.085  1.00  0.00     0.135 A 
ATOM     87  C   UNL A   1      40.724  35.395  36.989  1.00  0.00     0.135 A 
ATOM     88  F   UNL A   1      38.259  32.986  38.166  1.00  0.00    -0.206 F 
ATOM     89  C   UNL A   1      38.887  35.060  39.061  1.00  0.00     0.059 A 
ATOM     90  C   UNL A   1      40.614  36.375  37.971  1.00  0.00     0.059 A 
ATOM     91  F   UNL A   1      41.615  35.581  36.003  1.00  0.00    -0.206 F 
ATOM     92  C   UNL A   1      39.683  36.204  38.996  1.00  0.00     0.060 A 
BRANCH  92  93
ATOM     93  S   UNL A   1      39.509  37.446  40.294  1.00  0.00     0.124 S 
ATOM     94  O   UNL A   1      38.653  38.435  39.648  1.00  0.00    -0.237 OA
ATOM     95  O   UNL A   1      38.893  36.681  41.375  1.00  0.00    -0.237 OA
ATOM     96  O   UNL A   1      40.884  37.871  40.543  1.00  0.00    -0.744 OA
ENDBRANCH  92  93
ENDBRANCH  60  85
ENDBRANCH  34  35
ENDBRANCH  26  29
ENDBRANCH  24  25
ENDBRANCH  23  24
ENDBRANCH   1  23
TORSDOF 18
ENDMDL
MODEL 2
REMARK VINA RESULT:     -11.0      0.591      8.265
REMARK SMILES CC(C)[C@H](NS(=O)(=O)c1cccc(F)c1)C(=O)NCCCCNC(=O)c1ccc(-c2c3nc(c(-c4c(F)cc(S(=O)(=O)[O-])cc4F)c4ccc([nH]4)c(-c4c(F)cc(S(=O)(=O)[O-])cc4F)c4nc(c(-c5c(F)cc(S(=O)(=O)[O-])cc5F)c5ccc2[nH]5)C=C4)C=C3)cc1
REMARK SMILES IDX 20 1 19 2 18 3 16 4 17 5 4 7 2 8 1 9 3 10 5 11 6 13 7 14
REMARK SMILES IDX 8 15 9 16 10 17 15 18 11 19 13 20 12 21 14 22 21 23 22 24
REMARK SMILES IDX 23 25 24 26 25 28 26 29 27 30 91 31 28 32 90 33 29 34 30 35
REMARK SMILES IDX 31 36 84 37 32 38 89 39 83 40 85 41 33 42 88 43 82 44 81 45
REMARK SMILES IDX 34 47 68 48 47 49 67 50 48 51 51 52 66 53 86 54 49 55 50 56
REMARK SMILES IDX 65 58 87 59 52 60 35 61 36 62 45 63 37 64 38 65 44 66 46 67
REMARK SMILES IDX 39 68 40 69 41 70 42 71 43 72 69 73 70 74 79 75 71 76 72 77
REMARK SMILES IDX 78 78 80 79 73 80 74 81 75 82 76 83 77 84 53 85 54 86 63 87
REMARK SMILES IDX 55 88 56 89 62 90 64 91 57 92 58 93 59 94 60 95 61 96
REMARK H PARENT 18 6 5 12 23 27 85 46 51 57
REMARK Flexibility Score: inf
ROOT
ATOM      1  C   UNL A   1      40.695  21.021  26.981  1.00  0.00     0.023 C 
ENDROOT
BRANCH   1   2
ATOM      2  C   UNL A   1      40.764  19.879  25.976  1.00  0.00     0.116 C 
BRANCH   2   3
ATOM      3  N   UNL A   1      41.622  18.802  26.416  1.00  0.00    -0.355 N 
ATOM      4  C   UNL A   1      42.963  18.628  26.253  1.00  0.00     0.238 C 
ATOM      5  O   UNL A   1      43.482  17.655  26.811  1.00  0.00    -0.273 OA
ATOM      6  H   UNL A   1      41.167  18.083  26.912  1.00  0.00     0.163 HD
BRANCH   4   7
ATOM      7  C   UNL A   1      43.813  19.568  25.384  1.00  0.00     0.161 C 
BRANCH   7   8
ATOM      8  C   UNL A   1      44.959  18.946  24.542  1.00  0.00     0.010 C 
ATOM      9  C   UNL A   1      44.966  19.216  23.034  1.00  0.00     0.009 C 
ATOM     10  C   UNL A   1      46.348  19.225  25.127  1.00  0.00     0.009 C 
ENDBRANCH   7   8
BRANCH   7  11
ATOM     11  N   UNL A   1      44.240  20.732  26.180  1.00  0.00    -0.198 NA
ATOM     12  H   UNL A   1      45.213  20.562  26.437  1.00  0.00     0.142 HD
BRANCH  11  13
ATOM     13  S   UNL A   1      44.179  22.280  25.565  1.00  0.00     0.241 S 
ATOM     14  O   UNL A   1      45.454  22.493  24.921  1.00  0.00    -0.207 OA
ATOM     15  O   UNL A   1      42.931  22.429  24.846  1.00  0.00    -0.207 OA
BRANCH  13  16
ATOM     16  C   UNL A   1      44.117  23.324  26.999  1.00  0.00     0.085 A 
ATOM     17  C   UNL A   1      44.743  24.577  26.976  1.00  0.00     0.022 A 
ATOM     18  C   UNL A   1      43.527  22.851  28.174  1.00  0.00     0.061 A 
ATOM     19  C   UNL A   1      44.729  25.383  28.115  1.00  0.00     0.004 A 
ATOM     20  C   UNL A   1      43.543  23.657  29.306  1.00  0.00     0.124 A 
ATOM     21  C   UNL A   1      44.129  24.920  29.285  1.00  0.00     0.039 A 
ATOM     22  F   UNL A   1      42.998  23.207  30.443  1.00  0.00    -0.207 F 
ENDBRANCH  13  16
ENDBRANCH  11  13
ENDBRANCH   7  11
ENDBRANCH   4   7
ENDBRANCH   2   3
ENDBRANCH   1   2
BRANCH   1  23
ATOM     23  C   UNL A   1      39.632  22.078  26.690  1.00  0.00     0.023 C 
BRANCH  23  24
ATOM     24  C   UNL A   1      40.016  23.508  27.047  1.00  0.00     0.116 C 
BRANCH  24  25
ATOM     25  N   UNL A   1      40.808  24.159  26.015  1.00  0.00    -0.352 N 
ATOM     26  C   UNL A   1      41.340  25.425  25.994  1.00  0.00     0.251 C 
ATOM     27  H   UNL A   1      40.988  23.614  25.216  1.00  0.00     0.163 HD
ATOM     28  O   UNL A   1      41.863  25.846  24.967  1.00  0.00    -0.269 OA
BRANCH  26  29
ATOM     29  C   UNL A   1      41.257  26.284  27.197  1.00  0.00     0.039 A 
ATOM     30  C   UNL A   1      41.959  27.491  27.214  1.00  0.00     0.014 A 
ATOM     31  C   UNL A   1      40.497  25.899  28.305  1.00  0.00     0.014 A 
ATOM     32  C   UNL A   1      41.857  28.334  28.322  1.00  0.00     0.010 A 
ATOM     33  C   UNL A   1      40.325  26.781  29.368  1.00  0.00     0.010 A 
ATOM     34  C   UNL A   1      41.019  27.997  29.399  1.00  0.00    -0.014 A 
BRANCH  34  35
ATOM     35  C   UNL A   1      40.899  28.886  30.584  1.00  0.00     0.031 A 
ATOM     36  C   UNL A   1      39.823  29.940  30.624  1.00  0.00     0.074 A 
ATOM     37  C   UNL A   1      41.769  28.766  31.607  1.00  0.00     0.049 A 
ATOM     38  N   UNL A   1      39.571  30.827  31.553  1.00  0.00    -0.248 NA
ATOM     39  C   UNL A   1      38.931  30.030  29.456  1.00  0.00     0.031 C 
ATOM     40  C   UNL A   1      42.883  27.818  31.664  1.00  0.00     0.029 A 
ATOM     41  N   UNL A   1      41.850  29.443  32.799  1.00  0.00    -0.354 N 
ATOM     42  C   UNL A   1      38.503  31.580  31.078  1.00  0.00     0.074 A 
ATOM     43  C   UNL A   1      38.197  31.093  29.752  1.00  0.00     0.031 C 
ATOM     44  C   UNL A   1      43.511  27.947  32.844  1.00  0.00     0.029 A 
ATOM     45  C   UNL A   1      42.867  29.005  33.616  1.00  0.00     0.049 A 
ATOM     46  H   UNL A   1      41.238  30.173  33.046  1.00  0.00     0.167 HD
ATOM     47  C   UNL A   1      37.816  32.565  31.702  1.00  0.00     0.037 A 
ATOM     48  C   UNL A   1      43.232  29.406  34.850  1.00  0.00     0.037 A 
ATOM     49  C   UNL A   1      38.100  33.020  33.038  1.00  0.00     0.049 A 
ATOM     50  C   UNL A   1      42.437  30.486  35.534  1.00  0.00     0.074 A 
ATOM     51  C   UNL A   1      37.438  33.985  33.777  1.00  0.00     0.029 A 
ATOM     52  N   UNL A   1      39.120  32.531  33.842  1.00  0.00    -0.354 N 
ATOM     53  N   UNL A   1      41.406  31.160  35.084  1.00  0.00    -0.248 NA
ATOM     54  C   UNL A   1      42.844  30.849  36.898  1.00  0.00     0.031 C 
ATOM     55  C   UNL A   1      38.078  34.105  35.012  1.00  0.00     0.029 A 
ATOM     56  C   UNL A   1      39.106  33.177  35.065  1.00  0.00     0.049 A 
ATOM     57  H   UNL A   1      39.758  31.829  33.579  1.00  0.00     0.167 HD
ATOM     58  C   UNL A   1      41.017  32.000  36.122  1.00  0.00     0.074 A 
ATOM     59  C   UNL A   1      41.921  31.744  37.225  1.00  0.00     0.031 C 
ATOM     60  C   UNL A   1      40.002  32.897  36.161  1.00  0.00     0.037 A 
BRANCH  47  61
ATOM     61  C   UNL A   1      36.670  33.201  30.964  1.00  0.00     0.058 A 
ATOM     62  C   UNL A   1      36.907  34.118  29.928  1.00  0.00     0.135 A 
ATOM     63  C   UNL A   1      35.336  32.950  31.324  1.00  0.00     0.135 A 
ATOM     64  F   UNL A   1      38.162  34.388  29.536  1.00  0.00    -0.206 F 
ATOM     65  C   UNL A   1      35.863  34.778  29.288  1.00  0.00     0.059 A 
ATOM     66  C   UNL A   1      34.275  33.577  30.678  1.00  0.00     0.059 A 
ATOM     67  F   UNL A   1      35.052  32.062  32.290  1.00  0.00    -0.206 F 
ATOM     68  C   UNL A   1      34.550  34.503  29.673  1.00  0.00     0.060 A 
BRANCH  68  69
ATOM     69  S   UNL A   1      33.205  35.353  28.819  1.00  0.00     0.124 S 
ATOM     70  O   UNL A   1      32.633  34.279  28.017  1.00  0.00    -0.237 OA
ATOM     71  O   UNL A   1      32.386  35.824  29.932  1.00  0.00    -0.237 OA
ATOM     72  O   UNL A   1      33.891  36.403  28.071  1.00  0.00    -0.744 OA
ENDBRANCH  68  69
ENDBRANCH  47  61
BRANCH  48  73
ATOM     73  C   UNL A   1      44.370  28.739  35.538  1.00  0.00     0.058 A 
ATOM     74  C   UNL A   1      44.169  27.636  36.382  1.00  0.00     0.135 A 
ATOM     75  C   UNL A   1      45.683  29.211  35.384  1.00  0.00     0.135 A 
ATOM     76  F   UNL A   1      42.930  27.154  36.575  1.00  0.00    -0.206 F 
ATOM     77  C   UNL A   1      45.223  27.038  37.062  1.00  0.00     0.059 A 
ATOM     78  C   UNL A   1      46.759  28.612  36.033  1.00  0.00     0.059 A 
ATOM     79  F   UNL A   1      45.928  30.257  34.580  1.00  0.00    -0.206 F 
ATOM     80  C   UNL A   1      46.515  27.534  36.883  1.00  0.00     0.060 A 
BRANCH  80  81
ATOM     81  S   UNL A   1      47.870  26.744  37.779  1.00  0.00     0.124 S 
ATOM     82  O   UNL A   1      47.156  26.111  38.884  1.00  0.00    -0.237 OA
ATOM     83  O   UNL A   1      48.413  25.838  36.773  1.00  0.00    -0.237 OA
ATOM     84  O   UNL A   1      48.731  27.863  38.145  1.00  0.00    -0.744 OA
ENDBRANCH  80  81
ENDBRANCH  48  73
BRANCH  60  85
ATOM     85  C   UNL A   1      39.770  33.636  37.449  1.00  0.00     0.058 A 
ATOM     86  C   UNL A   1      38.793  33.188  38.353  1.00  0.00     0.135 A 
ATOM     87  C   UNL A   1      40.463  34.815  37.764  1.00  0.00     0.135 A 
ATOM     88  F   UNL A   1      38.093  32.070  38.096  1.00  0.00    -0.206 F 
ATOM     89  C   UNL A   1      38.504  33.887  39.519  1.00  0.00     0.059 A 
ATOM     90  C   UNL A   1      40.211  35.515  38.940  1.00  0.00     0.059 A 
ATOM     91  F   UNL A   1      41.411  35.283  36.937  1.00  0.00    -0.206 F 
ATOM     92  C   UNL A   1      39.221  35.049  39.805  1.00  0.00     0.060 A 
BRANCH  92  93
ATOM     93  S   UNL A   1      38.862  35.922  41.344  1.00  0.00     0.124 S 
ATOM     94  O   UNL A   1      40.046  35.621  42.142  1.00  0.00    -0.237 OA
ATOM     95  O   UNL A   1      38.733  37.305  40.894  1.00  0.00    -0.237 OA
ATOM     96  O   UNL A   1      37.621  35.303  41.803  1.00  0.00    -0.744 OA
ENDBRANCH  92  93
ENDBRANCH  60  85
ENDBRANCH  34  35
ENDBRANCH  26  29
ENDBRANCH  24  25
ENDBRANCH  23  24
ENDBRANCH   1  23
TORSDOF 18
ENDMDL
MODEL 3
REMARK VINA RESULT:     -10.5      3.468      5.486
REMARK SMILES CC(C)[C@H](NS(=O)(=O)c1cccc(F)c1)C(=O)NCCCCNC(=O)c1ccc(-c2c3nc(c(-c4c(F)cc(S(=O)(=O)[O-])cc4F)c4ccc([nH]4)c(-c4c(F)cc(S(=O)(=O)[O-])cc4F)c4nc(c(-c5c(F)cc(S(=O)(=O)[O-])cc5F)c5ccc2[nH]5)C=C4)C=C3)cc1
REMARK SMILES IDX 20 1 19 2 18 3 16 4 17 5 4 7 2 8 1 9 3 10 5 11 6 13 7 14
REMARK SMILES IDX 8 15 9 16 10 17 15 18 11 19 13 20 12 21 14 22 21 23 22 24
REMARK SMILES IDX 23 25 24 26 25 28 26 29 27 30 91 31 28 32 90 33 29 34 30 35
REMARK SMILES IDX 31 36 84 37 32 38 89 39 83 40 85 41 33 42 88 43 82 44 81 45
REMARK SMILES IDX 34 47 68 48 47 49 67 50 48 51 51 52 66 53 86 54 49 55 50 56
REMARK SMILES IDX 65 58 87 59 52 60 35 61 36 62 45 63 37 64 38 65 44 66 46 67
REMARK SMILES IDX 39 68 40 69 41 70 42 71 43 72 69 73 70 74 79 75 71 76 72 77
REMARK SMILES IDX 78 78 80 79 73 80 74 81 75 82 76 83 77 84 53 85 54 86 63 87
REMARK SMILES IDX 55 88 56 89 62 90 64 91 57 92 58 93 59 94 60 95 61 96
REMARK H PARENT 18 6 5 12 23 27 85 46 51 57
REMARK Flexibility Score: inf
ROOT
ATOM      1  C   UNL A   1      37.707  23.988  26.116  1.00  0.00     0.023 C 
ENDROOT
BRANCH   1   2
ATOM      2  C   UNL A   1      36.305  23.511  25.758  1.00  0.00     0.116 C 
BRANCH   2   3
ATOM      3  N   UNL A   1      35.613  22.925  26.883  1.00  0.00    -0.355 N 
ATOM      4  C   UNL A   1      34.384  22.340  26.948  1.00  0.00     0.238 C 
ATOM      5  O   UNL A   1      34.055  21.828  28.023  1.00  0.00    -0.273 OA
ATOM      6  H   UNL A   1      36.106  22.951  27.736  1.00  0.00     0.163 HD
BRANCH   4   7
ATOM      7  C   UNL A   1      33.412  22.338  25.757  1.00  0.00     0.161 C 
BRANCH   7   8
ATOM      8  C   UNL A   1      33.729  21.404  24.559  1.00  0.00     0.010 C 
ATOM      9  C   UNL A   1      34.715  20.254  24.790  1.00  0.00     0.009 C 
ATOM     10  C   UNL A   1      32.469  20.877  23.864  1.00  0.00     0.009 C 
ENDBRANCH   7   8
BRANCH   7  11
ATOM     11  N   UNL A   1      33.117  23.723  25.354  1.00  0.00    -0.198 NA
ATOM     12  H   UNL A   1      33.008  23.710  24.340  1.00  0.00     0.142 HD
BRANCH  11  13
ATOM     13  S   UNL A   1      31.797  24.544  25.957  1.00  0.00     0.241 S 
ATOM     14  O   UNL A   1      30.825  24.556  24.890  1.00  0.00    -0.207 OA
ATOM     15  O   UNL A   1      31.485  23.998  27.261  1.00  0.00    -0.207 OA
BRANCH  13  16
ATOM     16  C   UNL A   1      32.375  26.208  26.181  1.00  0.00     0.085 A 
ATOM     17  C   UNL A   1      33.695  26.538  25.847  1.00  0.00     0.022 A 
ATOM     18  C   UNL A   1      31.540  27.155  26.779  1.00  0.00     0.061 A 
ATOM     19  C   UNL A   1      34.162  27.835  26.059  1.00  0.00     0.004 A 
ATOM     20  C   UNL A   1      32.030  28.435  27.005  1.00  0.00     0.124 A 
ATOM     21  C   UNL A   1      33.328  28.786  26.643  1.00  0.00     0.039 A 
ATOM     22  F   UNL A   1      31.246  29.346  27.596  1.00  0.00    -0.207 F 
ENDBRANCH  13  16
ENDBRANCH  11  13
ENDBRANCH   7  11
ENDBRANCH   4   7
ENDBRANCH   2   3
ENDBRANCH   1   2
BRANCH   1  23
ATOM     23  C   UNL A   1      38.715  22.878  26.406  1.00  0.00     0.023 C 
BRANCH  23  24
ATOM     24  C   UNL A   1      40.030  23.334  27.026  1.00  0.00     0.116 C 
BRANCH  24  25
ATOM     25  N   UNL A   1      40.923  23.964  26.067  1.00  0.00    -0.352 N 
ATOM     26  C   UNL A   1      41.467  25.225  26.080  1.00  0.00     0.251 C 
ATOM     27  H   UNL A   1      41.174  23.406  25.296  1.00  0.00     0.163 HD
ATOM     28  O   UNL A   1      42.091  25.628  25.104  1.00  0.00    -0.269 OA
BRANCH  26  29
ATOM     29  C   UNL A   1      41.277  26.101  27.258  1.00  0.00     0.039 A 
ATOM     30  C   UNL A   1      42.132  27.191  27.433  1.00  0.00     0.014 A 
ATOM     31  C   UNL A   1      40.265  25.847  28.189  1.00  0.00     0.014 A 
ATOM     32  C   UNL A   1      41.939  28.054  28.515  1.00  0.00     0.010 A 
ATOM     33  C   UNL A   1      40.020  26.758  29.212  1.00  0.00     0.010 A 
ATOM     34  C   UNL A   1      40.866  27.858  29.400  1.00  0.00    -0.014 A 
BRANCH  34  35
ATOM     35  C   UNL A   1      40.647  28.769  30.553  1.00  0.00     0.031 A 
ATOM     36  C   UNL A   1      41.512  28.646  31.781  1.00  0.00     0.074 A 
ATOM     37  C   UNL A   1      39.659  29.685  30.509  1.00  0.00     0.049 A 
ATOM     38  N   UNL A   1      41.461  29.327  32.897  1.00  0.00    -0.248 NA
ATOM     39  C   UNL A   1      42.551  27.603  31.766  1.00  0.00     0.031 C 
ATOM     40  C   UNL A   1      38.723  29.868  29.398  1.00  0.00     0.029 A 
ATOM     41  N   UNL A   1      39.278  30.637  31.423  1.00  0.00    -0.354 N 
ATOM     42  C   UNL A   1      42.450  28.790  33.714  1.00  0.00     0.074 A 
ATOM     43  C   UNL A   1      43.040  27.684  32.994  1.00  0.00     0.031 C 
ATOM     44  C   UNL A   1      37.903  30.895  29.678  1.00  0.00     0.029 A 
ATOM     45  C   UNL A   1      38.231  31.423  30.998  1.00  0.00     0.049 A 
ATOM     46  H   UNL A   1      39.711  30.747  32.299  1.00  0.00     0.167 HD
ATOM     47  C   UNL A   1      42.856  29.202  34.937  1.00  0.00     0.037 A 
ATOM     48  C   UNL A   1      37.613  32.458  31.601  1.00  0.00     0.037 A 
ATOM     49  C   UNL A   1      42.292  30.329  35.634  1.00  0.00     0.049 A 
ATOM     50  C   UNL A   1      38.097  32.913  32.952  1.00  0.00     0.074 A 
ATOM     51  C   UNL A   1      42.658  30.853  36.861  1.00  0.00     0.029 A 
ATOM     52  N   UNL A   1      41.253  31.116  35.156  1.00  0.00    -0.354 N 
ATOM     53  N   UNL A   1      39.060  32.417  33.692  1.00  0.00    -0.248 NA
ATOM     54  C   UNL A   1      37.425  34.078  33.542  1.00  0.00     0.031 C 
ATOM     55  C   UNL A   1      41.818  31.933  37.143  1.00  0.00     0.029 A 
ATOM     56  C   UNL A   1      40.964  32.117  36.067  1.00  0.00     0.049 A 
ATOM     57  H   UNL A   1      40.791  30.981  34.298  1.00  0.00     0.167 HD
ATOM     58  C   UNL A   1      39.134  33.231  34.818  1.00  0.00     0.074 A 
ATOM     59  C   UNL A   1      38.122  34.255  34.657  1.00  0.00     0.031 C 
ATOM     60  C   UNL A   1      39.966  33.141  35.884  1.00  0.00     0.037 A 
BRANCH  47  61
ATOM     61  C   UNL A   1      43.982  28.453  35.595  1.00  0.00     0.058 A 
ATOM     62  C   UNL A   1      43.717  27.414  36.502  1.00  0.00     0.135 A 
ATOM     63  C   UNL A   1      45.324  28.804  35.376  1.00  0.00     0.135 A 
ATOM     64  F   UNL A   1      42.454  27.030  36.742  1.00  0.00    -0.206 F 
ATOM     65  C   UNL A   1      44.742  26.764  37.182  1.00  0.00     0.059 A 
ATOM     66  C   UNL A   1      46.366  28.148  36.023  1.00  0.00     0.059 A 
ATOM     67  F   UNL A   1      45.634  29.772  34.499  1.00  0.00    -0.206 F 
ATOM     68  C   UNL A   1      46.064  27.140  36.938  1.00  0.00     0.060 A 
BRANCH  68  69
ATOM     69  S   UNL A   1      47.382  26.272  37.814  1.00  0.00     0.124 S 
ATOM     70  O   UNL A   1      46.652  25.186  38.455  1.00  0.00    -0.237 OA
ATOM     71  O   UNL A   1      48.271  25.886  36.722  1.00  0.00    -0.237 OA
ATOM     72  O   UNL A   1      47.918  27.291  38.713  1.00  0.00    -0.744 OA
ENDBRANCH  68  69
ENDBRANCH  47  61
BRANCH  48  73
ATOM     73  C   UNL A   1      36.508  33.168  30.904  1.00  0.00     0.058 A 
ATOM     74  C   UNL A   1      36.761  34.049  29.841  1.00  0.00     0.135 A 
ATOM     75  C   UNL A   1      35.174  32.999  31.307  1.00  0.00     0.135 A 
ATOM     76  F   UNL A   1      38.021  34.258  29.426  1.00  0.00    -0.206 F 
ATOM     77  C   UNL A   1      35.736  34.749  29.216  1.00  0.00     0.059 A 
ATOM     78  C   UNL A   1      34.127  33.668  30.678  1.00  0.00     0.059 A 
ATOM     79  F   UNL A   1      34.880  32.160  32.311  1.00  0.00    -0.206 F 
ATOM     80  C   UNL A   1      34.421  34.554  29.643  1.00  0.00     0.060 A 
BRANCH  80  81
ATOM     81  S   UNL A   1      33.105  35.476  28.819  1.00  0.00     0.124 S 
ATOM     82  O   UNL A   1      33.873  36.429  28.023  1.00  0.00    -0.237 OA
ATOM     83  O   UNL A   1      32.422  34.428  28.068  1.00  0.00    -0.237 OA
ATOM     84  O   UNL A   1      32.348  36.047  29.926  1.00  0.00    -0.744 OA
ENDBRANCH  80  81
ENDBRANCH  48  73
BRANCH  60  85
ATOM     85  C   UNL A   1      39.863  34.204  36.942  1.00  0.00     0.058 A 
ATOM     86  C   UNL A   1      39.117  33.967  38.108  1.00  0.00     0.135 A 
ATOM     87  C   UNL A   1      40.444  35.471  36.781  1.00  0.00     0.135 A 
ATOM     88  F   UNL A   1      38.532  32.774  38.308  1.00  0.00    -0.206 F 
ATOM     89  C   UNL A   1      38.943  34.951  39.074  1.00  0.00     0.059 A 
ATOM     90  C   UNL A   1      40.307  36.462  37.749  1.00  0.00     0.059 A 
ATOM     91  F   UNL A   1      41.171  35.747  35.687  1.00  0.00    -0.206 F 
ATOM     92  C   UNL A   1      39.544  36.196  38.886  1.00  0.00     0.060 A 
BRANCH  92  93
ATOM     93  S   UNL A   1      39.342  37.450  40.170  1.00  0.00     0.124 S 
ATOM     94  O   UNL A   1      38.804  36.663  41.274  1.00  0.00    -0.237 OA
ATOM     95  O   UNL A   1      40.706  37.939  40.343  1.00  0.00    -0.237 OA
ATOM     96  O   UNL A   1      38.414  38.404  39.568  1.00  0.00    -0.744 OA
ENDBRANCH  92  93
ENDBRANCH  60  85
ENDBRANCH  34  35
ENDBRANCH  26  29
ENDBRANCH  24  25
ENDBRANCH  23  24
ENDBRANCH   1  23
TORSDOF 18
ENDMDL
