MODEL 1
REMARK VINA RESULT:     -12.5      0.000      0.000
REMARK SMILES O=C(NCCCCNC(=O)[C@@H]1[C@H](C(=O)Nc2ccccc2OC(F)F)[C@@H]2C=C[C@H]1C2)c1ccc(-c2c3nc(c(-c4c(F)cc(S(=O)(=O)[O-])cc4F)c4ccc([nH]4)c(-c4c(F)cc(S(=O)(=O)[O-])cc4F)c4nc(c(-c5c(F)cc(S(=O)(=O)[O-])cc5F)c5ccc2[nH]5)C=C4)C=C3)cc1
REMARK SMILES IDX 6 1 5 2 4 3 3 4 1 5 2 6 31 8 32 9 96 10 33 11 95 12 34 13
REMARK SMILES IDX 35 14 36 15 89 16 37 17 94 18 88 19 90 20 38 21 93 22 87 23
REMARK SMILES IDX 86 24 39 26 73 27 52 28 72 29 53 30 56 31 71 32 91 33 54 34
REMARK SMILES IDX 55 35 70 37 92 38 57 39 40 40 41 41 50 42 42 43 43 44 49 45
REMARK SMILES IDX 51 46 44 47 45 48 46 49 47 50 48 51 74 52 75 53 84 54 76 55
REMARK SMILES IDX 77 56 83 57 85 58 78 59 79 60 80 61 81 62 82 63 58 64 59 65
REMARK SMILES IDX 68 66 60 67 61 68 67 69 69 70 62 71 63 72 64 73 65 74 66 75
REMARK SMILES IDX 7 76 8 77 9 78 10 80 11 81 12 82 29 83 26 84 28 85 30 86
REMARK SMILES IDX 27 87 13 88 14 89 15 90 16 92 17 93 21 94 18 95 20 96 19 97
REMARK SMILES IDX 22 98 23 99 24 100 25 101
REMARK H PARENT 3 7 90 25 56 36 8 79 15 91
REMARK Flexibility Score: inf
ROOT
ATOM      1  C   UNL A   1      31.393  27.886  26.020  1.00  0.00     0.023 C 
ENDROOT
BRANCH   1   2
ATOM      2  C   UNL A   1      32.326  27.817  27.229  1.00  0.00     0.023 C 
BRANCH   2   3
ATOM      3  C   UNL A   1      33.657  28.538  27.109  1.00  0.00     0.116 C 
BRANCH   3   4
ATOM      4  N   UNL A   1      33.601  29.910  27.578  1.00  0.00    -0.352 N 
ATOM      5  O   UNL A   1      34.270  31.736  28.712  1.00  0.00    -0.269 OA
ATOM      6  C   UNL A   1      34.563  30.637  28.235  1.00  0.00     0.251 C 
ATOM      7  H   UNL A   1      32.758  30.384  27.401  1.00  0.00     0.163 HD
BRANCH   6   8
ATOM      8  C   UNL A   1      35.940  30.111  28.378  1.00  0.00     0.039 A 
ATOM      9  C   UNL A   1      36.861  30.222  27.332  1.00  0.00     0.014 A 
ATOM     10  C   UNL A   1      36.336  29.543  29.594  1.00  0.00     0.014 A 
ATOM     11  C   UNL A   1      38.134  29.676  27.460  1.00  0.00     0.010 A 
ATOM     12  C   UNL A   1      37.646  29.078  29.755  1.00  0.00     0.010 A 
ATOM     13  C   UNL A   1      38.556  29.144  28.688  1.00  0.00    -0.014 A 
BRANCH  13  14
ATOM     14  C   UNL A   1      39.993  28.821  28.881  1.00  0.00     0.031 A 
ATOM     15  C   UNL A   1      40.569  27.499  28.467  1.00  0.00     0.074 A 
ATOM     16  C   UNL A   1      40.771  29.758  29.462  1.00  0.00     0.049 A 
ATOM     17  N   UNL A   1      41.794  27.061  28.608  1.00  0.00    -0.248 NA
ATOM     18  C   UNL A   1      39.662  26.539  27.817  1.00  0.00     0.031 C 
ATOM     19  C   UNL A   1      40.303  31.070  29.927  1.00  0.00     0.029 A 
ATOM     20  N   UNL A   1      42.108  29.763  29.770  1.00  0.00    -0.354 N 
ATOM     21  C   UNL A   1      41.804  25.770  28.092  1.00  0.00     0.074 A 
ATOM     22  C   UNL A   1      40.459  25.491  27.635  1.00  0.00     0.031 C 
ATOM     23  C   UNL A   1      41.335  31.756  30.434  1.00  0.00     0.029 A 
ATOM     24  C   UNL A   1      42.519  30.910  30.408  1.00  0.00     0.049 A 
ATOM     25  H   UNL A   1      42.714  29.019  29.554  1.00  0.00     0.167 HD
ATOM     26  C   UNL A   1      42.844  24.906  28.016  1.00  0.00     0.037 A 
ATOM     27  C   UNL A   1      43.704  31.233  30.958  1.00  0.00     0.037 A 
ATOM     28  C   UNL A   1      44.181  25.215  28.459  1.00  0.00     0.049 A 
ATOM     29  C   UNL A   1      44.826  30.237  30.885  1.00  0.00     0.074 A 
ATOM     30  C   UNL A   1      45.321  24.438  28.348  1.00  0.00     0.029 A 
ATOM     31  N   UNL A   1      44.556  26.380  29.114  1.00  0.00    -0.354 N 
ATOM     32  N   UNL A   1      44.837  29.056  30.315  1.00  0.00    -0.248 NA
ATOM     33  C   UNL A   1      46.089  30.608  31.534  1.00  0.00     0.031 C 
ATOM     34  C   UNL A   1      46.368  25.101  28.996  1.00  0.00     0.029 A 
ATOM     35  C   UNL A   1      45.896  26.319  29.458  1.00  0.00     0.049 A 
ATOM     36  H   UNL A   1      43.957  27.137  29.307  1.00  0.00     0.167 HD
ATOM     37  C   UNL A   1      46.109  28.544  30.534  1.00  0.00     0.074 A 
ATOM     38  C   UNL A   1      46.850  29.558  31.256  1.00  0.00     0.031 C 
ATOM     39  C   UNL A   1      46.616  27.339  30.179  1.00  0.00     0.037 A 
BRANCH  26  40
ATOM     40  C   UNL A   1      42.603  23.530  27.456  1.00  0.00     0.058 A 
ATOM     41  C   UNL A   1      42.786  23.238  26.097  1.00  0.00     0.135 A 
ATOM     42  C   UNL A   1      42.307  22.462  28.321  1.00  0.00     0.135 A 
ATOM     43  F   UNL A   1      43.057  24.220  25.224  1.00  0.00    -0.206 F 
ATOM     44  C   UNL A   1      42.689  21.935  25.614  1.00  0.00     0.059 A 
ATOM     45  C   UNL A   1      42.227  21.149  27.865  1.00  0.00     0.059 A 
ATOM     46  F   UNL A   1      42.120  22.687  29.631  1.00  0.00    -0.206 F 
ATOM     47  C   UNL A   1      42.420  20.896  26.508  1.00  0.00     0.060 A 
BRANCH  47  48
ATOM     48  S   UNL A   1      42.361  19.206  25.874  1.00  0.00     0.124 S 
ATOM     49  O   UNL A   1      43.200  19.311  24.684  1.00  0.00    -0.237 OA
ATOM     50  O   UNL A   1      42.926  18.440  26.980  1.00  0.00    -0.237 OA
ATOM     51  O   UNL A   1      40.941  18.984  25.621  1.00  0.00    -0.744 OA
ENDBRANCH  47  48
ENDBRANCH  26  40
BRANCH  27  52
ATOM     52  C   UNL A   1      43.867  32.522  31.683  1.00  0.00     0.058 A 
ATOM     53  C   UNL A   1      43.561  32.638  33.046  1.00  0.00     0.135 A 
ATOM     54  C   UNL A   1      44.322  33.673  31.017  1.00  0.00     0.135 A 
ATOM     55  F   UNL A   1      43.121  31.568  33.727  1.00  0.00    -0.206 F 
ATOM     56  C   UNL A   1      43.666  33.853  33.715  1.00  0.00     0.059 A 
ATOM     57  C   UNL A   1      44.470  34.889  31.671  1.00  0.00     0.059 A 
ATOM     58  F   UNL A   1      44.648  33.614  29.715  1.00  0.00    -0.206 F 
ATOM     59  C   UNL A   1      44.118  34.975  33.016  1.00  0.00     0.060 A 
BRANCH  59  60
ATOM     60  S   UNL A   1      44.253  36.547  33.893  1.00  0.00     0.124 S 
ATOM     61  O   UNL A   1      45.047  36.165  35.055  1.00  0.00    -0.237 OA
ATOM     62  O   UNL A   1      44.925  37.390  32.909  1.00  0.00    -0.237 OA
ATOM     63  O   UNL A   1      42.863  36.900  34.165  1.00  0.00    -0.744 OA
ENDBRANCH  59  60
ENDBRANCH  27  52
BRANCH  39  64
ATOM     64  C   UNL A   1      48.040  27.053  30.563  1.00  0.00     0.058 A 
ATOM     65  C   UNL A   1      48.351  26.305  31.709  1.00  0.00     0.135 A 
ATOM     66  C   UNL A   1      49.100  27.479  29.747  1.00  0.00     0.135 A 
ATOM     67  F   UNL A   1      47.375  25.889  32.530  1.00  0.00    -0.206 F 
ATOM     68  C   UNL A   1      49.667  26.000  32.041  1.00  0.00     0.059 A 
ATOM     69  C   UNL A   1      50.420  27.158  30.042  1.00  0.00     0.059 A 
ATOM     70  F   UNL A   1      48.855  28.193  28.636  1.00  0.00    -0.206 F 
ATOM     71  C   UNL A   1      50.694  26.425  31.195  1.00  0.00     0.060 A 
BRANCH  71  72
ATOM     72  S   UNL A   1      52.391  25.970  31.609  1.00  0.00     0.124 S 
ATOM     73  O   UNL A   1      52.763  27.032  32.539  1.00  0.00    -0.237 OA
ATOM     74  O   UNL A   1      52.224  24.643  32.194  1.00  0.00    -0.237 OA
ATOM     75  O   UNL A   1      53.076  25.999  30.319  1.00  0.00    -0.744 OA
ENDBRANCH  71  72
ENDBRANCH  39  64
ENDBRANCH  13  14
ENDBRANCH   6   8
ENDBRANCH   3   4
ENDBRANCH   2   3
ENDBRANCH   1   2
BRANCH   1  76
ATOM     76  C   UNL A   1      30.969  26.559  25.399  1.00  0.00     0.116 C 
BRANCH  76  77
ATOM     77  N   UNL A   1      30.861  25.446  26.329  1.00  0.00    -0.356 N 
ATOM     78  C   UNL A   1      31.686  24.360  26.481  1.00  0.00     0.224 C 
ATOM     79  H   UNL A   1      30.087  25.477  26.938  1.00  0.00     0.163 HD
ATOM     80  O   UNL A   1      31.743  23.839  27.598  1.00  0.00    -0.275 OA
BRANCH  78  81
ATOM     81  C   UNL A   1      32.595  23.931  25.354  1.00  0.00     0.098 C 
ATOM     82  C   UNL A   1      33.272  22.543  25.169  1.00  0.00     0.099 C 
ATOM     83  C   UNL A   1      33.752  24.917  25.025  1.00  0.00     0.025 C 
ATOM     84  C   UNL A   1      34.639  22.929  24.500  1.00  0.00     0.025 C 
ATOM     85  C   UNL A   1      34.974  24.713  25.890  1.00  0.00    -0.027 C 
ATOM     86  C   UNL A   1      34.288  24.228  23.757  1.00  0.00     0.017 C 
ATOM     87  C   UNL A   1      35.538  23.553  25.529  1.00  0.00    -0.027 C 
BRANCH  82  88
ATOM     88  C   UNL A   1      33.421  21.323  26.104  1.00  0.00     0.229 C 
ATOM     89  O   UNL A   1      33.733  21.568  27.285  1.00  0.00    -0.274 OA
ATOM     90  N   UNL A   1      33.004  20.044  25.889  1.00  0.00    -0.323 N 
ATOM     91  H   UNL A   1      32.816  19.553  26.722  1.00  0.00     0.170 HD
BRANCH  90  92
ATOM     92  C   UNL A   1      32.787  19.275  24.740  1.00  0.00     0.084 A 
ATOM     93  C   UNL A   1      32.308  19.927  23.596  1.00  0.00     0.030 A 
ATOM     94  C   UNL A   1      32.958  17.897  24.685  1.00  0.00     0.149 A 
ATOM     95  C   UNL A   1      32.245  19.250  22.373  1.00  0.00     0.002 A 
ATOM     96  C   UNL A   1      32.972  17.231  23.457  1.00  0.00     0.049 A 
ATOM     97  C   UNL A   1      32.637  17.915  22.293  1.00  0.00     0.004 A 
BRANCH  94  98
ATOM     98  O   UNL A   1      33.028  17.103  25.785  1.00  0.00    -0.433 OA
BRANCH  98  99
ATOM     99  C   UNL A   1      32.875  15.710  25.534  1.00  0.00     0.542 C 
ATOM    100  F   UNL A   1      34.086  15.112  25.583  1.00  0.00    -0.167 F 
ATOM    101  F   UNL A   1      32.076  15.116  26.450  1.00  0.00    -0.167 F 
ENDBRANCH  98  99
ENDBRANCH  94  98
ENDBRANCH  90  92
ENDBRANCH  82  88
ENDBRANCH  78  81
ENDBRANCH  76  77
ENDBRANCH   1  76
TORSDOF 18
ENDMDL
MODEL 2
REMARK VINA RESULT:     -12.1      3.915      9.449
REMARK SMILES O=C(NCCCCNC(=O)[C@@H]1[C@H](C(=O)Nc2ccccc2OC(F)F)[C@@H]2C=C[C@H]1C2)c1ccc(-c2c3nc(c(-c4c(F)cc(S(=O)(=O)[O-])cc4F)c4ccc([nH]4)c(-c4c(F)cc(S(=O)(=O)[O-])cc4F)c4nc(c(-c5c(F)cc(S(=O)(=O)[O-])cc5F)c5ccc2[nH]5)C=C4)C=C3)cc1
REMARK SMILES IDX 6 1 5 2 4 3 3 4 1 5 2 6 31 8 32 9 96 10 33 11 95 12 34 13
REMARK SMILES IDX 35 14 36 15 89 16 37 17 94 18 88 19 90 20 38 21 93 22 87 23
REMARK SMILES IDX 86 24 39 26 73 27 52 28 72 29 53 30 56 31 71 32 91 33 54 34
REMARK SMILES IDX 55 35 70 37 92 38 57 39 40 40 41 41 50 42 42 43 43 44 49 45
REMARK SMILES IDX 51 46 44 47 45 48 46 49 47 50 48 51 74 52 75 53 84 54 76 55
REMARK SMILES IDX 77 56 83 57 85 58 78 59 79 60 80 61 81 62 82 63 58 64 59 65
REMARK SMILES IDX 68 66 60 67 61 68 67 69 69 70 62 71 63 72 64 73 65 74 66 75
REMARK SMILES IDX 7 76 8 77 9 78 10 80 11 81 12 82 29 83 26 84 28 85 30 86
REMARK SMILES IDX 27 87 13 88 14 89 15 90 16 92 17 93 21 94 18 95 20 96 19 97
REMARK SMILES IDX 22 98 23 99 24 100 25 101
REMARK H PARENT 3 7 90 25 56 36 8 79 15 91
REMARK Flexibility Score: inf
ROOT
ATOM      1  C   UNL A   1      36.800  21.114  24.848  1.00  0.00     0.023 C 
ENDROOT
BRANCH   1   2
ATOM      2  C   UNL A   1      38.050  20.237  24.785  1.00  0.00     0.023 C 
BRANCH   2   3
ATOM      3  C   UNL A   1      39.149  20.538  25.789  1.00  0.00     0.116 C 
BRANCH   3   4
ATOM      4  N   UNL A   1      40.089  19.443  25.944  1.00  0.00    -0.352 N 
ATOM      5  O   UNL A   1      42.106  18.455  26.094  1.00  0.00    -0.269 OA
ATOM      6  C   UNL A   1      41.443  19.492  26.166  1.00  0.00     0.251 C 
ATOM      7  H   UNL A   1      39.701  18.541  25.882  1.00  0.00     0.163 HD
BRANCH   6   8
ATOM      8  C   UNL A   1      42.109  20.776  26.482  1.00  0.00     0.039 A 
ATOM      9  C   UNL A   1      42.563  21.617  25.462  1.00  0.00     0.014 A 
ATOM     10  C   UNL A   1      42.236  21.174  27.818  1.00  0.00     0.014 A 
ATOM     11  C   UNL A   1      43.234  22.795  25.773  1.00  0.00     0.010 A 
ATOM     12  C   UNL A   1      42.828  22.404  28.127  1.00  0.00     0.010 A 
ATOM     13  C   UNL A   1      43.330  23.225  27.106  1.00  0.00    -0.014 A 
BRANCH  13  14
ATOM     14  C   UNL A   1      43.802  24.604  27.388  1.00  0.00     0.031 A 
ATOM     15  C   UNL A   1      42.858  25.691  27.817  1.00  0.00     0.074 A 
ATOM     16  C   UNL A   1      45.118  24.860  27.231  1.00  0.00     0.049 A 
ATOM     17  N   UNL A   1      43.119  26.950  28.060  1.00  0.00    -0.248 NA
ATOM     18  C   UNL A   1      41.443  25.328  27.991  1.00  0.00     0.031 C 
ATOM     19  C   UNL A   1      46.117  23.879  26.793  1.00  0.00     0.029 A 
ATOM     20  N   UNL A   1      45.846  26.008  27.411  1.00  0.00    -0.354 N 
ATOM     21  C   UNL A   1      41.903  27.538  28.389  1.00  0.00     0.074 A 
ATOM     22  C   UNL A   1      40.899  26.497  28.312  1.00  0.00     0.031 C 
ATOM     23  C   UNL A   1      47.325  24.457  26.762  1.00  0.00     0.029 A 
ATOM     24  C   UNL A   1      47.179  25.866  27.098  1.00  0.00     0.049 A 
ATOM     25  H   UNL A   1      45.455  26.851  27.734  1.00  0.00     0.167 HD
ATOM     26  C   UNL A   1      41.659  28.828  28.719  1.00  0.00     0.037 A 
ATOM     27  C   UNL A   1      48.169  26.776  27.038  1.00  0.00     0.037 A 
ATOM     28  C   UNL A   1      42.679  29.844  28.809  1.00  0.00     0.049 A 
ATOM     29  C   UNL A   1      47.854  28.204  27.377  1.00  0.00     0.074 A 
ATOM     30  C   UNL A   1      42.544  31.160  29.217  1.00  0.00     0.029 A 
ATOM     31  N   UNL A   1      44.013  29.667  28.469  1.00  0.00    -0.354 N 
ATOM     32  N   UNL A   1      46.715  28.722  27.770  1.00  0.00    -0.248 NA
ATOM     33  C   UNL A   1      48.950  29.174  27.258  1.00  0.00     0.031 C 
ATOM     34  C   UNL A   1      43.779  31.796  29.058  1.00  0.00     0.029 A 
ATOM     35  C   UNL A   1      44.699  30.862  28.610  1.00  0.00     0.049 A 
ATOM     36  H   UNL A   1      44.411  28.817  28.172  1.00  0.00     0.167 HD
ATOM     37  C   UNL A   1      46.958  30.077  27.949  1.00  0.00     0.074 A 
ATOM     38  C   UNL A   1      48.360  30.292  27.656  1.00  0.00     0.031 C 
ATOM     39  C   UNL A   1      46.096  31.057  28.312  1.00  0.00     0.037 A 
BRANCH  26  40
ATOM     40  C   UNL A   1      40.239  29.250  28.991  1.00  0.00     0.058 A 
ATOM     41  C   UNL A   1      39.772  29.492  30.291  1.00  0.00     0.135 A 
ATOM     42  C   UNL A   1      39.375  29.537  27.921  1.00  0.00     0.135 A 
ATOM     43  F   UNL A   1      40.551  29.225  31.351  1.00  0.00    -0.206 F 
ATOM     44  C   UNL A   1      38.499  30.009  30.521  1.00  0.00     0.059 A 
ATOM     45  C   UNL A   1      38.106  30.074  28.126  1.00  0.00     0.059 A 
ATOM     46  F   UNL A   1      39.771  29.322  26.657  1.00  0.00    -0.206 F 
ATOM     47  C   UNL A   1      37.678  30.307  29.432  1.00  0.00     0.060 A 
BRANCH  47  48
ATOM     48  S   UNL A   1      36.056  31.035  29.748  1.00  0.00     0.124 S 
ATOM     49  O   UNL A   1      35.762  30.526  31.084  1.00  0.00    -0.237 OA
ATOM     50  O   UNL A   1      36.337  32.465  29.664  1.00  0.00    -0.237 OA
ATOM     51  O   UNL A   1      35.224  30.498  28.676  1.00  0.00    -0.744 OA
ENDBRANCH  47  48
ENDBRANCH  26  40
BRANCH  27  52
ATOM     52  C   UNL A   1      49.525  26.376  26.574  1.00  0.00     0.058 A 
ATOM     53  C   UNL A   1      49.911  26.521  25.235  1.00  0.00     0.135 A 
ATOM     54  C   UNL A   1      50.461  25.826  27.468  1.00  0.00     0.135 A 
ATOM     55  F   UNL A   1      49.054  27.040  24.342  1.00  0.00    -0.206 F 
ATOM     56  C   UNL A   1      51.161  26.104  24.789  1.00  0.00     0.059 A 
ATOM     57  C   UNL A   1      51.728  25.435  27.054  1.00  0.00     0.059 A 
ATOM     58  F   UNL A   1      50.150  25.683  28.766  1.00  0.00    -0.206 F 
ATOM     59  C   UNL A   1      52.062  25.559  25.707  1.00  0.00     0.060 A 
BRANCH  59  60
ATOM     60  S   UNL A   1      53.682  25.021  25.120  1.00  0.00     0.124 S 
ATOM     61  O   UNL A   1      53.681  25.533  23.754  1.00  0.00    -0.237 OA
ATOM     62  O   UNL A   1      54.584  25.691  26.053  1.00  0.00    -0.237 OA
ATOM     63  O   UNL A   1      53.622  23.569  25.251  1.00  0.00    -0.744 OA
ENDBRANCH  59  60
ENDBRANCH  27  52
BRANCH  39  64
ATOM     64  C   UNL A   1      46.646  32.451  28.416  1.00  0.00     0.058 A 
ATOM     65  C   UNL A   1      47.249  32.912  29.597  1.00  0.00     0.135 A 
ATOM     66  C   UNL A   1      46.624  33.314  27.309  1.00  0.00     0.135 A 
ATOM     67  F   UNL A   1      47.281  32.132  30.689  1.00  0.00    -0.206 F 
ATOM     68  C   UNL A   1      47.800  34.186  29.681  1.00  0.00     0.059 A 
ATOM     69  C   UNL A   1      47.197  34.579  27.360  1.00  0.00     0.059 A 
ATOM     70  F   UNL A   1      46.064  32.919  26.154  1.00  0.00    -0.206 F 
ATOM     71  C   UNL A   1      47.776  35.009  28.553  1.00  0.00     0.060 A 
BRANCH  71  72
ATOM     72  S   UNL A   1      48.547  36.638  28.661  1.00  0.00     0.124 S 
ATOM     73  O   UNL A   1      49.338  36.509  29.881  1.00  0.00    -0.237 OA
ATOM     74  O   UNL A   1      49.307  36.705  27.416  1.00  0.00    -0.237 OA
ATOM     75  O   UNL A   1      47.409  37.548  28.746  1.00  0.00    -0.744 OA
ENDBRANCH  71  72
ENDBRANCH  39  64
ENDBRANCH  13  14
ENDBRANCH   6   8
ENDBRANCH   3   4
ENDBRANCH   2   3
ENDBRANCH   1   2
BRANCH   1  76
ATOM     76  C   UNL A   1      36.725  22.128  25.985  1.00  0.00     0.116 C 
BRANCH  76  77
ATOM     77  N   UNL A   1      35.519  22.063  26.795  1.00  0.00    -0.356 N 
ATOM     78  C   UNL A   1      34.241  22.448  26.478  1.00  0.00     0.224 C 
ATOM     79  H   UNL A   1      35.635  21.688  27.698  1.00  0.00     0.163 HD
ATOM     80  O   UNL A   1      33.313  21.860  27.040  1.00  0.00    -0.275 OA
BRANCH  78  81
ATOM     81  C   UNL A   1      33.999  23.446  25.371  1.00  0.00     0.098 C 
ATOM     82  C   UNL A   1      32.866  24.509  25.295  1.00  0.00     0.099 C 
ATOM     83  C   UNL A   1      34.001  22.853  23.933  1.00  0.00     0.025 C 
ATOM     84  C   UNL A   1      32.565  24.562  23.756  1.00  0.00     0.025 C 
ATOM     85  C   UNL A   1      32.663  22.291  23.517  1.00  0.00    -0.027 C 
ATOM     86  C   UNL A   1      33.919  24.171  23.142  1.00  0.00     0.017 C 
ATOM     87  C   UNL A   1      31.823  23.321  23.349  1.00  0.00    -0.027 C 
BRANCH  82  88
ATOM     88  C   UNL A   1      31.586  24.730  26.133  1.00  0.00     0.229 C 
ATOM     89  O   UNL A   1      31.009  23.704  26.540  1.00  0.00    -0.274 OA
ATOM     90  N   UNL A   1      31.148  25.885  26.708  1.00  0.00    -0.323 N 
ATOM     91  H   UNL A   1      30.587  25.733  27.503  1.00  0.00     0.170 HD
BRANCH  90  92
ATOM     92  C   UNL A   1      31.323  27.242  26.415  1.00  0.00     0.084 A 
ATOM     93  C   UNL A   1      31.750  28.086  27.448  1.00  0.00     0.030 A 
ATOM     94  C   UNL A   1      31.041  27.812  25.179  1.00  0.00     0.149 A 
ATOM     95  C   UNL A   1      32.116  29.409  27.172  1.00  0.00     0.002 A 
ATOM     96  C   UNL A   1      31.474  29.104  24.876  1.00  0.00     0.049 A 
ATOM     97  C   UNL A   1      32.035  29.899  25.871  1.00  0.00     0.004 A 
BRANCH  94  98
ATOM     98  O   UNL A   1      30.267  27.214  24.234  1.00  0.00    -0.433 OA
BRANCH  98  99
ATOM     99  C   UNL A   1      30.426  27.723  22.915  1.00  0.00     0.542 C 
ATOM    100  F   UNL A   1      30.813  26.722  22.094  1.00  0.00    -0.167 F 
ATOM    101  F   UNL A   1      29.274  28.241  22.431  1.00  0.00    -0.167 F 
ENDBRANCH  98  99
ENDBRANCH  94  98
ENDBRANCH  90  92
ENDBRANCH  82  88
ENDBRANCH  78  81
ENDBRANCH  76  77
ENDBRANCH   1  76
TORSDOF 18
ENDMDL
MODEL 3
REMARK VINA RESULT:     -12.1      4.594      6.092
REMARK SMILES O=C(NCCCCNC(=O)[C@@H]1[C@H](C(=O)Nc2ccccc2OC(F)F)[C@@H]2C=C[C@H]1C2)c1ccc(-c2c3nc(c(-c4c(F)cc(S(=O)(=O)[O-])cc4F)c4ccc([nH]4)c(-c4c(F)cc(S(=O)(=O)[O-])cc4F)c4nc(c(-c5c(F)cc(S(=O)(=O)[O-])cc5F)c5ccc2[nH]5)C=C4)C=C3)cc1
REMARK SMILES IDX 6 1 5 2 4 3 3 4 1 5 2 6 31 8 32 9 96 10 33 11 95 12 34 13
REMARK SMILES IDX 35 14 36 15 89 16 37 17 94 18 88 19 90 20 38 21 93 22 87 23
REMARK SMILES IDX 86 24 39 26 73 27 52 28 72 29 53 30 56 31 71 32 91 33 54 34
REMARK SMILES IDX 55 35 70 37 92 38 57 39 40 40 41 41 50 42 42 43 43 44 49 45
REMARK SMILES IDX 51 46 44 47 45 48 46 49 47 50 48 51 74 52 75 53 84 54 76 55
REMARK SMILES IDX 77 56 83 57 85 58 78 59 79 60 80 61 81 62 82 63 58 64 59 65
REMARK SMILES IDX 68 66 60 67 61 68 67 69 69 70 62 71 63 72 64 73 65 74 66 75
REMARK SMILES IDX 7 76 8 77 9 78 10 80 11 81 12 82 29 83 26 84 28 85 30 86
REMARK SMILES IDX 27 87 13 88 14 89 15 90 16 92 17 93 21 94 18 95 20 96 19 97
REMARK SMILES IDX 22 98 23 99 24 100 25 101
REMARK H PARENT 3 7 90 25 56 36 8 79 15 91
REMARK Flexibility Score: inf
ROOT
ATOM      1  C   UNL A   1      31.798  30.149  26.667  1.00  0.00     0.023 C 
ENDROOT
BRANCH   1   2
ATOM      2  C   UNL A   1      31.667  31.670  26.747  1.00  0.00     0.023 C 
BRANCH   2   3
ATOM      3  C   UNL A   1      32.874  32.436  27.260  1.00  0.00     0.116 C 
BRANCH   3   4
ATOM      4  N   UNL A   1      32.575  33.822  27.568  1.00  0.00    -0.352 N 
ATOM      5  O   UNL A   1      32.614  35.729  28.764  1.00  0.00    -0.269 OA
ATOM      6  C   UNL A   1      33.121  34.628  28.536  1.00  0.00     0.251 C 
ATOM      7  H   UNL A   1      31.886  34.242  27.004  1.00  0.00     0.163 HD
BRANCH   6   8
ATOM      8  C   UNL A   1      34.303  34.184  29.309  1.00  0.00     0.039 A 
ATOM      9  C   UNL A   1      34.152  33.523  30.531  1.00  0.00     0.014 A 
ATOM     10  C   UNL A   1      35.584  34.383  28.781  1.00  0.00     0.014 A 
ATOM     11  C   UNL A   1      35.272  33.158  31.272  1.00  0.00     0.010 A 
ATOM     12  C   UNL A   1      36.707  33.933  29.483  1.00  0.00     0.010 A 
ATOM     13  C   UNL A   1      36.559  33.313  30.734  1.00  0.00    -0.014 A 
BRANCH  13  14
ATOM     14  C   UNL A   1      37.710  32.672  31.417  1.00  0.00     0.031 A 
ATOM     15  C   UNL A   1      38.383  31.453  30.856  1.00  0.00     0.074 A 
ATOM     16  C   UNL A   1      38.129  33.214  32.581  1.00  0.00     0.049 A 
ATOM     17  N   UNL A   1      39.372  30.761  31.361  1.00  0.00    -0.248 NA
ATOM     18  C   UNL A   1      37.886  30.936  29.572  1.00  0.00     0.031 C 
ATOM     19  C   UNL A   1      37.526  34.386  33.226  1.00  0.00     0.029 A 
ATOM     20  N   UNL A   1      39.145  32.861  33.431  1.00  0.00    -0.354 N 
ATOM     21  C   UNL A   1      39.601  29.714  30.476  1.00  0.00     0.074 A 
ATOM     22  C   UNL A   1      38.644  29.858  29.399  1.00  0.00     0.031 C 
ATOM     23  C   UNL A   1      38.195  34.668  34.351  1.00  0.00     0.029 A 
ATOM     24  C   UNL A   1      39.221  33.654  34.553  1.00  0.00     0.049 A 
ATOM     25  H   UNL A   1      39.761  32.115  33.256  1.00  0.00     0.167 HD
ATOM     26  C   UNL A   1      40.525  28.728  30.565  1.00  0.00     0.037 A 
ATOM     27  C   UNL A   1      39.994  33.554  35.650  1.00  0.00     0.037 A 
ATOM     28  C   UNL A   1      41.483  28.616  31.638  1.00  0.00     0.049 A 
ATOM     29  C   UNL A   1      40.984  32.427  35.730  1.00  0.00     0.074 A 
ATOM     30  C   UNL A   1      42.514  27.702  31.774  1.00  0.00     0.029 A 
ATOM     31  N   UNL A   1      41.519  29.428  32.763  1.00  0.00    -0.354 N 
ATOM     32  N   UNL A   1      41.243  31.499  34.841  1.00  0.00    -0.248 NA
ATOM     33  C   UNL A   1      41.779  32.326  36.960  1.00  0.00     0.031 C 
ATOM     34  C   UNL A   1      43.127  27.916  33.013  1.00  0.00     0.029 A 
ATOM     35  C   UNL A   1      42.519  29.002  33.621  1.00  0.00     0.049 A 
ATOM     36  H   UNL A   1      40.920  30.192  32.927  1.00  0.00     0.167 HD
ATOM     37  C   UNL A   1      42.234  30.705  35.403  1.00  0.00     0.074 A 
ATOM     38  C   UNL A   1      42.553  31.283  36.692  1.00  0.00     0.031 C 
ATOM     39  C   UNL A   1      42.820  29.591  34.903  1.00  0.00     0.037 A 
BRANCH  26  40
ATOM     40  C   UNL A   1      40.555  27.664  29.501  1.00  0.00     0.058 A 
ATOM     41  C   UNL A   1      41.561  27.615  28.526  1.00  0.00     0.135 A 
ATOM     42  C   UNL A   1      39.629  26.607  29.539  1.00  0.00     0.135 A 
ATOM     43  F   UNL A   1      42.464  28.604  28.435  1.00  0.00    -0.206 F 
ATOM     44  C   UNL A   1      41.654  26.553  27.629  1.00  0.00     0.059 A 
ATOM     45  C   UNL A   1      39.715  25.525  28.667  1.00  0.00     0.059 A 
ATOM     46  F   UNL A   1      38.644  26.604  30.451  1.00  0.00    -0.206 F 
ATOM     47  C   UNL A   1      40.733  25.507  27.715  1.00  0.00     0.060 A 
BRANCH  47  48
ATOM     48  S   UNL A   1      40.907  24.109  26.585  1.00  0.00     0.124 S 
ATOM     49  O   UNL A   1      41.961  24.584  25.693  1.00  0.00    -0.237 OA
ATOM     50  O   UNL A   1      41.283  23.026  27.488  1.00  0.00    -0.237 OA
ATOM     51  O   UNL A   1      39.584  23.989  25.982  1.00  0.00    -0.744 OA
ENDBRANCH  47  48
ENDBRANCH  26  40
BRANCH  27  52
ATOM     52  C   UNL A   1      39.814  34.501  36.782  1.00  0.00     0.058 A 
ATOM     53  C   UNL A   1      38.998  34.184  37.877  1.00  0.00     0.135 A 
ATOM     54  C   UNL A   1      40.449  35.755  36.783  1.00  0.00     0.135 A 
ATOM     55  F   UNL A   1      38.368  33.000  37.923  1.00  0.00    -0.206 F 
ATOM     56  C   UNL A   1      38.789  35.087  38.914  1.00  0.00     0.059 A 
ATOM     57  C   UNL A   1      40.285  36.660  37.825  1.00  0.00     0.059 A 
ATOM     58  F   UNL A   1      41.257  36.102  35.769  1.00  0.00    -0.206 F 
ATOM     59  C   UNL A   1      39.435  36.325  38.876  1.00  0.00     0.060 A 
BRANCH  59  60
ATOM     60  S   UNL A   1      39.159  37.490  40.228  1.00  0.00     0.124 S 
ATOM     61  O   UNL A   1      38.528  36.635  41.226  1.00  0.00    -0.237 OA
ATOM     62  O   UNL A   1      40.517  37.933  40.532  1.00  0.00    -0.237 OA
ATOM     63  O   UNL A   1      38.297  38.503  39.626  1.00  0.00    -0.744 OA
ENDBRANCH  59  60
ENDBRANCH  27  52
BRANCH  39  64
ATOM     64  C   UNL A   1      43.869  28.927  35.750  1.00  0.00     0.058 A 
ATOM     65  C   UNL A   1      43.549  27.862  36.606  1.00  0.00     0.135 A 
ATOM     66  C   UNL A   1      45.214  29.318  35.660  1.00  0.00     0.135 A 
ATOM     67  F   UNL A   1      42.275  27.461  36.740  1.00  0.00    -0.206 F 
ATOM     68  C   UNL A   1      44.526  27.216  37.356  1.00  0.00     0.059 A 
ATOM     69  C   UNL A   1      46.211  28.666  36.376  1.00  0.00     0.059 A 
ATOM     70  F   UNL A   1      45.573  30.328  34.851  1.00  0.00    -0.206 F 
ATOM     71  C   UNL A   1      45.856  27.621  37.227  1.00  0.00     0.060 A 
BRANCH  71  72
ATOM     72  S   UNL A   1      47.119  26.734  38.163  1.00  0.00     0.124 S 
ATOM     73  O   UNL A   1      48.338  27.405  37.724  1.00  0.00    -0.237 OA
ATOM     74  O   UNL A   1      46.717  26.985  39.544  1.00  0.00    -0.237 OA
ATOM     75  O   UNL A   1      46.968  25.352  37.713  1.00  0.00    -0.744 OA
ENDBRANCH  71  72
ENDBRANCH  39  64
ENDBRANCH  13  14
ENDBRANCH   6   8
ENDBRANCH   3   4
ENDBRANCH   2   3
ENDBRANCH   1   2
BRANCH   1  76
ATOM     76  C   UNL A   1      33.214  29.581  26.631  1.00  0.00     0.116 C 
BRANCH  76  77
ATOM     77  N   UNL A   1      33.796  29.451  25.305  1.00  0.00    -0.356 N 
ATOM     78  C   UNL A   1      33.345  28.732  24.227  1.00  0.00     0.224 C 
ATOM     79  H   UNL A   1      34.632  29.951  25.159  1.00  0.00     0.163 HD
ATOM     80  O   UNL A   1      33.645  29.143  23.103  1.00  0.00    -0.275 OA
BRANCH  78  81
ATOM     81  C   UNL A   1      32.394  27.576  24.427  1.00  0.00     0.098 C 
ATOM     82  C   UNL A   1      32.521  26.142  23.840  1.00  0.00     0.099 C 
ATOM     83  C   UNL A   1      30.893  27.906  24.187  1.00  0.00     0.025 C 
ATOM     84  C   UNL A   1      31.021  25.751  23.595  1.00  0.00     0.025 C 
ATOM     85  C   UNL A   1      30.483  27.800  22.737  1.00  0.00    -0.027 C 
ATOM     86  C   UNL A   1      30.286  26.575  24.664  1.00  0.00     0.017 C 
ATOM     87  C   UNL A   1      30.499  26.502  22.404  1.00  0.00    -0.027 C 
BRANCH  82  88
ATOM     88  C   UNL A   1      33.451  25.534  22.767  1.00  0.00     0.229 C 
ATOM     89  O   UNL A   1      33.990  26.339  21.984  1.00  0.00    -0.274 OA
ATOM     90  N   UNL A   1      33.969  24.274  22.720  1.00  0.00    -0.323 N 
ATOM     91  H   UNL A   1      34.821  24.225  22.228  1.00  0.00     0.170 HD
BRANCH  90  92
ATOM     92  C   UNL A   1      33.553  23.035  23.220  1.00  0.00     0.084 A 
ATOM     93  C   UNL A   1      32.473  22.404  22.590  1.00  0.00     0.030 A 
ATOM     94  C   UNL A   1      34.106  22.424  24.338  1.00  0.00     0.149 A 
ATOM     95  C   UNL A   1      32.130  21.089  22.926  1.00  0.00     0.002 A 
ATOM     96  C   UNL A   1      33.825  21.088  24.630  1.00  0.00     0.049 A 
ATOM     97  C   UNL A   1      32.849  20.410  23.906  1.00  0.00     0.004 A 
BRANCH  94  98
ATOM     98  O   UNL A   1      34.862  23.081  25.258  1.00  0.00    -0.433 OA
BRANCH  98  99
ATOM     99  C   UNL A   1      34.125  23.769  26.262  1.00  0.00     0.542 C 
ATOM    100  F   UNL A   1      34.402  25.090  26.192  1.00  0.00    -0.167 F 
ATOM    101  F   UNL A   1      32.790  23.611  26.106  1.00  0.00    -0.167 F 
ENDBRANCH  98  99
ENDBRANCH  94  98
ENDBRANCH  90  92
ENDBRANCH  82  88
ENDBRANCH  78  81
ENDBRANCH  76  77
ENDBRANCH   1  76
TORSDOF 18
ENDMDL
