MODEL 1
REMARK VINA RESULT:     -10.6      0.000      0.000
REMARK SMILES O=C(NCCCCNC(=O)c1ccc(C[NH2+]CCOc2ccccc2)nc1)c1ccc(-c2c3nc(c(-c4c(F)cc(S(=O)(=O)[O-])cc4F)c4ccc([nH]4)c(-c4c(F)cc(S(=O)(=O)[O-])cc4F)c4nc(c(-c5c(F)cc(S(=O)(=O)[O-])cc5F)c5ccc2[nH]5)C=C4)C=C3)cc1
REMARK SMILES IDX 7 1 6 2 5 3 4 4 3 5 1 6 2 7 28 9 29 10 93 11 30 12 92 13
REMARK SMILES IDX 31 14 32 15 33 16 86 17 34 18 91 19 85 20 87 21 35 22 90 23
REMARK SMILES IDX 84 24 83 25 36 27 70 28 49 29 69 30 50 31 53 32 68 33 88 34
REMARK SMILES IDX 51 35 52 36 67 38 89 39 54 40 37 41 38 42 47 43 39 44 40 45
REMARK SMILES IDX 46 46 48 47 41 48 42 49 43 50 44 51 45 52 71 53 72 54 81 55
REMARK SMILES IDX 73 56 74 57 80 58 82 59 75 60 76 61 77 62 78 63 79 64 55 65
REMARK SMILES IDX 56 66 65 67 57 68 58 69 64 70 66 71 59 72 60 73 61 74 62 75
REMARK SMILES IDX 63 76 8 77 9 78 10 80 11 81 12 82 27 83 13 84 26 85 14 86
REMARK SMILES IDX 15 87 16 88 17 91 18 92 19 93 20 94 21 95 25 96 22 97 24 98
REMARK SMILES IDX 23 99
REMARK H PARENT 3 8 87 26 53 37 8 79 16 89 16 90
REMARK Flexibility Score: inf
ROOT
ATOM      1  C   UNL A   1      33.245  29.025  23.198  1.00  0.00     0.116 C 
ENDROOT
BRANCH   1   2
ATOM      2  C   UNL A   1      33.261  29.259  24.706  1.00  0.00     0.023 C 
BRANCH   2   3
ATOM      3  C   UNL A   1      33.790  28.092  25.538  1.00  0.00     0.023 C 
BRANCH   3   4
ATOM      4  C   UNL A   1      33.743  28.300  27.046  1.00  0.00     0.116 C 
BRANCH   4   5
ATOM      5  N   UNL A   1      33.537  29.690  27.417  1.00  0.00    -0.352 N 
ATOM      6  O   UNL A   1      34.020  31.654  28.410  1.00  0.00    -0.269 OA
ATOM      7  C   UNL A   1      34.409  30.556  28.037  1.00  0.00     0.251 C 
ATOM      8  H   UNL A   1      32.655  30.064  27.194  1.00  0.00     0.163 HD
BRANCH   7   9
ATOM      9  C   UNL A   1      35.811  30.138  28.264  1.00  0.00     0.039 A 
ATOM     10  C   UNL A   1      36.750  30.214  27.232  1.00  0.00     0.014 A 
ATOM     11  C   UNL A   1      36.188  29.676  29.527  1.00  0.00     0.014 A 
ATOM     12  C   UNL A   1      38.036  29.724  27.430  1.00  0.00     0.010 A 
ATOM     13  C   UNL A   1      37.502  29.256  29.748  1.00  0.00     0.010 A 
ATOM     14  C   UNL A   1      38.433  29.267  28.697  1.00  0.00    -0.014 A 
BRANCH  14  15
ATOM     15  C   UNL A   1      39.858  28.930  28.934  1.00  0.00     0.031 A 
ATOM     16  C   UNL A   1      40.426  27.597  28.544  1.00  0.00     0.074 A 
ATOM     17  C   UNL A   1      40.633  29.859  29.529  1.00  0.00     0.049 A 
ATOM     18  N   UNL A   1      41.641  27.143  28.715  1.00  0.00    -0.248 NA
ATOM     19  C   UNL A   1      39.520  26.644  27.883  1.00  0.00     0.031 C 
ATOM     20  C   UNL A   1      40.172  31.179  29.975  1.00  0.00     0.029 A 
ATOM     21  N   UNL A   1      41.961  29.843  29.870  1.00  0.00    -0.354 N 
ATOM     22  C   UNL A   1      41.645  25.850  28.209  1.00  0.00     0.074 A 
ATOM     23  C   UNL A   1      40.306  25.583  27.728  1.00  0.00     0.031 C 
ATOM     24  C   UNL A   1      41.200  31.848  30.514  1.00  0.00     0.029 A 
ATOM     25  C   UNL A   1      42.376  30.987  30.510  1.00  0.00     0.049 A 
ATOM     26  H   UNL A   1      42.559  29.085  29.674  1.00  0.00     0.167 HD
ATOM     27  C   UNL A   1      42.675  24.973  28.155  1.00  0.00     0.037 A 
ATOM     28  C   UNL A   1      43.559  31.296  31.071  1.00  0.00     0.037 A 
ATOM     29  C   UNL A   1      44.010  25.268  28.612  1.00  0.00     0.049 A 
ATOM     30  C   UNL A   1      44.673  30.291  31.014  1.00  0.00     0.074 A 
ATOM     31  C   UNL A   1      45.145  24.481  28.509  1.00  0.00     0.029 A 
ATOM     32  N   UNL A   1      44.388  26.428  29.272  1.00  0.00    -0.354 N 
ATOM     33  N   UNL A   1      44.680  29.105  30.456  1.00  0.00    -0.248 NA
ATOM     34  C   UNL A   1      45.935  30.659  31.669  1.00  0.00     0.031 C 
ATOM     35  C   UNL A   1      46.195  25.140  29.155  1.00  0.00     0.029 A 
ATOM     36  C   UNL A   1      45.727  26.358  29.622  1.00  0.00     0.049 A 
ATOM     37  H   UNL A   1      43.793  27.188  29.463  1.00  0.00     0.167 HD
ATOM     38  C   UNL A   1      45.944  28.583  30.695  1.00  0.00     0.074 A 
ATOM     39  C   UNL A   1      46.685  29.595  31.420  1.00  0.00     0.031 C 
ATOM     40  C   UNL A   1      46.443  27.371  30.353  1.00  0.00     0.037 A 
BRANCH  27  41
ATOM     41  C   UNL A   1      42.424  23.601  27.594  1.00  0.00     0.058 A 
ATOM     42  C   UNL A   1      42.459  23.347  26.216  1.00  0.00     0.135 A 
ATOM     43  C   UNL A   1      42.265  22.505  28.459  1.00  0.00     0.135 A 
ATOM     44  F   UNL A   1      42.597  24.360  25.346  1.00  0.00    -0.206 F 
ATOM     45  C   UNL A   1      42.349  22.054  25.712  1.00  0.00     0.059 A 
ATOM     46  C   UNL A   1      42.171  21.202  27.980  1.00  0.00     0.059 A 
ATOM     47  F   UNL A   1      42.222  22.695  29.788  1.00  0.00    -0.206 F 
ATOM     48  C   UNL A   1      42.214  20.986  26.603  1.00  0.00     0.060 A 
BRANCH  48  49
ATOM     49  S   UNL A   1      42.129  19.310  25.936  1.00  0.00     0.124 S 
ATOM     50  O   UNL A   1      43.013  19.412  24.778  1.00  0.00    -0.237 OA
ATOM     51  O   UNL A   1      42.629  18.507  27.046  1.00  0.00    -0.237 OA
ATOM     52  O   UNL A   1      40.712  19.137  25.628  1.00  0.00    -0.744 OA
ENDBRANCH  48  49
ENDBRANCH  27  41
BRANCH  28  53
ATOM     53  C   UNL A   1      43.728  32.589  31.782  1.00  0.00     0.058 A 
ATOM     54  C   UNL A   1      43.459  32.709  33.152  1.00  0.00     0.135 A 
ATOM     55  C   UNL A   1      44.167  33.735  31.098  1.00  0.00     0.135 A 
ATOM     56  F   UNL A   1      43.036  31.643  33.848  1.00  0.00    -0.206 F 
ATOM     57  C   UNL A   1      43.595  33.923  33.816  1.00  0.00     0.059 A 
ATOM     58  C   UNL A   1      44.339  34.953  31.744  1.00  0.00     0.059 A 
ATOM     59  F   UNL A   1      44.457  33.667  29.788  1.00  0.00    -0.206 F 
ATOM     60  C   UNL A   1      44.033  35.041  33.101  1.00  0.00     0.060 A 
BRANCH  60  61
ATOM     61  S   UNL A   1      44.230  36.610  33.972  1.00  0.00     0.124 S 
ATOM     62  O   UNL A   1      44.544  36.155  35.322  1.00  0.00    -0.237 OA
ATOM     63  O   UNL A   1      45.326  37.236  33.238  1.00  0.00    -0.237 OA
ATOM     64  O   UNL A   1      42.929  37.250  33.806  1.00  0.00    -0.744 OA
ENDBRANCH  60  61
ENDBRANCH  28  53
BRANCH  40  65
ATOM     65  C   UNL A   1      47.855  27.072  30.766  1.00  0.00     0.058 A 
ATOM     66  C   UNL A   1      48.936  27.363  29.919  1.00  0.00     0.135 A 
ATOM     67  C   UNL A   1      48.135  26.539  32.034  1.00  0.00     0.135 A 
ATOM     68  F   UNL A   1      48.719  27.863  28.693  1.00  0.00    -0.206 F 
ATOM     69  C   UNL A   1      50.248  27.124  30.312  1.00  0.00     0.059 A 
ATOM     70  C   UNL A   1      49.440  26.313  32.456  1.00  0.00     0.059 A 
ATOM     71  F   UNL A   1      47.135  26.248  32.880  1.00  0.00    -0.206 F 
ATOM     72  C   UNL A   1      50.491  26.602  31.584  1.00  0.00     0.060 A 
BRANCH  72  73
ATOM     73  S   UNL A   1      52.201  26.339  32.098  1.00  0.00     0.124 S 
ATOM     74  O   UNL A   1      52.929  27.136  31.116  1.00  0.00    -0.237 OA
ATOM     75  O   UNL A   1      52.201  26.858  33.462  1.00  0.00    -0.237 OA
ATOM     76  O   UNL A   1      52.371  24.893  31.985  1.00  0.00    -0.744 OA
ENDBRANCH  72  73
ENDBRANCH  40  65
ENDBRANCH  14  15
ENDBRANCH   7   9
ENDBRANCH   4   5
ENDBRANCH   3   4
ENDBRANCH   2   3
ENDBRANCH   1   2
BRANCH   1  77
ATOM     77  N   UNL A   1      31.956  29.336  22.599  1.00  0.00    -0.352 N 
ATOM     78  C   UNL A   1      30.866  28.525  22.413  1.00  0.00     0.252 C 
ATOM     79  H   UNL A   1      31.851  30.262  22.284  1.00  0.00     0.163 HD
ATOM     80  O   UNL A   1      29.910  28.905  21.743  1.00  0.00    -0.269 OA
BRANCH  78  81
ATOM     81  C   UNL A   1      30.842  27.181  23.005  1.00  0.00     0.058 A 
ATOM     82  C   UNL A   1      30.270  26.927  24.248  1.00  0.00     0.017 A 
ATOM     83  C   UNL A   1      31.382  26.122  22.297  1.00  0.00     0.125 A 
ATOM     84  C   UNL A   1      30.335  25.639  24.772  1.00  0.00     0.030 A 
ATOM     85  N   UNL A   1      31.454  24.858  22.782  1.00  0.00    -0.255 NA
ATOM     86  C   UNL A   1      30.941  24.631  24.020  1.00  0.00     0.094 A 
BRANCH  86  87
ATOM     87  C   UNL A   1      31.006  23.214  24.568  1.00  0.00     0.318 C 
BRANCH  87  88
ATOM     88  N   UNL A   1      31.991  23.077  25.646  1.00  0.00    -0.338 N 
ATOM     89  H   UNL A   1      31.502  23.158  26.538  1.00  0.00     0.346 HD
ATOM     90  H   UNL A   1      32.683  23.813  25.507  1.00  0.00     0.346 HD
BRANCH  88  91
ATOM     91  C   UNL A   1      32.718  21.807  25.635  1.00  0.00     0.302 C 
BRANCH  91  92
ATOM     92  C   UNL A   1      33.918  21.717  24.671  1.00  0.00     0.290 C 
BRANCH  92  93
ATOM     93  O   UNL A   1      34.985  20.949  25.247  1.00  0.00    -0.488 OA
BRANCH  93  94
ATOM     94  C   UNL A   1      36.096  21.698  25.517  1.00  0.00     0.119 A 
ATOM     95  C   UNL A   1      36.013  23.050  25.850  1.00  0.00     0.046 A 
ATOM     96  C   UNL A   1      37.338  21.083  25.376  1.00  0.00     0.046 A 
ATOM     97  C   UNL A   1      37.183  23.771  26.102  1.00  0.00     0.004 A 
ATOM     98  C   UNL A   1      38.503  21.796  25.648  1.00  0.00     0.004 A 
ATOM     99  C   UNL A   1      38.425  23.141  26.013  1.00  0.00     0.000 A 
ENDBRANCH  93  94
ENDBRANCH  92  93
ENDBRANCH  91  92
ENDBRANCH  88  91
ENDBRANCH  87  88
ENDBRANCH  86  87
ENDBRANCH  78  81
ENDBRANCH   1  77
TORSDOF 20
ENDMDL
MODEL 2
REMARK VINA RESULT:     -10.4      0.768      8.185
REMARK SMILES O=C(NCCCCNC(=O)c1ccc(C[NH2+]CCOc2ccccc2)nc1)c1ccc(-c2c3nc(c(-c4c(F)cc(S(=O)(=O)[O-])cc4F)c4ccc([nH]4)c(-c4c(F)cc(S(=O)(=O)[O-])cc4F)c4nc(c(-c5c(F)cc(S(=O)(=O)[O-])cc5F)c5ccc2[nH]5)C=C4)C=C3)cc1
REMARK SMILES IDX 7 1 6 2 5 3 4 4 3 5 1 6 2 7 28 9 29 10 93 11 30 12 92 13
REMARK SMILES IDX 31 14 32 15 33 16 86 17 34 18 91 19 85 20 87 21 35 22 90 23
REMARK SMILES IDX 84 24 83 25 36 27 70 28 49 29 69 30 50 31 53 32 68 33 88 34
REMARK SMILES IDX 51 35 52 36 67 38 89 39 54 40 37 41 38 42 47 43 39 44 40 45
REMARK SMILES IDX 46 46 48 47 41 48 42 49 43 50 44 51 45 52 71 53 72 54 81 55
REMARK SMILES IDX 73 56 74 57 80 58 82 59 75 60 76 61 77 62 78 63 79 64 55 65
REMARK SMILES IDX 56 66 65 67 57 68 58 69 64 70 66 71 59 72 60 73 61 74 62 75
REMARK SMILES IDX 63 76 8 77 9 78 10 80 11 81 12 82 27 83 13 84 26 85 14 86
REMARK SMILES IDX 15 87 16 88 17 91 18 92 19 93 20 94 21 95 25 96 22 97 24 98
REMARK SMILES IDX 23 99
REMARK H PARENT 3 8 87 26 53 37 8 79 16 89 16 90
REMARK Flexibility Score: inf
ROOT
ATOM      1  C   UNL A   1      33.323  28.886  23.057  1.00  0.00     0.116 C 
ENDROOT
BRANCH   1   2
ATOM      2  C   UNL A   1      33.448  29.155  24.554  1.00  0.00     0.023 C 
BRANCH   2   3
ATOM      3  C   UNL A   1      33.975  27.985  25.382  1.00  0.00     0.023 C 
BRANCH   3   4
ATOM      4  C   UNL A   1      33.986  28.211  26.888  1.00  0.00     0.116 C 
BRANCH   4   5
ATOM      5  N   UNL A   1      33.713  29.591  27.252  1.00  0.00    -0.352 N 
ATOM      6  O   UNL A   1      34.066  31.561  28.285  1.00  0.00    -0.269 OA
ATOM      7  C   UNL A   1      34.514  30.480  27.932  1.00  0.00     0.251 C 
ATOM      8  H   UNL A   1      32.835  29.939  26.974  1.00  0.00     0.163 HD
BRANCH   7   9
ATOM      9  C   UNL A   1      35.911  30.104  28.248  1.00  0.00     0.039 A 
ATOM     10  C   UNL A   1      36.911  30.209  27.278  1.00  0.00     0.014 A 
ATOM     11  C   UNL A   1      36.220  29.653  29.534  1.00  0.00     0.014 A 
ATOM     12  C   UNL A   1      38.195  29.758  27.558  1.00  0.00     0.010 A 
ATOM     13  C   UNL A   1      37.529  29.273  29.838  1.00  0.00     0.010 A 
ATOM     14  C   UNL A   1      38.525  29.313  28.848  1.00  0.00    -0.014 A 
BRANCH  14  15
ATOM     15  C   UNL A   1      39.941  29.019  29.176  1.00  0.00     0.031 A 
ATOM     16  C   UNL A   1      40.836  30.053  29.794  1.00  0.00     0.074 A 
ATOM     17  C   UNL A   1      40.412  27.789  28.886  1.00  0.00     0.049 A 
ATOM     18  N   UNL A   1      42.103  29.957  30.107  1.00  0.00    -0.248 NA
ATOM     19  C   UNL A   1      40.244  31.366  30.096  1.00  0.00     0.031 C 
ATOM     20  C   UNL A   1      39.632  26.717  28.257  1.00  0.00     0.029 A 
ATOM     21  N   UNL A   1      41.650  27.229  29.071  1.00  0.00    -0.354 N 
ATOM     22  C   UNL A   1      42.468  31.196  30.619  1.00  0.00     0.074 A 
ATOM     23  C   UNL A   1      41.289  32.035  30.570  1.00  0.00     0.031 C 
ATOM     24  C   UNL A   1      40.402  25.629  28.123  1.00  0.00     0.029 A 
ATOM     25  C   UNL A   1      41.745  25.942  28.597  1.00  0.00     0.049 A 
ATOM     26  H   UNL A   1      42.397  27.704  29.502  1.00  0.00     0.167 HD
ATOM     27  C   UNL A   1      43.677  31.587  31.086  1.00  0.00     0.037 A 
ATOM     28  C   UNL A   1      42.804  25.116  28.512  1.00  0.00     0.037 A 
ATOM     29  C   UNL A   1      44.832  30.728  31.155  1.00  0.00     0.049 A 
ATOM     30  C   UNL A   1      44.135  25.591  29.017  1.00  0.00     0.074 A 
ATOM     31  C   UNL A   1      46.074  31.002  31.703  1.00  0.00     0.029 A 
ATOM     32  N   UNL A   1      44.897  29.438  30.649  1.00  0.00    -0.354 N 
ATOM     33  N   UNL A   1      44.440  26.737  29.574  1.00  0.00    -0.248 NA
ATOM     34  C   UNL A   1      45.268  24.668  28.873  1.00  0.00     0.031 C 
ATOM     35  C   UNL A   1      46.905  29.900  31.478  1.00  0.00     0.029 A 
ATOM     36  C   UNL A   1      46.169  28.922  30.830  1.00  0.00     0.049 A 
ATOM     37  H   UNL A   1      44.149  28.961  30.223  1.00  0.00     0.167 HD
ATOM     38  C   UNL A   1      45.800  26.675  29.846  1.00  0.00     0.074 A 
ATOM     39  C   UNL A   1      46.253  25.366  29.421  1.00  0.00     0.031 C 
ATOM     40  C   UNL A   1      46.603  27.621  30.390  1.00  0.00     0.037 A 
BRANCH  27  41
ATOM     41  C   UNL A   1      43.843  33.006  31.555  1.00  0.00     0.058 A 
ATOM     42  C   UNL A   1      44.231  34.032  30.684  1.00  0.00     0.135 A 
ATOM     43  C   UNL A   1      43.490  33.359  32.869  1.00  0.00     0.135 A 
ATOM     44  F   UNL A   1      44.589  33.748  29.422  1.00  0.00    -0.206 F 
ATOM     45  C   UNL A   1      44.263  35.363  31.096  1.00  0.00     0.059 A 
ATOM     46  C   UNL A   1      43.496  34.683  33.298  1.00  0.00     0.059 A 
ATOM     47  F   UNL A   1      43.113  32.413  33.744  1.00  0.00    -0.206 F 
ATOM     48  C   UNL A   1      43.885  35.678  32.403  1.00  0.00     0.060 A 
BRANCH  48  49
ATOM     49  S   UNL A   1      43.877  37.414  32.904  1.00  0.00     0.124 S 
ATOM     50  O   UNL A   1      45.213  37.557  33.478  1.00  0.00    -0.237 OA
ATOM     51  O   UNL A   1      43.655  38.103  31.637  1.00  0.00    -0.237 OA
ATOM     52  O   UNL A   1      42.775  37.489  33.858  1.00  0.00    -0.744 OA
ENDBRANCH  48  49
ENDBRANCH  27  41
BRANCH  28  53
ATOM     53  C   UNL A   1      42.655  23.782  27.875  1.00  0.00     0.058 A 
ATOM     54  C   UNL A   1      42.527  22.618  28.643  1.00  0.00     0.135 A 
ATOM     55  C   UNL A   1      42.633  23.651  26.477  1.00  0.00     0.135 A 
ATOM     56  F   UNL A   1      42.544  22.693  29.983  1.00  0.00    -0.206 F 
ATOM     57  C   UNL A   1      42.409  21.365  28.050  1.00  0.00     0.059 A 
ATOM     58  C   UNL A   1      42.487  22.415  25.860  1.00  0.00     0.059 A 
ATOM     59  F   UNL A   1      42.731  24.740  25.697  1.00  0.00    -0.206 F 
ATOM     60  C   UNL A   1      42.394  21.275  26.656  1.00  0.00     0.060 A 
BRANCH  60  61
ATOM     61  S   UNL A   1      42.216  19.650  25.891  1.00  0.00     0.124 S 
ATOM     62  O   UNL A   1      40.825  19.685  25.453  1.00  0.00    -0.237 OA
ATOM     63  O   UNL A   1      43.220  19.694  24.832  1.00  0.00    -0.237 OA
ATOM     64  O   UNL A   1      42.512  18.731  26.986  1.00  0.00    -0.744 OA
ENDBRANCH  60  61
ENDBRANCH  28  53
BRANCH  40  65
ATOM     65  C   UNL A   1      48.055  27.274  30.549  1.00  0.00     0.058 A 
ATOM     66  C   UNL A   1      48.987  27.567  29.540  1.00  0.00     0.135 A 
ATOM     67  C   UNL A   1      48.529  26.692  31.735  1.00  0.00     0.135 A 
ATOM     68  F   UNL A   1      48.580  28.113  28.383  1.00  0.00    -0.206 F 
ATOM     69  C   UNL A   1      50.338  27.283  29.699  1.00  0.00     0.059 A 
ATOM     70  C   UNL A   1      49.879  26.422  31.923  1.00  0.00     0.059 A 
ATOM     71  F   UNL A   1      47.678  26.397  32.730  1.00  0.00    -0.206 F 
ATOM     72  C   UNL A   1      50.776  26.714  30.895  1.00  0.00     0.060 A 
BRANCH  72  73
ATOM     73  S   UNL A   1      52.540  26.393  31.105  1.00  0.00     0.124 S 
ATOM     74  O   UNL A   1      52.525  25.086  31.755  1.00  0.00    -0.237 OA
ATOM     75  O   UNL A   1      53.028  26.411  29.730  1.00  0.00    -0.237 OA
ATOM     76  O   UNL A   1      52.990  27.504  31.939  1.00  0.00    -0.744 OA
ENDBRANCH  72  73
ENDBRANCH  40  65
ENDBRANCH  14  15
ENDBRANCH   7   9
ENDBRANCH   4   5
ENDBRANCH   3   4
ENDBRANCH   2   3
ENDBRANCH   1   2
BRANCH   1  77
ATOM     77  N   UNL A   1      31.985  29.152  22.552  1.00  0.00    -0.352 N 
ATOM     78  C   UNL A   1      30.877  28.343  22.556  1.00  0.00     0.252 C 
ATOM     79  H   UNL A   1      31.855  30.042  22.151  1.00  0.00     0.163 HD
ATOM     80  O   UNL A   1      29.864  28.665  21.943  1.00  0.00    -0.269 OA
BRANCH  78  81
ATOM     81  C   UNL A   1      30.903  27.069  23.287  1.00  0.00     0.058 A 
ATOM     82  C   UNL A   1      31.346  25.886  22.703  1.00  0.00     0.017 A 
ATOM     83  C   UNL A   1      30.497  27.041  24.610  1.00  0.00     0.125 A 
ATOM     84  C   UNL A   1      31.289  24.705  23.438  1.00  0.00     0.030 A 
ATOM     85  N   UNL A   1      30.436  25.906  25.349  1.00  0.00    -0.255 NA
ATOM     86  C   UNL A   1      30.819  24.747  24.751  1.00  0.00     0.094 A 
BRANCH  86  87
ATOM     87  C   UNL A   1      30.765  23.471  25.577  1.00  0.00     0.318 C 
BRANCH  87  88
ATOM     88  N   UNL A   1      31.774  23.451  26.641  1.00  0.00    -0.338 N 
ATOM     89  H   UNL A   1      31.432  22.854  27.394  1.00  0.00     0.346 HD
ATOM     90  H   UNL A   1      31.908  24.419  26.935  1.00  0.00     0.346 HD
BRANCH  88  91
ATOM     91  C   UNL A   1      33.083  22.954  26.216  1.00  0.00     0.302 C 
BRANCH  91  92
ATOM     92  C   UNL A   1      34.124  24.022  25.825  1.00  0.00     0.290 C 
BRANCH  92  93
ATOM     93  O   UNL A   1      34.903  23.594  24.698  1.00  0.00    -0.488 OA
BRANCH  93  94
ATOM     94  C   UNL A   1      36.125  23.095  25.054  1.00  0.00     0.119 A 
ATOM     95  C   UNL A   1      36.536  21.814  24.683  1.00  0.00     0.046 A 
ATOM     96  C   UNL A   1      36.930  23.884  25.872  1.00  0.00     0.046 A 
ATOM     97  C   UNL A   1      37.791  21.350  25.087  1.00  0.00     0.004 A 
ATOM     98  C   UNL A   1      38.189  23.429  26.256  1.00  0.00     0.004 A 
ATOM     99  C   UNL A   1      38.621  22.162  25.862  1.00  0.00     0.000 A 
ENDBRANCH  93  94
ENDBRANCH  92  93
ENDBRANCH  91  92
ENDBRANCH  88  91
ENDBRANCH  87  88
ENDBRANCH  86  87
ENDBRANCH  78  81
ENDBRANCH   1  77
TORSDOF 20
ENDMDL
MODEL 3
REMARK VINA RESULT:     -10.1      3.360      8.963
REMARK SMILES O=C(NCCCCNC(=O)c1ccc(C[NH2+]CCOc2ccccc2)nc1)c1ccc(-c2c3nc(c(-c4c(F)cc(S(=O)(=O)[O-])cc4F)c4ccc([nH]4)c(-c4c(F)cc(S(=O)(=O)[O-])cc4F)c4nc(c(-c5c(F)cc(S(=O)(=O)[O-])cc5F)c5ccc2[nH]5)C=C4)C=C3)cc1
REMARK SMILES IDX 7 1 6 2 5 3 4 4 3 5 1 6 2 7 28 9 29 10 93 11 30 12 92 13
REMARK SMILES IDX 31 14 32 15 33 16 86 17 34 18 91 19 85 20 87 21 35 22 90 23
REMARK SMILES IDX 84 24 83 25 36 27 70 28 49 29 69 30 50 31 53 32 68 33 88 34
REMARK SMILES IDX 51 35 52 36 67 38 89 39 54 40 37 41 38 42 47 43 39 44 40 45
REMARK SMILES IDX 46 46 48 47 41 48 42 49 43 50 44 51 45 52 71 53 72 54 81 55
REMARK SMILES IDX 73 56 74 57 80 58 82 59 75 60 76 61 77 62 78 63 79 64 55 65
REMARK SMILES IDX 56 66 65 67 57 68 58 69 64 70 66 71 59 72 60 73 61 74 62 75
REMARK SMILES IDX 63 76 8 77 9 78 10 80 11 81 12 82 27 83 13 84 26 85 14 86
REMARK SMILES IDX 15 87 16 88 17 91 18 92 19 93 20 94 21 95 25 96 22 97 24 98
REMARK SMILES IDX 23 99
REMARK H PARENT 3 8 87 26 53 37 8 79 16 89 16 90
REMARK Flexibility Score: inf
ROOT
ATOM      1  C   UNL A   1      33.394  29.784  26.298  1.00  0.00     0.116 C 
ENDROOT
BRANCH   1   2
ATOM      2  C   UNL A   1      33.309  30.938  27.293  1.00  0.00     0.023 C 
BRANCH   2   3
ATOM      3  C   UNL A   1      34.648  31.560  27.682  1.00  0.00     0.023 C 
BRANCH   3   4
ATOM      4  C   UNL A   1      35.654  30.597  28.297  1.00  0.00     0.116 C 
BRANCH   4   5
ATOM      5  N   UNL A   1      35.532  30.502  29.743  1.00  0.00    -0.352 N 
ATOM      6  O   UNL A   1      36.149  29.930  31.832  1.00  0.00    -0.269 OA
ATOM      7  C   UNL A   1      36.469  30.090  30.663  1.00  0.00     0.251 C 
ATOM      8  H   UNL A   1      34.661  30.769  30.114  1.00  0.00     0.163 HD
BRANCH   7   9
ATOM      9  C   UNL A   1      37.856  29.825  30.219  1.00  0.00     0.039 A 
ATOM     10  C   UNL A   1      38.849  29.502  31.147  1.00  0.00     0.014 A 
ATOM     11  C   UNL A   1      38.159  29.889  28.856  1.00  0.00     0.014 A 
ATOM     12  C   UNL A   1      40.166  29.355  30.727  1.00  0.00     0.010 A 
ATOM     13  C   UNL A   1      39.468  29.664  28.426  1.00  0.00     0.010 A 
ATOM     14  C   UNL A   1      40.484  29.406  29.361  1.00  0.00    -0.014 A 
BRANCH  14  15
ATOM     15  C   UNL A   1      41.857  29.057  28.921  1.00  0.00     0.031 A 
ATOM     16  C   UNL A   1      42.944  30.090  28.841  1.00  0.00     0.074 A 
ATOM     17  C   UNL A   1      42.101  27.776  28.578  1.00  0.00     0.049 A 
ATOM     18  N   UNL A   1      44.182  29.946  28.444  1.00  0.00    -0.248 NA
ATOM     19  C   UNL A   1      42.603  31.462  29.249  1.00  0.00     0.031 C 
ATOM     20  C   UNL A   1      41.107  26.697  28.592  1.00  0.00     0.029 A 
ATOM     21  N   UNL A   1      43.247  27.160  28.145  1.00  0.00    -0.354 N 
ATOM     22  C   UNL A   1      44.763  31.204  28.531  1.00  0.00     0.074 A 
ATOM     23  C   UNL A   1      43.740  32.108  29.012  1.00  0.00     0.031 C 
ATOM     24  C   UNL A   1      41.687  25.554  28.203  1.00  0.00     0.029 A 
ATOM     25  C   UNL A   1      43.075  25.828  27.852  1.00  0.00     0.049 A 
ATOM     26  H   UNL A   1      44.109  27.627  28.053  1.00  0.00     0.167 HD
ATOM     27  C   UNL A   1      46.034  31.563  28.235  1.00  0.00     0.037 A 
ATOM     28  C   UNL A   1      43.927  24.931  27.321  1.00  0.00     0.037 A 
ATOM     29  C   UNL A   1      47.049  30.643  27.785  1.00  0.00     0.049 A 
ATOM     30  C   UNL A   1      45.321  25.369  26.982  1.00  0.00     0.074 A 
ATOM     31  C   UNL A   1      48.392  30.892  27.554  1.00  0.00     0.029 A 
ATOM     32  N   UNL A   1      46.834  29.306  27.482  1.00  0.00    -0.354 N 
ATOM     33  N   UNL A   1      45.876  26.544  27.149  1.00  0.00    -0.248 NA
ATOM     34  C   UNL A   1      46.204  24.365  26.372  1.00  0.00     0.031 C 
ATOM     35  C   UNL A   1      48.975  29.722  27.059  1.00  0.00     0.029 A 
ATOM     36  C   UNL A   1      48.007  28.731  27.023  1.00  0.00     0.049 A 
ATOM     37  H   UNL A   1      45.975  28.837  27.579  1.00  0.00     0.167 HD
ATOM     38  C   UNL A   1      47.172  26.424  26.664  1.00  0.00     0.074 A 
ATOM     39  C   UNL A   1      47.328  25.051  26.226  1.00  0.00     0.031 C 
ATOM     40  C   UNL A   1      48.140  27.366  26.581  1.00  0.00     0.037 A 
BRANCH  27  41
ATOM     41  C   UNL A   1      46.424  33.009  28.369  1.00  0.00     0.058 A 
ATOM     42  C   UNL A   1      46.269  33.918  27.314  1.00  0.00     0.135 A 
ATOM     43  C   UNL A   1      46.846  33.512  29.611  1.00  0.00     0.135 A 
ATOM     44  F   UNL A   1      45.880  33.488  26.103  1.00  0.00    -0.206 F 
ATOM     45  C   UNL A   1      46.516  35.278  27.484  1.00  0.00     0.059 A 
ATOM     46  C   UNL A   1      47.081  34.870  29.810  1.00  0.00     0.059 A 
ATOM     47  F   UNL A   1      47.013  32.683  30.655  1.00  0.00    -0.206 F 
ATOM     48  C   UNL A   1      46.913  35.745  28.739  1.00  0.00     0.060 A 
BRANCH  48  49
ATOM     49  S   UNL A   1      47.174  37.519  28.957  1.00  0.00     0.124 S 
ATOM     50  O   UNL A   1      48.365  37.741  28.142  1.00  0.00    -0.237 OA
ATOM     51  O   UNL A   1      45.934  38.083  28.432  1.00  0.00    -0.237 OA
ATOM     52  O   UNL A   1      47.364  37.662  30.397  1.00  0.00    -0.744 OA
ENDBRANCH  48  49
ENDBRANCH  27  41
BRANCH  28  53
ATOM     53  C   UNL A   1      43.461  23.551  27.026  1.00  0.00     0.058 A 
ATOM     54  C   UNL A   1      43.329  22.595  28.041  1.00  0.00     0.135 A 
ATOM     55  C   UNL A   1      43.136  23.166  25.715  1.00  0.00     0.135 A 
ATOM     56  F   UNL A   1      43.629  22.916  29.309  1.00  0.00    -0.206 F 
ATOM     57  C   UNL A   1      42.914  21.296  27.766  1.00  0.00     0.059 A 
ATOM     58  C   UNL A   1      42.691  21.883  25.419  1.00  0.00     0.059 A 
ATOM     59  F   UNL A   1      43.227  24.052  24.711  1.00  0.00    -0.206 F 
ATOM     60  C   UNL A   1      42.601  20.949  26.449  1.00  0.00     0.060 A 
BRANCH  60  61
ATOM     61  S   UNL A   1      42.041  19.270  26.100  1.00  0.00     0.124 S 
ATOM     62  O   UNL A   1      40.608  19.474  25.913  1.00  0.00    -0.237 OA
ATOM     63  O   UNL A   1      42.800  18.932  24.900  1.00  0.00    -0.237 OA
ATOM     64  O   UNL A   1      42.423  18.534  27.301  1.00  0.00    -0.744 OA
ENDBRANCH  60  61
ENDBRANCH  28  53
BRANCH  40  65
ATOM     65  C   UNL A   1      49.453  26.946  25.987  1.00  0.00     0.058 A 
ATOM     66  C   UNL A   1      49.739  27.160  24.630  1.00  0.00     0.135 A 
ATOM     67  C   UNL A   1      50.453  26.371  26.789  1.00  0.00     0.135 A 
ATOM     68  F   UNL A   1      48.811  27.695  23.820  1.00  0.00    -0.206 F 
ATOM     69  C   UNL A   1      50.968  26.807  24.084  1.00  0.00     0.059 A 
ATOM     70  C   UNL A   1      51.696  26.032  26.268  1.00  0.00     0.059 A 
ATOM     71  F   UNL A   1      50.229  26.150  28.093  1.00  0.00    -0.206 F 
ATOM     72  C   UNL A   1      51.942  26.247  24.912  1.00  0.00     0.060 A 
BRANCH  72  73
ATOM     73  S   UNL A   1      53.549  25.836  24.200  1.00  0.00     0.124 S 
ATOM     74  O   UNL A   1      53.735  24.466  24.668  1.00  0.00    -0.237 OA
ATOM     75  O   UNL A   1      53.307  25.990  22.769  1.00  0.00    -0.237 OA
ATOM     76  O   UNL A   1      54.445  26.828  24.788  1.00  0.00    -0.744 OA
ENDBRANCH  72  73
ENDBRANCH  40  65
ENDBRANCH  14  15
ENDBRANCH   7   9
ENDBRANCH   4   5
ENDBRANCH   3   4
ENDBRANCH   2   3
ENDBRANCH   1   2
BRANCH   1  77
ATOM     77  N   UNL A   1      32.245  29.729  25.408  1.00  0.00    -0.352 N 
ATOM     78  C   UNL A   1      31.587  28.635  24.907  1.00  0.00     0.252 C 
ATOM     79  H   UNL A   1      31.888  30.601  25.126  1.00  0.00     0.163 HD
ATOM     80  O   UNL A   1      30.730  28.764  24.037  1.00  0.00    -0.269 OA
BRANCH  78  81
ATOM     81  C   UNL A   1      31.916  27.291  25.400  1.00  0.00     0.058 A 
ATOM     82  C   UNL A   1      33.005  26.569  24.919  1.00  0.00     0.017 A 
ATOM     83  C   UNL A   1      31.136  26.727  26.394  1.00  0.00     0.125 A 
ATOM     84  C   UNL A   1      33.223  25.278  25.392  1.00  0.00     0.030 A 
ATOM     85  N   UNL A   1      31.329  25.474  26.875  1.00  0.00    -0.255 NA
ATOM     86  C   UNL A   1      32.362  24.757  26.360  1.00  0.00     0.094 A 
BRANCH  86  87
ATOM     87  C   UNL A   1      32.594  23.355  26.902  1.00  0.00     0.318 C 
BRANCH  87  88
ATOM     88  N   UNL A   1      31.541  22.418  26.495  1.00  0.00    -0.338 N 
ATOM     89  H   UNL A   1      30.657  22.926  26.463  1.00  0.00     0.346 HD
ATOM     90  H   UNL A   1      31.538  21.664  27.181  1.00  0.00     0.346 HD
BRANCH  88  91
ATOM     91  C   UNL A   1      31.764  21.799  25.187  1.00  0.00     0.302 C 
BRANCH  91  92
ATOM     92  C   UNL A   1      32.639  20.529  25.175  1.00  0.00     0.290 C 
BRANCH  92  93
ATOM     93  O   UNL A   1      31.871  19.379  24.790  1.00  0.00    -0.488 OA
BRANCH  93  94
ATOM     94  C   UNL A   1      32.631  18.250  24.660  1.00  0.00     0.119 A 
ATOM     95  C   UNL A   1      32.783  17.338  25.705  1.00  0.00     0.046 A 
ATOM     96  C   UNL A   1      33.320  18.071  23.462  1.00  0.00     0.046 A 
ATOM     97  C   UNL A   1      33.584  16.208  25.521  1.00  0.00     0.004 A 
ATOM     98  C   UNL A   1      34.100  16.933  23.273  1.00  0.00     0.004 A 
ATOM     99  C   UNL A   1      34.231  16.000  24.302  1.00  0.00     0.000 A 
ENDBRANCH  93  94
ENDBRANCH  92  93
ENDBRANCH  91  92
ENDBRANCH  88  91
ENDBRANCH  87  88
ENDBRANCH  86  87
ENDBRANCH  78  81
ENDBRANCH   1  77
TORSDOF 20
ENDMDL
