MODEL 1
REMARK VINA RESULT:     -11.2      0.000      0.000
REMARK SMILES CCOc1cc2nccc(Nc3ccc(C(=O)NCCCCNC(=O)c4ccc(-c5c6nc(c(-c7c(F)cc(S(=O)(=O)[O-])cc7F)c7ccc([nH]7)c(-c7c(F)cc(S(=O)(=O)[O-])cc7F)c7nc(c(-c8c(F)cc(S(=O)(=O)[O-])cc8F)c8ccc5[nH]8)C=C7)C=C6)cc4)cc3)c2cc1OCC
REMARK SMILES IDX 20 1 19 2 18 3 16 4 17 5 15 7 12 8 13 9 93 10 14 11 92 12
REMARK SMILES IDX 11 13 10 15 4 16 5 17 96 18 6 19 95 20 7 21 94 22 8 23 9 24
REMARK SMILES IDX 3 25 2 26 1 27 97 28 98 29 99 30 21 31 22 32 23 33 24 34
REMARK SMILES IDX 25 36 26 37 27 38 91 39 28 40 90 41 29 42 30 43 31 44 84 45
REMARK SMILES IDX 32 46 89 47 83 48 85 49 33 50 88 51 82 52 81 53 34 55 68 56
REMARK SMILES IDX 47 57 67 58 48 59 51 60 66 61 86 62 49 63 50 64 65 66 87 67
REMARK SMILES IDX 52 68 35 69 36 70 45 71 37 72 38 73 44 74 46 75 39 76 40 77
REMARK SMILES IDX 41 78 42 79 43 80 69 81 70 82 79 83 71 84 72 85 78 86 80 87
REMARK SMILES IDX 73 88 74 89 75 90 76 91 77 92 53 93 54 94 63 95 55 96 56 97
REMARK SMILES IDX 62 98 64 99 57 100 58 101 59 102 60 103 61 104
REMARK H PARENT 18 6 11 14 23 35 85 54 51 65
REMARK Flexibility Score: inf
ROOT
ATOM      1  C   UNL A   1      37.401  33.892  29.802  1.00  0.00     0.023 C 
ENDROOT
BRANCH   1   2
ATOM      2  C   UNL A   1      36.568  33.320  28.654  1.00  0.00     0.116 C 
BRANCH   2   3
ATOM      3  N   UNL A   1      35.215  33.834  28.722  1.00  0.00    -0.352 N 
ATOM      4  C   UNL A   1      34.019  33.295  28.326  1.00  0.00     0.251 C 
ATOM      5  O   UNL A   1      33.000  33.966  28.485  1.00  0.00    -0.269 OA
ATOM      6  H   UNL A   1      35.143  34.729  29.124  1.00  0.00     0.163 HD
BRANCH   4   7
ATOM      7  C   UNL A   1      33.897  31.909  27.797  1.00  0.00     0.039 A 
ATOM      8  C   UNL A   1      33.915  29.303  26.729  1.00  0.00     0.038 A 
ATOM      9  C   UNL A   1      35.029  29.800  27.414  1.00  0.00     0.027 A 
ATOM     10  C   UNL A   1      32.779  30.102  26.618  1.00  0.00     0.027 A 
ATOM     11  C   UNL A   1      35.024  31.092  27.934  1.00  0.00     0.016 A 
ATOM     12  C   UNL A   1      32.754  31.379  27.191  1.00  0.00     0.016 A 
BRANCH   8  13
ATOM     13  N   UNL A   1      33.990  28.031  26.155  1.00  0.00    -0.355 N 
ATOM     14  H   UNL A   1      34.190  27.311  26.797  1.00  0.00     0.167 HD
BRANCH  13  15
ATOM     15  C   UNL A   1      33.834  27.588  24.822  1.00  0.00     0.050 A 
ATOM     16  C   UNL A   1      33.645  23.447  24.028  1.00  0.00     0.163 A 
ATOM     17  C   UNL A   1      33.711  24.380  22.983  1.00  0.00     0.079 A 
ATOM     18  C   UNL A   1      33.546  23.897  25.343  1.00  0.00     0.161 A 
ATOM     19  C   UNL A   1      33.720  25.756  23.224  1.00  0.00     0.076 A 
ATOM     20  C   UNL A   1      33.598  25.260  25.598  1.00  0.00     0.063 A 
ATOM     21  N   UNL A   1      33.766  26.618  22.192  1.00  0.00    -0.256 NA
ATOM     22  C   UNL A   1      33.714  26.202  24.562  1.00  0.00     0.028 A 
ATOM     23  C   UNL A   1      33.799  27.943  22.470  1.00  0.00     0.114 A 
ATOM     24  C   UNL A   1      33.827  28.471  23.748  1.00  0.00     0.047 A 
BRANCH  16  25
ATOM     25  O   UNL A   1      33.809  22.107  23.816  1.00  0.00    -0.490 OA
BRANCH  25  26
ATOM     26  C   UNL A   1      32.605  21.339  23.779  1.00  0.00     0.226 C 
ATOM     27  C   UNL A   1      32.046  21.464  22.367  1.00  0.00     0.049 C 
ENDBRANCH  25  26
ENDBRANCH  16  25
BRANCH  18  28
ATOM     28  O   UNL A   1      33.424  23.139  26.473  1.00  0.00    -0.490 OA
BRANCH  28  29
ATOM     29  C   UNL A   1      32.164  23.165  27.143  1.00  0.00     0.226 C 
ATOM     30  C   UNL A   1      30.961  23.282  26.216  1.00  0.00     0.049 C 
ENDBRANCH  28  29
ENDBRANCH  18  28
ENDBRANCH  13  15
ENDBRANCH   8  13
ENDBRANCH   4   7
ENDBRANCH   2   3
ENDBRANCH   1   2
BRANCH   1  31
ATOM     31  C   UNL A   1      36.732  33.761  31.172  1.00  0.00     0.023 C 
BRANCH  31  32
ATOM     32  C   UNL A   1      37.280  32.634  32.038  1.00  0.00     0.116 C 
BRANCH  32  33
ATOM     33  N   UNL A   1      36.510  31.404  31.927  1.00  0.00    -0.352 N 
ATOM     34  C   UNL A   1      36.873  30.228  31.319  1.00  0.00     0.251 C 
ATOM     35  H   UNL A   1      35.616  31.418  32.339  1.00  0.00     0.163 HD
ATOM     36  O   UNL A   1      36.061  29.314  31.204  1.00  0.00    -0.269 OA
BRANCH  34  37
ATOM     37  C   UNL A   1      38.236  30.097  30.770  1.00  0.00     0.039 A 
ATOM     38  C   UNL A   1      39.268  29.695  31.620  1.00  0.00     0.014 A 
ATOM     39  C   UNL A   1      38.479  30.317  29.412  1.00  0.00     0.014 A 
ATOM     40  C   UNL A   1      40.537  29.453  31.092  1.00  0.00     0.010 A 
ATOM     41  C   UNL A   1      39.722  30.005  28.876  1.00  0.00     0.010 A 
ATOM     42  C   UNL A   1      40.764  29.572  29.711  1.00  0.00    -0.014 A 
BRANCH  42  43
ATOM     43  C   UNL A   1      42.083  29.240  29.119  1.00  0.00     0.031 A 
ATOM     44  C   UNL A   1      42.347  27.857  28.593  1.00  0.00     0.074 A 
ATOM     45  C   UNL A   1      43.067  30.162  29.130  1.00  0.00     0.049 A 
ATOM     46  N   UNL A   1      43.452  27.358  28.101  1.00  0.00    -0.248 NA
ATOM     47  C   UNL A   1      41.231  26.901  28.659  1.00  0.00     0.031 C 
ATOM     48  C   UNL A   1      42.951  31.515  29.678  1.00  0.00     0.029 A 
ATOM     49  N   UNL A   1      44.362  30.094  28.683  1.00  0.00    -0.354 N 
ATOM     50  C   UNL A   1      43.169  26.029  27.811  1.00  0.00     0.074 A 
ATOM     51  C   UNL A   1      41.808  25.784  28.239  1.00  0.00     0.031 C 
ATOM     52  C   UNL A   1      44.123  32.152  29.527  1.00  0.00     0.029 A 
ATOM     53  C   UNL A   1      45.081  31.245  28.901  1.00  0.00     0.049 A 
ATOM     54  H   UNL A   1      44.741  29.296  28.248  1.00  0.00     0.167 HD
ATOM     55  C   UNL A   1      43.962  25.103  27.221  1.00  0.00     0.037 A 
ATOM     56  C   UNL A   1      46.369  31.535  28.637  1.00  0.00     0.037 A 
ATOM     57  C   UNL A   1      45.309  25.360  26.784  1.00  0.00     0.049 A 
ATOM     58  C   UNL A   1      47.228  30.503  27.960  1.00  0.00     0.074 A 
ATOM     59  C   UNL A   1      46.175  24.514  26.116  1.00  0.00     0.029 A 
ATOM     60  N   UNL A   1      45.989  26.554  26.980  1.00  0.00    -0.354 N 
ATOM     61  N   UNL A   1      46.920  29.275  27.616  1.00  0.00    -0.248 NA
ATOM     62  C   UNL A   1      48.602  30.896  27.625  1.00  0.00     0.031 C 
ATOM     63  C   UNL A   1      47.394  25.180  25.947  1.00  0.00     0.029 A 
ATOM     64  C   UNL A   1      47.272  26.460  26.465  1.00  0.00     0.049 A 
ATOM     65  H   UNL A   1      45.616  27.352  27.420  1.00  0.00     0.167 HD
ATOM     66  C   UNL A   1      48.056  28.754  27.007  1.00  0.00     0.074 A 
ATOM     67  C   UNL A   1      49.053  29.806  27.016  1.00  0.00     0.031 C 
ATOM     68  C   UNL A   1      48.254  27.516  26.486  1.00  0.00     0.037 A 
BRANCH  55  69
ATOM     69  C   UNL A   1      43.383  23.729  27.019  1.00  0.00     0.058 A 
ATOM     70  C   UNL A   1      43.272  22.811  28.077  1.00  0.00     0.135 A 
ATOM     71  C   UNL A   1      42.938  23.319  25.752  1.00  0.00     0.135 A 
ATOM     72  F   UNL A   1      43.693  23.146  29.308  1.00  0.00    -0.206 F 
ATOM     73  C   UNL A   1      42.791  21.522  27.877  1.00  0.00     0.059 A 
ATOM     74  C   UNL A   1      42.424  22.043  25.534  1.00  0.00     0.059 A 
ATOM     75  F   UNL A   1      43.016  24.154  24.704  1.00  0.00    -0.206 F 
ATOM     76  C   UNL A   1      42.377  21.144  26.599  1.00  0.00     0.060 A 
BRANCH  76  77
ATOM     77  S   UNL A   1      41.786  19.457  26.347  1.00  0.00     0.124 S 
ATOM     78  O   UNL A   1      42.472  19.093  25.110  1.00  0.00    -0.237 OA
ATOM     79  O   UNL A   1      42.252  18.778  27.552  1.00  0.00    -0.237 OA
ATOM     80  O   UNL A   1      40.340  19.616  26.240  1.00  0.00    -0.744 OA
ENDBRANCH  76  77
ENDBRANCH  55  69
BRANCH  56  81
ATOM     81  C   UNL A   1      46.907  32.873  28.998  1.00  0.00     0.058 A 
ATOM     82  C   UNL A   1      46.831  33.951  28.104  1.00  0.00     0.135 A 
ATOM     83  C   UNL A   1      47.457  33.114  30.268  1.00  0.00     0.135 A 
ATOM     84  F   UNL A   1      46.319  33.769  26.878  1.00  0.00    -0.206 F 
ATOM     85  C   UNL A   1      47.284  35.219  28.453  1.00  0.00     0.059 A 
ATOM     86  C   UNL A   1      47.894  34.379  30.647  1.00  0.00     0.059 A 
ATOM     87  F   UNL A   1      47.534  32.119  31.166  1.00  0.00    -0.206 F 
ATOM     88  C   UNL A   1      47.806  35.425  29.731  1.00  0.00     0.060 A 
BRANCH  88  89
ATOM     89  S   UNL A   1      48.313  37.094  30.201  1.00  0.00     0.124 S 
ATOM     90  O   UNL A   1      47.537  37.306  31.416  1.00  0.00    -0.237 OA
ATOM     91  O   UNL A   1      49.753  36.937  30.380  1.00  0.00    -0.237 OA
ATOM     92  O   UNL A   1      47.918  37.901  29.049  1.00  0.00    -0.744 OA
ENDBRANCH  88  89
ENDBRANCH  56  81
BRANCH  68  93
ATOM     93  C   UNL A   1      49.594  27.236  25.864  1.00  0.00     0.058 A 
ATOM     94  C   UNL A   1      50.681  26.781  26.627  1.00  0.00     0.135 A 
ATOM     95  C   UNL A   1      49.776  27.371  24.478  1.00  0.00     0.135 A 
ATOM     96  F   UNL A   1      50.562  26.642  27.957  1.00  0.00    -0.206 F 
ATOM     97  C   UNL A   1      51.909  26.489  26.041  1.00  0.00     0.059 A 
ATOM     98  C   UNL A   1      50.987  27.059  23.867  1.00  0.00     0.059 A 
ATOM     99  F   UNL A   1      48.766  27.793  23.701  1.00  0.00    -0.206 F 
ATOM    100  C   UNL A   1      52.051  26.629  24.658  1.00  0.00     0.060 A 
BRANCH 100 101
ATOM    101  S   UNL A   1      53.638  26.213  23.904  1.00  0.00     0.124 S 
ATOM    102  O   UNL A   1      54.033  25.042  24.679  1.00  0.00    -0.237 OA
ATOM    103  O   UNL A   1      53.266  25.958  22.515  1.00  0.00    -0.237 OA
ATOM    104  O   UNL A   1      54.442  27.412  24.122  1.00  0.00    -0.744 OA
ENDBRANCH 100 101
ENDBRANCH  68  93
ENDBRANCH  42  43
ENDBRANCH  34  37
ENDBRANCH  32  33
ENDBRANCH  31  32
ENDBRANCH   1  31
TORSDOF 20
ENDMDL
MODEL 2
REMARK VINA RESULT:     -11.1      1.528      8.237
REMARK SMILES CCOc1cc2nccc(Nc3ccc(C(=O)NCCCCNC(=O)c4ccc(-c5c6nc(c(-c7c(F)cc(S(=O)(=O)[O-])cc7F)c7ccc([nH]7)c(-c7c(F)cc(S(=O)(=O)[O-])cc7F)c7nc(c(-c8c(F)cc(S(=O)(=O)[O-])cc8F)c8ccc5[nH]8)C=C7)C=C6)cc4)cc3)c2cc1OCC
REMARK SMILES IDX 20 1 19 2 18 3 16 4 17 5 15 7 12 8 13 9 93 10 14 11 92 12
REMARK SMILES IDX 11 13 10 15 4 16 5 17 96 18 6 19 95 20 7 21 94 22 8 23 9 24
REMARK SMILES IDX 3 25 2 26 1 27 97 28 98 29 99 30 21 31 22 32 23 33 24 34
REMARK SMILES IDX 25 36 26 37 27 38 91 39 28 40 90 41 29 42 30 43 31 44 84 45
REMARK SMILES IDX 32 46 89 47 83 48 85 49 33 50 88 51 82 52 81 53 34 55 68 56
REMARK SMILES IDX 47 57 67 58 48 59 51 60 66 61 86 62 49 63 50 64 65 66 87 67
REMARK SMILES IDX 52 68 35 69 36 70 45 71 37 72 38 73 44 74 46 75 39 76 40 77
REMARK SMILES IDX 41 78 42 79 43 80 69 81 70 82 79 83 71 84 72 85 78 86 80 87
REMARK SMILES IDX 73 88 74 89 75 90 76 91 77 92 53 93 54 94 63 95 55 96 56 97
REMARK SMILES IDX 62 98 64 99 57 100 58 101 59 102 60 103 61 104
REMARK H PARENT 18 6 11 14 23 35 85 54 51 65
REMARK Flexibility Score: inf
ROOT
ATOM      1  C   UNL A   1      34.461  32.356  28.806  1.00  0.00     0.023 C 
ENDROOT
BRANCH   1   2
ATOM      2  C   UNL A   1      34.171  31.186  27.864  1.00  0.00     0.116 C 
BRANCH   2   3
ATOM      3  N   UNL A   1      32.928  31.419  27.156  1.00  0.00    -0.352 N 
ATOM      4  C   UNL A   1      32.235  30.644  26.265  1.00  0.00     0.251 C 
ATOM      5  O   UNL A   1      31.196  31.099  25.787  1.00  0.00    -0.269 OA
ATOM      6  H   UNL A   1      32.510  32.288  27.350  1.00  0.00     0.163 HD
BRANCH   4   7
ATOM      7  C   UNL A   1      32.639  29.253  25.921  1.00  0.00     0.039 A 
ATOM      8  C   UNL A   1      33.278  26.653  25.046  1.00  0.00     0.038 A 
ATOM      9  C   UNL A   1      33.237  27.719  24.142  1.00  0.00     0.027 A 
ATOM     10  C   UNL A   1      33.038  26.904  26.396  1.00  0.00     0.027 A 
ATOM     11  C   UNL A   1      32.912  29.004  24.572  1.00  0.00     0.016 A 
ATOM     12  C   UNL A   1      32.768  28.205  26.836  1.00  0.00     0.016 A 
BRANCH   8  13
ATOM     13  N   UNL A   1      33.531  25.367  24.561  1.00  0.00    -0.355 N 
ATOM     14  H   UNL A   1      34.487  25.136  24.515  1.00  0.00     0.167 HD
BRANCH  13  15
ATOM     15  C   UNL A   1      32.666  24.338  24.123  1.00  0.00     0.050 A 
ATOM     16  C   UNL A   1      33.821  20.311  24.636  1.00  0.00     0.163 A 
ATOM     17  C   UNL A   1      32.672  20.645  23.904  1.00  0.00     0.079 A 
ATOM     18  C   UNL A   1      34.537  21.316  25.282  1.00  0.00     0.161 A 
ATOM     19  C   UNL A   1      32.245  21.968  23.768  1.00  0.00     0.076 A 
ATOM     20  C   UNL A   1      34.147  22.638  25.119  1.00  0.00     0.063 A 
ATOM     21  N   UNL A   1      31.127  22.244  23.071  1.00  0.00    -0.256 NA
ATOM     22  C   UNL A   1      33.027  22.988  24.346  1.00  0.00     0.028 A 
ATOM     23  C   UNL A   1      30.761  23.542  22.941  1.00  0.00     0.114 A 
ATOM     24  C   UNL A   1      31.482  24.609  23.447  1.00  0.00     0.047 A 
BRANCH  16  25
ATOM     25  O   UNL A   1      34.342  19.048  24.632  1.00  0.00    -0.490 OA
BRANCH  25  26
ATOM     26  C   UNL A   1      33.476  18.027  24.135  1.00  0.00     0.226 C 
ATOM     27  C   UNL A   1      34.360  16.852  23.738  1.00  0.00     0.049 C 
ENDBRANCH  25  26
ENDBRANCH  16  25
BRANCH  18  28
ATOM     28  O   UNL A   1      35.642  21.171  26.073  1.00  0.00    -0.490 OA
BRANCH  28  29
ATOM     29  C   UNL A   1      36.834  21.836  25.657  1.00  0.00     0.226 C 
ATOM     30  C   UNL A   1      37.756  20.990  24.788  1.00  0.00     0.049 C 
ENDBRANCH  28  29
ENDBRANCH  18  28
ENDBRANCH  13  15
ENDBRANCH   8  13
ENDBRANCH   4   7
ENDBRANCH   2   3
ENDBRANCH   1   2
BRANCH   1  31
ATOM     31  C   UNL A   1      35.874  32.926  28.661  1.00  0.00     0.023 C 
BRANCH  31  32
ATOM     32  C   UNL A   1      36.786  32.664  29.852  1.00  0.00     0.116 C 
BRANCH  32  33
ATOM     33  N   UNL A   1      36.300  31.600  30.719  1.00  0.00    -0.352 N 
ATOM     34  C   UNL A   1      36.926  30.425  31.053  1.00  0.00     0.251 C 
ATOM     35  H   UNL A   1      35.409  31.741  31.114  1.00  0.00     0.163 HD
ATOM     36  O   UNL A   1      36.332  29.571  31.704  1.00  0.00    -0.269 OA
BRANCH  34  37
ATOM     37  C   UNL A   1      38.305  30.191  30.583  1.00  0.00     0.039 A 
ATOM     38  C   UNL A   1      39.308  29.959  31.527  1.00  0.00     0.014 A 
ATOM     39  C   UNL A   1      38.591  30.147  29.216  1.00  0.00     0.014 A 
ATOM     40  C   UNL A   1      40.590  29.620  31.095  1.00  0.00     0.010 A 
ATOM     41  C   UNL A   1      39.849  29.737  28.790  1.00  0.00     0.010 A 
ATOM     42  C   UNL A   1      40.861  29.471  29.725  1.00  0.00    -0.014 A 
BRANCH  42  43
ATOM     43  C   UNL A   1      42.196  29.032  29.250  1.00  0.00     0.031 A 
ATOM     44  C   UNL A   1      43.329  30.016  29.169  1.00  0.00     0.074 A 
ATOM     45  C   UNL A   1      42.364  27.766  28.818  1.00  0.00     0.049 A 
ATOM     46  N   UNL A   1      44.545  29.840  28.721  1.00  0.00    -0.248 NA
ATOM     47  C   UNL A   1      43.047  31.387  29.621  1.00  0.00     0.031 C 
ATOM     48  C   UNL A   1      41.319  26.740  28.782  1.00  0.00     0.029 A 
ATOM     49  N   UNL A   1      43.469  27.134  28.309  1.00  0.00    -0.354 N 
ATOM     50  C   UNL A   1      45.169  31.077  28.825  1.00  0.00     0.074 A 
ATOM     51  C   UNL A   1      44.178  32.009  29.321  1.00  0.00     0.031 C 
ATOM     52  C   UNL A   1      41.837  25.604  28.287  1.00  0.00     0.029 A 
ATOM     53  C   UNL A   1      43.237  25.829  27.942  1.00  0.00     0.049 A 
ATOM     54  H   UNL A   1      44.346  27.571  28.215  1.00  0.00     0.167 HD
ATOM     55  C   UNL A   1      46.455  31.403  28.555  1.00  0.00     0.037 A 
ATOM     56  C   UNL A   1      44.056  24.919  27.380  1.00  0.00     0.037 A 
ATOM     57  C   UNL A   1      47.438  30.466  28.077  1.00  0.00     0.049 A 
ATOM     58  C   UNL A   1      45.488  25.292  27.109  1.00  0.00     0.074 A 
ATOM     59  C   UNL A   1      48.784  30.676  27.834  1.00  0.00     0.029 A 
ATOM     60  N   UNL A   1      47.177  29.140  27.759  1.00  0.00    -0.354 N 
ATOM     61  N   UNL A   1      46.086  26.445  27.291  1.00  0.00    -0.248 NA
ATOM     62  C   UNL A   1      46.358  24.240  26.569  1.00  0.00     0.031 C 
ATOM     63  C   UNL A   1      49.327  29.489  27.330  1.00  0.00     0.029 A 
ATOM     64  C   UNL A   1      48.332  28.525  27.303  1.00  0.00     0.049 A 
ATOM     65  H   UNL A   1      46.301  28.699  27.846  1.00  0.00     0.167 HD
ATOM     66  C   UNL A   1      47.407  26.254  26.905  1.00  0.00     0.074 A 
ATOM     67  C   UNL A   1      47.524  24.870  26.494  1.00  0.00     0.031 C 
ATOM     68  C   UNL A   1      48.431  27.145  26.893  1.00  0.00     0.037 A 
BRANCH  55  69
ATOM     69  C   UNL A   1      46.863  32.835  28.772  1.00  0.00     0.058 A 
ATOM     70  C   UNL A   1      47.337  33.288  30.015  1.00  0.00     0.135 A 
ATOM     71  C   UNL A   1      46.775  33.770  27.728  1.00  0.00     0.135 A 
ATOM     72  F   UNL A   1      47.431  32.440  31.052  1.00  0.00    -0.206 F 
ATOM     73  C   UNL A   1      47.658  34.624  30.230  1.00  0.00     0.059 A 
ATOM     74  C   UNL A   1      47.120  35.107  27.912  1.00  0.00     0.059 A 
ATOM     75  F   UNL A   1      46.333  33.394  26.518  1.00  0.00    -0.206 F 
ATOM     76  C   UNL A   1      47.538  35.528  29.174  1.00  0.00     0.060 A 
BRANCH  76  77
ATOM     77  S   UNL A   1      47.926  37.264  29.477  1.00  0.00     0.124 S 
ATOM     78  O   UNL A   1      47.506  37.416  30.868  1.00  0.00    -0.237 OA
ATOM     79  O   UNL A   1      49.366  37.310  29.243  1.00  0.00    -0.237 OA
ATOM     80  O   UNL A   1      47.112  37.972  28.495  1.00  0.00    -0.744 OA
ENDBRANCH  76  77
ENDBRANCH  55  69
BRANCH  56  81
ATOM     81  C   UNL A   1      43.535  23.563  27.064  1.00  0.00     0.058 A 
ATOM     82  C   UNL A   1      43.379  23.138  25.737  1.00  0.00     0.135 A 
ATOM     83  C   UNL A   1      43.237  22.646  28.085  1.00  0.00     0.135 A 
ATOM     84  F   UNL A   1      43.646  23.980  24.728  1.00  0.00    -0.206 F 
ATOM     85  C   UNL A   1      42.942  21.853  25.431  1.00  0.00     0.059 A 
ATOM     86  C   UNL A   1      42.821  21.349  27.803  1.00  0.00     0.059 A 
ATOM     87  F   UNL A   1      43.388  23.000  29.371  1.00  0.00    -0.206 F 
ATOM     88  C   UNL A   1      42.673  20.962  26.472  1.00  0.00     0.060 A 
BRANCH  88  89
ATOM     89  S   UNL A   1      42.187  19.272  26.062  1.00  0.00     0.124 S 
ATOM     90  O   UNL A   1      40.753  19.420  25.854  1.00  0.00    -0.237 OA
ATOM     91  O   UNL A   1      42.983  19.006  24.867  1.00  0.00    -0.237 OA
ATOM     92  O   UNL A   1      42.581  18.514  27.248  1.00  0.00    -0.744 OA
ENDBRANCH  88  89
ENDBRANCH  56  81
BRANCH  68  93
ATOM     93  C   UNL A   1      49.775  26.647  26.440  1.00  0.00     0.058 A 
ATOM     94  C   UNL A   1      50.187  26.752  25.102  1.00  0.00     0.135 A 
ATOM     95  C   UNL A   1      50.683  26.108  27.366  1.00  0.00     0.135 A 
ATOM     96  F   UNL A   1      49.355  27.253  24.176  1.00  0.00    -0.206 F 
ATOM     97  C   UNL A   1      51.446  26.321  24.694  1.00  0.00     0.059 A 
ATOM     98  C   UNL A   1      51.956  25.696  26.986  1.00  0.00     0.059 A 
ATOM     99  F   UNL A   1      50.342  25.994  28.659  1.00  0.00    -0.206 F 
ATOM    100  C   UNL A   1      52.325  25.796  25.645  1.00  0.00     0.060 A 
BRANCH 100 101
ATOM    101  S   UNL A   1      53.968  25.274  25.110  1.00  0.00     0.124 S 
ATOM    102  O   UNL A   1      54.006  25.777  23.741  1.00  0.00    -0.237 OA
ATOM    103  O   UNL A   1      54.839  25.960  26.061  1.00  0.00    -0.237 OA
ATOM    104  O   UNL A   1      53.924  23.821  25.246  1.00  0.00    -0.744 OA
ENDBRANCH 100 101
ENDBRANCH  68  93
ENDBRANCH  42  43
ENDBRANCH  34  37
ENDBRANCH  32  33
ENDBRANCH  31  32
ENDBRANCH   1  31
TORSDOF 20
ENDMDL
MODEL 3
REMARK VINA RESULT:     -11.0      6.514     11.865
REMARK SMILES CCOc1cc2nccc(Nc3ccc(C(=O)NCCCCNC(=O)c4ccc(-c5c6nc(c(-c7c(F)cc(S(=O)(=O)[O-])cc7F)c7ccc([nH]7)c(-c7c(F)cc(S(=O)(=O)[O-])cc7F)c7nc(c(-c8c(F)cc(S(=O)(=O)[O-])cc8F)c8ccc5[nH]8)C=C7)C=C6)cc4)cc3)c2cc1OCC
REMARK SMILES IDX 20 1 19 2 18 3 16 4 17 5 15 7 12 8 13 9 93 10 14 11 92 12
REMARK SMILES IDX 11 13 10 15 4 16 5 17 96 18 6 19 95 20 7 21 94 22 8 23 9 24
REMARK SMILES IDX 3 25 2 26 1 27 97 28 98 29 99 30 21 31 22 32 23 33 24 34
REMARK SMILES IDX 25 36 26 37 27 38 91 39 28 40 90 41 29 42 30 43 31 44 84 45
REMARK SMILES IDX 32 46 89 47 83 48 85 49 33 50 88 51 82 52 81 53 34 55 68 56
REMARK SMILES IDX 47 57 67 58 48 59 51 60 66 61 86 62 49 63 50 64 65 66 87 67
REMARK SMILES IDX 52 68 35 69 36 70 45 71 37 72 38 73 44 74 46 75 39 76 40 77
REMARK SMILES IDX 41 78 42 79 43 80 69 81 70 82 79 83 71 84 72 85 78 86 80 87
REMARK SMILES IDX 73 88 74 89 75 90 76 91 77 92 53 93 54 94 63 95 55 96 56 97
REMARK SMILES IDX 62 98 64 99 57 100 58 101 59 102 60 103 61 104
REMARK H PARENT 18 6 11 14 23 35 85 54 51 65
REMARK Flexibility Score: inf
ROOT
ATOM      1  C   UNL A   1      36.829  22.136  25.810  1.00  0.00     0.023 C 
ENDROOT
BRANCH   1   2
ATOM      2  C   UNL A   1      36.245  21.349  24.635  1.00  0.00     0.116 C 
BRANCH   2   3
ATOM      3  N   UNL A   1      35.250  20.411  25.114  1.00  0.00    -0.352 N 
ATOM      4  C   UNL A   1      33.938  20.584  25.468  1.00  0.00     0.251 C 
ATOM      5  O   UNL A   1      33.311  19.603  25.868  1.00  0.00    -0.269 OA
ATOM      6  H   UNL A   1      35.575  19.487  25.200  1.00  0.00     0.163 HD
BRANCH   4   7
ATOM      7  C   UNL A   1      33.224  21.880  25.307  1.00  0.00     0.039 A 
ATOM      8  C   UNL A   1      31.983  24.350  24.767  1.00  0.00     0.038 A 
ATOM      9  C   UNL A   1      32.170  23.410  23.749  1.00  0.00     0.027 A 
ATOM     10  C   UNL A   1      32.383  24.030  26.063  1.00  0.00     0.027 A 
ATOM     11  C   UNL A   1      32.793  22.192  24.013  1.00  0.00     0.016 A 
ATOM     12  C   UNL A   1      32.956  22.783  26.339  1.00  0.00     0.016 A 
BRANCH   8  13
ATOM     13  N   UNL A   1      31.427  25.592  24.444  1.00  0.00    -0.355 N 
ATOM     14  H   UNL A   1      30.448  25.629  24.539  1.00  0.00     0.167 HD
BRANCH  13  15
ATOM     15  C   UNL A   1      32.012  26.801  24.006  1.00  0.00     0.050 A 
ATOM     16  C   UNL A   1      29.632  29.628  21.966  1.00  0.00     0.163 A 
ATOM     17  C   UNL A   1      31.019  29.799  22.079  1.00  0.00     0.079 A 
ATOM     18  C   UNL A   1      29.019  28.559  22.617  1.00  0.00     0.161 A 
ATOM     19  C   UNL A   1      31.816  28.903  22.795  1.00  0.00     0.076 A 
ATOM     20  C   UNL A   1      29.805  27.638  23.296  1.00  0.00     0.063 A 
ATOM     21  N   UNL A   1      33.141  29.114  22.894  1.00  0.00    -0.256 NA
ATOM     22  C   UNL A   1      31.202  27.773  23.372  1.00  0.00     0.028 A 
ATOM     23  C   UNL A   1      33.882  28.207  23.575  1.00  0.00     0.114 A 
ATOM     24  C   UNL A   1      33.371  27.056  24.147  1.00  0.00     0.047 A 
BRANCH  16  25
ATOM     25  O   UNL A   1      28.871  30.396  21.131  1.00  0.00    -0.490 OA
BRANCH  25  26
ATOM     26  C   UNL A   1      28.590  31.716  21.596  1.00  0.00     0.226 C 
ATOM     27  C   UNL A   1      28.004  32.484  20.418  1.00  0.00     0.049 C 
ENDBRANCH  25  26
ENDBRANCH  16  25
BRANCH  18  28
ATOM     28  O   UNL A   1      27.685  28.267  22.658  1.00  0.00    -0.490 OA
BRANCH  28  29
ATOM     29  C   UNL A   1      27.143  27.871  23.918  1.00  0.00     0.226 C 
ATOM     30  C   UNL A   1      27.377  26.408  24.271  1.00  0.00     0.049 C 
ENDBRANCH  28  29
ENDBRANCH  18  28
ENDBRANCH  13  15
ENDBRANCH   8  13
ENDBRANCH   4   7
ENDBRANCH   2   3
ENDBRANCH   1   2
BRANCH   1  31
ATOM     31  C   UNL A   1      37.353  23.520  25.423  1.00  0.00     0.023 C 
BRANCH  31  32
ATOM     32  C   UNL A   1      38.276  24.158  26.455  1.00  0.00     0.116 C 
BRANCH  32  33
ATOM     33  N   UNL A   1      39.685  23.915  26.185  1.00  0.00    -0.352 N 
ATOM     34  C   UNL A   1      40.770  24.627  26.635  1.00  0.00     0.251 C 
ATOM     35  H   UNL A   1      39.886  23.144  25.607  1.00  0.00     0.163 HD
ATOM     36  O   UNL A   1      41.896  24.367  26.221  1.00  0.00    -0.269 OA
BRANCH  34  37
ATOM     37  C   UNL A   1      40.555  25.732  27.589  1.00  0.00     0.039 A 
ATOM     38  C   UNL A   1      39.586  25.585  28.583  1.00  0.00     0.014 A 
ATOM     39  C   UNL A   1      41.346  26.882  27.532  1.00  0.00     0.014 A 
ATOM     40  C   UNL A   1      39.453  26.569  29.563  1.00  0.00     0.010 A 
ATOM     41  C   UNL A   1      41.262  27.826  28.549  1.00  0.00     0.010 A 
ATOM     42  C   UNL A   1      40.314  27.679  29.573  1.00  0.00    -0.014 A 
BRANCH  42  43
ATOM     43  C   UNL A   1      40.242  28.695  30.652  1.00  0.00     0.031 A 
ATOM     44  C   UNL A   1      41.095  28.551  31.881  1.00  0.00     0.074 A 
ATOM     45  C   UNL A   1      39.351  29.702  30.559  1.00  0.00     0.049 A 
ATOM     46  N   UNL A   1      41.127  29.295  32.956  1.00  0.00    -0.248 NA
ATOM     47  C   UNL A   1      42.009  27.398  31.920  1.00  0.00     0.031 C 
ATOM     48  C   UNL A   1      38.421  29.906  29.446  1.00  0.00     0.029 A 
ATOM     49  N   UNL A   1      39.071  30.731  31.420  1.00  0.00    -0.354 N 
ATOM     50  C   UNL A   1      42.052  28.696  33.803  1.00  0.00     0.074 A 
ATOM     51  C   UNL A   1      42.513  27.494  33.141  1.00  0.00     0.031 C 
ATOM     52  C   UNL A   1      37.679  30.998  29.690  1.00  0.00     0.029 A 
ATOM     53  C   UNL A   1      38.058  31.553  30.986  1.00  0.00     0.049 A 
ATOM     54  H   UNL A   1      39.548  30.869  32.270  1.00  0.00     0.167 HD
ATOM     55  C   UNL A   1      42.495  29.121  35.010  1.00  0.00     0.037 A 
ATOM     56  C   UNL A   1      37.490  32.626  31.569  1.00  0.00     0.037 A 
ATOM     57  C   UNL A   1      42.043  30.327  35.653  1.00  0.00     0.049 A 
ATOM     58  C   UNL A   1      38.011  33.097  32.899  1.00  0.00     0.074 A 
ATOM     59  C   UNL A   1      42.474  30.884  36.843  1.00  0.00     0.029 A 
ATOM     60  N   UNL A   1      41.047  31.160  35.160  1.00  0.00    -0.354 N 
ATOM     61  N   UNL A   1      38.947  32.566  33.650  1.00  0.00    -0.248 NA
ATOM     62  C   UNL A   1      37.411  34.316  33.455  1.00  0.00     0.031 C 
ATOM     63  C   UNL A   1      41.710  32.029  37.093  1.00  0.00     0.029 A 
ATOM     64  C   UNL A   1      40.836  32.215  36.033  1.00  0.00     0.049 A 
ATOM     65  H   UNL A   1      40.563  31.023  34.314  1.00  0.00     0.167 HD
ATOM     66  C   UNL A   1      39.060  33.396  34.760  1.00  0.00     0.074 A 
ATOM     67  C   UNL A   1      38.108  34.473  34.573  1.00  0.00     0.031 C 
ATOM     68  C   UNL A   1      39.880  33.277  35.835  1.00  0.00     0.037 A 
BRANCH  55  69
ATOM     69  C   UNL A   1      43.521  28.268  35.706  1.00  0.00     0.058 A 
ATOM     70  C   UNL A   1      43.152  27.281  36.636  1.00  0.00     0.135 A 
ATOM     71  C   UNL A   1      44.890  28.440  35.447  1.00  0.00     0.135 A 
ATOM     72  F   UNL A   1      41.857  27.082  36.932  1.00  0.00    -0.206 F 
ATOM     73  C   UNL A   1      44.104  26.534  37.322  1.00  0.00     0.059 A 
ATOM     74  C   UNL A   1      45.859  27.682  36.099  1.00  0.00     0.059 A 
ATOM     75  F   UNL A   1      45.301  29.365  34.565  1.00  0.00    -0.206 F 
ATOM     76  C   UNL A   1      45.456  26.748  37.052  1.00  0.00     0.060 A 
BRANCH  76  77
ATOM     77  S   UNL A   1      46.680  25.794  37.974  1.00  0.00     0.124 S 
ATOM     78  O   UNL A   1      47.383  25.106  36.893  1.00  0.00    -0.237 OA
ATOM     79  O   UNL A   1      47.440  26.835  38.658  1.00  0.00    -0.237 OA
ATOM     80  O   UNL A   1      45.869  24.942  38.837  1.00  0.00    -0.744 OA
ENDBRANCH  76  77
ENDBRANCH  55  69
BRANCH  56  81
ATOM     81  C   UNL A   1      36.381  33.333  30.877  1.00  0.00     0.058 A 
ATOM     82  C   UNL A   1      35.065  33.263  31.357  1.00  0.00     0.135 A 
ATOM     83  C   UNL A   1      36.625  34.139  29.753  1.00  0.00     0.135 A 
ATOM     84  F   UNL A   1      34.781  32.502  32.424  1.00  0.00    -0.206 F 
ATOM     85  C   UNL A   1      34.029  33.963  30.747  1.00  0.00     0.059 A 
ATOM     86  C   UNL A   1      35.610  34.867  29.141  1.00  0.00     0.059 A 
ATOM     87  F   UNL A   1      37.871  34.254  29.267  1.00  0.00    -0.206 F 
ATOM     88  C   UNL A   1      34.314  34.770  29.644  1.00  0.00     0.060 A 
BRANCH  88  89
ATOM     89  S   UNL A   1      32.977  35.740  28.912  1.00  0.00     0.124 S 
ATOM     90  O   UNL A   1      33.717  36.800  28.239  1.00  0.00    -0.237 OA
ATOM     91  O   UNL A   1      32.330  34.761  28.043  1.00  0.00    -0.237 OA
ATOM     92  O   UNL A   1      32.190  36.153  30.071  1.00  0.00    -0.744 OA
ENDBRANCH  88  89
ENDBRANCH  56  81
BRANCH  68  93
ATOM     93  C   UNL A   1      39.800  34.349  36.886  1.00  0.00     0.058 A 
ATOM     94  C   UNL A   1      39.017  34.192  38.040  1.00  0.00     0.135 A 
ATOM     95  C   UNL A   1      40.560  35.523  36.763  1.00  0.00     0.135 A 
ATOM     96  F   UNL A   1      38.267  33.091  38.204  1.00  0.00    -0.206 F 
ATOM     97  C   UNL A   1      38.974  35.173  39.028  1.00  0.00     0.059 A 
ATOM     98  C   UNL A   1      40.553  36.505  37.750  1.00  0.00     0.059 A 
ATOM     99  F   UNL A   1      41.334  35.719  35.684  1.00  0.00    -0.206 F 
ATOM    100  C   UNL A   1      39.748  36.325  38.874  1.00  0.00     0.060 A 
BRANCH 100 101
ATOM    101  S   UNL A   1      39.712  37.573  40.177  1.00  0.00     0.124 S 
ATOM    102  O   UNL A   1      41.122  37.936  40.276  1.00  0.00    -0.237 OA
ATOM    103  O   UNL A   1      38.833  38.592  39.610  1.00  0.00    -0.237 OA
ATOM    104  O   UNL A   1      39.168  36.852  41.323  1.00  0.00    -0.744 OA
ENDBRANCH 100 101
ENDBRANCH  68  93
ENDBRANCH  42  43
ENDBRANCH  34  37
ENDBRANCH  32  33
ENDBRANCH  31  32
ENDBRANCH   1  31
TORSDOF 20
ENDMDL
