MODEL 1
REMARK VINA RESULT:     -13.3      0.000      0.000
REMARK SMILES Cc1cc(C(=O)NCCCCNC(=O)c2ccc(-c3c4nc(c(-c5c(F)cc(S(=O)(=O)[O-])cc5F)c5ccc([nH]5)c(-c5c(F)cc(S(=O)(=O)[O-])cc5F)c5nc(c(-c6c(F)cc(S(=O)(=O)[O-])cc6F)c6ccc3[nH]6)C=C5)C=C4)cc2)ccc1NC(=O)CCl
REMARK SMILES IDX 10 1 9 2 8 3 7 4 5 5 6 6 4 8 1 9 2 10 3 11 83 12 82 13 81 14
REMARK SMILES IDX 84 15 85 16 86 18 87 19 88 20 11 21 12 22 13 23 14 25 15 26
REMARK SMILES IDX 16 27 80 28 17 29 79 30 18 31 19 32 20 33 73 34 21 35 78 36
REMARK SMILES IDX 72 37 74 38 22 39 77 40 71 41 70 42 23 44 57 45 36 46 56 47
REMARK SMILES IDX 37 48 40 49 55 50 75 51 38 52 39 53 54 55 76 56 41 57 24 58
REMARK SMILES IDX 25 59 34 60 26 61 27 62 33 63 35 64 28 65 29 66 30 67 31 68
REMARK SMILES IDX 32 69 58 70 59 71 68 72 60 73 61 74 67 75 69 76 62 77 63 78
REMARK SMILES IDX 64 79 65 80 66 81 42 82 43 83 52 84 44 85 45 86 51 87 53 88
REMARK SMILES IDX 46 89 47 90 48 91 49 92 50 93
REMARK H PARENT 7 7 84 17 12 24 74 43 40 54
REMARK Flexibility Score: inf
ROOT
ATOM      1  C   UNL A   1      33.004  29.946  27.298  1.00  0.00     0.023 C 
ENDROOT
BRANCH   1   2
ATOM      2  C   UNL A   1      32.310  28.587  27.200  1.00  0.00     0.023 C 
BRANCH   2   3
ATOM      3  C   UNL A   1      33.078  27.522  26.399  1.00  0.00     0.116 C 
BRANCH   3   4
ATOM      4  N   UNL A   1      32.237  26.400  26.011  1.00  0.00    -0.352 N 
ATOM      5  C   UNL A   1      31.331  26.210  24.998  1.00  0.00     0.251 C 
ATOM      6  O   UNL A   1      30.854  25.078  24.880  1.00  0.00    -0.269 OA
ATOM      7  H   UNL A   1      32.339  25.615  26.596  1.00  0.00     0.163 HD
BRANCH   5   8
ATOM      8  C   UNL A   1      30.886  27.271  24.042  1.00  0.00     0.040 A 
ATOM      9  C   UNL A   1      27.470  28.571  23.020  1.00  0.00     0.046 C 
ATOM     10  C   UNL A   1      28.975  28.479  23.038  1.00  0.00    -0.027 A 
ATOM     11  C   UNL A   1      29.507  27.462  23.873  1.00  0.00     0.019 A 
ATOM     12  C   UNL A   1      29.853  29.331  22.332  1.00  0.00     0.044 A 
ATOM     13  C   UNL A   1      31.219  29.140  22.521  1.00  0.00     0.027 A 
ATOM     14  C   UNL A   1      31.724  28.136  23.359  1.00  0.00     0.016 A 
BRANCH  12  15
ATOM     15  N   UNL A   1      29.324  30.331  21.492  1.00  0.00    -0.325 N 
ATOM     16  C   UNL A   1      28.840  31.596  21.655  1.00  0.00     0.239 C 
ATOM     17  H   UNL A   1      29.295  30.045  20.550  1.00  0.00     0.169 HD
ATOM     18  O   UNL A   1      28.440  32.163  20.627  1.00  0.00    -0.273 OA
BRANCH  16  19
ATOM     19  C   UNL A   1      28.782  32.331  22.972  1.00  0.00     0.209 C 
ATOM     20  Cl  UNL A   1      27.368  31.777  23.892  1.00  0.00    -0.116 Cl
ENDBRANCH  16  19
ENDBRANCH  12  15
ENDBRANCH   5   8
ENDBRANCH   3   4
ENDBRANCH   2   3
ENDBRANCH   1   2
BRANCH   1  21
ATOM     21  C   UNL A   1      34.520  29.832  27.203  1.00  0.00     0.116 C 
BRANCH  21  22
ATOM     22  N   UNL A   1      35.254  31.008  27.644  1.00  0.00    -0.352 N 
ATOM     23  C   UNL A   1      36.454  31.038  28.340  1.00  0.00     0.251 C 
ATOM     24  H   UNL A   1      34.854  31.880  27.424  1.00  0.00     0.163 HD
ATOM     25  O   UNL A   1      36.893  32.067  28.823  1.00  0.00    -0.269 OA
BRANCH  23  26
ATOM     26  C   UNL A   1      37.239  29.782  28.386  1.00  0.00     0.039 A 
ATOM     27  C   UNL A   1      37.342  29.128  29.620  1.00  0.00     0.014 A 
ATOM     28  C   UNL A   1      38.079  29.448  27.328  1.00  0.00     0.014 A 
ATOM     29  C   UNL A   1      38.423  28.282  29.858  1.00  0.00     0.010 A 
ATOM     30  C   UNL A   1      39.203  28.691  27.598  1.00  0.00     0.010 A 
ATOM     31  C   UNL A   1      39.404  28.150  28.878  1.00  0.00    -0.014 A 
BRANCH  31  32
ATOM     32  C   UNL A   1      40.721  27.562  29.112  1.00  0.00     0.031 A 
ATOM     33  C   UNL A   1      40.997  26.162  28.707  1.00  0.00     0.074 A 
ATOM     34  C   UNL A   1      41.730  28.333  29.571  1.00  0.00     0.049 A 
ATOM     35  N   UNL A   1      42.028  25.474  29.070  1.00  0.00    -0.248 NA
ATOM     36  C   UNL A   1      40.071  25.398  27.883  1.00  0.00     0.031 C 
ATOM     37  C   UNL A   1      43.161  28.061  29.470  1.00  0.00     0.029 A 
ATOM     38  N   UNL A   1      41.665  29.456  30.384  1.00  0.00    -0.354 N 
ATOM     39  C   UNL A   1      42.064  24.324  28.309  1.00  0.00     0.074 A 
ATOM     40  C   UNL A   1      40.776  24.287  27.659  1.00  0.00     0.031 C 
ATOM     41  C   UNL A   1      43.819  28.832  30.349  1.00  0.00     0.029 A 
ATOM     42  C   UNL A   1      42.826  29.504  31.167  1.00  0.00     0.049 A 
ATOM     43  H   UNL A   1      40.929  30.108  30.406  1.00  0.00     0.167 HD
ATOM     44  C   UNL A   1      43.236  23.626  28.216  1.00  0.00     0.037 A 
ATOM     45  C   UNL A   1      42.768  29.405  32.530  1.00  0.00     0.037 A 
ATOM     46  C   UNL A   1      44.225  24.147  29.168  1.00  0.00     0.049 A 
ATOM     47  C   UNL A   1      43.444  28.173  33.095  1.00  0.00     0.074 A 
ATOM     48  C   UNL A   1      45.314  24.994  29.030  1.00  0.00     0.029 A 
ATOM     49  N   UNL A   1      43.990  24.034  30.536  1.00  0.00    -0.354 N 
ATOM     50  N   UNL A   1      43.818  27.151  32.376  1.00  0.00    -0.248 NA
ATOM     51  C   UNL A   1      43.737  27.983  34.514  1.00  0.00     0.031 C 
ATOM     52  C   UNL A   1      45.678  25.457  30.320  1.00  0.00     0.029 A 
ATOM     53  C   UNL A   1      44.831  24.873  31.246  1.00  0.00     0.049 A 
ATOM     54  H   UNL A   1      43.319  23.440  30.941  1.00  0.00     0.167 HD
ATOM     55  C   UNL A   1      44.336  26.176  33.186  1.00  0.00     0.074 A 
ATOM     56  C   UNL A   1      44.296  26.760  34.514  1.00  0.00     0.031 C 
ATOM     57  C   UNL A   1      44.741  24.966  32.697  1.00  0.00     0.037 A 
BRANCH  44  58
ATOM     58  C   UNL A   1      43.598  22.694  27.059  1.00  0.00     0.058 A 
ATOM     59  C   UNL A   1      42.915  21.468  26.881  1.00  0.00     0.135 A 
ATOM     60  C   UNL A   1      44.658  22.887  26.150  1.00  0.00     0.135 A 
ATOM     61  F   UNL A   1      41.805  21.174  27.574  1.00  0.00    -0.206 F 
ATOM     62  C   UNL A   1      43.334  20.474  25.987  1.00  0.00     0.059 A 
ATOM     63  C   UNL A   1      45.126  21.896  25.282  1.00  0.00     0.059 A 
ATOM     64  F   UNL A   1      45.259  24.071  26.008  1.00  0.00    -0.206 F 
ATOM     65  C   UNL A   1      44.470  20.679  25.219  1.00  0.00     0.060 A 
BRANCH  65  66
ATOM     66  S   UNL A   1      45.058  19.365  24.137  1.00  0.00     0.124 S 
ATOM     67  O   UNL A   1      44.495  18.174  24.767  1.00  0.00    -0.237 OA
ATOM     68  O   UNL A   1      44.477  19.742  22.854  1.00  0.00    -0.237 OA
ATOM     69  O   UNL A   1      46.512  19.479  24.221  1.00  0.00    -0.744 OA
ENDBRANCH  65  66
ENDBRANCH  44  58
BRANCH  45  70
ATOM     70  C   UNL A   1      41.582  30.087  33.115  1.00  0.00     0.058 A 
ATOM     71  C   UNL A   1      41.664  31.482  33.279  1.00  0.00     0.135 A 
ATOM     72  C   UNL A   1      40.305  29.511  33.048  1.00  0.00     0.135 A 
ATOM     73  F   UNL A   1      42.864  32.078  33.369  1.00  0.00    -0.206 F 
ATOM     74  C   UNL A   1      40.540  32.293  33.184  1.00  0.00     0.059 A 
ATOM     75  C   UNL A   1      39.161  30.306  32.959  1.00  0.00     0.059 A 
ATOM     76  F   UNL A   1      40.168  28.186  32.900  1.00  0.00    -0.206 F 
ATOM     77  C   UNL A   1      39.304  31.695  32.945  1.00  0.00     0.060 A 
BRANCH  77  78
ATOM     78  S   UNL A   1      37.955  32.764  32.393  1.00  0.00     0.124 S 
ATOM     79  O   UNL A   1      37.798  33.667  33.528  1.00  0.00    -0.237 OA
ATOM     80  O   UNL A   1      38.539  33.354  31.190  1.00  0.00    -0.237 OA
ATOM     81  O   UNL A   1      36.859  31.830  32.171  1.00  0.00    -0.744 OA
ENDBRANCH  77  78
ENDBRANCH  45  70
BRANCH  57  82
ATOM     82  C   UNL A   1      45.165  23.780  33.530  1.00  0.00     0.058 A 
ATOM     83  C   UNL A   1      46.421  23.666  34.152  1.00  0.00     0.135 A 
ATOM     84  C   UNL A   1      44.232  22.762  33.843  1.00  0.00     0.135 A 
ATOM     85  F   UNL A   1      47.353  24.621  34.016  1.00  0.00    -0.206 F 
ATOM     86  C   UNL A   1      46.752  22.587  34.974  1.00  0.00     0.059 A 
ATOM     87  C   UNL A   1      44.523  21.706  34.703  1.00  0.00     0.059 A 
ATOM     88  F   UNL A   1      42.995  22.769  33.325  1.00  0.00    -0.206 F 
ATOM     89  C   UNL A   1      45.797  21.612  35.245  1.00  0.00     0.060 A 
BRANCH  89  90
ATOM     90  S   UNL A   1      46.188  20.247  36.356  1.00  0.00     0.124 S 
ATOM     91  O   UNL A   1      45.307  19.199  35.852  1.00  0.00    -0.237 OA
ATOM     92  O   UNL A   1      47.614  20.035  36.124  1.00  0.00    -0.237 OA
ATOM     93  O   UNL A   1      45.850  20.784  37.671  1.00  0.00    -0.744 OA
ENDBRANCH  89  90
ENDBRANCH  57  82
ENDBRANCH  31  32
ENDBRANCH  23  26
ENDBRANCH  21  22
ENDBRANCH   1  21
TORSDOF 16
ENDMDL
MODEL 2
REMARK VINA RESULT:     -13.3      2.247      3.721
REMARK SMILES Cc1cc(C(=O)NCCCCNC(=O)c2ccc(-c3c4nc(c(-c5c(F)cc(S(=O)(=O)[O-])cc5F)c5ccc([nH]5)c(-c5c(F)cc(S(=O)(=O)[O-])cc5F)c5nc(c(-c6c(F)cc(S(=O)(=O)[O-])cc6F)c6ccc3[nH]6)C=C5)C=C4)cc2)ccc1NC(=O)CCl
REMARK SMILES IDX 10 1 9 2 8 3 7 4 5 5 6 6 4 8 1 9 2 10 3 11 83 12 82 13 81 14
REMARK SMILES IDX 84 15 85 16 86 18 87 19 88 20 11 21 12 22 13 23 14 25 15 26
REMARK SMILES IDX 16 27 80 28 17 29 79 30 18 31 19 32 20 33 73 34 21 35 78 36
REMARK SMILES IDX 72 37 74 38 22 39 77 40 71 41 70 42 23 44 57 45 36 46 56 47
REMARK SMILES IDX 37 48 40 49 55 50 75 51 38 52 39 53 54 55 76 56 41 57 24 58
REMARK SMILES IDX 25 59 34 60 26 61 27 62 33 63 35 64 28 65 29 66 30 67 31 68
REMARK SMILES IDX 32 69 58 70 59 71 68 72 60 73 61 74 67 75 69 76 62 77 63 78
REMARK SMILES IDX 64 79 65 80 66 81 42 82 43 83 52 84 44 85 45 86 51 87 53 88
REMARK SMILES IDX 46 89 47 90 48 91 49 92 50 93
REMARK H PARENT 7 7 84 17 12 24 74 43 40 54
REMARK Flexibility Score: inf
ROOT
ATOM      1  C   UNL A   1      32.981  30.051  27.134  1.00  0.00     0.023 C 
ENDROOT
BRANCH   1   2
ATOM      2  C   UNL A   1      32.220  28.746  26.890  1.00  0.00     0.023 C 
BRANCH   2   3
ATOM      3  C   UNL A   1      31.605  28.606  25.487  1.00  0.00     0.116 C 
BRANCH   3   4
ATOM      4  N   UNL A   1      32.577  28.822  24.427  1.00  0.00    -0.352 N 
ATOM      5  C   UNL A   1      33.461  27.996  23.779  1.00  0.00     0.251 C 
ATOM      6  O   UNL A   1      34.086  28.480  22.831  1.00  0.00    -0.269 OA
ATOM      7  H   UNL A   1      32.606  29.753  24.108  1.00  0.00     0.163 HD
BRANCH   5   8
ATOM      8  C   UNL A   1      33.719  26.569  24.144  1.00  0.00     0.040 A 
ATOM      9  C   UNL A   1      33.553  23.322  22.184  1.00  0.00     0.046 C 
ATOM     10  C   UNL A   1      33.783  24.219  23.375  1.00  0.00    -0.027 A 
ATOM     11  C   UNL A   1      33.513  25.594  23.157  1.00  0.00     0.019 A 
ATOM     12  C   UNL A   1      34.267  23.795  24.633  1.00  0.00     0.044 A 
ATOM     13  C   UNL A   1      34.482  24.775  25.599  1.00  0.00     0.027 A 
ATOM     14  C   UNL A   1      34.217  26.130  25.359  1.00  0.00     0.016 A 
BRANCH  12  15
ATOM     15  N   UNL A   1      34.521  22.426  24.854  1.00  0.00    -0.325 N 
ATOM     16  C   UNL A   1      35.610  21.607  24.790  1.00  0.00     0.239 C 
ATOM     17  H   UNL A   1      33.709  21.938  25.122  1.00  0.00     0.169 HD
ATOM     18  O   UNL A   1      35.410  20.413  25.056  1.00  0.00    -0.273 OA
BRANCH  16  19
ATOM     19  C   UNL A   1      37.007  22.061  24.442  1.00  0.00     0.209 C 
ATOM     20  Cl  UNL A   1      37.656  23.039  25.773  1.00  0.00    -0.116 Cl
ENDBRANCH  16  19
ENDBRANCH  12  15
ENDBRANCH   5   8
ENDBRANCH   3   4
ENDBRANCH   2   3
ENDBRANCH   1   2
BRANCH   1  21
ATOM     21  C   UNL A   1      34.462  29.817  27.402  1.00  0.00     0.116 C 
BRANCH  21  22
ATOM     22  N   UNL A   1      35.239  31.020  27.651  1.00  0.00    -0.352 N 
ATOM     23  C   UNL A   1      36.519  31.100  28.181  1.00  0.00     0.251 C 
ATOM     24  H   UNL A   1      34.808  31.874  27.418  1.00  0.00     0.163 HD
ATOM     25  O   UNL A   1      37.011  32.162  28.522  1.00  0.00    -0.269 OA
BRANCH  23  26
ATOM     26  C   UNL A   1      37.312  29.849  28.222  1.00  0.00     0.039 A 
ATOM     27  C   UNL A   1      37.339  29.139  29.429  1.00  0.00     0.014 A 
ATOM     28  C   UNL A   1      38.223  29.569  27.208  1.00  0.00     0.014 A 
ATOM     29  C   UNL A   1      38.410  28.291  29.700  1.00  0.00     0.010 A 
ATOM     30  C   UNL A   1      39.334  28.809  27.518  1.00  0.00     0.010 A 
ATOM     31  C   UNL A   1      39.455  28.211  28.782  1.00  0.00    -0.014 A 
BRANCH  31  32
ATOM     32  C   UNL A   1      40.759  27.622  29.076  1.00  0.00     0.031 A 
ATOM     33  C   UNL A   1      41.055  26.223  28.680  1.00  0.00     0.074 A 
ATOM     34  C   UNL A   1      41.746  28.391  29.585  1.00  0.00     0.049 A 
ATOM     35  N   UNL A   1      42.067  25.533  29.089  1.00  0.00    -0.248 NA
ATOM     36  C   UNL A   1      40.168  25.461  27.810  1.00  0.00     0.031 C 
ATOM     37  C   UNL A   1      43.180  28.118  29.551  1.00  0.00     0.029 A 
ATOM     38  N   UNL A   1      41.643  29.511  30.398  1.00  0.00    -0.354 N 
ATOM     39  C   UNL A   1      42.139  24.386  28.327  1.00  0.00     0.074 A 
ATOM     40  C   UNL A   1      40.884  24.351  27.616  1.00  0.00     0.031 C 
ATOM     41  C   UNL A   1      43.796  28.886  30.463  1.00  0.00     0.029 A 
ATOM     42  C   UNL A   1      42.765  29.556  31.236  1.00  0.00     0.049 A 
ATOM     43  H   UNL A   1      40.907  30.163  30.387  1.00  0.00     0.167 HD
ATOM     44  C   UNL A   1      43.314  23.688  28.287  1.00  0.00     0.037 A 
ATOM     45  C   UNL A   1      42.642  29.452  32.594  1.00  0.00     0.037 A 
ATOM     46  C   UNL A   1      44.257  24.205  29.286  1.00  0.00     0.049 A 
ATOM     47  C   UNL A   1      43.290  28.218  33.186  1.00  0.00     0.074 A 
ATOM     48  C   UNL A   1      45.351  25.052  29.203  1.00  0.00     0.029 A 
ATOM     49  N   UNL A   1      43.957  24.088  30.641  1.00  0.00    -0.354 N 
ATOM     50  N   UNL A   1      43.699  27.198  32.482  1.00  0.00    -0.248 NA
ATOM     51  C   UNL A   1      43.516  28.023  34.617  1.00  0.00     0.031 C 
ATOM     52  C   UNL A   1      45.653  25.510  30.511  1.00  0.00     0.029 A 
ATOM     53  C   UNL A   1      44.763  24.924  31.393  1.00  0.00     0.049 A 
ATOM     54  H   UNL A   1      43.267  23.492  31.012  1.00  0.00     0.167 HD
ATOM     55  C   UNL A   1      44.177  26.220  33.312  1.00  0.00     0.074 A 
ATOM     56  C   UNL A   1      44.074  26.799  34.639  1.00  0.00     0.031 C 
ATOM     57  C   UNL A   1      44.605  25.011  32.839  1.00  0.00     0.037 A 
BRANCH  44  58
ATOM     58  C   UNL A   1      43.730  22.760  27.145  1.00  0.00     0.058 A 
ATOM     59  C   UNL A   1      42.974  21.601  26.846  1.00  0.00     0.135 A 
ATOM     60  C   UNL A   1      44.901  22.886  26.370  1.00  0.00     0.135 A 
ATOM     61  F   UNL A   1      41.771  21.386  27.397  1.00  0.00    -0.206 F 
ATOM     62  C   UNL A   1      43.411  20.600  25.969  1.00  0.00     0.059 A 
ATOM     63  C   UNL A   1      45.384  21.881  25.525  1.00  0.00     0.059 A 
ATOM     64  F   UNL A   1      45.610  24.017  26.341  1.00  0.00    -0.206 F 
ATOM     65  C   UNL A   1      44.642  20.727  25.344  1.00  0.00     0.060 A 
BRANCH  65  66
ATOM     66  S   UNL A   1      45.242  19.397  24.288  1.00  0.00     0.124 S 
ATOM     67  O   UNL A   1      44.871  18.210  25.051  1.00  0.00    -0.237 OA
ATOM     68  O   UNL A   1      44.494  19.623  23.057  1.00  0.00    -0.237 OA
ATOM     69  O   UNL A   1      46.678  19.653  24.201  1.00  0.00    -0.744 OA
ENDBRANCH  65  66
ENDBRANCH  44  58
BRANCH  45  70
ATOM     70  C   UNL A   1      41.430  30.132  33.125  1.00  0.00     0.058 A 
ATOM     71  C   UNL A   1      41.479  31.535  33.230  1.00  0.00     0.135 A 
ATOM     72  C   UNL A   1      40.167  29.526  33.056  1.00  0.00     0.135 A 
ATOM     73  F   UNL A   1      42.665  32.160  33.320  1.00  0.00    -0.206 F 
ATOM     74  C   UNL A   1      40.341  32.316  33.077  1.00  0.00     0.059 A 
ATOM     75  C   UNL A   1      39.009  30.292  32.909  1.00  0.00     0.059 A 
ATOM     76  F   UNL A   1      40.060  28.193  32.962  1.00  0.00    -0.206 F 
ATOM     77  C   UNL A   1      39.124  31.681  32.839  1.00  0.00     0.060 A 
BRANCH  77  78
ATOM     78  S   UNL A   1      37.765  32.697  32.214  1.00  0.00     0.124 S 
ATOM     79  O   UNL A   1      38.434  33.519  31.212  1.00  0.00    -0.237 OA
ATOM     80  O   UNL A   1      36.864  31.671  31.692  1.00  0.00    -0.237 OA
ATOM     81  O   UNL A   1      37.300  33.401  33.403  1.00  0.00    -0.744 OA
ENDBRANCH  77  78
ENDBRANCH  45  70
BRANCH  57  82
ATOM     82  C   UNL A   1      44.988  23.823  33.687  1.00  0.00     0.058 A 
ATOM     83  C   UNL A   1      44.091  22.811  34.073  1.00  0.00     0.135 A 
ATOM     84  C   UNL A   1      46.344  23.601  34.027  1.00  0.00     0.135 A 
ATOM     85  F   UNL A   1      42.798  22.857  33.719  1.00  0.00    -0.206 F 
ATOM     86  C   UNL A   1      44.497  21.689  34.798  1.00  0.00     0.059 A 
ATOM     87  C   UNL A   1      46.779  22.464  34.703  1.00  0.00     0.059 A 
ATOM     88  F   UNL A   1      47.297  24.486  33.700  1.00  0.00    -0.206 F 
ATOM     89  C   UNL A   1      45.843  21.523  35.109  1.00  0.00     0.060 A 
BRANCH  89  90
ATOM     90  S   UNL A   1      46.393  20.049  35.989  1.00  0.00     0.124 S 
ATOM     91  O   UNL A   1      45.750  20.227  37.286  1.00  0.00    -0.237 OA
ATOM     92  O   UNL A   1      45.864  18.962  35.169  1.00  0.00    -0.237 OA
ATOM     93  O   UNL A   1      47.847  20.180  35.977  1.00  0.00    -0.744 OA
ENDBRANCH  89  90
ENDBRANCH  57  82
ENDBRANCH  31  32
ENDBRANCH  23  26
ENDBRANCH  21  22
ENDBRANCH   1  21
TORSDOF 16
ENDMDL
MODEL 3
REMARK VINA RESULT:     -13.2      1.759      3.013
REMARK SMILES Cc1cc(C(=O)NCCCCNC(=O)c2ccc(-c3c4nc(c(-c5c(F)cc(S(=O)(=O)[O-])cc5F)c5ccc([nH]5)c(-c5c(F)cc(S(=O)(=O)[O-])cc5F)c5nc(c(-c6c(F)cc(S(=O)(=O)[O-])cc6F)c6ccc3[nH]6)C=C5)C=C4)cc2)ccc1NC(=O)CCl
REMARK SMILES IDX 10 1 9 2 8 3 7 4 5 5 6 6 4 8 1 9 2 10 3 11 83 12 82 13 81 14
REMARK SMILES IDX 84 15 85 16 86 18 87 19 88 20 11 21 12 22 13 23 14 25 15 26
REMARK SMILES IDX 16 27 80 28 17 29 79 30 18 31 19 32 20 33 73 34 21 35 78 36
REMARK SMILES IDX 72 37 74 38 22 39 77 40 71 41 70 42 23 44 57 45 36 46 56 47
REMARK SMILES IDX 37 48 40 49 55 50 75 51 38 52 39 53 54 55 76 56 41 57 24 58
REMARK SMILES IDX 25 59 34 60 26 61 27 62 33 63 35 64 28 65 29 66 30 67 31 68
REMARK SMILES IDX 32 69 58 70 59 71 68 72 60 73 61 74 67 75 69 76 62 77 63 78
REMARK SMILES IDX 64 79 65 80 66 81 42 82 43 83 52 84 44 85 45 86 51 87 53 88
REMARK SMILES IDX 46 89 47 90 48 91 49 92 50 93
REMARK H PARENT 7 7 84 17 12 24 74 43 40 54
REMARK Flexibility Score: inf
ROOT
ATOM      1  C   UNL A   1      32.797  30.206  27.292  1.00  0.00     0.023 C 
ENDROOT
BRANCH   1   2
ATOM      2  C   UNL A   1      32.150  29.262  26.277  1.00  0.00     0.023 C 
BRANCH   2   3
ATOM      3  C   UNL A   1      32.303  29.686  24.806  1.00  0.00     0.116 C 
BRANCH   3   4
ATOM      4  N   UNL A   1      31.022  29.857  24.139  1.00  0.00    -0.352 N 
ATOM      5  C   UNL A   1      30.134  28.979  23.568  1.00  0.00     0.251 C 
ATOM      6  O   UNL A   1      29.064  29.447  23.170  1.00  0.00    -0.269 OA
ATOM      7  H   UNL A   1      30.732  30.796  24.085  1.00  0.00     0.163 HD
BRANCH   5   8
ATOM      8  C   UNL A   1      30.377  27.513  23.395  1.00  0.00     0.040 A 
ATOM      9  C   UNL A   1      32.650  25.515  21.104  1.00  0.00     0.046 C 
ATOM     10  C   UNL A   1      31.626  25.754  22.186  1.00  0.00    -0.027 A 
ATOM     11  C   UNL A   1      31.277  27.113  22.397  1.00  0.00     0.019 A 
ATOM     12  C   UNL A   1      31.045  24.751  22.994  1.00  0.00     0.044 A 
ATOM     13  C   UNL A   1      30.165  25.164  23.991  1.00  0.00     0.027 A 
ATOM     14  C   UNL A   1      29.841  26.513  24.189  1.00  0.00     0.016 A 
BRANCH  12  15
ATOM     15  N   UNL A   1      31.381  23.400  22.774  1.00  0.00    -0.325 N 
ATOM     16  C   UNL A   1      32.369  22.555  23.185  1.00  0.00     0.239 C 
ATOM     17  H   UNL A   1      30.742  22.954  22.171  1.00  0.00     0.169 HD
ATOM     18  O   UNL A   1      32.317  21.399  22.739  1.00  0.00    -0.273 OA
BRANCH  16  19
ATOM     19  C   UNL A   1      33.478  22.928  24.138  1.00  0.00     0.209 C 
ATOM     20  Cl  UNL A   1      34.879  23.505  23.212  1.00  0.00    -0.116 Cl
ENDBRANCH  16  19
ENDBRANCH  12  15
ENDBRANCH   5   8
ENDBRANCH   3   4
ENDBRANCH   2   3
ENDBRANCH   1   2
BRANCH   1  21
ATOM     21  C   UNL A   1      34.290  29.953  27.451  1.00  0.00     0.116 C 
BRANCH  21  22
ATOM     22  N   UNL A   1      35.087  31.135  27.740  1.00  0.00    -0.352 N 
ATOM     23  C   UNL A   1      36.354  31.178  28.304  1.00  0.00     0.251 C 
ATOM     24  H   UNL A   1      34.681  32.002  27.511  1.00  0.00     0.163 HD
ATOM     25  O   UNL A   1      36.859  32.223  28.676  1.00  0.00    -0.269 OA
BRANCH  23  26
ATOM     26  C   UNL A   1      37.118  29.909  28.345  1.00  0.00     0.039 A 
ATOM     27  C   UNL A   1      37.197  29.240  29.572  1.00  0.00     0.014 A 
ATOM     28  C   UNL A   1      37.963  29.573  27.291  1.00  0.00     0.014 A 
ATOM     29  C   UNL A   1      38.262  28.374  29.812  1.00  0.00     0.010 A 
ATOM     30  C   UNL A   1      39.072  28.795  27.564  1.00  0.00     0.010 A 
ATOM     31  C   UNL A   1      39.251  28.237  28.840  1.00  0.00    -0.014 A 
BRANCH  31  32
ATOM     32  C   UNL A   1      40.555  27.625  29.080  1.00  0.00     0.031 A 
ATOM     33  C   UNL A   1      40.793  26.206  28.722  1.00  0.00     0.074 A 
ATOM     34  C   UNL A   1      41.588  28.386  29.502  1.00  0.00     0.049 A 
ATOM     35  N   UNL A   1      41.810  25.505  29.098  1.00  0.00    -0.248 NA
ATOM     36  C   UNL A   1      39.839  25.436  27.935  1.00  0.00     0.031 C 
ATOM     37  C   UNL A   1      43.011  28.076  29.396  1.00  0.00     0.029 A 
ATOM     38  N   UNL A   1      41.560  29.538  30.276  1.00  0.00    -0.354 N 
ATOM     39  C   UNL A   1      41.811  24.329  28.377  1.00  0.00     0.074 A 
ATOM     40  C   UNL A   1      40.515  24.301  27.742  1.00  0.00     0.031 C 
ATOM     41  C   UNL A   1      43.697  28.860  30.240  1.00  0.00     0.029 A 
ATOM     42  C   UNL A   1      42.730  29.584  31.045  1.00  0.00     0.049 A 
ATOM     43  H   UNL A   1      40.840  30.208  30.283  1.00  0.00     0.167 HD
ATOM     44  C   UNL A   1      42.964  23.599  28.296  1.00  0.00     0.037 A 
ATOM     45  C   UNL A   1      42.685  29.533  32.412  1.00  0.00     0.037 A 
ATOM     46  C   UNL A   1      43.976  24.128  29.219  1.00  0.00     0.049 A 
ATOM     47  C   UNL A   1      43.337  28.306  33.012  1.00  0.00     0.074 A 
ATOM     48  C   UNL A   1      45.084  24.943  29.041  1.00  0.00     0.029 A 
ATOM     49  N   UNL A   1      43.754  24.069  30.593  1.00  0.00    -0.354 N 
ATOM     50  N   UNL A   1      43.678  27.250  32.324  1.00  0.00    -0.248 NA
ATOM     51  C   UNL A   1      43.641  28.158  34.433  1.00  0.00     0.031 C 
ATOM     52  C   UNL A   1      45.473  25.441  30.310  1.00  0.00     0.029 A 
ATOM     53  C   UNL A   1      44.622  24.911  31.264  1.00  0.00     0.049 A 
ATOM     54  H   UNL A   1      43.072  23.506  31.026  1.00  0.00     0.167 HD
ATOM     55  C   UNL A   1      44.181  26.291  33.163  1.00  0.00     0.074 A 
ATOM     56  C   UNL A   1      44.170  26.921  34.470  1.00  0.00     0.031 C 
ATOM     57  C   UNL A   1      44.551  25.055  32.713  1.00  0.00     0.037 A 
BRANCH  44  58
ATOM     58  C   UNL A   1      43.290  22.619  27.169  1.00  0.00     0.058 A 
ATOM     59  C   UNL A   1      42.653  21.357  27.104  1.00  0.00     0.135 A 
ATOM     60  C   UNL A   1      44.277  22.805  26.180  1.00  0.00     0.135 A 
ATOM     61  F   UNL A   1      41.607  21.057  27.887  1.00  0.00    -0.206 F 
ATOM     62  C   UNL A   1      43.056  20.333  26.238  1.00  0.00     0.059 A 
ATOM     63  C   UNL A   1      44.732  21.786  25.336  1.00  0.00     0.059 A 
ATOM     64  F   UNL A   1      44.813  24.003  25.933  1.00  0.00    -0.206 F 
ATOM     65  C   UNL A   1      44.129  20.541  25.384  1.00  0.00     0.060 A 
BRANCH  65  66
ATOM     66  S   UNL A   1      44.703  19.194  24.336  1.00  0.00     0.124 S 
ATOM     67  O   UNL A   1      46.080  19.021  24.787  1.00  0.00    -0.237 OA
ATOM     68  O   UNL A   1      43.779  18.121  24.684  1.00  0.00    -0.237 OA
ATOM     69  O   UNL A   1      44.556  19.728  22.984  1.00  0.00    -0.744 OA
ENDBRANCH  65  66
ENDBRANCH  44  58
BRANCH  45  70
ATOM     70  C   UNL A   1      41.523  30.264  32.985  1.00  0.00     0.058 A 
ATOM     71  C   UNL A   1      41.628  31.665  33.070  1.00  0.00     0.135 A 
ATOM     72  C   UNL A   1      40.236  29.706  32.977  1.00  0.00     0.135 A 
ATOM     73  F   UNL A   1      42.839  32.246  33.102  1.00  0.00    -0.206 F 
ATOM     74  C   UNL A   1      40.514  32.487  32.956  1.00  0.00     0.059 A 
ATOM     75  C   UNL A   1      39.102  30.513  32.870  1.00  0.00     0.059 A 
ATOM     76  F   UNL A   1      40.076  28.377  32.904  1.00  0.00    -0.206 F 
ATOM     77  C   UNL A   1      39.265  31.896  32.778  1.00  0.00     0.060 A 
BRANCH  77  78
ATOM     78  S   UNL A   1      37.919  32.955  32.199  1.00  0.00     0.124 S 
ATOM     79  O   UNL A   1      37.664  33.791  33.367  1.00  0.00    -0.237 OA
ATOM     80  O   UNL A   1      38.557  33.626  31.067  1.00  0.00    -0.237 OA
ATOM     81  O   UNL A   1      36.868  32.004  31.859  1.00  0.00    -0.744 OA
ENDBRANCH  77  78
ENDBRANCH  45  70
BRANCH  57  82
ATOM     82  C   UNL A   1      44.955  23.890  33.582  1.00  0.00     0.058 A 
ATOM     83  C   UNL A   1      44.089  22.842  33.942  1.00  0.00     0.135 A 
ATOM     84  C   UNL A   1      46.306  23.728  33.971  1.00  0.00     0.135 A 
ATOM     85  F   UNL A   1      42.809  22.830  33.543  1.00  0.00    -0.206 F 
ATOM     86  C   UNL A   1      44.518  21.742  34.690  1.00  0.00     0.059 A 
ATOM     87  C   UNL A   1      46.766  22.615  34.670  1.00  0.00     0.059 A 
ATOM     88  F   UNL A   1      47.232  24.653  33.672  1.00  0.00    -0.206 F 
ATOM     89  C   UNL A   1      45.857  21.636  35.049  1.00  0.00     0.060 A 
BRANCH  89  90
ATOM     90  S   UNL A   1      46.439  20.192  35.958  1.00  0.00     0.124 S 
ATOM     91  O   UNL A   1      45.786  20.379  37.249  1.00  0.00    -0.237 OA
ATOM     92  O   UNL A   1      45.940  19.078  35.156  1.00  0.00    -0.237 OA
ATOM     93  O   UNL A   1      47.889  20.359  35.949  1.00  0.00    -0.744 OA
ENDBRANCH  89  90
ENDBRANCH  57  82
ENDBRANCH  31  32
ENDBRANCH  23  26
ENDBRANCH  21  22
ENDBRANCH   1  21
TORSDOF 16
ENDMDL
