MODEL 1
REMARK VINA RESULT:     -11.7      0.000      0.000
REMARK SMILES N#C[C@@H]1CN(C(=O)Nc2cccc(F)c2C(=O)NCCCCNC(=O)c2ccc(-c3c4nc(c(-c5c(F)cc(S(=O)(=O)[O-])cc5F)c5ccc([nH]5)c(-c5c(F)cc(S(=O)(=O)[O-])cc5F)c5nc(c(-c6c(F)cc(S(=O)(=O)[O-])cc6F)c6ccc3[nH]6)C=C5)C=C4)cc2)CCO1
REMARK SMILES IDX 20 1 19 2 18 3 16 4 17 5 15 7 9 8 10 9 11 10 13 11 12 12
REMARK SMILES IDX 14 13 8 14 6 15 7 16 5 18 3 19 4 20 94 21 93 22 92 23 2 24
REMARK SMILES IDX 1 25 21 26 22 27 23 28 24 29 25 31 26 32 27 33 91 34 28 35
REMARK SMILES IDX 90 36 29 37 30 38 31 39 84 40 32 41 89 42 83 43 85 44 33 45
REMARK SMILES IDX 88 46 82 47 81 48 34 50 68 51 47 52 67 53 48 54 51 55 66 56
REMARK SMILES IDX 86 57 49 58 50 59 65 61 87 62 52 63 35 64 36 65 45 66 37 67
REMARK SMILES IDX 38 68 44 69 46 70 39 71 40 72 41 73 42 74 43 75 69 76 70 77
REMARK SMILES IDX 79 78 71 79 72 80 78 81 80 82 73 83 74 84 75 85 76 86 77 87
REMARK SMILES IDX 53 88 54 89 63 90 55 91 56 92 62 93 64 94 57 95 58 96 59 97
REMARK SMILES IDX 60 98 61 99
REMARK H PARENT 18 6 8 17 23 30 85 49 51 60
REMARK Flexibility Score: inf
ROOT
ATOM      1  C   UNL A   1      33.979  27.987  24.848  1.00  0.00     0.023 C 
ENDROOT
BRANCH   1   2
ATOM      2  C   UNL A   1      33.950  28.593  23.454  1.00  0.00     0.116 C 
BRANCH   2   3
ATOM      3  N   UNL A   1      33.920  27.620  22.377  1.00  0.00    -0.352 N 
ATOM      4  C   UNL A   1      32.945  26.746  21.957  1.00  0.00     0.256 C 
ATOM      5  O   UNL A   1      33.224  25.992  21.023  1.00  0.00    -0.269 OA
ATOM      6  H   UNL A   1      34.752  27.579  21.851  1.00  0.00     0.163 HD
BRANCH   4   7
ATOM      7  C   UNL A   1      31.634  26.595  22.648  1.00  0.00     0.099 A 
ATOM      8  C   UNL A   1      31.239  25.347  23.178  1.00  0.00     0.058 A 
ATOM      9  C   UNL A   1      30.130  25.255  24.038  1.00  0.00     0.027 A 
ATOM     10  C   UNL A   1      29.291  26.352  24.217  1.00  0.00     0.005 A 
ATOM     11  C   UNL A   1      30.670  27.602  22.680  1.00  0.00     0.138 A 
ATOM     12  C   UNL A   1      29.526  27.504  23.476  1.00  0.00     0.040 A 
ATOM     13  F   UNL A   1      30.736  28.652  21.848  1.00  0.00    -0.206 F 
BRANCH   8  14
ATOM     14  N   UNL A   1      31.800  24.162  22.665  1.00  0.00    -0.307 N 
ATOM     15  C   UNL A   1      32.779  23.360  23.183  1.00  0.00     0.322 C 
ATOM     16  O   UNL A   1      33.364  22.589  22.419  1.00  0.00    -0.248 OA
ATOM     17  H   UNL A   1      31.432  23.866  21.801  1.00  0.00     0.171 HD
BRANCH  15  18
ATOM     18  N   UNL A   1      33.018  23.327  24.549  1.00  0.00    -0.319 N 
ATOM     19  C   UNL A   1      33.247  21.561  26.307  1.00  0.00     0.240 C 
ATOM     20  C   UNL A   1      32.331  22.532  25.580  1.00  0.00     0.169 C 
ATOM     21  O   UNL A   1      34.387  22.277  26.849  1.00  0.00    -0.360 OA
ATOM     22  C   UNL A   1      35.117  22.986  25.825  1.00  0.00     0.183 C 
ATOM     23  C   UNL A   1      34.227  23.983  25.068  1.00  0.00     0.150 C 
BRANCH  19  24
ATOM     24  C   UNL A   1      33.686  20.435  25.385  1.00  0.00     0.096 C 
ATOM     25  N   UNL A   1      34.050  19.501  24.621  1.00  0.00    -0.195 NA
ENDBRANCH  19  24
ENDBRANCH  15  18
ENDBRANCH   8  14
ENDBRANCH   4   7
ENDBRANCH   2   3
ENDBRANCH   1   2
BRANCH   1  26
ATOM     26  C   UNL A   1      32.888  28.443  25.807  1.00  0.00     0.023 C 
BRANCH  26  27
ATOM     27  C   UNL A   1      33.313  28.649  27.257  1.00  0.00     0.116 C 
BRANCH  27  28
ATOM     28  N   UNL A   1      33.345  30.044  27.673  1.00  0.00    -0.352 N 
ATOM     29  C   UNL A   1      34.380  30.784  28.202  1.00  0.00     0.251 C 
ATOM     30  H   UNL A   1      32.497  30.533  27.559  1.00  0.00     0.163 HD
ATOM     31  O   UNL A   1      34.185  31.938  28.557  1.00  0.00    -0.269 OA
BRANCH  29  32
ATOM     32  C   UNL A   1      35.710  30.161  28.384  1.00  0.00     0.039 A 
ATOM     33  C   UNL A   1      36.588  30.126  27.299  1.00  0.00     0.014 A 
ATOM     34  C   UNL A   1      36.104  29.656  29.624  1.00  0.00     0.014 A 
ATOM     35  C   UNL A   1      37.897  29.674  27.483  1.00  0.00     0.010 A 
ATOM     36  C   UNL A   1      37.430  29.284  29.827  1.00  0.00     0.010 A 
ATOM     37  C   UNL A   1      38.343  29.299  28.762  1.00  0.00    -0.014 A 
BRANCH  37  38
ATOM     38  C   UNL A   1      39.765  28.951  29.014  1.00  0.00     0.031 A 
ATOM     39  C   UNL A   1      40.713  29.977  29.564  1.00  0.00     0.074 A 
ATOM     40  C   UNL A   1      40.223  27.733  28.659  1.00  0.00     0.049 A 
ATOM     41  N   UNL A   1      42.001  29.883  29.772  1.00  0.00    -0.248 NA
ATOM     42  C   UNL A   1      40.146  31.295  29.893  1.00  0.00     0.031 C 
ATOM     43  C   UNL A   1      39.417  26.671  28.053  1.00  0.00     0.029 A 
ATOM     44  N   UNL A   1      41.480  27.188  28.742  1.00  0.00    -0.354 N 
ATOM     45  C   UNL A   1      42.402  31.132  30.229  1.00  0.00     0.074 A 
ATOM     46  C   UNL A   1      41.230  31.980  30.224  1.00  0.00     0.031 C 
ATOM     47  C   UNL A   1      40.192  25.596  27.842  1.00  0.00     0.029 A 
ATOM     48  C   UNL A   1      41.558  25.902  28.261  1.00  0.00     0.049 A 
ATOM     49  H   UNL A   1      42.253  27.672  29.110  1.00  0.00     0.167 HD
ATOM     50  C   UNL A   1      43.632  31.530  30.633  1.00  0.00     0.037 A 
ATOM     51  C   UNL A   1      42.607  25.063  28.163  1.00  0.00     0.037 A 
ATOM     52  C   UNL A   1      44.785  30.670  30.671  1.00  0.00     0.049 A 
ATOM     53  C   UNL A   1      43.956  25.509  28.647  1.00  0.00     0.074 A 
ATOM     54  C   UNL A   1      46.050  30.950  31.156  1.00  0.00     0.029 A 
ATOM     55  N   UNL A   1      44.817  29.364  30.202  1.00  0.00    -0.354 N 
ATOM     56  N   UNL A   1      44.303  26.669  29.152  1.00  0.00    -0.248 NA
ATOM     57  C   UNL A   1      45.055  24.539  28.555  1.00  0.00     0.031 C 
ATOM     58  C   UNL A   1      46.859  29.829  30.942  1.00  0.00     0.029 A 
ATOM     59  C   UNL A   1      46.087  28.833  30.363  1.00  0.00     0.049 A 
ATOM     60  H   UNL A   1      44.050  28.884  29.813  1.00  0.00     0.167 HD
ATOM     61  C   UNL A   1      45.657  26.566  29.447  1.00  0.00     0.074 A 
ATOM     62  C   UNL A   1      46.064  25.226  29.076  1.00  0.00     0.031 C 
ATOM     63  C   UNL A   1      46.483  27.499  29.980  1.00  0.00     0.037 A 
BRANCH  50  64
ATOM     64  C   UNL A   1      43.789  32.959  31.070  1.00  0.00     0.058 A 
ATOM     65  C   UNL A   1      44.222  33.939  30.162  1.00  0.00     0.135 A 
ATOM     66  C   UNL A   1      43.523  33.362  32.390  1.00  0.00     0.135 A 
ATOM     67  F   UNL A   1      44.486  33.610  28.887  1.00  0.00    -0.206 F 
ATOM     68  C   UNL A   1      44.380  35.267  30.544  1.00  0.00     0.059 A 
ATOM     69  C   UNL A   1      43.649  34.690  32.787  1.00  0.00     0.059 A 
ATOM     70  F   UNL A   1      43.088  32.470  33.293  1.00  0.00    -0.206 F 
ATOM     71  C   UNL A   1      44.086  35.634  31.858  1.00  0.00     0.060 A 
BRANCH  71  72
ATOM     72  S   UNL A   1      44.216  37.374  32.321  1.00  0.00     0.124 S 
ATOM     73  O   UNL A   1      43.764  38.042  31.107  1.00  0.00    -0.237 OA
ATOM     74  O   UNL A   1      43.317  37.459  33.468  1.00  0.00    -0.237 OA
ATOM     75  O   UNL A   1      45.634  37.532  32.638  1.00  0.00    -0.744 OA
ENDBRANCH  71  72
ENDBRANCH  50  64
BRANCH  51  76
ATOM     76  C   UNL A   1      42.386  23.698  27.617  1.00  0.00     0.058 A 
ATOM     77  C   UNL A   1      42.267  22.586  28.465  1.00  0.00     0.135 A 
ATOM     78  C   UNL A   1      42.402  23.470  26.234  1.00  0.00     0.135 A 
ATOM     79  F   UNL A   1      42.257  22.752  29.796  1.00  0.00    -0.206 F 
ATOM     80  C   UNL A   1      42.220  21.290  27.961  1.00  0.00     0.059 A 
ATOM     81  C   UNL A   1      42.337  22.185  25.705  1.00  0.00     0.059 A 
ATOM     82  F   UNL A   1      42.502  24.505  25.386  1.00  0.00    -0.206 F 
ATOM     83  C   UNL A   1      42.275  21.100  26.579  1.00  0.00     0.060 A 
BRANCH  83  84
ATOM     84  S   UNL A   1      42.305  19.408  25.947  1.00  0.00     0.124 S 
ATOM     85  O   UNL A   1      40.897  19.193  25.627  1.00  0.00    -0.237 OA
ATOM     86  O   UNL A   1      43.205  19.523  24.805  1.00  0.00    -0.237 OA
ATOM     87  O   UNL A   1      42.817  18.635  27.074  1.00  0.00    -0.744 OA
ENDBRANCH  83  84
ENDBRANCH  51  76
BRANCH  63  88
ATOM     88  C   UNL A   1      47.920  27.118  30.199  1.00  0.00     0.058 A 
ATOM     89  C   UNL A   1      48.313  26.472  31.382  1.00  0.00     0.135 A 
ATOM     90  C   UNL A   1      48.921  27.475  29.281  1.00  0.00     0.135 A 
ATOM     91  F   UNL A   1      47.397  26.112  32.294  1.00  0.00    -0.206 F 
ATOM     92  C   UNL A   1      49.652  26.214  31.659  1.00  0.00     0.059 A 
ATOM     93  C   UNL A   1      50.264  27.207  29.528  1.00  0.00     0.059 A 
ATOM     94  F   UNL A   1      48.594  28.083  28.130  1.00  0.00    -0.206 F 
ATOM     95  C   UNL A   1      50.621  26.593  30.729  1.00  0.00     0.060 A 
BRANCH  95  96
ATOM     96  S   UNL A   1      52.354  26.256  31.106  1.00  0.00     0.124 S 
ATOM     97  O   UNL A   1      52.731  27.443  31.865  1.00  0.00    -0.237 OA
ATOM     98  O   UNL A   1      52.268  25.015  31.870  1.00  0.00    -0.237 OA
ATOM     99  O   UNL A   1      52.969  26.130  29.788  1.00  0.00    -0.744 OA
ENDBRANCH  95  96
ENDBRANCH  63  88
ENDBRANCH  37  38
ENDBRANCH  29  32
ENDBRANCH  27  28
ENDBRANCH  26  27
ENDBRANCH   1  26
TORSDOF 17
ENDMDL
MODEL 2
REMARK VINA RESULT:     -11.1      3.112      9.355
REMARK SMILES N#C[C@@H]1CN(C(=O)Nc2cccc(F)c2C(=O)NCCCCNC(=O)c2ccc(-c3c4nc(c(-c5c(F)cc(S(=O)(=O)[O-])cc5F)c5ccc([nH]5)c(-c5c(F)cc(S(=O)(=O)[O-])cc5F)c5nc(c(-c6c(F)cc(S(=O)(=O)[O-])cc6F)c6ccc3[nH]6)C=C5)C=C4)cc2)CCO1
REMARK SMILES IDX 20 1 19 2 18 3 16 4 17 5 15 7 9 8 10 9 11 10 13 11 12 12
REMARK SMILES IDX 14 13 8 14 6 15 7 16 5 18 3 19 4 20 94 21 93 22 92 23 2 24
REMARK SMILES IDX 1 25 21 26 22 27 23 28 24 29 25 31 26 32 27 33 91 34 28 35
REMARK SMILES IDX 90 36 29 37 30 38 31 39 84 40 32 41 89 42 83 43 85 44 33 45
REMARK SMILES IDX 88 46 82 47 81 48 34 50 68 51 47 52 67 53 48 54 51 55 66 56
REMARK SMILES IDX 86 57 49 58 50 59 65 61 87 62 52 63 35 64 36 65 45 66 37 67
REMARK SMILES IDX 38 68 44 69 46 70 39 71 40 72 41 73 42 74 43 75 69 76 70 77
REMARK SMILES IDX 79 78 71 79 72 80 78 81 80 82 73 83 74 84 75 85 76 86 77 87
REMARK SMILES IDX 53 88 54 89 63 90 55 91 56 92 62 93 64 94 57 95 58 96 59 97
REMARK SMILES IDX 60 98 61 99
REMARK H PARENT 18 6 8 17 23 30 85 49 51 60
REMARK Flexibility Score: inf
ROOT
ATOM      1  C   UNL A   1      35.002  22.471  25.937  1.00  0.00     0.023 C 
ENDROOT
BRANCH   1   2
ATOM      2  C   UNL A   1      34.420  21.987  27.256  1.00  0.00     0.116 C 
BRANCH   2   3
ATOM      3  N   UNL A   1      33.081  22.474  27.535  1.00  0.00    -0.352 N 
ATOM      4  C   UNL A   1      31.952  22.552  26.754  1.00  0.00     0.256 C 
ATOM      5  O   UNL A   1      30.949  23.064  27.256  1.00  0.00    -0.269 OA
ATOM      6  H   UNL A   1      32.959  22.810  28.453  1.00  0.00     0.163 HD
BRANCH   4   7
ATOM      7  C   UNL A   1      31.927  22.161  25.317  1.00  0.00     0.099 A 
ATOM      8  C   UNL A   1      31.485  23.069  24.330  1.00  0.00     0.058 A 
ATOM      9  C   UNL A   1      31.690  22.798  22.966  1.00  0.00     0.027 A 
ATOM     10  C   UNL A   1      32.148  21.546  22.563  1.00  0.00     0.005 A 
ATOM     11  C   UNL A   1      32.180  20.861  24.878  1.00  0.00     0.138 A 
ATOM     12  C   UNL A   1      32.322  20.555  23.522  1.00  0.00     0.040 A 
ATOM     13  F   UNL A   1      32.169  19.826  25.731  1.00  0.00    -0.206 F 
BRANCH   8  14
ATOM     14  N   UNL A   1      30.630  24.129  24.690  1.00  0.00    -0.307 N 
ATOM     15  C   UNL A   1      30.898  25.463  24.825  1.00  0.00     0.322 C 
ATOM     16  O   UNL A   1      30.115  26.149  25.486  1.00  0.00    -0.248 OA
ATOM     17  H   UNL A   1      29.699  23.870  24.874  1.00  0.00     0.171 HD
BRANCH  15  18
ATOM     18  N   UNL A   1      31.949  26.047  24.135  1.00  0.00    -0.319 N 
ATOM     19  C   UNL A   1      32.293  28.115  22.766  1.00  0.00     0.240 C 
ATOM     20  C   UNL A   1      31.945  26.635  22.785  1.00  0.00     0.169 C 
ATOM     21  O   UNL A   1      33.559  28.327  23.442  1.00  0.00    -0.360 OA
ATOM     22  C   UNL A   1      33.538  27.833  24.799  1.00  0.00     0.183 C 
ATOM     23  C   UNL A   1      33.194  26.336  24.861  1.00  0.00     0.150 C 
BRANCH  19  24
ATOM     24  C   UNL A   1      31.183  28.942  23.394  1.00  0.00     0.096 C 
ATOM     25  N   UNL A   1      30.262  29.627  23.915  1.00  0.00    -0.195 NA
ENDBRANCH  19  24
ENDBRANCH  15  18
ENDBRANCH   8  14
ENDBRANCH   4   7
ENDBRANCH   2   3
ENDBRANCH   1   2
BRANCH   1  26
ATOM     26  C   UNL A   1      36.016  23.603  26.021  1.00  0.00     0.023 C 
BRANCH  26  27
ATOM     27  C   UNL A   1      37.141  23.574  24.993  1.00  0.00     0.116 C 
BRANCH  27  28
ATOM     28  N   UNL A   1      38.243  22.690  25.345  1.00  0.00    -0.352 N 
ATOM     29  C   UNL A   1      39.351  22.929  26.130  1.00  0.00     0.251 C 
ATOM     30  H   UNL A   1      38.190  21.783  24.965  1.00  0.00     0.163 HD
ATOM     31  O   UNL A   1      40.210  22.068  26.251  1.00  0.00    -0.269 OA
BRANCH  29  32
ATOM     32  C   UNL A   1      39.517  24.247  26.782  1.00  0.00     0.039 A 
ATOM     33  C   UNL A   1      38.992  24.433  28.064  1.00  0.00     0.014 A 
ATOM     34  C   UNL A   1      40.221  25.277  26.155  1.00  0.00     0.014 A 
ATOM     35  C   UNL A   1      39.260  25.616  28.755  1.00  0.00     0.010 A 
ATOM     36  C   UNL A   1      40.556  26.420  26.875  1.00  0.00     0.010 A 
ATOM     37  C   UNL A   1      40.088  26.598  28.186  1.00  0.00    -0.014 A 
BRANCH  37  38
ATOM     38  C   UNL A   1      40.504  27.800  28.952  1.00  0.00     0.031 A 
ATOM     39  C   UNL A   1      41.839  27.839  29.640  1.00  0.00     0.074 A 
ATOM     40  C   UNL A   1      39.637  28.821  29.106  1.00  0.00     0.049 A 
ATOM     41  N   UNL A   1      42.339  28.763  30.419  1.00  0.00    -0.248 NA
ATOM     42  C   UNL A   1      42.714  26.671  29.455  1.00  0.00     0.031 C 
ATOM     43  C   UNL A   1      38.285  28.874  28.545  1.00  0.00     0.029 A 
ATOM     44  N   UNL A   1      39.757  30.004  29.793  1.00  0.00    -0.354 N 
ATOM     45  C   UNL A   1      43.571  28.278  30.838  1.00  0.00     0.074 A 
ATOM     46  C   UNL A   1      43.723  26.959  30.263  1.00  0.00     0.031 C 
ATOM     47  C   UNL A   1      37.712  30.038  28.888  1.00  0.00     0.029 A 
ATOM     48  C   UNL A   1      38.637  30.799  29.724  1.00  0.00     0.049 A 
ATOM     49  H   UNL A   1      40.568  30.259  30.288  1.00  0.00     0.167 HD
ATOM     50  C   UNL A   1      44.500  28.885  31.614  1.00  0.00     0.037 A 
ATOM     51  C   UNL A   1      38.378  32.000  30.275  1.00  0.00     0.037 A 
ATOM     52  C   UNL A   1      44.358  30.213  32.151  1.00  0.00     0.049 A 
ATOM     53  C   UNL A   1      39.432  32.674  31.105  1.00  0.00     0.074 A 
ATOM     54  C   UNL A   1      45.282  30.954  32.867  1.00  0.00     0.029 A 
ATOM     55  N   UNL A   1      43.219  30.998  32.036  1.00  0.00    -0.354 N 
ATOM     56  N   UNL A   1      40.625  32.237  31.427  1.00  0.00    -0.248 NA
ATOM     57  C   UNL A   1      39.111  34.002  31.646  1.00  0.00     0.031 C 
ATOM     58  C   UNL A   1      44.687  32.169  33.221  1.00  0.00     0.029 A 
ATOM     59  C   UNL A   1      43.408  32.205  32.689  1.00  0.00     0.049 A 
ATOM     60  H   UNL A   1      42.398  30.736  31.559  1.00  0.00     0.167 HD
ATOM     61  C   UNL A   1      41.203  33.238  32.198  1.00  0.00     0.074 A 
ATOM     62  C   UNL A   1      40.233  34.310  32.285  1.00  0.00     0.031 C 
ATOM     63  C   UNL A   1      42.429  33.263  32.777  1.00  0.00     0.037 A 
BRANCH  50  64
ATOM     64  C   UNL A   1      45.753  28.116  31.926  1.00  0.00     0.058 A 
ATOM     65  C   UNL A   1      46.860  28.179  31.065  1.00  0.00     0.135 A 
ATOM     66  C   UNL A   1      45.857  27.306  33.069  1.00  0.00     0.135 A 
ATOM     67  F   UNL A   1      46.816  28.941  29.960  1.00  0.00    -0.206 F 
ATOM     68  C   UNL A   1      48.028  27.471  31.328  1.00  0.00     0.059 A 
ATOM     69  C   UNL A   1      47.026  26.611  33.366  1.00  0.00     0.059 A 
ATOM     70  F   UNL A   1      44.836  27.226  33.935  1.00  0.00    -0.206 F 
ATOM     71  C   UNL A   1      48.103  26.693  32.485  1.00  0.00     0.060 A 
BRANCH  71  72
ATOM     72  S   UNL A   1      49.653  25.845  32.859  1.00  0.00     0.124 S 
ATOM     73  O   UNL A   1      50.115  26.571  34.036  1.00  0.00    -0.237 OA
ATOM     74  O   UNL A   1      49.208  24.473  33.090  1.00  0.00    -0.237 OA
ATOM     75  O   UNL A   1      50.443  26.040  31.646  1.00  0.00    -0.744 OA
ENDBRANCH  71  72
ENDBRANCH  50  64
BRANCH  51  76
ATOM     76  C   UNL A   1      37.067  32.647  30.004  1.00  0.00     0.058 A 
ATOM     77  C   UNL A   1      36.921  33.594  28.979  1.00  0.00     0.135 A 
ATOM     78  C   UNL A   1      35.966  32.409  30.839  1.00  0.00     0.135 A 
ATOM     79  F   UNL A   1      37.950  33.865  28.160  1.00  0.00    -0.206 F 
ATOM     80  C   UNL A   1      35.744  34.318  28.821  1.00  0.00     0.059 A 
ATOM     81  C   UNL A   1      34.772  33.106  30.689  1.00  0.00     0.059 A 
ATOM     82  F   UNL A   1      36.057  31.502  31.823  1.00  0.00    -0.206 F 
ATOM     83  C   UNL A   1      34.681  34.080  29.694  1.00  0.00     0.060 A 
BRANCH  83  84
ATOM     84  S   UNL A   1      33.194  35.092  29.532  1.00  0.00     0.124 S 
ATOM     85  O   UNL A   1      32.478  34.388  28.472  1.00  0.00    -0.237 OA
ATOM     86  O   UNL A   1      32.611  34.996  30.866  1.00  0.00    -0.237 OA
ATOM     87  O   UNL A   1      33.717  36.406  29.170  1.00  0.00    -0.744 OA
ENDBRANCH  83  84
ENDBRANCH  51  76
BRANCH  63  88
ATOM     88  C   UNL A   1      42.806  34.486  33.565  1.00  0.00     0.058 A 
ATOM     89  C   UNL A   1      43.413  35.582  32.931  1.00  0.00     0.135 A 
ATOM     90  C   UNL A   1      42.650  34.536  34.959  1.00  0.00     0.135 A 
ATOM     91  F   UNL A   1      43.588  35.583  31.601  1.00  0.00    -0.206 F 
ATOM     92  C   UNL A   1      43.876  36.675  33.655  1.00  0.00     0.059 A 
ATOM     93  C   UNL A   1      43.086  35.630  35.701  1.00  0.00     0.059 A 
ATOM     94  F   UNL A   1      42.063  33.518  35.609  1.00  0.00    -0.206 F 
ATOM     95  C   UNL A   1      43.715  36.686  35.042  1.00  0.00     0.060 A 
BRANCH  95  96
ATOM     96  S   UNL A   1      44.326  38.110  35.968  1.00  0.00     0.124 S 
ATOM     97  O   UNL A   1      43.935  39.218  35.103  1.00  0.00    -0.237 OA
ATOM     98  O   UNL A   1      43.594  37.998  37.226  1.00  0.00    -0.237 OA
ATOM     99  O   UNL A   1      45.762  37.862  36.063  1.00  0.00    -0.744 OA
ENDBRANCH  95  96
ENDBRANCH  63  88
ENDBRANCH  37  38
ENDBRANCH  29  32
ENDBRANCH  27  28
ENDBRANCH  26  27
ENDBRANCH   1  26
TORSDOF 17
ENDMDL
MODEL 3
REMARK VINA RESULT:     -11.1      1.578      2.853
REMARK SMILES N#C[C@@H]1CN(C(=O)Nc2cccc(F)c2C(=O)NCCCCNC(=O)c2ccc(-c3c4nc(c(-c5c(F)cc(S(=O)(=O)[O-])cc5F)c5ccc([nH]5)c(-c5c(F)cc(S(=O)(=O)[O-])cc5F)c5nc(c(-c6c(F)cc(S(=O)(=O)[O-])cc6F)c6ccc3[nH]6)C=C5)C=C4)cc2)CCO1
REMARK SMILES IDX 20 1 19 2 18 3 16 4 17 5 15 7 9 8 10 9 11 10 13 11 12 12
REMARK SMILES IDX 14 13 8 14 6 15 7 16 5 18 3 19 4 20 94 21 93 22 92 23 2 24
REMARK SMILES IDX 1 25 21 26 22 27 23 28 24 29 25 31 26 32 27 33 91 34 28 35
REMARK SMILES IDX 90 36 29 37 30 38 31 39 84 40 32 41 89 42 83 43 85 44 33 45
REMARK SMILES IDX 88 46 82 47 81 48 34 50 68 51 47 52 67 53 48 54 51 55 66 56
REMARK SMILES IDX 86 57 49 58 50 59 65 61 87 62 52 63 35 64 36 65 45 66 37 67
REMARK SMILES IDX 38 68 44 69 46 70 39 71 40 72 41 73 42 74 43 75 69 76 70 77
REMARK SMILES IDX 79 78 71 79 72 80 78 81 80 82 73 83 74 84 75 85 76 86 77 87
REMARK SMILES IDX 53 88 54 89 63 90 55 91 56 92 62 93 64 94 57 95 58 96 59 97
REMARK SMILES IDX 60 98 61 99
REMARK H PARENT 18 6 8 17 23 30 85 49 51 60
REMARK Flexibility Score: inf
ROOT
ATOM      1  C   UNL A   1      31.924  26.620  26.296  1.00  0.00     0.023 C 
ENDROOT
BRANCH   1   2
ATOM      2  C   UNL A   1      32.635  25.278  26.372  1.00  0.00     0.116 C 
BRANCH   2   3
ATOM      3  N   UNL A   1      32.269  24.345  25.321  1.00  0.00    -0.352 N 
ATOM      4  C   UNL A   1      32.975  23.343  24.698  1.00  0.00     0.256 C 
ATOM      5  O   UNL A   1      32.409  22.730  23.790  1.00  0.00    -0.269 OA
ATOM      6  H   UNL A   1      31.346  24.451  24.993  1.00  0.00     0.163 HD
BRANCH   4   7
ATOM      7  C   UNL A   1      34.406  23.050  24.991  1.00  0.00     0.099 A 
ATOM      8  C   UNL A   1      34.807  21.764  25.413  1.00  0.00     0.058 A 
ATOM      9  C   UNL A   1      36.169  21.416  25.450  1.00  0.00     0.027 A 
ATOM     10  C   UNL A   1      37.145  22.392  25.266  1.00  0.00     0.005 A 
ATOM     11  C   UNL A   1      35.393  24.035  25.021  1.00  0.00     0.138 A 
ATOM     12  C   UNL A   1      36.750  23.717  25.124  1.00  0.00     0.040 A 
ATOM     13  F   UNL A   1      35.074  25.337  25.081  1.00  0.00    -0.206 F 
BRANCH   8  14
ATOM     14  N   UNL A   1      33.871  20.905  26.021  1.00  0.00    -0.307 N 
ATOM     15  C   UNL A   1      33.166  19.860  25.490  1.00  0.00     0.322 C 
ATOM     16  O   UNL A   1      32.154  19.481  26.084  1.00  0.00    -0.248 OA
ATOM     17  H   UNL A   1      33.697  21.085  26.972  1.00  0.00     0.171 HD
BRANCH  15  18
ATOM     18  N   UNL A   1      33.646  19.170  24.387  1.00  0.00    -0.319 N 
ATOM     19  C   UNL A   1      34.222  16.796  23.844  1.00  0.00     0.240 C 
ATOM     20  C   UNL A   1      34.707  18.151  24.335  1.00  0.00     0.169 C 
ATOM     21  O   UNL A   1      33.559  16.949  22.564  1.00  0.00    -0.360 OA
ATOM     22  C   UNL A   1      32.458  17.881  22.632  1.00  0.00     0.183 C 
ATOM     23  C   UNL A   1      32.907  19.268  23.120  1.00  0.00     0.150 C 
BRANCH  19  24
ATOM     24  C   UNL A   1      33.309  16.143  24.869  1.00  0.00     0.096 C 
ATOM     25  N   UNL A   1      32.551  15.601  25.719  1.00  0.00    -0.195 NA
ENDBRANCH  19  24
ENDBRANCH  15  18
ENDBRANCH   8  14
ENDBRANCH   4   7
ENDBRANCH   2   3
ENDBRANCH   1   2
BRANCH   1  26
ATOM     26  C   UNL A   1      32.340  27.664  27.322  1.00  0.00     0.023 C 
BRANCH  26  27
ATOM     27  C   UNL A   1      33.509  28.561  26.930  1.00  0.00     0.116 C 
BRANCH  27  28
ATOM     28  N   UNL A   1      33.466  29.887  27.530  1.00  0.00    -0.352 N 
ATOM     29  C   UNL A   1      34.448  30.587  28.197  1.00  0.00     0.251 C 
ATOM     30  H   UNL A   1      32.603  30.356  27.446  1.00  0.00     0.163 HD
ATOM     31  O   UNL A   1      34.192  31.674  28.694  1.00  0.00    -0.269 OA
BRANCH  29  32
ATOM     32  C   UNL A   1      35.795  29.994  28.351  1.00  0.00     0.039 A 
ATOM     33  C   UNL A   1      36.694  30.084  27.285  1.00  0.00     0.014 A 
ATOM     34  C   UNL A   1      36.185  29.393  29.550  1.00  0.00     0.014 A 
ATOM     35  C   UNL A   1      38.014  29.661  27.457  1.00  0.00     0.010 A 
ATOM     36  C   UNL A   1      37.519  29.049  29.746  1.00  0.00     0.010 A 
ATOM     37  C   UNL A   1      38.450  29.189  28.706  1.00  0.00    -0.014 A 
BRANCH  37  38
ATOM     38  C   UNL A   1      39.878  28.866  28.957  1.00  0.00     0.031 A 
ATOM     39  C   UNL A   1      40.801  29.901  29.533  1.00  0.00     0.074 A 
ATOM     40  C   UNL A   1      40.364  27.667  28.576  1.00  0.00     0.049 A 
ATOM     41  N   UNL A   1      42.090  29.831  29.744  1.00  0.00    -0.248 NA
ATOM     42  C   UNL A   1      40.204  31.198  29.889  1.00  0.00     0.031 C 
ATOM     43  C   UNL A   1      39.584  26.601  27.943  1.00  0.00     0.029 A 
ATOM     44  N   UNL A   1      41.632  27.148  28.652  1.00  0.00    -0.354 N 
ATOM     45  C   UNL A   1      42.462  31.078  30.230  1.00  0.00     0.074 A 
ATOM     46  C   UNL A   1      41.271  31.899  30.240  1.00  0.00     0.031 C 
ATOM     47  C   UNL A   1      40.384  25.549  27.711  1.00  0.00     0.029 A 
ATOM     48  C   UNL A   1      41.740  25.876  28.143  1.00  0.00     0.049 A 
ATOM     49  H   UNL A   1      42.393  27.641  29.034  1.00  0.00     0.167 HD
ATOM     50  C   UNL A   1      43.681  31.493  30.648  1.00  0.00     0.037 A 
ATOM     51  C   UNL A   1      42.808  25.062  28.030  1.00  0.00     0.037 A 
ATOM     52  C   UNL A   1      44.853  30.658  30.671  1.00  0.00     0.049 A 
ATOM     53  C   UNL A   1      44.146  25.527  28.530  1.00  0.00     0.074 A 
ATOM     54  C   UNL A   1      46.110  30.956  31.168  1.00  0.00     0.029 A 
ATOM     55  N   UNL A   1      44.915  29.364  30.174  1.00  0.00    -0.354 N 
ATOM     56  N   UNL A   1      44.465  26.683  29.062  1.00  0.00    -0.248 NA
ATOM     57  C   UNL A   1      45.266  24.584  28.421  1.00  0.00     0.031 C 
ATOM     58  C   UNL A   1      46.944  29.858  30.932  1.00  0.00     0.029 A 
ATOM     59  C   UNL A   1      46.196  28.858  30.328  1.00  0.00     0.049 A 
ATOM     60  H   UNL A   1      44.160  28.877  29.771  1.00  0.00     0.167 HD
ATOM     61  C   UNL A   1      45.820  26.603  29.360  1.00  0.00     0.074 A 
ATOM     62  C   UNL A   1      46.258  25.281  28.961  1.00  0.00     0.031 C 
ATOM     63  C   UNL A   1      46.623  27.543  29.917  1.00  0.00     0.037 A 
BRANCH  50  64
ATOM     64  C   UNL A   1      43.805  32.916  31.118  1.00  0.00     0.058 A 
ATOM     65  C   UNL A   1      44.138  33.938  30.214  1.00  0.00     0.135 A 
ATOM     66  C   UNL A   1      43.606  33.270  32.463  1.00  0.00     0.135 A 
ATOM     67  F   UNL A   1      44.335  33.656  28.917  1.00  0.00    -0.206 F 
ATOM     68  C   UNL A   1      44.264  35.261  30.626  1.00  0.00     0.059 A 
ATOM     69  C   UNL A   1      43.700  34.591  32.891  1.00  0.00     0.059 A 
ATOM     70  F   UNL A   1      43.266  32.336  33.364  1.00  0.00    -0.206 F 
ATOM     71  C   UNL A   1      44.038  35.578  31.966  1.00  0.00     0.060 A 
BRANCH  71  72
ATOM     72  S   UNL A   1      44.123  37.309  32.473  1.00  0.00     0.124 S 
ATOM     73  O   UNL A   1      43.059  37.384  33.467  1.00  0.00    -0.237 OA
ATOM     74  O   UNL A   1      45.486  37.415  32.988  1.00  0.00    -0.237 OA
ATOM     75  O   UNL A   1      43.878  38.035  31.229  1.00  0.00    -0.744 OA
ENDBRANCH  71  72
ENDBRANCH  50  64
BRANCH  51  76
ATOM     76  C   UNL A   1      42.620  23.705  27.453  1.00  0.00     0.058 A 
ATOM     77  C   UNL A   1      42.405  22.589  28.276  1.00  0.00     0.135 A 
ATOM     78  C   UNL A   1      42.763  23.488  26.075  1.00  0.00     0.135 A 
ATOM     79  F   UNL A   1      42.272  22.744  29.602  1.00  0.00    -0.206 F 
ATOM     80  C   UNL A   1      42.387  21.298  27.757  1.00  0.00     0.059 A 
ATOM     81  C   UNL A   1      42.729  22.209  25.530  1.00  0.00     0.059 A 
ATOM     82  F   UNL A   1      42.957  24.528  25.251  1.00  0.00    -0.206 F 
ATOM     83  C   UNL A   1      42.568  21.117  26.385  1.00  0.00     0.060 A 
BRANCH  83  84
ATOM     84  S   UNL A   1      42.633  19.431  25.743  1.00  0.00     0.124 S 
ATOM     85  O   UNL A   1      41.238  19.207  25.375  1.00  0.00    -0.237 OA
ATOM     86  O   UNL A   1      43.570  19.560  24.632  1.00  0.00    -0.237 OA
ATOM     87  O   UNL A   1      43.114  18.653  26.880  1.00  0.00    -0.744 OA
ENDBRANCH  83  84
ENDBRANCH  51  76
BRANCH  63  88
ATOM     88  C   UNL A   1      48.068  27.188  30.134  1.00  0.00     0.058 A 
ATOM     89  C   UNL A   1      48.459  26.454  31.264  1.00  0.00     0.135 A 
ATOM     90  C   UNL A   1      49.073  27.654  29.271  1.00  0.00     0.135 A 
ATOM     91  F   UNL A   1      47.538  25.989  32.122  1.00  0.00    -0.206 F 
ATOM     92  C   UNL A   1      49.800  26.215  31.547  1.00  0.00     0.059 A 
ATOM     93  C   UNL A   1      50.419  27.407  29.523  1.00  0.00     0.059 A 
ATOM     94  F   UNL A   1      48.748  28.349  28.169  1.00  0.00    -0.206 F 
ATOM     95  C   UNL A   1      50.774  26.703  30.674  1.00  0.00     0.060 A 
BRANCH  95  96
ATOM     96  S   UNL A   1      52.509  26.388  31.058  1.00  0.00     0.124 S 
ATOM     97  O   UNL A   1      52.405  25.361  32.089  1.00  0.00    -0.237 OA
ATOM     98  O   UNL A   1      53.035  25.944  29.771  1.00  0.00    -0.237 OA
ATOM     99  O   UNL A   1      52.997  27.688  31.511  1.00  0.00    -0.744 OA
ENDBRANCH  95  96
ENDBRANCH  63  88
ENDBRANCH  37  38
ENDBRANCH  29  32
ENDBRANCH  27  28
ENDBRANCH  26  27
ENDBRANCH   1  26
TORSDOF 17
ENDMDL
