MODEL 1
REMARK VINA RESULT:     -12.5      0.000      0.000
REMARK SMILES C=Cc1cc(Cl)cc2c1O[C@H](C(F)(F)F)C(C(=O)NCCCCNC(=O)c1ccc(-c3c4nc(c(-c5c(F)cc(S(=O)(=O)[O-])cc5F)c5ccc([nH]5)c(-c5c(F)cc(S(=O)(=O)[O-])cc5F)c5nc(c(-c6c(F)cc(S(=O)(=O)[O-])cc6F)c6ccc3[nH]6)C=C5)C=C4)cc1)=C2
REMARK SMILES IDX 22 1 21 2 20 3 19 4 17 5 18 6 16 8 3 9 4 10 9 11 5 12 8 13
REMARK SMILES IDX 10 14 6 15 7 16 93 17 11 18 2 19 1 20 12 21 13 22 14 23
REMARK SMILES IDX 15 24 23 25 24 26 25 27 26 29 27 30 28 31 92 32 29 33 91 34
REMARK SMILES IDX 30 35 31 36 32 37 85 38 33 39 90 40 84 41 86 42 34 43 89 44
REMARK SMILES IDX 83 45 82 46 35 48 69 49 48 50 68 51 49 52 52 53 67 54 87 55
REMARK SMILES IDX 50 56 51 57 66 59 88 60 53 61 36 62 37 63 46 64 38 65 39 66
REMARK SMILES IDX 45 67 47 68 40 69 41 70 42 71 43 72 44 73 70 74 71 75 80 76
REMARK SMILES IDX 72 77 73 78 79 79 81 80 74 81 75 82 76 83 77 84 78 85 54 86
REMARK SMILES IDX 55 87 64 88 56 89 57 90 63 91 65 92 58 93 59 94 60 95 61 96
REMARK SMILES IDX 62 97
REMARK H PARENT 19 7 24 28 86 47 52 58
REMARK Flexibility Score: inf
ROOT
ATOM      1  C   UNL A   1      39.984  22.467  27.189  1.00  0.00     0.023 C 
ENDROOT
BRANCH   1   2
ATOM      2  C   UNL A   1      38.852  23.014  26.313  1.00  0.00     0.023 C 
BRANCH   2   3
ATOM      3  C   UNL A   1      37.960  21.943  25.691  1.00  0.00     0.116 C 
BRANCH   3   4
ATOM      4  N   UNL A   1      37.608  22.251  24.316  1.00  0.00    -0.352 N 
ATOM      5  C   UNL A   1      36.534  22.745  23.660  1.00  0.00     0.251 C 
ATOM      6  O   UNL A   1      36.666  22.857  22.436  1.00  0.00    -0.270 OA
ATOM      7  H   UNL A   1      38.348  22.047  23.699  1.00  0.00     0.163 HD
BRANCH   5   8
ATOM      8  C   UNL A   1      35.243  23.152  24.293  1.00  0.00     0.067 C 
ATOM      9  C   UNL A   1      31.591  24.547  25.877  1.00  0.00     0.018 A 
ATOM     10  C   UNL A   1      31.550  25.822  26.458  1.00  0.00     0.032 A 
ATOM     11  C   UNL A   1      32.798  24.100  25.310  1.00  0.00     0.135 A 
ATOM     12  C   UNL A   1      32.683  26.637  26.440  1.00  0.00     0.042 A 
ATOM     13  C   UNL A   1      33.929  24.924  25.285  1.00  0.00     0.019 A 
ATOM     14  O   UNL A   1      32.813  22.858  24.729  1.00  0.00    -0.475 OA
ATOM     15  Cl  UNL A   1      32.613  28.202  27.155  1.00  0.00    -0.084 Cl
ATOM     16  C   UNL A   1      33.868  26.199  25.852  1.00  0.00     0.032 A 
ATOM     17  C   UNL A   1      35.145  24.452  24.631  1.00  0.00     0.025 C 
ATOM     18  C   UNL A   1      34.111  22.216  24.602  1.00  0.00     0.314 C 
BRANCH   9  19
ATOM     19  C   UNL A   1      30.414  23.668  25.915  1.00  0.00     0.004 C 
ATOM     20  C   UNL A   1      30.041  22.969  26.996  1.00  0.00     0.009 C 
ENDBRANCH   9  19
BRANCH  18  21
ATOM     21  C   UNL A   1      34.374  21.354  25.851  1.00  0.00     0.429 C 
ATOM     22  F   UNL A   1      35.175  20.304  25.541  1.00  0.00    -0.167 F 
ATOM     23  F   UNL A   1      35.000  22.040  26.835  1.00  0.00    -0.167 F 
ATOM     24  F   UNL A   1      33.237  20.849  26.383  1.00  0.00    -0.167 F 
ENDBRANCH  18  21
ENDBRANCH   5   8
ENDBRANCH   3   4
ENDBRANCH   2   3
ENDBRANCH   1   2
BRANCH   1  25
ATOM     25  C   UNL A   1      41.343  23.144  27.016  1.00  0.00     0.116 C 
BRANCH  25  26
ATOM     26  N   UNL A   1      41.390  24.131  25.944  1.00  0.00    -0.352 N 
ATOM     27  C   UNL A   1      41.366  25.504  26.064  1.00  0.00     0.251 C 
ATOM     28  H   UNL A   1      41.444  23.776  25.028  1.00  0.00     0.163 HD
ATOM     29  O   UNL A   1      41.348  26.220  25.069  1.00  0.00    -0.269 OA
BRANCH  27  30
ATOM     30  C   UNL A   1      41.300  26.091  27.417  1.00  0.00     0.039 A 
ATOM     31  C   UNL A   1      40.112  26.032  28.149  1.00  0.00     0.014 A 
ATOM     32  C   UNL A   1      42.400  26.804  27.899  1.00  0.00     0.014 A 
ATOM     33  C   UNL A   1      39.969  26.830  29.277  1.00  0.00     0.010 A 
ATOM     34  C   UNL A   1      42.273  27.553  29.070  1.00  0.00     0.010 A 
ATOM     35  C   UNL A   1      41.037  27.620  29.732  1.00  0.00    -0.014 A 
BRANCH  35  36
ATOM     36  C   UNL A   1      40.817  28.556  30.864  1.00  0.00     0.031 A 
ATOM     37  C   UNL A   1      41.750  28.554  32.048  1.00  0.00     0.074 A 
ATOM     38  C   UNL A   1      39.826  29.464  30.788  1.00  0.00     0.049 A 
ATOM     39  N   UNL A   1      41.729  29.309  33.116  1.00  0.00    -0.248 NA
ATOM     40  C   UNL A   1      42.852  27.577  32.031  1.00  0.00     0.031 C 
ATOM     41  C   UNL A   1      38.874  29.581  29.681  1.00  0.00     0.029 A 
ATOM     42  N   UNL A   1      39.474  30.480  31.639  1.00  0.00    -0.354 N 
ATOM     43  C   UNL A   1      42.793  28.889  33.904  1.00  0.00     0.074 A 
ATOM     44  C   UNL A   1      43.434  27.798  33.202  1.00  0.00     0.031 C 
ATOM     45  C   UNL A   1      38.084  30.644  29.893  1.00  0.00     0.029 A 
ATOM     46  C   UNL A   1      38.437  31.252  31.172  1.00  0.00     0.049 A 
ATOM     47  H   UNL A   1      39.921  30.640  32.501  1.00  0.00     0.167 HD
ATOM     48  C   UNL A   1      43.205  29.375  35.100  1.00  0.00     0.037 A 
ATOM     49  C   UNL A   1      37.834  32.326  31.716  1.00  0.00     0.037 A 
ATOM     50  C   UNL A   1      42.588  30.481  35.782  1.00  0.00     0.049 A 
ATOM     51  C   UNL A   1      38.296  32.831  33.052  1.00  0.00     0.074 A 
ATOM     52  C   UNL A   1      42.937  31.049  36.995  1.00  0.00     0.029 A 
ATOM     53  N   UNL A   1      41.500  31.197  35.304  1.00  0.00    -0.354 N 
ATOM     54  N   UNL A   1      39.283  32.396  33.798  1.00  0.00    -0.248 NA
ATOM     55  C   UNL A   1      37.551  33.957  33.629  1.00  0.00     0.031 C 
ATOM     56  C   UNL A   1      42.045  32.094  37.262  1.00  0.00     0.029 A 
ATOM     57  C   UNL A   1      41.159  32.194  36.202  1.00  0.00     0.049 A 
ATOM     58  H   UNL A   1      41.039  31.022  34.452  1.00  0.00     0.167 HD
ATOM     59  C   UNL A   1      39.274  33.192  34.936  1.00  0.00     0.074 A 
ATOM     60  C   UNL A   1      38.200  34.151  34.770  1.00  0.00     0.031 C 
ATOM     61  C   UNL A   1      40.079  33.129  36.024  1.00  0.00     0.037 A 
BRANCH  48  62
ATOM     62  C   UNL A   1      44.380  28.707  35.757  1.00  0.00     0.058 A 
ATOM     63  C   UNL A   1      45.694  29.133  35.517  1.00  0.00     0.135 A 
ATOM     64  C   UNL A   1      44.184  27.667  36.680  1.00  0.00     0.135 A 
ATOM     65  F   UNL A   1      45.935  30.112  34.629  1.00  0.00    -0.206 F 
ATOM     66  C   UNL A   1      46.777  28.543  36.158  1.00  0.00     0.059 A 
ATOM     67  C   UNL A   1      45.252  27.073  37.346  1.00  0.00     0.059 A 
ATOM     68  F   UNL A   1      42.945  27.221  36.942  1.00  0.00    -0.206 F 
ATOM     69  C   UNL A   1      46.546  27.512  37.072  1.00  0.00     0.060 A 
BRANCH  69  70
ATOM     70  S   UNL A   1      47.961  26.762  37.907  1.00  0.00     0.124 S 
ATOM     71  O   UNL A   1      49.065  27.551  37.370  1.00  0.00    -0.237 OA
ATOM     72  O   UNL A   1      47.649  26.987  39.315  1.00  0.00    -0.237 OA
ATOM     73  O   UNL A   1      47.914  25.370  37.473  1.00  0.00    -0.744 OA
ENDBRANCH  69  70
ENDBRANCH  48  62
BRANCH  49  74
ATOM     74  C   UNL A   1      36.726  32.989  30.986  1.00  0.00     0.058 A 
ATOM     75  C   UNL A   1      35.394  32.801  31.379  1.00  0.00     0.135 A 
ATOM     76  C   UNL A   1      36.980  33.858  29.916  1.00  0.00     0.135 A 
ATOM     77  F   UNL A   1      35.104  31.974  32.396  1.00  0.00    -0.206 F 
ATOM     78  C   UNL A   1      34.348  33.455  30.737  1.00  0.00     0.059 A 
ATOM     79  C   UNL A   1      35.955  34.539  29.270  1.00  0.00     0.059 A 
ATOM     80  F   UNL A   1      38.242  34.080  29.515  1.00  0.00    -0.206 F 
ATOM     81  C   UNL A   1      34.640  34.327  29.685  1.00  0.00     0.060 A 
BRANCH  81  82
ATOM     82  S   UNL A   1      33.288  35.235  28.907  1.00  0.00     0.124 S 
ATOM     83  O   UNL A   1      32.508  35.651  30.068  1.00  0.00    -0.237 OA
ATOM     84  O   UNL A   1      33.993  36.296  28.197  1.00  0.00    -0.237 OA
ATOM     85  O   UNL A   1      32.662  34.230  28.052  1.00  0.00    -0.744 OA
ENDBRANCH  81  82
ENDBRANCH  49  74
BRANCH  61  86
ATOM     86  C   UNL A   1      39.819  34.114  37.125  1.00  0.00     0.058 A 
ATOM     87  C   UNL A   1      38.960  33.801  38.189  1.00  0.00     0.135 A 
ATOM     88  C   UNL A   1      40.473  35.356  37.145  1.00  0.00     0.135 A 
ATOM     89  F   UNL A   1      38.309  32.628  38.208  1.00  0.00    -0.206 F 
ATOM     90  C   UNL A   1      38.748  34.693  39.234  1.00  0.00     0.059 A 
ATOM     91  C   UNL A   1      40.287  36.257  38.189  1.00  0.00     0.059 A 
ATOM     92  F   UNL A   1      41.309  35.695  36.151  1.00  0.00    -0.206 F 
ATOM     93  C   UNL A   1      39.416  35.920  39.224  1.00  0.00     0.060 A 
BRANCH  93  94
ATOM     94  S   UNL A   1      39.162  37.055  40.605  1.00  0.00     0.124 S 
ATOM     95  O   UNL A   1      38.255  38.034  40.016  1.00  0.00    -0.237 OA
ATOM     96  O   UNL A   1      38.582  36.187  41.625  1.00  0.00    -0.237 OA
ATOM     97  O   UNL A   1      40.508  37.540  40.896  1.00  0.00    -0.744 OA
ENDBRANCH  93  94
ENDBRANCH  61  86
ENDBRANCH  35  36
ENDBRANCH  27  30
ENDBRANCH  25  26
ENDBRANCH   1  25
TORSDOF 16
ENDMDL
MODEL 2
REMARK VINA RESULT:     -12.4      5.412     10.112
REMARK SMILES C=Cc1cc(Cl)cc2c1O[C@H](C(F)(F)F)C(C(=O)NCCCCNC(=O)c1ccc(-c3c4nc(c(-c5c(F)cc(S(=O)(=O)[O-])cc5F)c5ccc([nH]5)c(-c5c(F)cc(S(=O)(=O)[O-])cc5F)c5nc(c(-c6c(F)cc(S(=O)(=O)[O-])cc6F)c6ccc3[nH]6)C=C5)C=C4)cc1)=C2
REMARK SMILES IDX 22 1 21 2 20 3 19 4 17 5 18 6 16 8 3 9 4 10 9 11 5 12 8 13
REMARK SMILES IDX 10 14 6 15 7 16 93 17 11 18 2 19 1 20 12 21 13 22 14 23
REMARK SMILES IDX 15 24 23 25 24 26 25 27 26 29 27 30 28 31 92 32 29 33 91 34
REMARK SMILES IDX 30 35 31 36 32 37 85 38 33 39 90 40 84 41 86 42 34 43 89 44
REMARK SMILES IDX 83 45 82 46 35 48 69 49 48 50 68 51 49 52 52 53 67 54 87 55
REMARK SMILES IDX 50 56 51 57 66 59 88 60 53 61 36 62 37 63 46 64 38 65 39 66
REMARK SMILES IDX 45 67 47 68 40 69 41 70 42 71 43 72 44 73 70 74 71 75 80 76
REMARK SMILES IDX 72 77 73 78 79 79 81 80 74 81 75 82 76 83 77 84 78 85 54 86
REMARK SMILES IDX 55 87 64 88 56 89 57 90 63 91 65 92 58 93 59 94 60 95 61 96
REMARK SMILES IDX 62 97
REMARK H PARENT 19 7 24 28 86 47 52 58
REMARK Flexibility Score: inf
ROOT
ATOM      1  C   UNL A   1      33.046  29.174  25.791  1.00  0.00     0.023 C 
ENDROOT
BRANCH   1   2
ATOM      2  C   UNL A   1      33.509  28.327  24.601  1.00  0.00     0.023 C 
BRANCH   2   3
ATOM      3  C   UNL A   1      32.479  27.313  24.108  1.00  0.00     0.116 C 
BRANCH   3   4
ATOM      4  N   UNL A   1      31.628  26.829  25.181  1.00  0.00    -0.352 N 
ATOM      5  C   UNL A   1      31.435  25.662  25.838  1.00  0.00     0.251 C 
ATOM      6  O   UNL A   1      30.578  25.690  26.727  1.00  0.00    -0.270 OA
ATOM      7  H   UNL A   1      31.035  27.538  25.521  1.00  0.00     0.163 HD
BRANCH   5   8
ATOM      8  C   UNL A   1      32.165  24.386  25.569  1.00  0.00     0.067 C 
ATOM      9  C   UNL A   1      34.340  20.801  25.111  1.00  0.00     0.018 A 
ATOM     10  C   UNL A   1      35.735  20.837  25.237  1.00  0.00     0.032 A 
ATOM     11  C   UNL A   1      33.611  21.988  25.307  1.00  0.00     0.135 A 
ATOM     12  C   UNL A   1      36.377  22.026  25.582  1.00  0.00     0.042 A 
ATOM     13  C   UNL A   1      34.258  23.177  25.663  1.00  0.00     0.019 A 
ATOM     14  O   UNL A   1      32.246  21.929  25.199  1.00  0.00    -0.475 OA
ATOM     15  Cl  UNL A   1      38.092  22.051  25.737  1.00  0.00    -0.084 Cl
ATOM     16  C   UNL A   1      35.648  23.193  25.802  1.00  0.00     0.032 A 
ATOM     17  C   UNL A   1      33.465  24.374  25.921  1.00  0.00     0.025 C 
ATOM     18  C   UNL A   1      31.562  23.179  24.911  1.00  0.00     0.314 C 
BRANCH   9  19
ATOM     19  C   UNL A   1      33.654  19.561  24.718  1.00  0.00     0.004 C 
ATOM     20  C   UNL A   1      34.291  18.428  24.395  1.00  0.00     0.009 C 
ENDBRANCH   9  19
BRANCH  18  21
ATOM     21  C   UNL A   1      31.421  23.340  23.386  1.00  0.00     0.429 C 
ATOM     22  F   UNL A   1      32.394  24.153  22.903  1.00  0.00    -0.167 F 
ATOM     23  F   UNL A   1      31.534  22.166  22.724  1.00  0.00    -0.167 F 
ATOM     24  F   UNL A   1      30.232  23.881  23.029  1.00  0.00    -0.167 F 
ENDBRANCH  18  21
ENDBRANCH   5   8
ENDBRANCH   3   4
ENDBRANCH   2   3
ENDBRANCH   1   2
BRANCH   1  25
ATOM     25  C   UNL A   1      33.932  29.110  27.035  1.00  0.00     0.116 C 
BRANCH  25  26
ATOM     26  N   UNL A   1      33.856  30.291  27.886  1.00  0.00    -0.352 N 
ATOM     27  C   UNL A   1      34.844  30.807  28.696  1.00  0.00     0.251 C 
ATOM     28  H   UNL A   1      32.999  30.775  27.883  1.00  0.00     0.163 HD
ATOM     29  O   UNL A   1      34.624  31.778  29.413  1.00  0.00    -0.269 OA
BRANCH  27  30
ATOM     30  C   UNL A   1      36.155  30.129  28.727  1.00  0.00     0.039 A 
ATOM     31  C   UNL A   1      36.639  29.596  29.924  1.00  0.00     0.014 A 
ATOM     32  C   UNL A   1      36.947  30.135  27.577  1.00  0.00     0.014 A 
ATOM     33  C   UNL A   1      37.976  29.229  30.012  1.00  0.00     0.010 A 
ATOM     34  C   UNL A   1      38.272  29.703  27.654  1.00  0.00     0.010 A 
ATOM     35  C   UNL A   1      38.813  29.306  28.887  1.00  0.00    -0.014 A 
BRANCH  35  36
ATOM     36  C   UNL A   1      40.264  29.027  29.040  1.00  0.00     0.031 A 
ATOM     37  C   UNL A   1      40.829  27.689  28.640  1.00  0.00     0.074 A 
ATOM     38  C   UNL A   1      41.084  30.008  29.463  1.00  0.00     0.049 A 
ATOM     39  N   UNL A   1      42.068  27.272  28.683  1.00  0.00    -0.248 NA
ATOM     40  C   UNL A   1      39.881  26.688  28.124  1.00  0.00     0.031 C 
ATOM     41  C   UNL A   1      40.657  31.353  29.855  1.00  0.00     0.029 A 
ATOM     42  N   UNL A   1      42.448  30.038  29.602  1.00  0.00    -0.354 N 
ATOM     43  C   UNL A   1      42.049  25.961  28.223  1.00  0.00     0.074 A 
ATOM     44  C   UNL A   1      40.670  25.641  27.921  1.00  0.00     0.031 C 
ATOM     45  C   UNL A   1      41.741  32.093  30.135  1.00  0.00     0.029 A 
ATOM     46  C   UNL A   1      42.932  31.262  29.993  1.00  0.00     0.049 A 
ATOM     47  H   UNL A   1      43.024  29.256  29.437  1.00  0.00     0.167 HD
ATOM     48  C   UNL A   1      43.085  25.105  28.057  1.00  0.00     0.037 A 
ATOM     49  C   UNL A   1      44.196  31.670  30.219  1.00  0.00     0.037 A 
ATOM     50  C   UNL A   1      44.460  25.435  28.325  1.00  0.00     0.049 A 
ATOM     51  C   UNL A   1      45.325  30.696  30.049  1.00  0.00     0.074 A 
ATOM     52  C   UNL A   1      45.581  24.636  28.184  1.00  0.00     0.029 A 
ATOM     53  N   UNL A   1      44.902  26.668  28.780  1.00  0.00    -0.354 N 
ATOM     54  N   UNL A   1      45.280  29.448  29.646  1.00  0.00    -0.248 NA
ATOM     55  C   UNL A   1      46.672  31.176  30.383  1.00  0.00     0.031 C 
ATOM     56  C   UNL A   1      46.701  25.380  28.575  1.00  0.00     0.029 A 
ATOM     57  C   UNL A   1      46.279  26.649  28.933  1.00  0.00     0.049 A 
ATOM     58  H   UNL A   1      44.324  27.443  28.967  1.00  0.00     0.167 HD
ATOM     59  C   UNL A   1      46.591  28.993  29.683  1.00  0.00     0.074 A 
ATOM     60  C   UNL A   1      47.410  30.104  30.124  1.00  0.00     0.031 C 
ATOM     61  C   UNL A   1      47.073  27.761  29.387  1.00  0.00     0.037 A 
BRANCH  48  62
ATOM     62  C   UNL A   1      42.775  23.719  27.566  1.00  0.00     0.058 A 
ATOM     63  C   UNL A   1      42.707  23.425  26.196  1.00  0.00     0.135 A 
ATOM     64  C   UNL A   1      42.599  22.664  28.476  1.00  0.00     0.135 A 
ATOM     65  F   UNL A   1      42.849  24.403  25.287  1.00  0.00    -0.206 F 
ATOM     66  C   UNL A   1      42.462  22.133  25.743  1.00  0.00     0.059 A 
ATOM     67  C   UNL A   1      42.370  21.360  28.045  1.00  0.00     0.059 A 
ATOM     68  F   UNL A   1      42.652  22.895  29.797  1.00  0.00    -0.206 F 
ATOM     69  C   UNL A   1      42.294  21.107  26.675  1.00  0.00     0.060 A 
BRANCH  69  70
ATOM     70  S   UNL A   1      41.989  19.432  26.073  1.00  0.00     0.124 S 
ATOM     71  O   UNL A   1      42.840  19.390  24.889  1.00  0.00    -0.237 OA
ATOM     72  O   UNL A   1      42.428  18.610  27.197  1.00  0.00    -0.237 OA
ATOM     73  O   UNL A   1      40.552  19.419  25.816  1.00  0.00    -0.744 OA
ENDBRANCH  69  70
ENDBRANCH  48  62
BRANCH  49  74
ATOM     74  C   UNL A   1      44.448  33.073  30.632  1.00  0.00     0.058 A 
ATOM     75  C   UNL A   1      44.655  34.076  29.676  1.00  0.00     0.135 A 
ATOM     76  C   UNL A   1      44.440  33.442  31.984  1.00  0.00     0.135 A 
ATOM     77  F   UNL A   1      44.676  33.765  28.370  1.00  0.00    -0.206 F 
ATOM     78  C   UNL A   1      44.845  35.403  30.046  1.00  0.00     0.059 A 
ATOM     79  C   UNL A   1      44.608  34.764  32.379  1.00  0.00     0.059 A 
ATOM     80  F   UNL A   1      44.232  32.517  32.934  1.00  0.00    -0.206 F 
ATOM     81  C   UNL A   1      44.813  35.738  31.401  1.00  0.00     0.060 A 
BRANCH  81  82
ATOM     82  S   UNL A   1      44.978  37.473  31.872  1.00  0.00     0.124 S 
ATOM     83  O   UNL A   1      46.414  37.578  32.109  1.00  0.00    -0.237 OA
ATOM     84  O   UNL A   1      44.473  38.166  30.691  1.00  0.00    -0.237 OA
ATOM     85  O   UNL A   1      44.132  37.577  33.058  1.00  0.00    -0.744 OA
ENDBRANCH  81  82
ENDBRANCH  49  74
BRANCH  61  86
ATOM     86  C   UNL A   1      48.549  27.548  29.542  1.00  0.00     0.058 A 
ATOM     87  C   UNL A   1      49.084  27.027  30.730  1.00  0.00     0.135 A 
ATOM     88  C   UNL A   1      49.428  27.816  28.481  1.00  0.00     0.135 A 
ATOM     89  F   UNL A   1      48.282  26.762  31.773  1.00  0.00    -0.206 F 
ATOM     90  C   UNL A   1      50.447  26.787  30.865  1.00  0.00     0.059 A 
ATOM     91  C   UNL A   1      50.793  27.569  28.590  1.00  0.00     0.059 A 
ATOM     92  F   UNL A   1      48.960  28.309  27.324  1.00  0.00    -0.206 F 
ATOM     93  C   UNL A   1      51.294  27.063  29.789  1.00  0.00     0.060 A 
BRANCH  93  94
ATOM     94  S   UNL A   1      53.056  26.713  29.964  1.00  0.00     0.124 S 
ATOM     95  O   UNL A   1      53.597  28.046  30.203  1.00  0.00    -0.237 OA
ATOM     96  O   UNL A   1      53.086  25.802  31.104  1.00  0.00    -0.237 OA
ATOM     97  O   UNL A   1      53.410  26.112  28.681  1.00  0.00    -0.744 OA
ENDBRANCH  93  94
ENDBRANCH  61  86
ENDBRANCH  35  36
ENDBRANCH  27  30
ENDBRANCH  25  26
ENDBRANCH   1  25
TORSDOF 16
ENDMDL
MODEL 3
REMARK VINA RESULT:     -12.3      2.937      8.880
REMARK SMILES C=Cc1cc(Cl)cc2c1O[C@H](C(F)(F)F)C(C(=O)NCCCCNC(=O)c1ccc(-c3c4nc(c(-c5c(F)cc(S(=O)(=O)[O-])cc5F)c5ccc([nH]5)c(-c5c(F)cc(S(=O)(=O)[O-])cc5F)c5nc(c(-c6c(F)cc(S(=O)(=O)[O-])cc6F)c6ccc3[nH]6)C=C5)C=C4)cc1)=C2
REMARK SMILES IDX 22 1 21 2 20 3 19 4 17 5 18 6 16 8 3 9 4 10 9 11 5 12 8 13
REMARK SMILES IDX 10 14 6 15 7 16 93 17 11 18 2 19 1 20 12 21 13 22 14 23
REMARK SMILES IDX 15 24 23 25 24 26 25 27 26 29 27 30 28 31 92 32 29 33 91 34
REMARK SMILES IDX 30 35 31 36 32 37 85 38 33 39 90 40 84 41 86 42 34 43 89 44
REMARK SMILES IDX 83 45 82 46 35 48 69 49 48 50 68 51 49 52 52 53 67 54 87 55
REMARK SMILES IDX 50 56 51 57 66 59 88 60 53 61 36 62 37 63 46 64 38 65 39 66
REMARK SMILES IDX 45 67 47 68 40 69 41 70 42 71 43 72 44 73 70 74 71 75 80 76
REMARK SMILES IDX 72 77 73 78 79 79 81 80 74 81 75 82 76 83 77 84 78 85 54 86
REMARK SMILES IDX 55 87 64 88 56 89 57 90 63 91 65 92 58 93 59 94 60 95 61 96
REMARK SMILES IDX 62 97
REMARK H PARENT 19 7 24 28 86 47 52 58
REMARK Flexibility Score: inf
ROOT
ATOM      1  C   UNL A   1      36.066  23.581  26.094  1.00  0.00     0.023 C 
ENDROOT
BRANCH   1   2
ATOM      2  C   UNL A   1      35.274  22.280  25.932  1.00  0.00     0.023 C 
BRANCH   2   3
ATOM      3  C   UNL A   1      33.918  22.446  25.249  1.00  0.00     0.116 C 
BRANCH   3   4
ATOM      4  N   UNL A   1      34.047  22.674  23.820  1.00  0.00    -0.352 N 
ATOM      5  C   UNL A   1      33.732  23.656  22.945  1.00  0.00     0.251 C 
ATOM      6  O   UNL A   1      34.038  23.435  21.768  1.00  0.00    -0.270 OA
ATOM      7  H   UNL A   1      34.478  21.912  23.370  1.00  0.00     0.163 HD
BRANCH   5   8
ATOM      8  C   UNL A   1      33.065  24.946  23.295  1.00  0.00     0.067 C 
ATOM      9  C   UNL A   1      31.457  28.737  24.212  1.00  0.00     0.018 A 
ATOM     10  C   UNL A   1      32.036  29.483  25.247  1.00  0.00     0.032 A 
ATOM     11  C   UNL A   1      32.021  27.493  23.877  1.00  0.00     0.135 A 
ATOM     12  C   UNL A   1      33.169  29.006  25.907  1.00  0.00     0.042 A 
ATOM     13  C   UNL A   1      33.164  27.021  24.534  1.00  0.00     0.019 A 
ATOM     14  O   UNL A   1      31.453  26.786  22.848  1.00  0.00    -0.475 OA
ATOM     15  Cl  UNL A   1      33.869  29.938  27.174  1.00  0.00    -0.084 Cl
ATOM     16  C   UNL A   1      33.740  27.785  25.553  1.00  0.00     0.032 A 
ATOM     17  C   UNL A   1      33.758  25.756  24.117  1.00  0.00     0.025 C 
ATOM     18  C   UNL A   1      31.696  25.353  22.833  1.00  0.00     0.314 C 
BRANCH   9  19
ATOM     19  C   UNL A   1      30.246  29.215  23.529  1.00  0.00     0.004 C 
ATOM     20  C   UNL A   1      29.694  30.416  23.746  1.00  0.00     0.009 C 
ENDBRANCH   9  19
BRANCH  18  21
ATOM     21  C   UNL A   1      30.571  24.640  23.605  1.00  0.00     0.429 C 
ATOM     22  F   UNL A   1      30.293  23.439  23.037  1.00  0.00    -0.167 F 
ATOM     23  F   UNL A   1      30.898  24.391  24.893  1.00  0.00    -0.167 F 
ATOM     24  F   UNL A   1      29.419  25.352  23.621  1.00  0.00    -0.167 F 
ENDBRANCH  18  21
ENDBRANCH   5   8
ENDBRANCH   3   4
ENDBRANCH   2   3
ENDBRANCH   1   2
BRANCH   1  25
ATOM     25  C   UNL A   1      37.244  23.763  25.139  1.00  0.00     0.116 C 
BRANCH  25  26
ATOM     26  N   UNL A   1      38.380  22.891  25.414  1.00  0.00    -0.352 N 
ATOM     27  C   UNL A   1      39.481  23.167  26.195  1.00  0.00     0.251 C 
ATOM     28  H   UNL A   1      38.358  22.003  24.991  1.00  0.00     0.163 HD
ATOM     29  O   UNL A   1      40.399  22.359  26.291  1.00  0.00    -0.269 OA
BRANCH  27  30
ATOM     30  C   UNL A   1      39.558  24.480  26.865  1.00  0.00     0.039 A 
ATOM     31  C   UNL A   1      40.308  25.512  26.298  1.00  0.00     0.014 A 
ATOM     32  C   UNL A   1      38.971  24.632  28.124  1.00  0.00     0.014 A 
ATOM     33  C   UNL A   1      40.615  26.629  27.066  1.00  0.00     0.010 A 
ATOM     34  C   UNL A   1      39.229  25.786  28.866  1.00  0.00     0.010 A 
ATOM     35  C   UNL A   1      40.103  26.764  28.367  1.00  0.00    -0.014 A 
BRANCH  35  36
ATOM     36  C   UNL A   1      40.548  27.905  29.207  1.00  0.00     0.031 A 
ATOM     37  C   UNL A   1      39.645  29.091  29.422  1.00  0.00     0.074 A 
ATOM     38  C   UNL A   1      41.733  27.834  29.844  1.00  0.00     0.049 A 
ATOM     39  N   UNL A   1      39.853  30.167  30.137  1.00  0.00    -0.248 NA
ATOM     40  C   UNL A   1      38.336  29.069  28.747  1.00  0.00     0.031 C 
ATOM     41  C   UNL A   1      42.683  26.724  29.734  1.00  0.00     0.029 A 
ATOM     42  N   UNL A   1      42.326  28.693  30.732  1.00  0.00    -0.354 N 
ATOM     43  C   UNL A   1      38.720  30.955  29.984  1.00  0.00     0.074 A 
ATOM     44  C   UNL A   1      37.829  30.245  29.091  1.00  0.00     0.031 C 
ATOM     45  C   UNL A   1      43.711  26.944  30.568  1.00  0.00     0.029 A 
ATOM     46  C   UNL A   1      43.520  28.230  31.230  1.00  0.00     0.049 A 
ATOM     47  H   UNL A   1      41.933  29.559  30.989  1.00  0.00     0.167 HD
ATOM     48  C   UNL A   1      38.441  32.157  30.543  1.00  0.00     0.037 A 
ATOM     49  C   UNL A   1      44.369  28.783  32.116  1.00  0.00     0.037 A 
ATOM     50  C   UNL A   1      39.312  32.848  31.456  1.00  0.00     0.049 A 
ATOM     51  C   UNL A   1      44.048  30.126  32.705  1.00  0.00     0.074 A 
ATOM     52  C   UNL A   1      39.115  34.069  32.079  1.00  0.00     0.029 A 
ATOM     53  N   UNL A   1      40.542  32.373  31.887  1.00  0.00    -0.354 N 
ATOM     54  N   UNL A   1      42.985  30.871  32.519  1.00  0.00    -0.248 NA
ATOM     55  C   UNL A   1      45.048  30.711  33.607  1.00  0.00     0.031 C 
ATOM     56  C   UNL A   1      40.237  34.343  32.870  1.00  0.00     0.029 A 
ATOM     57  C   UNL A   1      41.119  33.281  32.760  1.00  0.00     0.049 A 
ATOM     58  H   UNL A   1      40.946  31.518  31.613  1.00  0.00     0.167 HD
ATOM     59  C   UNL A   1      43.191  32.017  33.276  1.00  0.00     0.074 A 
ATOM     60  C   UNL A   1      44.468  31.856  33.942  1.00  0.00     0.031 C 
ATOM     61  C   UNL A   1      42.397  33.108  33.401  1.00  0.00     0.037 A 
BRANCH  48  62
ATOM     62  C   UNL A   1      37.139  32.812  30.178  1.00  0.00     0.058 A 
ATOM     63  C   UNL A   1      35.974  32.595  30.929  1.00  0.00     0.135 A 
ATOM     64  C   UNL A   1      37.069  33.710  29.100  1.00  0.00     0.135 A 
ATOM     65  F   UNL A   1      35.984  31.732  31.958  1.00  0.00    -0.206 F 
ATOM     66  C   UNL A   1      34.779  33.236  30.616  1.00  0.00     0.059 A 
ATOM     67  C   UNL A   1      35.889  34.374  28.779  1.00  0.00     0.059 A 
ATOM     68  F   UNL A   1      38.156  33.948  28.349  1.00  0.00    -0.206 F 
ATOM     69  C   UNL A   1      34.747  34.123  29.538  1.00  0.00     0.060 A 
BRANCH  69  70
ATOM     70  S   UNL A   1      33.192  34.957  29.150  1.00  0.00     0.124 S 
ATOM     71  O   UNL A   1      32.638  34.074  28.130  1.00  0.00    -0.237 OA
ATOM     72  O   UNL A   1      32.502  34.948  30.437  1.00  0.00    -0.237 OA
ATOM     73  O   UNL A   1      33.619  36.271  28.681  1.00  0.00    -0.744 OA
ENDBRANCH  69  70
ENDBRANCH  48  62
BRANCH  49  74
ATOM     74  C   UNL A   1      45.606  28.056  32.494  1.00  0.00     0.058 A 
ATOM     75  C   UNL A   1      45.622  27.193  33.598  1.00  0.00     0.135 A 
ATOM     76  C   UNL A   1      46.777  28.174  31.733  1.00  0.00     0.135 A 
ATOM     77  F   UNL A   1      44.524  27.053  34.357  1.00  0.00    -0.206 F 
ATOM     78  C   UNL A   1      46.759  26.467  33.935  1.00  0.00     0.059 A 
ATOM     79  C   UNL A   1      47.921  27.446  32.037  1.00  0.00     0.059 A 
ATOM     80  F   UNL A   1      46.803  28.979  30.659  1.00  0.00    -0.206 F 
ATOM     81  C   UNL A   1      47.903  26.596  33.144  1.00  0.00     0.060 A 
BRANCH  81  82
ATOM     82  S   UNL A   1      49.351  25.592  33.538  1.00  0.00     0.124 S 
ATOM     83  O   UNL A   1      49.962  26.366  34.613  1.00  0.00    -0.237 OA
ATOM     84  O   UNL A   1      48.751  24.320  33.927  1.00  0.00    -0.237 OA
ATOM     85  O   UNL A   1      50.089  25.566  32.278  1.00  0.00    -0.744 OA
ENDBRANCH  81  82
ENDBRANCH  49  74
BRANCH  61  86
ATOM     86  C   UNL A   1      42.893  34.218  34.280  1.00  0.00     0.058 A 
ATOM     87  C   UNL A   1      43.541  35.337  33.737  1.00  0.00     0.135 A 
ATOM     88  C   UNL A   1      42.671  34.188  35.666  1.00  0.00     0.135 A 
ATOM     89  F   UNL A   1      43.779  35.405  32.418  1.00  0.00    -0.206 F 
ATOM     90  C   UNL A   1      43.965  36.388  34.542  1.00  0.00     0.059 A 
ATOM     91  C   UNL A   1      43.074  35.236  36.487  1.00  0.00     0.059 A 
ATOM     92  F   UNL A   1      42.049  33.140  36.229  1.00  0.00    -0.206 F 
ATOM     93  C   UNL A   1      43.727  36.328  35.917  1.00  0.00     0.060 A 
BRANCH  93  94
ATOM     94  S   UNL A   1      44.249  37.716  36.947  1.00  0.00     0.124 S 
ATOM     95  O   UNL A   1      45.549  37.255  37.422  1.00  0.00    -0.237 OA
ATOM     96  O   UNL A   1      44.278  38.822  35.995  1.00  0.00    -0.237 OA
ATOM     97  O   UNL A   1      43.201  37.798  37.960  1.00  0.00    -0.744 OA
ENDBRANCH  93  94
ENDBRANCH  61  86
ENDBRANCH  35  36
ENDBRANCH  27  30
ENDBRANCH  25  26
ENDBRANCH   1  25
TORSDOF 16
ENDMDL
