MODEL 1
REMARK VINA RESULT:     -11.3      0.000      0.000
REMARK SMILES O=C(CCSc1nc(-c2cccs2)cc(C(F)(F)F)n1)NCCCCNC(=O)c1ccc(-c2c3nc(c(-c4c(F)cc(S(=O)(=O)[O-])cc4F)c4ccc([nH]4)c(-c4c(F)cc(S(=O)(=O)[O-])cc4F)c4nc(c(-c5c(F)cc(S(=O)(=O)[O-])cc5F)c5ccc2[nH]5)C=C4)C=C3)cc1
REMARK SMILES IDX 23 1 22 2 21 3 1 4 2 5 3 7 4 8 5 9 6 10 7 11 20 12 8 13
REMARK SMILES IDX 15 14 14 15 9 16 10 17 13 18 11 19 12 20 16 21 17 22 18 23
REMARK SMILES IDX 19 24 24 25 25 26 26 27 27 28 28 30 29 31 30 32 94 33 31 34
REMARK SMILES IDX 93 35 32 36 33 37 34 38 87 39 35 40 92 41 86 42 88 43 36 44
REMARK SMILES IDX 91 45 85 46 84 47 37 49 71 50 50 51 70 52 51 53 54 54 69 55
REMARK SMILES IDX 89 56 52 57 53 58 68 60 90 61 55 62 38 63 39 64 48 65 40 66
REMARK SMILES IDX 41 67 47 68 49 69 42 70 43 71 44 72 45 73 46 74 72 75 73 76
REMARK SMILES IDX 82 77 74 78 75 79 81 80 83 81 76 82 77 83 78 84 79 85 80 86
REMARK SMILES IDX 56 87 57 88 66 89 58 90 59 91 65 92 67 93 60 94 61 95 62 96
REMARK SMILES IDX 63 97 64 98
REMARK H PARENT 21 6 26 29 88 48 54 59
REMARK Flexibility Score: inf
ROOT
ATOM      1  C   UNL A   1      32.654  29.178  24.616  1.00  0.00     0.023 C 
ENDROOT
BRANCH   1   2
ATOM      2  C   UNL A   1      31.247  28.594  24.783  1.00  0.00     0.116 C 
BRANCH   2   3
ATOM      3  N   UNL A   1      31.117  27.162  24.683  1.00  0.00    -0.356 N 
ATOM      4  O   UNL A   1      30.803  26.834  26.950  1.00  0.00    -0.275 OA
ATOM      5  C   UNL A   1      30.792  26.410  25.798  1.00  0.00     0.220 C 
ATOM      6  H   UNL A   1      31.258  26.717  23.817  1.00  0.00     0.163 HD
BRANCH   5   7
ATOM      7  C   UNL A   1      30.339  25.005  25.474  1.00  0.00     0.111 C 
BRANCH   7   8
ATOM      8  C   UNL A   1      31.529  24.070  25.275  1.00  0.00     0.088 C 
BRANCH   8   9
ATOM      9  S   UNL A   1      31.435  23.104  23.736  1.00  0.00    -0.086 SA
BRANCH   9  10
ATOM     10  C   UNL A   1      32.793  21.965  23.942  1.00  0.00     0.188 A 
ATOM     11  N   UNL A   1      33.990  22.418  24.339  1.00  0.00    -0.222 NA
ATOM     12  N   UNL A   1      32.440  20.678  23.955  1.00  0.00    -0.218 NA
ATOM     13  C   UNL A   1      34.867  21.507  24.831  1.00  0.00     0.085 A 
ATOM     14  C   UNL A   1      33.337  19.779  24.433  1.00  0.00     0.149 A 
ATOM     15  C   UNL A   1      34.577  20.165  24.910  1.00  0.00     0.063 A 
BRANCH  13  16
ATOM     16  C   UNL A   1      36.122  22.074  25.354  1.00  0.00     0.053 A 
ATOM     17  C   UNL A   1      37.382  21.507  25.427  1.00  0.00     0.022 A 
ATOM     18  S   UNL A   1      36.176  23.696  25.916  1.00  0.00    -0.142 S 
ATOM     19  C   UNL A   1      38.396  22.452  25.785  1.00  0.00     0.012 A 
ATOM     20  C   UNL A   1      37.878  23.708  25.994  1.00  0.00     0.065 A 
ENDBRANCH  13  16
BRANCH  14  21
ATOM     21  C   UNL A   1      32.926  18.318  24.439  1.00  0.00     0.433 C 
ATOM     22  F   UNL A   1      31.944  18.042  23.536  1.00  0.00    -0.165 F 
ATOM     23  F   UNL A   1      33.966  17.489  24.142  1.00  0.00    -0.165 F 
ATOM     24  F   UNL A   1      32.453  17.896  25.645  1.00  0.00    -0.165 F 
ENDBRANCH  14  21
ENDBRANCH   9  10
ENDBRANCH   8   9
ENDBRANCH   7   8
ENDBRANCH   5   7
ENDBRANCH   2   3
ENDBRANCH   1   2
BRANCH   1  25
ATOM     25  C   UNL A   1      33.698  29.085  25.739  1.00  0.00     0.023 C 
BRANCH  25  26
ATOM     26  C   UNL A   1      33.309  29.104  27.221  1.00  0.00     0.116 C 
BRANCH  26  27
ATOM     27  N   UNL A   1      33.435  30.365  27.926  1.00  0.00    -0.352 N 
ATOM     28  C   UNL A   1      34.555  30.992  28.439  1.00  0.00     0.251 C 
ATOM     29  H   UNL A   1      32.590  30.852  28.060  1.00  0.00     0.163 HD
ATOM     30  O   UNL A   1      34.493  32.149  28.829  1.00  0.00    -0.269 OA
BRANCH  28  31
ATOM     31  C   UNL A   1      35.824  30.251  28.605  1.00  0.00     0.039 A 
ATOM     32  C   UNL A   1      36.677  30.184  27.496  1.00  0.00     0.014 A 
ATOM     33  C   UNL A   1      36.200  29.673  29.817  1.00  0.00     0.014 A 
ATOM     34  C   UNL A   1      37.962  29.667  27.640  1.00  0.00     0.010 A 
ATOM     35  C   UNL A   1      37.505  29.208  29.974  1.00  0.00     0.010 A 
ATOM     36  C   UNL A   1      38.410  29.246  28.901  1.00  0.00    -0.014 A 
BRANCH  36  37
ATOM     37  C   UNL A   1      39.847  28.954  29.136  1.00  0.00     0.031 A 
ATOM     38  C   UNL A   1      40.771  30.017  29.653  1.00  0.00     0.074 A 
ATOM     39  C   UNL A   1      40.326  27.741  28.790  1.00  0.00     0.049 A 
ATOM     40  N   UNL A   1      42.065  29.965  29.834  1.00  0.00    -0.248 NA
ATOM     41  C   UNL A   1      40.166  31.314  29.987  1.00  0.00     0.031 C 
ATOM     42  C   UNL A   1      39.527  26.645  28.232  1.00  0.00     0.029 A 
ATOM     43  N   UNL A   1      41.597  27.226  28.839  1.00  0.00    -0.354 N 
ATOM     44  C   UNL A   1      42.435  31.224  30.289  1.00  0.00     0.074 A 
ATOM     45  C   UNL A   1      41.233  32.030  30.319  1.00  0.00     0.031 C 
ATOM     46  C   UNL A   1      40.321  25.588  28.008  1.00  0.00     0.029 A 
ATOM     47  C   UNL A   1      41.691  25.938  28.365  1.00  0.00     0.049 A 
ATOM     48  H   UNL A   1      42.370  27.731  29.180  1.00  0.00     0.167 HD
ATOM     49  C   UNL A   1      43.662  31.660  30.661  1.00  0.00     0.037 A 
ATOM     50  C   UNL A   1      42.761  25.132  28.222  1.00  0.00     0.037 A 
ATOM     51  C   UNL A   1      44.849  30.840  30.636  1.00  0.00     0.049 A 
ATOM     52  C   UNL A   1      44.114  25.643  28.638  1.00  0.00     0.074 A 
ATOM     53  C   UNL A   1      46.130  31.169  31.045  1.00  0.00     0.029 A 
ATOM     54  N   UNL A   1      44.900  29.534  30.172  1.00  0.00    -0.354 N 
ATOM     55  N   UNL A   1      44.435  26.816  29.131  1.00  0.00    -0.248 NA
ATOM     56  C   UNL A   1      45.249  24.723  28.483  1.00  0.00     0.031 C 
ATOM     57  C   UNL A   1      46.964  30.077  30.785  1.00  0.00     0.029 A 
ATOM     58  C   UNL A   1      46.196  29.049  30.264  1.00  0.00     0.049 A 
ATOM     59  H   UNL A   1      44.131  29.026  29.827  1.00  0.00     0.167 HD
ATOM     60  C   UNL A   1      45.802  26.764  29.374  1.00  0.00     0.074 A 
ATOM     61  C   UNL A   1      46.245  25.441  28.983  1.00  0.00     0.031 C 
ATOM     62  C   UNL A   1      46.617  27.725  29.877  1.00  0.00     0.037 A 
BRANCH  49  63
ATOM     63  C   UNL A   1      43.787  33.086  31.120  1.00  0.00     0.058 A 
ATOM     64  C   UNL A   1      43.667  33.438  32.474  1.00  0.00     0.135 A 
ATOM     65  C   UNL A   1      44.066  34.113  30.202  1.00  0.00     0.135 A 
ATOM     66  F   UNL A   1      43.389  32.501  33.395  1.00  0.00    -0.206 F 
ATOM     67  C   UNL A   1      43.788  34.758  32.898  1.00  0.00     0.059 A 
ATOM     68  C   UNL A   1      44.217  35.435  30.606  1.00  0.00     0.059 A 
ATOM     69  F   UNL A   1      44.191  33.834  28.894  1.00  0.00    -0.206 F 
ATOM     70  C   UNL A   1      44.062  35.751  31.955  1.00  0.00     0.060 A 
BRANCH  70  71
ATOM     71  S   UNL A   1      44.222  37.457  32.523  1.00  0.00     0.124 S 
ATOM     72  O   UNL A   1      43.966  38.198  31.291  1.00  0.00    -0.237 OA
ATOM     73  O   UNL A   1      43.181  37.546  33.542  1.00  0.00    -0.237 OA
ATOM     74  O   UNL A   1      45.591  37.524  33.022  1.00  0.00    -0.744 OA
ENDBRANCH  70  71
ENDBRANCH  49  63
BRANCH  50  75
ATOM     75  C   UNL A   1      42.595  23.755  27.684  1.00  0.00     0.058 A 
ATOM     76  C   UNL A   1      42.589  22.644  28.541  1.00  0.00     0.135 A 
ATOM     77  C   UNL A   1      42.430  23.519  26.310  1.00  0.00     0.135 A 
ATOM     78  F   UNL A   1      42.747  22.815  29.861  1.00  0.00    -0.206 F 
ATOM     79  C   UNL A   1      42.446  21.348  28.055  1.00  0.00     0.059 A 
ATOM     80  C   UNL A   1      42.259  22.235  25.803  1.00  0.00     0.059 A 
ATOM     81  F   UNL A   1      42.411  24.548  25.448  1.00  0.00    -0.206 F 
ATOM     82  C   UNL A   1      42.279  21.153  26.682  1.00  0.00     0.060 A 
BRANCH  82  83
ATOM     83  S   UNL A   1      42.053  19.470  26.068  1.00  0.00     0.124 S 
ATOM     84  O   UNL A   1      42.474  18.679  27.218  1.00  0.00    -0.237 OA
ATOM     85  O   UNL A   1      40.627  19.444  25.762  1.00  0.00    -0.237 OA
ATOM     86  O   UNL A   1      42.936  19.417  24.906  1.00  0.00    -0.744 OA
ENDBRANCH  82  83
ENDBRANCH  50  75
BRANCH  62  87
ATOM     87  C   UNL A   1      48.066  27.369  30.070  1.00  0.00     0.058 A 
ATOM     88  C   UNL A   1      49.023  27.596  29.069  1.00  0.00     0.135 A 
ATOM     89  C   UNL A   1      48.507  26.840  31.294  1.00  0.00     0.135 A 
ATOM     90  F   UNL A   1      48.651  28.091  27.879  1.00  0.00    -0.206 F 
ATOM     91  C   UNL A   1      50.365  27.293  29.268  1.00  0.00     0.059 A 
ATOM     92  C   UNL A   1      49.849  26.556  31.524  1.00  0.00     0.059 A 
ATOM     93  F   UNL A   1      47.633  26.612  32.287  1.00  0.00    -0.206 F 
ATOM     94  C   UNL A   1      50.770  26.776  30.501  1.00  0.00     0.060 A 
BRANCH  94  95
ATOM     95  S   UNL A   1      52.521  26.423  30.759  1.00  0.00     0.124 S 
ATOM     96  O   UNL A   1      52.984  26.211  29.391  1.00  0.00    -0.237 OA
ATOM     97  O   UNL A   1      52.994  27.643  31.406  1.00  0.00    -0.237 OA
ATOM     98  O   UNL A   1      52.507  25.236  31.608  1.00  0.00    -0.744 OA
ENDBRANCH  94  95
ENDBRANCH  62  87
ENDBRANCH  36  37
ENDBRANCH  28  31
ENDBRANCH  26  27
ENDBRANCH  25  26
ENDBRANCH   1  25
TORSDOF 19
ENDMDL
MODEL 2
REMARK VINA RESULT:     -11.1      1.585      2.596
REMARK SMILES O=C(CCSc1nc(-c2cccs2)cc(C(F)(F)F)n1)NCCCCNC(=O)c1ccc(-c2c3nc(c(-c4c(F)cc(S(=O)(=O)[O-])cc4F)c4ccc([nH]4)c(-c4c(F)cc(S(=O)(=O)[O-])cc4F)c4nc(c(-c5c(F)cc(S(=O)(=O)[O-])cc5F)c5ccc2[nH]5)C=C4)C=C3)cc1
REMARK SMILES IDX 23 1 22 2 21 3 1 4 2 5 3 7 4 8 5 9 6 10 7 11 20 12 8 13
REMARK SMILES IDX 15 14 14 15 9 16 10 17 13 18 11 19 12 20 16 21 17 22 18 23
REMARK SMILES IDX 19 24 24 25 25 26 26 27 27 28 28 30 29 31 30 32 94 33 31 34
REMARK SMILES IDX 93 35 32 36 33 37 34 38 87 39 35 40 92 41 86 42 88 43 36 44
REMARK SMILES IDX 91 45 85 46 84 47 37 49 71 50 50 51 70 52 51 53 54 54 69 55
REMARK SMILES IDX 89 56 52 57 53 58 68 60 90 61 55 62 38 63 39 64 48 65 40 66
REMARK SMILES IDX 41 67 47 68 49 69 42 70 43 71 44 72 45 73 46 74 72 75 73 76
REMARK SMILES IDX 82 77 74 78 75 79 81 80 83 81 76 82 77 83 78 84 79 85 80 86
REMARK SMILES IDX 56 87 57 88 66 89 58 90 59 91 65 92 67 93 60 94 61 95 62 96
REMARK SMILES IDX 63 97 64 98
REMARK H PARENT 21 6 26 29 88 48 54 59
REMARK Flexibility Score: inf
ROOT
ATOM      1  C   UNL A   1      32.941  29.142  24.470  1.00  0.00     0.023 C 
ENDROOT
BRANCH   1   2
ATOM      2  C   UNL A   1      31.547  28.513  24.375  1.00  0.00     0.116 C 
BRANCH   2   3
ATOM      3  N   UNL A   1      31.439  27.109  24.682  1.00  0.00    -0.356 N 
ATOM      4  O   UNL A   1      29.305  26.882  23.822  1.00  0.00    -0.275 OA
ATOM      5  C   UNL A   1      30.335  26.386  24.267  1.00  0.00     0.220 C 
ATOM      6  H   UNL A   1      32.155  26.662  25.188  1.00  0.00     0.163 HD
BRANCH   5   7
ATOM      7  C   UNL A   1      30.528  24.888  24.337  1.00  0.00     0.111 C 
BRANCH   7   8
ATOM      8  C   UNL A   1      31.025  24.457  25.715  1.00  0.00     0.088 C 
BRANCH   8   9
ATOM      9  S   UNL A   1      30.783  22.683  26.043  1.00  0.00    -0.086 SA
BRANCH   9  10
ATOM     10  C   UNL A   1      32.429  22.043  25.793  1.00  0.00     0.188 A 
ATOM     11  N   UNL A   1      32.601  20.755  25.464  1.00  0.00    -0.222 NA
ATOM     12  N   UNL A   1      33.375  22.976  25.676  1.00  0.00    -0.218 NA
ATOM     13  C   UNL A   1      33.799  20.405  24.932  1.00  0.00     0.085 A 
ATOM     14  C   UNL A   1      34.574  22.604  25.159  1.00  0.00     0.149 A 
ATOM     15  C   UNL A   1      34.822  21.307  24.746  1.00  0.00     0.063 A 
BRANCH  13  16
ATOM     16  C   UNL A   1      33.895  19.004  24.488  1.00  0.00     0.053 A 
ATOM     17  C   UNL A   1      34.996  18.166  24.445  1.00  0.00     0.022 A 
ATOM     18  S   UNL A   1      32.488  18.149  23.998  1.00  0.00    -0.142 S 
ATOM     19  C   UNL A   1      34.646  16.805  24.171  1.00  0.00     0.012 A 
ATOM     20  C   UNL A   1      33.292  16.647  23.993  1.00  0.00     0.065 A 
ENDBRANCH  13  16
BRANCH  14  21
ATOM     21  C   UNL A   1      35.643  23.673  25.033  1.00  0.00     0.433 C 
ATOM     22  F   UNL A   1      35.125  24.914  24.817  1.00  0.00    -0.165 F 
ATOM     23  F   UNL A   1      36.412  23.767  26.155  1.00  0.00    -0.165 F 
ATOM     24  F   UNL A   1      36.513  23.449  24.009  1.00  0.00    -0.165 F 
ENDBRANCH  14  21
ENDBRANCH   9  10
ENDBRANCH   8   9
ENDBRANCH   7   8
ENDBRANCH   5   7
ENDBRANCH   2   3
ENDBRANCH   1   2
BRANCH   1  25
ATOM     25  C   UNL A   1      33.855  28.883  25.676  1.00  0.00     0.023 C 
BRANCH  25  26
ATOM     26  C   UNL A   1      33.357  29.002  27.120  1.00  0.00     0.116 C 
BRANCH  26  27
ATOM     27  N   UNL A   1      33.501  30.291  27.770  1.00  0.00    -0.352 N 
ATOM     28  C   UNL A   1      34.630  30.924  28.254  1.00  0.00     0.251 C 
ATOM     29  H   UNL A   1      32.662  30.794  27.884  1.00  0.00     0.163 HD
ATOM     30  O   UNL A   1      34.584  32.099  28.593  1.00  0.00    -0.269 OA
BRANCH  28  31
ATOM     31  C   UNL A   1      35.890  30.175  28.450  1.00  0.00     0.039 A 
ATOM     32  C   UNL A   1      36.787  30.138  27.375  1.00  0.00     0.014 A 
ATOM     33  C   UNL A   1      36.215  29.561  29.659  1.00  0.00     0.014 A 
ATOM     34  C   UNL A   1      38.065  29.613  27.556  1.00  0.00     0.010 A 
ATOM     35  C   UNL A   1      37.511  29.087  29.856  1.00  0.00     0.010 A 
ATOM     36  C   UNL A   1      38.460  29.154  28.822  1.00  0.00    -0.014 A 
BRANCH  36  37
ATOM     37  C   UNL A   1      39.885  28.851  29.107  1.00  0.00     0.031 A 
ATOM     38  C   UNL A   1      40.799  29.906  29.658  1.00  0.00     0.074 A 
ATOM     39  C   UNL A   1      40.367  27.635  28.775  1.00  0.00     0.049 A 
ATOM     40  N   UNL A   1      42.085  29.844  29.885  1.00  0.00    -0.248 NA
ATOM     41  C   UNL A   1      40.192  31.207  29.974  1.00  0.00     0.031 C 
ATOM     42  C   UNL A   1      39.580  26.546  28.187  1.00  0.00     0.029 A 
ATOM     43  N   UNL A   1      41.632  27.111  28.868  1.00  0.00    -0.354 N 
ATOM     44  C   UNL A   1      42.448  31.100  30.356  1.00  0.00     0.074 A 
ATOM     45  C   UNL A   1      41.251  31.914  30.345  1.00  0.00     0.031 C 
ATOM     46  C   UNL A   1      40.374  25.483  27.989  1.00  0.00     0.029 A 
ATOM     47  C   UNL A   1      41.733  25.822  28.396  1.00  0.00     0.049 A 
ATOM     48  H   UNL A   1      42.396  27.609  29.238  1.00  0.00     0.167 HD
ATOM     49  C   UNL A   1      43.664  31.525  30.771  1.00  0.00     0.037 A 
ATOM     50  C   UNL A   1      42.801  25.009  28.289  1.00  0.00     0.037 A 
ATOM     51  C   UNL A   1      44.844  30.697  30.787  1.00  0.00     0.049 A 
ATOM     52  C   UNL A   1      44.143  25.509  28.754  1.00  0.00     0.074 A 
ATOM     53  C   UNL A   1      46.113  31.015  31.242  1.00  0.00     0.029 A 
ATOM     54  N   UNL A   1      44.903  29.391  30.322  1.00  0.00    -0.354 N 
ATOM     55  N   UNL A   1      44.454  26.679  29.260  1.00  0.00    -0.248 NA
ATOM     56  C   UNL A   1      45.276  24.581  28.637  1.00  0.00     0.031 C 
ATOM     57  C   UNL A   1      46.948  29.917  31.009  1.00  0.00     0.029 A 
ATOM     58  C   UNL A   1      46.191  28.896  30.459  1.00  0.00     0.049 A 
ATOM     59  H   UNL A   1      44.142  28.890  29.949  1.00  0.00     0.167 HD
ATOM     60  C   UNL A   1      45.812  26.616  29.551  1.00  0.00     0.074 A 
ATOM     61  C   UNL A   1      46.258  25.291  29.173  1.00  0.00     0.031 C 
ATOM     62  C   UNL A   1      46.616  27.570  30.084  1.00  0.00     0.037 A 
BRANCH  49  63
ATOM     63  C   UNL A   1      43.783  32.950  31.238  1.00  0.00     0.058 A 
ATOM     64  C   UNL A   1      44.167  33.982  30.367  1.00  0.00     0.135 A 
ATOM     65  C   UNL A   1      43.475  33.297  32.564  1.00  0.00     0.135 A 
ATOM     66  F   UNL A   1      44.485  33.707  29.091  1.00  0.00    -0.206 F 
ATOM     67  C   UNL A   1      44.271  35.300  30.799  1.00  0.00     0.059 A 
ATOM     68  C   UNL A   1      43.546  34.613  33.012  1.00  0.00     0.059 A 
ATOM     69  F   UNL A   1      43.101  32.351  33.441  1.00  0.00    -0.206 F 
ATOM     70  C   UNL A   1      43.960  35.606  32.125  1.00  0.00     0.060 A 
BRANCH  70  71
ATOM     71  S   UNL A   1      44.094  37.322  32.668  1.00  0.00     0.124 S 
ATOM     72  O   UNL A   1      43.047  37.389  33.683  1.00  0.00    -0.237 OA
ATOM     73  O   UNL A   1      45.464  37.386  33.167  1.00  0.00    -0.237 OA
ATOM     74  O   UNL A   1      43.837  38.086  31.451  1.00  0.00    -0.744 OA
ENDBRANCH  70  71
ENDBRANCH  49  63
BRANCH  50  75
ATOM     75  C   UNL A   1      42.644  23.634  27.742  1.00  0.00     0.058 A 
ATOM     76  C   UNL A   1      42.664  23.404  26.358  1.00  0.00     0.135 A 
ATOM     77  C   UNL A   1      42.480  22.524  28.585  1.00  0.00     0.135 A 
ATOM     78  F   UNL A   1      42.813  24.432  25.510  1.00  0.00    -0.206 F 
ATOM     79  C   UNL A   1      42.507  22.127  25.828  1.00  0.00     0.059 A 
ATOM     80  C   UNL A   1      42.348  21.234  28.080  1.00  0.00     0.059 A 
ATOM     81  F   UNL A   1      42.471  22.686  29.918  1.00  0.00    -0.206 F 
ATOM     82  C   UNL A   1      42.352  21.046  26.698  1.00  0.00     0.060 A 
BRANCH  82  83
ATOM     83  S   UNL A   1      42.191  19.389  26.000  1.00  0.00     0.124 S 
ATOM     84  O   UNL A   1      42.729  18.564  27.075  1.00  0.00    -0.237 OA
ATOM     85  O   UNL A   1      40.753  19.288  25.776  1.00  0.00    -0.237 OA
ATOM     86  O   UNL A   1      43.003  19.456  24.788  1.00  0.00    -0.744 OA
ENDBRANCH  82  83
ENDBRANCH  50  75
BRANCH  62  87
ATOM     87  C   UNL A   1      48.054  27.203  30.328  1.00  0.00     0.058 A 
ATOM     88  C   UNL A   1      49.042  27.398  29.351  1.00  0.00     0.135 A 
ATOM     89  C   UNL A   1      48.453  26.697  31.575  1.00  0.00     0.135 A 
ATOM     90  F   UNL A   1      48.711  27.870  28.139  1.00  0.00    -0.206 F 
ATOM     91  C   UNL A   1      50.375  27.085  29.596  1.00  0.00     0.059 A 
ATOM     92  C   UNL A   1      49.785  26.404  31.851  1.00  0.00     0.059 A 
ATOM     93  F   UNL A   1      47.548  26.499  32.547  1.00  0.00    -0.206 F 
ATOM     94  C   UNL A   1      50.737  26.591  30.851  1.00  0.00     0.060 A 
BRANCH  94  95
ATOM     95  S   UNL A   1      52.476  26.224  31.168  1.00  0.00     0.124 S 
ATOM     96  O   UNL A   1      52.855  27.328  32.045  1.00  0.00    -0.237 OA
ATOM     97  O   UNL A   1      52.408  24.909  31.798  1.00  0.00    -0.237 OA
ATOM     98  O   UNL A   1      53.076  26.244  29.838  1.00  0.00    -0.744 OA
ENDBRANCH  94  95
ENDBRANCH  62  87
ENDBRANCH  36  37
ENDBRANCH  28  31
ENDBRANCH  26  27
ENDBRANCH  25  26
ENDBRANCH   1  25
TORSDOF 19
ENDMDL
MODEL 3
REMARK VINA RESULT:     -10.9      3.865      9.793
REMARK SMILES O=C(CCSc1nc(-c2cccs2)cc(C(F)(F)F)n1)NCCCCNC(=O)c1ccc(-c2c3nc(c(-c4c(F)cc(S(=O)(=O)[O-])cc4F)c4ccc([nH]4)c(-c4c(F)cc(S(=O)(=O)[O-])cc4F)c4nc(c(-c5c(F)cc(S(=O)(=O)[O-])cc5F)c5ccc2[nH]5)C=C4)C=C3)cc1
REMARK SMILES IDX 23 1 22 2 21 3 1 4 2 5 3 7 4 8 5 9 6 10 7 11 20 12 8 13
REMARK SMILES IDX 15 14 14 15 9 16 10 17 13 18 11 19 12 20 16 21 17 22 18 23
REMARK SMILES IDX 19 24 24 25 25 26 26 27 27 28 28 30 29 31 30 32 94 33 31 34
REMARK SMILES IDX 93 35 32 36 33 37 34 38 87 39 35 40 92 41 86 42 88 43 36 44
REMARK SMILES IDX 91 45 85 46 84 47 37 49 71 50 50 51 70 52 51 53 54 54 69 55
REMARK SMILES IDX 89 56 52 57 53 58 68 60 90 61 55 62 38 63 39 64 48 65 40 66
REMARK SMILES IDX 41 67 47 68 49 69 42 70 43 71 44 72 45 73 46 74 72 75 73 76
REMARK SMILES IDX 82 77 74 78 75 79 81 80 83 81 76 82 77 83 78 84 79 85 80 86
REMARK SMILES IDX 56 87 57 88 66 89 58 90 59 91 65 92 67 93 60 94 61 95 62 96
REMARK SMILES IDX 63 97 64 98
REMARK H PARENT 21 6 26 29 88 48 54 59
REMARK Flexibility Score: inf
ROOT
ATOM      1  C   UNL A   1      34.848  22.688  26.991  1.00  0.00     0.023 C 
ENDROOT
BRANCH   1   2
ATOM      2  C   UNL A   1      33.366  22.819  26.625  1.00  0.00     0.116 C 
BRANCH   2   3
ATOM      3  N   UNL A   1      33.055  23.125  25.251  1.00  0.00    -0.356 N 
ATOM      4  O   UNL A   1      33.284  25.411  25.501  1.00  0.00    -0.275 OA
ATOM      5  C   UNL A   1      33.151  24.423  24.785  1.00  0.00     0.220 C 
ATOM      6  H   UNL A   1      32.774  22.405  24.641  1.00  0.00     0.163 HD
BRANCH   5   7
ATOM      7  C   UNL A   1      33.152  24.530  23.277  1.00  0.00     0.111 C 
BRANCH   7   8
ATOM      8  C   UNL A   1      31.761  24.860  22.743  1.00  0.00     0.088 C 
BRANCH   8   9
ATOM      9  S   UNL A   1      31.730  26.340  21.685  1.00  0.00    -0.086 SA
BRANCH   9  10
ATOM     10  C   UNL A   1      31.097  27.573  22.808  1.00  0.00     0.188 A 
ATOM     11  N   UNL A   1      31.808  27.918  23.890  1.00  0.00    -0.222 NA
ATOM     12  N   UNL A   1      30.068  28.278  22.335  1.00  0.00    -0.218 NA
ATOM     13  C   UNL A   1      31.484  29.086  24.500  1.00  0.00     0.085 A 
ATOM     14  C   UNL A   1      29.746  29.435  22.969  1.00  0.00     0.149 A 
ATOM     15  C   UNL A   1      30.458  29.893  24.062  1.00  0.00     0.063 A 
BRANCH  13  16
ATOM     16  C   UNL A   1      32.367  29.470  25.615  1.00  0.00     0.053 A 
ATOM     17  C   UNL A   1      33.603  28.962  25.975  1.00  0.00     0.022 A 
ATOM     18  S   UNL A   1      31.947  30.776  26.647  1.00  0.00    -0.142 S 
ATOM     19  C   UNL A   1      34.255  29.749  26.977  1.00  0.00     0.012 A 
ATOM     20  C   UNL A   1      33.489  30.822  27.368  1.00  0.00     0.065 A 
ENDBRANCH  13  16
BRANCH  14  21
ATOM     21  C   UNL A   1      28.573  30.227  22.423  1.00  0.00     0.433 C 
ATOM     22  F   UNL A   1      28.074  29.704  21.268  1.00  0.00    -0.165 F 
ATOM     23  F   UNL A   1      27.533  30.279  23.302  1.00  0.00    -0.165 F 
ATOM     24  F   UNL A   1      28.882  31.524  22.141  1.00  0.00    -0.165 F 
ENDBRANCH  14  21
ENDBRANCH   9  10
ENDBRANCH   8   9
ENDBRANCH   7   8
ENDBRANCH   5   7
ENDBRANCH   2   3
ENDBRANCH   1   2
BRANCH   1  25
ATOM     25  C   UNL A   1      35.894  22.260  25.952  1.00  0.00     0.023 C 
BRANCH  25  26
ATOM     26  C   UNL A   1      37.055  23.171  25.537  1.00  0.00     0.116 C 
BRANCH  26  27
ATOM     27  N   UNL A   1      38.388  22.600  25.556  1.00  0.00    -0.352 N 
ATOM     28  C   UNL A   1      39.524  23.009  26.229  1.00  0.00     0.251 C 
ATOM     29  H   UNL A   1      38.502  21.794  25.001  1.00  0.00     0.163 HD
ATOM     30  O   UNL A   1      40.509  22.285  26.278  1.00  0.00    -0.269 OA
BRANCH  28  31
ATOM     31  C   UNL A   1      39.600  24.358  26.829  1.00  0.00     0.039 A 
ATOM     32  C   UNL A   1      39.067  24.519  28.114  1.00  0.00     0.014 A 
ATOM     33  C   UNL A   1      40.213  25.431  26.182  1.00  0.00     0.014 A 
ATOM     34  C   UNL A   1      39.274  25.710  28.806  1.00  0.00     0.010 A 
ATOM     35  C   UNL A   1      40.468  26.601  26.896  1.00  0.00     0.010 A 
ATOM     36  C   UNL A   1      40.044  26.731  28.229  1.00  0.00    -0.014 A 
BRANCH  36  37
ATOM     37  C   UNL A   1      40.508  27.883  29.042  1.00  0.00     0.031 A 
ATOM     38  C   UNL A   1      41.826  27.837  29.757  1.00  0.00     0.074 A 
ATOM     39  C   UNL A   1      39.680  28.937  29.202  1.00  0.00     0.049 A 
ATOM     40  N   UNL A   1      42.349  28.711  30.577  1.00  0.00    -0.248 NA
ATOM     41  C   UNL A   1      42.655  26.642  29.539  1.00  0.00     0.031 C 
ATOM     42  C   UNL A   1      38.353  29.069  28.593  1.00  0.00     0.029 A 
ATOM     43  N   UNL A   1      39.820  30.090  29.933  1.00  0.00    -0.354 N 
ATOM     44  C   UNL A   1      43.560  28.169  30.987  1.00  0.00     0.074 A 
ATOM     45  C   UNL A   1      43.676  26.872  30.354  1.00  0.00     0.031 C 
ATOM     46  C   UNL A   1      37.811  30.240  28.961  1.00  0.00     0.029 A 
ATOM     47  C   UNL A   1      38.729  30.926  29.863  1.00  0.00     0.049 A 
ATOM     48  H   UNL A   1      40.626  30.300  30.459  1.00  0.00     0.167 HD
ATOM     49  C   UNL A   1      44.493  28.712  31.804  1.00  0.00     0.037 A 
ATOM     50  C   UNL A   1      38.488  32.106  30.466  1.00  0.00     0.037 A 
ATOM     51  C   UNL A   1      44.368  30.011  32.417  1.00  0.00     0.049 A 
ATOM     52  C   UNL A   1      39.541  32.684  31.373  1.00  0.00     0.074 A 
ATOM     53  C   UNL A   1      45.282  30.677  33.217  1.00  0.00     0.029 A 
ATOM     54  N   UNL A   1      43.260  30.838  32.305  1.00  0.00    -0.354 N 
ATOM     55  N   UNL A   1      40.711  32.188  31.697  1.00  0.00    -0.248 NA
ATOM     56  C   UNL A   1      39.243  33.982  31.994  1.00  0.00     0.031 C 
ATOM     57  C   UNL A   1      44.707  31.885  33.624  1.00  0.00     0.029 A 
ATOM     58  C   UNL A   1      43.456  31.998  33.038  1.00  0.00     0.049 A 
ATOM     59  H   UNL A   1      42.451  30.630  31.783  1.00  0.00     0.167 HD
ATOM     60  C   UNL A   1      41.303  33.126  32.534  1.00  0.00     0.074 A 
ATOM     61  C   UNL A   1      40.365  34.224  32.658  1.00  0.00     0.031 C 
ATOM     62  C   UNL A   1      42.514  33.084  33.144  1.00  0.00     0.037 A 
BRANCH  49  63
ATOM     63  C   UNL A   1      45.729  27.902  32.088  1.00  0.00     0.058 A 
ATOM     64  C   UNL A   1      45.796  27.015  33.174  1.00  0.00     0.135 A 
ATOM     65  C   UNL A   1      46.849  27.986  31.244  1.00  0.00     0.135 A 
ATOM     66  F   UNL A   1      44.759  26.902  34.020  1.00  0.00    -0.206 F 
ATOM     67  C   UNL A   1      46.938  26.263  33.431  1.00  0.00     0.059 A 
ATOM     68  C   UNL A   1      47.992  27.224  31.467  1.00  0.00     0.059 A 
ATOM     69  F   UNL A   1      46.841  28.818  30.190  1.00  0.00    -0.206 F 
ATOM     70  C   UNL A   1      48.032  26.375  32.572  1.00  0.00     0.060 A 
BRANCH  70  71
ATOM     71  S   UNL A   1      49.503  25.388  32.917  1.00  0.00     0.124 S 
ATOM     72  O   UNL A   1      48.962  24.359  33.799  1.00  0.00    -0.237 OA
ATOM     73  O   UNL A   1      49.896  24.936  31.586  1.00  0.00    -0.237 OA
ATOM     74  O   UNL A   1      50.412  26.339  33.547  1.00  0.00    -0.744 OA
ENDBRANCH  70  71
ENDBRANCH  49  63
BRANCH  50  75
ATOM     75  C   UNL A   1      37.212  32.828  30.216  1.00  0.00     0.058 A 
ATOM     76  C   UNL A   1      36.131  32.706  31.102  1.00  0.00     0.135 A 
ATOM     77  C   UNL A   1      37.047  33.659  29.096  1.00  0.00     0.135 A 
ATOM     78  F   UNL A   1      36.237  31.921  32.184  1.00  0.00    -0.206 F 
ATOM     79  C   UNL A   1      34.926  33.365  30.879  1.00  0.00     0.059 A 
ATOM     80  C   UNL A   1      35.860  34.348  28.865  1.00  0.00     0.059 A 
ATOM     81  F   UNL A   1      38.055  33.824  28.226  1.00  0.00    -0.206 F 
ATOM     82  C   UNL A   1      34.800  34.187  29.757  1.00  0.00     0.060 A 
BRANCH  82  83
ATOM     83  S   UNL A   1      33.246  35.070  29.499  1.00  0.00     0.124 S 
ATOM     84  O   UNL A   1      32.609  34.928  30.803  1.00  0.00    -0.237 OA
ATOM     85  O   UNL A   1      33.708  36.410  29.156  1.00  0.00    -0.237 OA
ATOM     86  O   UNL A   1      32.620  34.332  28.407  1.00  0.00    -0.744 OA
ENDBRANCH  82  83
ENDBRANCH  50  75
BRANCH  62  87
ATOM     87  C   UNL A   1      42.912  34.276  33.970  1.00  0.00     0.058 A 
ATOM     88  C   UNL A   1      42.723  34.309  35.360  1.00  0.00     0.135 A 
ATOM     89  C   UNL A   1      43.539  35.378  33.366  1.00  0.00     0.135 A 
ATOM     90  F   UNL A   1      42.121  33.285  35.984  1.00  0.00    -0.206 F 
ATOM     91  C   UNL A   1      43.123  35.402  36.121  1.00  0.00     0.059 A 
ATOM     92  C   UNL A   1      43.973  36.470  34.111  1.00  0.00     0.059 A 
ATOM     93  F   UNL A   1      43.751  35.393  32.040  1.00  0.00    -0.206 F 
ATOM     94  C   UNL A   1      43.750  36.477  35.487  1.00  0.00     0.060 A 
BRANCH  94  95
ATOM     95  S   UNL A   1      44.299  37.873  36.491  1.00  0.00     0.124 S 
ATOM     96  O   UNL A   1      44.140  38.986  35.560  1.00  0.00    -0.237 OA
ATOM     97  O   UNL A   1      43.359  37.843  37.608  1.00  0.00    -0.237 OA
ATOM     98  O   UNL A   1      45.676  37.528  36.830  1.00  0.00    -0.744 OA
ENDBRANCH  94  95
ENDBRANCH  62  87
ENDBRANCH  36  37
ENDBRANCH  28  31
ENDBRANCH  26  27
ENDBRANCH  25  26
ENDBRANCH   1  25
TORSDOF 19
ENDMDL
