MODEL 1
REMARK VINA RESULT:     -12.2      0.000      0.000
REMARK SMILES Cc1ccccc1N(CCC(=O)NCCCCNC(=O)c1ccc(-c2c3nc(c(-c4c(F)cc(S(=O)(=O)[O-])cc4F)c4ccc([nH]4)c(-c4c(F)cc(S(=O)(=O)[O-])cc4F)c4nc(c(-c5c(F)cc(S(=O)(=O)[O-])cc5F)c5ccc2[nH]5)C=C4)C=C3)cc1)C(=O)[C@@H]1C=C[C@H]([NH3+])C1
REMARK SMILES IDX 14 1 13 2 11 3 12 4 10 6 9 7 8 8 7 9 1 10 2 11 3 12 4 13
REMARK SMILES IDX 6 14 5 15 87 16 88 17 89 18 90 19 94 20 91 21 92 22 93 23
REMARK SMILES IDX 15 27 16 28 17 29 18 30 19 31 20 33 21 34 22 35 86 36 23 37
REMARK SMILES IDX 85 38 24 39 25 40 26 41 79 42 27 43 84 44 78 45 80 46 28 47
REMARK SMILES IDX 83 48 77 49 76 50 29 52 63 53 42 54 62 55 43 56 46 57 61 58
REMARK SMILES IDX 81 59 44 60 45 61 60 63 82 64 47 65 30 66 31 67 40 68 32 69
REMARK SMILES IDX 33 70 39 71 41 72 34 73 35 74 36 75 37 76 38 77 64 78 65 79
REMARK SMILES IDX 74 80 66 81 67 82 73 83 75 84 68 85 69 86 70 87 71 88 72 89
REMARK SMILES IDX 48 90 49 91 58 92 50 93 51 94 57 95 59 96 52 97 53 98 54 99
REMARK SMILES IDX 55 100 56 101
REMARK H PARENT 13 5 93 24 93 25 93 26 18 32 80 51 46 62
REMARK Flexibility Score: inf
ROOT
ATOM      1  C   UNL A   1      33.670  22.618  25.665  1.00  0.00     0.116 C 
ENDROOT
BRANCH   1   2
ATOM      2  N   UNL A   1      32.668  23.189  26.557  1.00  0.00    -0.356 N 
ATOM      3  C   UNL A   1      31.525  23.883  26.311  1.00  0.00     0.221 C 
ATOM      4  O   UNL A   1      30.704  24.004  27.226  1.00  0.00    -0.275 OA
ATOM      5  H   UNL A   1      32.853  23.046  27.513  1.00  0.00     0.163 HD
BRANCH   3   6
ATOM      6  C   UNL A   1      31.267  24.547  24.984  1.00  0.00     0.122 C 
BRANCH   6   7
ATOM      7  C   UNL A   1      30.195  25.647  25.126  1.00  0.00     0.135 C 
BRANCH   7   8
ATOM      8  N   UNL A   1      30.664  26.994  24.697  1.00  0.00    -0.311 N 
BRANCH   8   9
ATOM      9  C   UNL A   1      31.865  27.523  25.447  1.00  0.00     0.047 A 
ATOM     10  C   UNL A   1      33.883  27.432  23.706  1.00  0.00     0.046 C 
ATOM     11  C   UNL A   1      33.182  27.809  24.988  1.00  0.00    -0.027 A 
ATOM     12  C   UNL A   1      34.065  28.588  25.810  1.00  0.00     0.005 A 
ATOM     13  C   UNL A   1      33.773  28.955  27.112  1.00  0.00     0.000 A 
ATOM     14  C   UNL A   1      31.663  27.863  26.825  1.00  0.00     0.026 A 
ATOM     15  C   UNL A   1      32.578  28.544  27.640  1.00  0.00     0.002 A 
ENDBRANCH   8   9
BRANCH   8  16
ATOM     16  C   UNL A   1      29.878  27.719  23.756  1.00  0.00     0.234 C 
ATOM     17  O   UNL A   1      28.787  27.341  23.328  1.00  0.00    -0.274 OA
BRANCH  16  18
ATOM     18  C   UNL A   1      30.390  29.101  23.194  1.00  0.00     0.108 C 
ATOM     19  C   UNL A   1      29.943  30.260  24.046  1.00  0.00    -0.012 C 
ATOM     20  C   UNL A   1      29.770  29.488  21.836  1.00  0.00     0.087 C 
ATOM     21  C   UNL A   1      28.972  30.972  23.458  1.00  0.00     0.033 C 
ATOM     22  C   UNL A   1      28.578  30.399  22.136  1.00  0.00     0.205 C 
BRANCH  22  23
ATOM     23  N   UNL A   1      27.317  29.696  22.274  1.00  0.00    -0.352 N 
ATOM     24  H   UNL A   1      27.206  29.042  21.499  1.00  0.00     0.345 HD
ATOM     25  H   UNL A   1      26.550  30.368  22.264  1.00  0.00     0.345 HD
ATOM     26  H   UNL A   1      27.308  29.183  23.156  1.00  0.00     0.345 HD
ENDBRANCH  22  23
ENDBRANCH  16  18
ENDBRANCH   8  16
ENDBRANCH   7   8
ENDBRANCH   6   7
ENDBRANCH   3   6
ENDBRANCH   1   2
BRANCH   1  27
ATOM     27  C   UNL A   1      35.130  22.690  26.108  1.00  0.00     0.023 C 
BRANCH  27  28
ATOM     28  C   UNL A   1      36.098  21.697  25.475  1.00  0.00     0.023 C 
BRANCH  28  29
ATOM     29  C   UNL A   1      37.417  22.246  24.962  1.00  0.00     0.116 C 
BRANCH  29  30
ATOM     30  N   UNL A   1      38.560  21.703  25.719  1.00  0.00    -0.352 N 
ATOM     31  C   UNL A   1      39.438  22.381  26.549  1.00  0.00     0.251 C 
ATOM     32  H   UNL A   1      38.719  20.737  25.623  1.00  0.00     0.163 HD
ATOM     33  O   UNL A   1      40.316  21.844  27.198  1.00  0.00    -0.269 OA
BRANCH  31  34
ATOM     34  C   UNL A   1      39.257  23.839  26.584  1.00  0.00     0.039 A 
ATOM     35  C   UNL A   1      40.165  24.604  25.843  1.00  0.00     0.014 A 
ATOM     36  C   UNL A   1      38.590  24.338  27.701  1.00  0.00     0.014 A 
ATOM     37  C   UNL A   1      40.598  25.813  26.365  1.00  0.00     0.010 A 
ATOM     38  C   UNL A   1      39.058  25.519  28.240  1.00  0.00     0.010 A 
ATOM     39  C   UNL A   1      40.121  26.201  27.616  1.00  0.00    -0.014 A 
BRANCH  39  40
ATOM     40  C   UNL A   1      40.771  27.220  28.428  1.00  0.00     0.031 A 
ATOM     41  C   UNL A   1      40.097  28.517  28.633  1.00  0.00     0.074 A 
ATOM     42  C   UNL A   1      41.915  26.933  29.094  1.00  0.00     0.049 A 
ATOM     43  N   UNL A   1      40.657  29.543  29.176  1.00  0.00    -0.248 NA
ATOM     44  C   UNL A   1      38.736  28.788  28.164  1.00  0.00     0.031 C 
ATOM     45  C   UNL A   1      42.457  27.633  30.257  1.00  0.00     0.029 A 
ATOM     46  N   UNL A   1      42.946  26.078  28.701  1.00  0.00    -0.354 N 
ATOM     47  C   UNL A   1      39.660  30.447  29.443  1.00  0.00     0.074 A 
ATOM     48  C   UNL A   1      38.533  30.011  28.663  1.00  0.00     0.031 C 
ATOM     49  C   UNL A   1      43.768  27.370  30.358  1.00  0.00     0.029 A 
ATOM     50  C   UNL A   1      44.154  26.629  29.170  1.00  0.00     0.049 A 
ATOM     51  H   UNL A   1      42.848  25.241  28.190  1.00  0.00     0.167 HD
ATOM     52  C   UNL A   1      39.854  31.350  30.440  1.00  0.00     0.037 A 
ATOM     53  C   UNL A   1      45.136  27.026  28.306  1.00  0.00     0.037 A 
ATOM     54  C   UNL A   1      41.275  31.487  30.754  1.00  0.00     0.049 A 
ATOM     55  C   UNL A   1      45.442  28.508  28.340  1.00  0.00     0.074 A 
ATOM     56  C   UNL A   1      42.067  31.127  31.829  1.00  0.00     0.029 A 
ATOM     57  N   UNL A   1      42.150  31.853  29.730  1.00  0.00    -0.354 N 
ATOM     58  N   UNL A   1      44.708  29.394  28.956  1.00  0.00    -0.248 NA
ATOM     59  C   UNL A   1      46.582  29.115  27.656  1.00  0.00     0.031 C 
ATOM     60  C   UNL A   1      43.423  31.141  31.391  1.00  0.00     0.029 A 
ATOM     61  C   UNL A   1      43.457  31.568  30.073  1.00  0.00     0.049 A 
ATOM     62  H   UNL A   1      41.873  32.261  28.878  1.00  0.00     0.167 HD
ATOM     63  C   UNL A   1      45.187  30.651  28.697  1.00  0.00     0.074 A 
ATOM     64  C   UNL A   1      46.393  30.419  27.923  1.00  0.00     0.031 C 
ATOM     65  C   UNL A   1      44.534  31.779  29.110  1.00  0.00     0.037 A 
BRANCH  52  66
ATOM     66  C   UNL A   1      38.727  31.938  31.267  1.00  0.00     0.058 A 
ATOM     67  C   UNL A   1      38.651  33.329  31.487  1.00  0.00     0.135 A 
ATOM     68  C   UNL A   1      37.785  31.175  31.999  1.00  0.00     0.135 A 
ATOM     69  F   UNL A   1      39.508  34.168  30.887  1.00  0.00    -0.206 F 
ATOM     70  C   UNL A   1      37.719  33.911  32.358  1.00  0.00     0.059 A 
ATOM     71  C   UNL A   1      36.813  31.736  32.827  1.00  0.00     0.059 A 
ATOM     72  F   UNL A   1      37.803  29.836  32.017  1.00  0.00    -0.206 F 
ATOM     73  C   UNL A   1      36.803  33.105  33.025  1.00  0.00     0.060 A 
BRANCH  73  74
ATOM     74  S   UNL A   1      35.624  33.834  34.176  1.00  0.00     0.124 S 
ATOM     75  O   UNL A   1      35.742  35.253  33.863  1.00  0.00    -0.237 OA
ATOM     76  O   UNL A   1      34.370  33.196  33.790  1.00  0.00    -0.237 OA
ATOM     77  O   UNL A   1      36.142  33.439  35.485  1.00  0.00    -0.744 OA
ENDBRANCH  73  74
ENDBRANCH  52  66
BRANCH  53  78
ATOM     78  C   UNL A   1      45.255  26.143  27.116  1.00  0.00     0.058 A 
ATOM     79  C   UNL A   1      45.960  24.936  27.277  1.00  0.00     0.135 A 
ATOM     80  C   UNL A   1      44.348  26.231  26.049  1.00  0.00     0.135 A 
ATOM     81  F   UNL A   1      46.848  24.806  28.278  1.00  0.00    -0.206 F 
ATOM     82  C   UNL A   1      45.659  23.809  26.523  1.00  0.00     0.059 A 
ATOM     83  C   UNL A   1      44.033  25.112  25.276  1.00  0.00     0.059 A 
ATOM     84  F   UNL A   1      43.649  27.357  25.849  1.00  0.00    -0.206 F 
ATOM     85  C   UNL A   1      44.647  23.893  25.569  1.00  0.00     0.060 A 
BRANCH  85  86
ATOM     86  S   UNL A   1      44.005  22.341  24.895  1.00  0.00     0.124 S 
ATOM     87  O   UNL A   1      42.568  22.505  25.084  1.00  0.00    -0.237 OA
ATOM     88  O   UNL A   1      44.472  22.410  23.512  1.00  0.00    -0.237 OA
ATOM     89  O   UNL A   1      44.644  21.327  25.724  1.00  0.00    -0.744 OA
ENDBRANCH  85  86
ENDBRANCH  53  78
BRANCH  65  90
ATOM     90  C   UNL A   1      44.886  33.189  28.688  1.00  0.00     0.058 A 
ATOM     91  C   UNL A   1      44.585  33.737  27.428  1.00  0.00     0.135 A 
ATOM     92  C   UNL A   1      45.446  34.090  29.624  1.00  0.00     0.135 A 
ATOM     93  F   UNL A   1      43.935  33.025  26.495  1.00  0.00    -0.206 F 
ATOM     94  C   UNL A   1      44.904  35.054  27.087  1.00  0.00     0.059 A 
ATOM     95  C   UNL A   1      45.721  35.423  29.323  1.00  0.00     0.059 A 
ATOM     96  F   UNL A   1      45.742  33.702  30.874  1.00  0.00    -0.206 F 
ATOM     97  C   UNL A   1      45.480  35.888  28.039  1.00  0.00     0.060 A 
BRANCH  97  98
ATOM     98  S   UNL A   1      45.871  37.598  27.620  1.00  0.00     0.124 S 
ATOM     99  O   UNL A   1      47.117  37.436  26.877  1.00  0.00    -0.237 OA
ATOM    100  O   UNL A   1      44.717  38.013  26.829  1.00  0.00    -0.237 OA
ATOM    101  O   UNL A   1      45.991  38.240  28.924  1.00  0.00    -0.744 OA
ENDBRANCH  97  98
ENDBRANCH  65  90
ENDBRANCH  39  40
ENDBRANCH  31  34
ENDBRANCH  29  30
ENDBRANCH  28  29
ENDBRANCH  27  28
ENDBRANCH   1  27
TORSDOF 20
ENDMDL
MODEL 2
REMARK VINA RESULT:     -12.1      1.269      2.381
REMARK SMILES Cc1ccccc1N(CCC(=O)NCCCCNC(=O)c1ccc(-c2c3nc(c(-c4c(F)cc(S(=O)(=O)[O-])cc4F)c4ccc([nH]4)c(-c4c(F)cc(S(=O)(=O)[O-])cc4F)c4nc(c(-c5c(F)cc(S(=O)(=O)[O-])cc5F)c5ccc2[nH]5)C=C4)C=C3)cc1)C(=O)[C@@H]1C=C[C@H]([NH3+])C1
REMARK SMILES IDX 14 1 13 2 11 3 12 4 10 6 9 7 8 8 7 9 1 10 2 11 3 12 4 13
REMARK SMILES IDX 6 14 5 15 87 16 88 17 89 18 90 19 94 20 91 21 92 22 93 23
REMARK SMILES IDX 15 27 16 28 17 29 18 30 19 31 20 33 21 34 22 35 86 36 23 37
REMARK SMILES IDX 85 38 24 39 25 40 26 41 79 42 27 43 84 44 78 45 80 46 28 47
REMARK SMILES IDX 83 48 77 49 76 50 29 52 63 53 42 54 62 55 43 56 46 57 61 58
REMARK SMILES IDX 81 59 44 60 45 61 60 63 82 64 47 65 30 66 31 67 40 68 32 69
REMARK SMILES IDX 33 70 39 71 41 72 34 73 35 74 36 75 37 76 38 77 64 78 65 79
REMARK SMILES IDX 74 80 66 81 67 82 73 83 75 84 68 85 69 86 70 87 71 88 72 89
REMARK SMILES IDX 48 90 49 91 58 92 50 93 51 94 57 95 59 96 52 97 53 98 54 99
REMARK SMILES IDX 55 100 56 101
REMARK H PARENT 13 5 93 24 93 25 93 26 18 32 80 51 46 62
REMARK Flexibility Score: inf
ROOT
ATOM      1  C   UNL A   1      34.117  20.790  25.503  1.00  0.00     0.116 C 
ENDROOT
BRANCH   1   2
ATOM      2  N   UNL A   1      33.725  21.220  26.840  1.00  0.00    -0.356 N 
ATOM      3  C   UNL A   1      33.222  22.395  27.304  1.00  0.00     0.221 C 
ATOM      4  O   UNL A   1      32.704  22.409  28.425  1.00  0.00    -0.275 OA
ATOM      5  H   UNL A   1      33.848  20.534  27.536  1.00  0.00     0.163 HD
BRANCH   3   6
ATOM      6  C   UNL A   1      33.333  23.674  26.516  1.00  0.00     0.122 C 
BRANCH   6   7
ATOM      7  C   UNL A   1      31.994  24.002  25.824  1.00  0.00     0.135 C 
BRANCH   7   8
ATOM      8  N   UNL A   1      31.937  25.382  25.264  1.00  0.00    -0.311 N 
BRANCH   8   9
ATOM      9  C   UNL A   1      31.915  25.460  23.755  1.00  0.00     0.047 A 
ATOM     10  C   UNL A   1      29.990  27.210  23.165  1.00  0.00     0.046 C 
ATOM     11  C   UNL A   1      31.173  26.314  22.890  1.00  0.00    -0.027 A 
ATOM     12  C   UNL A   1      31.542  26.413  21.506  1.00  0.00     0.005 A 
ATOM     13  C   UNL A   1      32.488  25.601  20.907  1.00  0.00     0.000 A 
ATOM     14  C   UNL A   1      32.820  24.598  23.054  1.00  0.00     0.026 A 
ATOM     15  C   UNL A   1      33.098  24.649  21.681  1.00  0.00     0.002 A 
ENDBRANCH   8   9
BRANCH   8  16
ATOM     16  C   UNL A   1      32.062  26.483  26.159  1.00  0.00     0.234 C 
ATOM     17  O   UNL A   1      31.182  26.843  26.943  1.00  0.00    -0.274 OA
BRANCH  16  18
ATOM     18  C   UNL A   1      33.391  27.332  26.188  1.00  0.00     0.108 C 
ATOM     19  C   UNL A   1      33.364  28.389  27.262  1.00  0.00    -0.012 C 
ATOM     20  C   UNL A   1      33.601  28.204  24.934  1.00  0.00     0.087 C 
ATOM     21  C   UNL A   1      33.206  29.619  26.753  1.00  0.00     0.033 C 
ATOM     22  C   UNL A   1      33.065  29.598  25.266  1.00  0.00     0.205 C 
BRANCH  22  23
ATOM     23  N   UNL A   1      31.671  29.794  24.913  1.00  0.00    -0.352 N 
ATOM     24  H   UNL A   1      31.423  30.774  25.041  1.00  0.00     0.345 HD
ATOM     25  H   UNL A   1      31.084  29.214  25.513  1.00  0.00     0.345 HD
ATOM     26  H   UNL A   1      31.526  29.530  23.938  1.00  0.00     0.345 HD
ENDBRANCH  22  23
ENDBRANCH  16  18
ENDBRANCH   8  16
ENDBRANCH   7   8
ENDBRANCH   6   7
ENDBRANCH   3   6
ENDBRANCH   1   2
BRANCH   1  27
ATOM     27  C   UNL A   1      35.609  20.782  25.176  1.00  0.00     0.023 C 
BRANCH  27  28
ATOM     28  C   UNL A   1      36.445  21.937  25.716  1.00  0.00     0.023 C 
BRANCH  28  29
ATOM     29  C   UNL A   1      37.730  22.267  24.978  1.00  0.00     0.116 C 
BRANCH  29  30
ATOM     30  N   UNL A   1      38.914  21.787  25.713  1.00  0.00    -0.352 N 
ATOM     31  C   UNL A   1      39.759  22.508  26.542  1.00  0.00     0.251 C 
ATOM     32  H   UNL A   1      39.133  20.834  25.601  1.00  0.00     0.163 HD
ATOM     33  O   UNL A   1      40.677  22.019  27.172  1.00  0.00    -0.269 OA
BRANCH  31  34
ATOM     34  C   UNL A   1      39.486  23.950  26.602  1.00  0.00     0.039 A 
ATOM     35  C   UNL A   1      40.327  24.781  25.852  1.00  0.00     0.014 A 
ATOM     36  C   UNL A   1      38.813  24.392  27.739  1.00  0.00     0.014 A 
ATOM     37  C   UNL A   1      40.693  26.009  26.383  1.00  0.00     0.010 A 
ATOM     38  C   UNL A   1      39.216  25.594  28.284  1.00  0.00     0.010 A 
ATOM     39  C   UNL A   1      40.220  26.349  27.648  1.00  0.00    -0.014 A 
BRANCH  39  40
ATOM     40  C   UNL A   1      40.821  27.397  28.462  1.00  0.00     0.031 A 
ATOM     41  C   UNL A   1      40.089  28.663  28.662  1.00  0.00     0.074 A 
ATOM     42  C   UNL A   1      41.974  27.164  29.131  1.00  0.00     0.049 A 
ATOM     43  N   UNL A   1      40.601  29.714  29.206  1.00  0.00    -0.248 NA
ATOM     44  C   UNL A   1      38.719  28.873  28.189  1.00  0.00     0.031 C 
ATOM     45  C   UNL A   1      42.481  27.888  30.295  1.00  0.00     0.029 A 
ATOM     46  N   UNL A   1      43.044  26.354  28.743  1.00  0.00    -0.354 N 
ATOM     47  C   UNL A   1      39.563  30.573  29.468  1.00  0.00     0.074 A 
ATOM     48  C   UNL A   1      38.459  30.086  28.685  1.00  0.00     0.031 C 
ATOM     49  C   UNL A   1      43.802  27.685  30.400  1.00  0.00     0.029 A 
ATOM     50  C   UNL A   1      44.225  26.960  29.215  1.00  0.00     0.049 A 
ATOM     51  H   UNL A   1      42.985  25.514  28.232  1.00  0.00     0.167 HD
ATOM     52  C   UNL A   1      39.713  31.485  30.465  1.00  0.00     0.037 A 
ATOM     53  C   UNL A   1      45.190  27.399  28.353  1.00  0.00     0.037 A 
ATOM     54  C   UNL A   1      41.126  31.686  30.783  1.00  0.00     0.049 A 
ATOM     55  C   UNL A   1      45.430  28.894  28.386  1.00  0.00     0.074 A 
ATOM     56  C   UNL A   1      41.930  31.363  31.861  1.00  0.00     0.029 A 
ATOM     57  N   UNL A   1      41.987  32.090  29.762  1.00  0.00    -0.354 N 
ATOM     58  N   UNL A   1      44.655  29.746  28.998  1.00  0.00    -0.248 NA
ATOM     59  C   UNL A   1      46.544  29.550  27.705  1.00  0.00     0.031 C 
ATOM     60  C   UNL A   1      43.285  31.437  31.427  1.00  0.00     0.029 A 
ATOM     61  C   UNL A   1      43.304  31.863  30.109  1.00  0.00     0.049 A 
ATOM     62  H   UNL A   1      41.695  32.484  28.907  1.00  0.00     0.167 HD
ATOM     63  C   UNL A   1      45.078  31.024  28.739  1.00  0.00     0.074 A 
ATOM     64  C   UNL A   1      46.296  30.844  27.970  1.00  0.00     0.031 C 
ATOM     65  C   UNL A   1      44.374  32.122  29.149  1.00  0.00     0.037 A 
BRANCH  52  66
ATOM     66  C   UNL A   1      38.559  32.023  31.288  1.00  0.00     0.058 A 
ATOM     67  C   UNL A   1      37.969  33.263  30.968  1.00  0.00     0.135 A 
ATOM     68  C   UNL A   1      38.093  31.443  32.492  1.00  0.00     0.135 A 
ATOM     69  F   UNL A   1      38.345  33.942  29.874  1.00  0.00    -0.206 F 
ATOM     70  C   UNL A   1      37.000  33.874  31.776  1.00  0.00     0.059 A 
ATOM     71  C   UNL A   1      37.091  32.006  33.283  1.00  0.00     0.059 A 
ATOM     72  F   UNL A   1      38.638  30.339  33.017  1.00  0.00    -0.206 F 
ATOM     73  C   UNL A   1      36.567  33.237  32.934  1.00  0.00     0.060 A 
BRANCH  73  74
ATOM     74  S   UNL A   1      35.350  34.027  34.002  1.00  0.00     0.124 S 
ATOM     75  O   UNL A   1      35.874  33.720  35.328  1.00  0.00    -0.237 OA
ATOM     76  O   UNL A   1      35.429  35.425  33.591  1.00  0.00    -0.237 OA
ATOM     77  O   UNL A   1      34.102  33.350  33.652  1.00  0.00    -0.744 OA
ENDBRANCH  73  74
ENDBRANCH  52  66
BRANCH  53  78
ATOM     78  C   UNL A   1      45.353  26.521  27.164  1.00  0.00     0.058 A 
ATOM     79  C   UNL A   1      46.111  25.347  27.329  1.00  0.00     0.135 A 
ATOM     80  C   UNL A   1      44.446  26.567  26.095  1.00  0.00     0.135 A 
ATOM     81  F   UNL A   1      47.000  25.259  28.333  1.00  0.00    -0.206 F 
ATOM     82  C   UNL A   1      45.863  24.207  26.576  1.00  0.00     0.059 A 
ATOM     83  C   UNL A   1      44.184  25.434  25.322  1.00  0.00     0.059 A 
ATOM     84  F   UNL A   1      43.698  27.661  25.891  1.00  0.00    -0.206 F 
ATOM     85  C   UNL A   1      44.852  24.244  25.619  1.00  0.00     0.060 A 
BRANCH  85  86
ATOM     86  S   UNL A   1      44.281  22.664  24.945  1.00  0.00     0.124 S 
ATOM     87  O   UNL A   1      43.017  23.042  24.323  1.00  0.00    -0.237 OA
ATOM     88  O   UNL A   1      45.366  22.334  24.023  1.00  0.00    -0.237 OA
ATOM     89  O   UNL A   1      44.181  21.815  26.126  1.00  0.00    -0.744 OA
ENDBRANCH  85  86
ENDBRANCH  53  78
BRANCH  65  90
ATOM     90  C   UNL A   1      44.663  33.545  28.726  1.00  0.00     0.058 A 
ATOM     91  C   UNL A   1      45.322  34.492  29.531  1.00  0.00     0.135 A 
ATOM     92  C   UNL A   1      44.380  33.964  27.405  1.00  0.00     0.135 A 
ATOM     93  F   UNL A   1      45.761  34.179  30.759  1.00  0.00    -0.206 F 
ATOM     94  C   UNL A   1      45.595  35.791  29.092  1.00  0.00     0.059 A 
ATOM     95  C   UNL A   1      44.694  35.236  26.928  1.00  0.00     0.059 A 
ATOM     96  F   UNL A   1      43.790  33.141  26.525  1.00  0.00    -0.206 F 
ATOM     97  C   UNL A   1      45.269  36.157  27.790  1.00  0.00     0.060 A 
BRANCH  97  98
ATOM     98  S   UNL A   1      45.640  37.820  27.203  1.00  0.00     0.124 S 
ATOM     99  O   UNL A   1      46.442  37.537  26.017  1.00  0.00    -0.237 OA
ATOM    100  O   UNL A   1      44.316  38.380  26.949  1.00  0.00    -0.237 OA
ATOM    101  O   UNL A   1      46.358  38.416  28.326  1.00  0.00    -0.744 OA
ENDBRANCH  97  98
ENDBRANCH  65  90
ENDBRANCH  39  40
ENDBRANCH  31  34
ENDBRANCH  29  30
ENDBRANCH  28  29
ENDBRANCH  27  28
ENDBRANCH   1  27
TORSDOF 20
ENDMDL
MODEL 3
REMARK VINA RESULT:     -11.9      2.082      3.223
REMARK SMILES Cc1ccccc1N(CCC(=O)NCCCCNC(=O)c1ccc(-c2c3nc(c(-c4c(F)cc(S(=O)(=O)[O-])cc4F)c4ccc([nH]4)c(-c4c(F)cc(S(=O)(=O)[O-])cc4F)c4nc(c(-c5c(F)cc(S(=O)(=O)[O-])cc5F)c5ccc2[nH]5)C=C4)C=C3)cc1)C(=O)[C@@H]1C=C[C@H]([NH3+])C1
REMARK SMILES IDX 14 1 13 2 11 3 12 4 10 6 9 7 8 8 7 9 1 10 2 11 3 12 4 13
REMARK SMILES IDX 6 14 5 15 87 16 88 17 89 18 90 19 94 20 91 21 92 22 93 23
REMARK SMILES IDX 15 27 16 28 17 29 18 30 19 31 20 33 21 34 22 35 86 36 23 37
REMARK SMILES IDX 85 38 24 39 25 40 26 41 79 42 27 43 84 44 78 45 80 46 28 47
REMARK SMILES IDX 83 48 77 49 76 50 29 52 63 53 42 54 62 55 43 56 46 57 61 58
REMARK SMILES IDX 81 59 44 60 45 61 60 63 82 64 47 65 30 66 31 67 40 68 32 69
REMARK SMILES IDX 33 70 39 71 41 72 34 73 35 74 36 75 37 76 38 77 64 78 65 79
REMARK SMILES IDX 74 80 66 81 67 82 73 83 75 84 68 85 69 86 70 87 71 88 72 89
REMARK SMILES IDX 48 90 49 91 58 92 50 93 51 94 57 95 59 96 52 97 53 98 54 99
REMARK SMILES IDX 55 100 56 101
REMARK H PARENT 13 5 93 24 93 25 93 26 18 32 80 51 46 62
REMARK Flexibility Score: inf
ROOT
ATOM      1  C   UNL A   1      35.655  22.000  24.421  1.00  0.00     0.116 C 
ENDROOT
BRANCH   1   2
ATOM      2  N   UNL A   1      34.198  22.070  24.427  1.00  0.00    -0.356 N 
ATOM      3  C   UNL A   1      33.335  23.046  24.039  1.00  0.00     0.221 C 
ATOM      4  O   UNL A   1      32.148  22.748  23.876  1.00  0.00    -0.275 OA
ATOM      5  H   UNL A   1      33.758  21.262  24.777  1.00  0.00     0.163 HD
BRANCH   3   6
ATOM      6  C   UNL A   1      33.778  24.475  23.861  1.00  0.00     0.122 C 
BRANCH   6   7
ATOM      7  C   UNL A   1      33.586  25.269  25.169  1.00  0.00     0.135 C 
BRANCH   7   8
ATOM      8  N   UNL A   1      32.940  26.597  24.969  1.00  0.00    -0.311 N 
BRANCH   8   9
ATOM      9  C   UNL A   1      31.508  26.547  24.486  1.00  0.00     0.047 A 
ATOM     10  C   UNL A   1      30.280  24.808  26.094  1.00  0.00     0.046 C 
ATOM     11  C   UNL A   1      30.377  25.881  25.036  1.00  0.00    -0.027 A 
ATOM     12  C   UNL A   1      29.060  26.223  24.575  1.00  0.00     0.005 A 
ATOM     13  C   UNL A   1      28.821  27.061  23.500  1.00  0.00     0.000 A 
ATOM     14  C   UNL A   1      31.193  27.336  23.332  1.00  0.00     0.026 A 
ATOM     15  C   UNL A   1      29.903  27.583  22.842  1.00  0.00     0.002 A 
ENDBRANCH   8   9
BRANCH   8  16
ATOM     16  C   UNL A   1      33.742  27.768  25.093  1.00  0.00     0.234 C 
ATOM     17  O   UNL A   1      34.409  28.251  24.177  1.00  0.00    -0.274 OA
BRANCH  16  18
ATOM     18  C   UNL A   1      33.817  28.534  26.470  1.00  0.00     0.108 C 
ATOM     19  C   UNL A   1      32.636  28.226  27.355  1.00  0.00    -0.012 C 
ATOM     20  C   UNL A   1      33.684  30.065  26.338  1.00  0.00     0.087 C 
ATOM     21  C   UNL A   1      31.777  29.253  27.424  1.00  0.00     0.033 C 
ATOM     22  C   UNL A   1      32.211  30.405  26.577  1.00  0.00     0.205 C 
BRANCH  22  23
ATOM     23  N   UNL A   1      31.409  30.442  25.369  1.00  0.00    -0.352 N 
ATOM     24  H   UNL A   1      31.818  29.821  24.671  1.00  0.00     0.345 HD
ATOM     25  H   UNL A   1      31.388  31.394  25.005  1.00  0.00     0.345 HD
ATOM     26  H   UNL A   1      30.459  30.137  25.581  1.00  0.00     0.345 HD
ENDBRANCH  22  23
ENDBRANCH  16  18
ENDBRANCH   8  16
ENDBRANCH   7   8
ENDBRANCH   6   7
ENDBRANCH   3   6
ENDBRANCH   1   2
BRANCH   1  27
ATOM     27  C   UNL A   1      36.302  20.743  24.997  1.00  0.00     0.023 C 
BRANCH  27  28
ATOM     28  C   UNL A   1      37.793  20.809  25.309  1.00  0.00     0.023 C 
BRANCH  28  29
ATOM     29  C   UNL A   1      38.354  22.154  25.733  1.00  0.00     0.116 C 
BRANCH  29  30
ATOM     30  N   UNL A   1      39.773  22.052  26.117  1.00  0.00    -0.352 N 
ATOM     31  C   UNL A   1      40.584  23.029  26.671  1.00  0.00     0.251 C 
ATOM     32  H   UNL A   1      40.199  21.179  25.961  1.00  0.00     0.163 HD
ATOM     33  O   UNL A   1      41.732  22.842  27.029  1.00  0.00    -0.269 OA
BRANCH  31  34
ATOM     34  C   UNL A   1      39.964  24.357  26.786  1.00  0.00     0.039 A 
ATOM     35  C   UNL A   1      40.522  25.381  26.010  1.00  0.00     0.014 A 
ATOM     36  C   UNL A   1      39.277  24.603  27.973  1.00  0.00     0.014 A 
ATOM     37  C   UNL A   1      40.603  26.655  26.551  1.00  0.00     0.010 A 
ATOM     38  C   UNL A   1      39.401  25.861  28.525  1.00  0.00     0.010 A 
ATOM     39  C   UNL A   1      40.143  26.852  27.851  1.00  0.00    -0.014 A 
BRANCH  39  40
ATOM     40  C   UNL A   1      40.514  28.008  28.655  1.00  0.00     0.031 A 
ATOM     41  C   UNL A   1      39.632  29.191  28.667  1.00  0.00     0.074 A 
ATOM     42  C   UNL A   1      41.584  27.947  29.482  1.00  0.00     0.049 A 
ATOM     43  N   UNL A   1      39.951  30.323  29.193  1.00  0.00    -0.248 NA
ATOM     44  C   UNL A   1      38.324  29.215  28.008  1.00  0.00     0.031 C 
ATOM     45  C   UNL A   1      41.849  28.792  30.645  1.00  0.00     0.029 A 
ATOM     46  N   UNL A   1      42.776  27.244  29.295  1.00  0.00    -0.354 N 
ATOM     47  C   UNL A   1      38.804  31.072  29.257  1.00  0.00     0.074 A 
ATOM     48  C   UNL A   1      37.873  30.417  28.377  1.00  0.00     0.031 C 
ATOM     49  C   UNL A   1      43.158  28.747  30.933  1.00  0.00     0.029 A 
ATOM     50  C   UNL A   1      43.811  28.007  29.868  1.00  0.00     0.049 A 
ATOM     51  H   UNL A   1      42.875  26.373  28.844  1.00  0.00     0.167 HD
ATOM     52  C   UNL A   1      38.720  32.053  30.195  1.00  0.00     0.037 A 
ATOM     53  C   UNL A   1      44.833  28.502  29.107  1.00  0.00     0.037 A 
ATOM     54  C   UNL A   1      40.048  32.432  30.675  1.00  0.00     0.049 A 
ATOM     55  C   UNL A   1      44.906  30.014  29.060  1.00  0.00     0.074 A 
ATOM     56  C   UNL A   1      40.728  32.268  31.868  1.00  0.00     0.029 A 
ATOM     57  N   UNL A   1      40.992  32.871  29.745  1.00  0.00    -0.354 N 
ATOM     58  N   UNL A   1      43.970  30.807  29.504  1.00  0.00    -0.248 NA
ATOM     59  C   UNL A   1      46.027  30.752  28.481  1.00  0.00     0.031 C 
ATOM     60  C   UNL A   1      42.114  32.470  31.606  1.00  0.00     0.029 A 
ATOM     61  C   UNL A   1      42.266  32.817  30.274  1.00  0.00     0.049 A 
ATOM     62  H   UNL A   1      40.778  33.178  28.834  1.00  0.00     0.167 HD
ATOM     63  C   UNL A   1      44.288  32.107  29.208  1.00  0.00     0.074 A 
ATOM     64  C   UNL A   1      45.610  32.022  28.616  1.00  0.00     0.031 C 
ATOM     65  C   UNL A   1      43.422  33.139  29.443  1.00  0.00     0.037 A 
BRANCH  52  66
ATOM     66  C   UNL A   1      37.415  32.503  30.821  1.00  0.00     0.058 A 
ATOM     67  C   UNL A   1      36.683  33.571  30.262  1.00  0.00     0.135 A 
ATOM     68  C   UNL A   1      36.913  32.030  32.057  1.00  0.00     0.135 A 
ATOM     69  F   UNL A   1      37.070  34.141  29.111  1.00  0.00    -0.206 F 
ATOM     70  C   UNL A   1      35.551  34.121  30.878  1.00  0.00     0.059 A 
ATOM     71  C   UNL A   1      35.757  32.524  32.661  1.00  0.00     0.059 A 
ATOM     72  F   UNL A   1      37.558  31.117  32.793  1.00  0.00    -0.206 F 
ATOM     73  C   UNL A   1      35.094  33.590  32.080  1.00  0.00     0.060 A 
BRANCH  73  74
ATOM     74  S   UNL A   1      33.663  34.311  32.903  1.00  0.00     0.124 S 
ATOM     75  O   UNL A   1      32.986  34.976  31.795  1.00  0.00    -0.237 OA
ATOM     76  O   UNL A   1      32.991  33.139  33.453  1.00  0.00    -0.237 OA
ATOM     77  O   UNL A   1      34.258  35.205  33.895  1.00  0.00    -0.744 OA
ENDBRANCH  73  74
ENDBRANCH  52  66
BRANCH  53  78
ATOM     78  C   UNL A   1      45.246  27.580  28.017  1.00  0.00     0.058 A 
ATOM     79  C   UNL A   1      44.772  27.859  26.722  1.00  0.00     0.135 A 
ATOM     80  C   UNL A   1      46.394  26.783  28.133  1.00  0.00     0.135 A 
ATOM     81  F   UNL A   1      43.669  28.609  26.559  1.00  0.00    -0.206 F 
ATOM     82  C   UNL A   1      45.495  27.509  25.589  1.00  0.00     0.059 A 
ATOM     83  C   UNL A   1      47.135  26.416  27.007  1.00  0.00     0.059 A 
ATOM     84  F   UNL A   1      46.890  26.485  29.343  1.00  0.00    -0.206 F 
ATOM     85  C   UNL A   1      46.709  26.845  25.749  1.00  0.00     0.060 A 
BRANCH  85  86
ATOM     86  S   UNL A   1      47.811  26.762  24.315  1.00  0.00     0.124 S 
ATOM     87  O   UNL A   1      47.106  27.595  23.347  1.00  0.00    -0.237 OA
ATOM     88  O   UNL A   1      49.041  27.330  24.861  1.00  0.00    -0.237 OA
ATOM     89  O   UNL A   1      47.857  25.337  24.013  1.00  0.00    -0.744 OA
ENDBRANCH  85  86
ENDBRANCH  53  78
BRANCH  65  90
ATOM     90  C   UNL A   1      43.615  34.559  28.957  1.00  0.00     0.058 A 
ATOM     91  C   UNL A   1      43.911  35.650  29.794  1.00  0.00     0.135 A 
ATOM     92  C   UNL A   1      43.626  34.839  27.570  1.00  0.00     0.135 A 
ATOM     93  F   UNL A   1      44.058  35.492  31.118  1.00  0.00    -0.206 F 
ATOM     94  C   UNL A   1      44.108  36.942  29.302  1.00  0.00     0.059 A 
ATOM     95  C   UNL A   1      43.875  36.109  27.053  1.00  0.00     0.059 A 
ATOM     96  F   UNL A   1      43.398  33.875  26.663  1.00  0.00    -0.206 F 
ATOM     97  C   UNL A   1      44.080  37.165  27.929  1.00  0.00     0.060 A 
BRANCH  97  98
ATOM     98  S   UNL A   1      44.360  38.823  27.280  1.00  0.00     0.124 S 
ATOM     99  O   UNL A   1      44.495  39.597  28.510  1.00  0.00    -0.237 OA
ATOM    100  O   UNL A   1      45.583  38.667  26.497  1.00  0.00    -0.237 OA
ATOM    101  O   UNL A   1      43.155  39.081  26.499  1.00  0.00    -0.744 OA
ENDBRANCH  97  98
ENDBRANCH  65  90
ENDBRANCH  39  40
ENDBRANCH  31  34
ENDBRANCH  29  30
ENDBRANCH  28  29
ENDBRANCH  27  28
ENDBRANCH   1  27
TORSDOF 20
ENDMDL
