MODEL 1
REMARK VINA RESULT:     -11.7      0.000      0.000
REMARK SMILES COC(=O)C[C@H](c1ccc(C(=O)NCCCCNC(=O)c2ccc(-c3c4nc(c(-c5c(F)cc(S(=O)(=O)[O-])cc5F)c5ccc([nH]5)c(-c5c(F)cc(S(=O)(=O)[O-])cc5F)c5nc(c(-c6c(F)cc(S(=O)(=O)[O-])cc6F)c6ccc3[nH]6)C=C5)C=C4)cc2)cc1)c1c(O)n[nH]c1C
REMARK SMILES IDX 15 1 14 2 13 3 11 4 12 5 10 7 7 8 8 9 88 10 9 11 87 12 6 13
REMARK SMILES IDX 5 14 3 15 4 16 2 17 1 18 89 19 90 20 94 21 92 22 93 23 95 24
REMARK SMILES IDX 91 26 16 28 17 29 18 30 19 31 20 33 21 34 22 35 86 36 23 37
REMARK SMILES IDX 85 38 24 39 25 40 26 41 79 42 27 43 84 44 78 45 80 46 28 47
REMARK SMILES IDX 83 48 77 49 76 50 29 52 63 53 42 54 62 55 43 56 46 57 61 58
REMARK SMILES IDX 81 59 44 60 45 61 60 63 82 64 47 65 30 66 31 67 40 68 32 69
REMARK SMILES IDX 33 70 39 71 41 72 34 73 35 74 36 75 37 76 38 77 64 78 65 79
REMARK SMILES IDX 74 80 66 81 67 82 73 83 75 84 68 85 69 86 70 87 71 88 72 89
REMARK SMILES IDX 48 90 49 91 58 92 50 93 51 94 57 95 59 96 52 97 53 98 54 99
REMARK SMILES IDX 55 100 56 101
REMARK H PARENT 13 6 93 25 91 27 18 32 80 51 46 62
REMARK Flexibility Score: inf
ROOT
ATOM      1  C   UNL A   1      32.364  27.645  25.214  1.00  0.00     0.023 C 
ENDROOT
BRANCH   1   2
ATOM      2  C   UNL A   1      31.001  27.722  24.523  1.00  0.00     0.116 C 
BRANCH   2   3
ATOM      3  N   UNL A   1      31.138  27.575  23.086  1.00  0.00    -0.352 N 
ATOM      4  C   UNL A   1      31.436  26.487  22.304  1.00  0.00     0.251 C 
ATOM      5  O   UNL A   1      31.424  26.631  21.081  1.00  0.00    -0.269 OA
ATOM      6  H   UNL A   1      30.989  28.406  22.580  1.00  0.00     0.163 HD
BRANCH   4   7
ATOM      7  C   UNL A   1      31.712  25.139  22.868  1.00  0.00     0.039 A 
ATOM      8  C   UNL A   1      32.086  22.608  24.074  1.00  0.00    -0.040 A 
ATOM      9  C   UNL A   1      30.800  23.147  23.928  1.00  0.00     0.005 A 
ATOM     10  C   UNL A   1      33.167  23.318  23.532  1.00  0.00     0.005 A 
ATOM     11  C   UNL A   1      30.618  24.405  23.346  1.00  0.00     0.014 A 
ATOM     12  C   UNL A   1      32.977  24.554  22.912  1.00  0.00     0.014 A 
BRANCH   8  13
ATOM     13  C   UNL A   1      32.358  21.311  24.820  1.00  0.00     0.068 C 
BRANCH  13  14
ATOM     14  C   UNL A   1      33.110  20.196  24.073  1.00  0.00     0.136 C 
BRANCH  14  15
ATOM     15  C   UNL A   1      32.596  18.800  24.316  1.00  0.00     0.306 C 
ATOM     16  O   UNL A   1      32.074  18.453  25.368  1.00  0.00    -0.252 OA
BRANCH  15  17
ATOM     17  O   UNL A   1      32.770  17.995  23.233  1.00  0.00    -0.469 OA
ATOM     18  C   UNL A   1      33.584  16.852  23.509  1.00  0.00     0.282 C 
ENDBRANCH  15  17
ENDBRANCH  14  15
ENDBRANCH  13  14
BRANCH  13  19
ATOM     19  C   UNL A   1      33.022  21.755  26.098  1.00  0.00     0.044 A 
ATOM     20  C   UNL A   1      32.435  22.307  27.250  1.00  0.00     0.234 A 
ATOM     21  C   UNL A   1      34.365  21.683  26.456  1.00  0.00     0.040 A 
ATOM     22  N   UNL A   1      33.271  22.580  28.238  1.00  0.00    -0.137 NA
ATOM     23  N   UNL A   1      34.447  22.164  27.739  1.00  0.00    -0.279 N 
ATOM     24  C   UNL A   1      35.559  21.179  25.739  1.00  0.00     0.066 C 
ATOM     25  H   UNL A   1      35.290  22.200  28.248  1.00  0.00     0.190 HD
BRANCH  20  26
ATOM     26  O   UNL A   1      31.161  22.592  27.505  1.00  0.00    -0.492 OA
ATOM     27  H   UNL A   1      30.515  21.914  27.475  1.00  0.00     0.295 HD
ENDBRANCH  20  26
ENDBRANCH  13  19
ENDBRANCH   8  13
ENDBRANCH   4   7
ENDBRANCH   2   3
ENDBRANCH   1   2
BRANCH   1  28
ATOM     28  C   UNL A   1      32.342  28.002  26.702  1.00  0.00     0.023 C 
BRANCH  28  29
ATOM     29  C   UNL A   1      33.656  28.546  27.244  1.00  0.00     0.116 C 
BRANCH  29  30
ATOM     30  N   UNL A   1      33.563  29.928  27.692  1.00  0.00    -0.352 N 
ATOM     31  C   UNL A   1      34.547  30.685  28.288  1.00  0.00     0.251 C 
ATOM     32  H   UNL A   1      32.697  30.374  27.551  1.00  0.00     0.163 HD
ATOM     33  O   UNL A   1      34.309  31.807  28.708  1.00  0.00    -0.269 OA
BRANCH  31  34
ATOM     34  C   UNL A   1      35.886  30.082  28.451  1.00  0.00     0.039 A 
ATOM     35  C   UNL A   1      36.780  30.121  27.378  1.00  0.00     0.014 A 
ATOM     36  C   UNL A   1      36.275  29.569  29.690  1.00  0.00     0.014 A 
ATOM     37  C   UNL A   1      38.101  29.711  27.572  1.00  0.00     0.010 A 
ATOM     38  C   UNL A   1      37.604  29.217  29.896  1.00  0.00     0.010 A 
ATOM     39  C   UNL A   1      38.529  29.296  28.843  1.00  0.00    -0.014 A 
BRANCH  39  40
ATOM     40  C   UNL A   1      39.944  28.943  29.115  1.00  0.00     0.031 A 
ATOM     41  C   UNL A   1      40.882  29.996  29.633  1.00  0.00     0.074 A 
ATOM     42  C   UNL A   1      40.404  27.719  28.790  1.00  0.00     0.049 A 
ATOM     43  N   UNL A   1      42.181  29.954  29.760  1.00  0.00    -0.248 NA
ATOM     44  C   UNL A   1      40.276  31.278  30.029  1.00  0.00     0.031 C 
ATOM     45  C   UNL A   1      39.596  26.625  28.247  1.00  0.00     0.029 A 
ATOM     46  N   UNL A   1      41.672  27.198  28.844  1.00  0.00    -0.354 N 
ATOM     47  C   UNL A   1      42.554  31.211  30.219  1.00  0.00     0.074 A 
ATOM     48  C   UNL A   1      41.347  32.002  30.319  1.00  0.00     0.031 C 
ATOM     49  C   UNL A   1      40.387  25.563  28.022  1.00  0.00     0.029 A 
ATOM     50  C   UNL A   1      41.763  25.912  28.365  1.00  0.00     0.049 A 
ATOM     51  H   UNL A   1      42.445  27.697  29.196  1.00  0.00     0.167 HD
ATOM     52  C   UNL A   1      43.791  31.659  30.539  1.00  0.00     0.037 A 
ATOM     53  C   UNL A   1      42.835  25.115  28.198  1.00  0.00     0.037 A 
ATOM     54  C   UNL A   1      44.980  30.854  30.473  1.00  0.00     0.049 A 
ATOM     55  C   UNL A   1      44.197  25.629  28.576  1.00  0.00     0.074 A 
ATOM     56  C   UNL A   1      46.272  31.198  30.827  1.00  0.00     0.029 A 
ATOM     57  N   UNL A   1      45.021  29.541  30.029  1.00  0.00    -0.354 N 
ATOM     58  N   UNL A   1      44.531  26.809  29.045  1.00  0.00    -0.248 NA
ATOM     59  C   UNL A   1      45.331  24.709  28.404  1.00  0.00     0.031 C 
ATOM     60  C   UNL A   1      47.100  30.099  30.576  1.00  0.00     0.029 A 
ATOM     61  C   UNL A   1      46.317  29.060  30.095  1.00  0.00     0.049 A 
ATOM     62  H   UNL A   1      44.243  29.026  29.714  1.00  0.00     0.167 HD
ATOM     63  C   UNL A   1      45.904  26.764  29.248  1.00  0.00     0.074 A 
ATOM     64  C   UNL A   1      46.343  25.441  28.854  1.00  0.00     0.031 C 
ATOM     65  C   UNL A   1      46.728  27.730  29.720  1.00  0.00     0.037 A 
BRANCH  52  66
ATOM     66  C   UNL A   1      43.913  33.087  30.989  1.00  0.00     0.058 A 
ATOM     67  C   UNL A   1      44.171  34.124  30.080  1.00  0.00     0.135 A 
ATOM     68  C   UNL A   1      43.753  33.424  32.343  1.00  0.00     0.135 A 
ATOM     69  F   UNL A   1      44.348  33.852  28.777  1.00  0.00    -0.206 F 
ATOM     70  C   UNL A   1      44.299  35.443  30.500  1.00  0.00     0.059 A 
ATOM     71  C   UNL A   1      43.854  34.740  32.783  1.00  0.00     0.059 A 
ATOM     72  F   UNL A   1      43.508  32.468  33.254  1.00  0.00    -0.206 F 
ATOM     73  C   UNL A   1      44.145  35.740  31.856  1.00  0.00     0.060 A 
BRANCH  73  74
ATOM     74  S   UNL A   1      44.323  37.455  32.391  1.00  0.00     0.124 S 
ATOM     75  O   UNL A   1      43.373  37.512  33.498  1.00  0.00    -0.237 OA
ATOM     76  O   UNL A   1      45.733  37.526  32.762  1.00  0.00    -0.237 OA
ATOM     77  O   UNL A   1      43.951  38.221  31.205  1.00  0.00    -0.744 OA
ENDBRANCH  73  74
ENDBRANCH  52  66
BRANCH  53  78
ATOM     78  C   UNL A   1      42.662  23.741  27.661  1.00  0.00     0.058 A 
ATOM     79  C   UNL A   1      42.518  22.646  28.525  1.00  0.00     0.135 A 
ATOM     80  C   UNL A   1      42.618  23.495  26.280  1.00  0.00     0.135 A 
ATOM     81  F   UNL A   1      42.559  22.832  29.854  1.00  0.00    -0.206 F 
ATOM     82  C   UNL A   1      42.346  21.354  28.042  1.00  0.00     0.059 A 
ATOM     83  C   UNL A   1      42.428  22.213  25.773  1.00  0.00     0.059 A 
ATOM     84  F   UNL A   1      42.736  24.512  25.412  1.00  0.00    -0.206 F 
ATOM     85  C   UNL A   1      42.301  21.147  26.663  1.00  0.00     0.060 A 
BRANCH  85  86
ATOM     86  S   UNL A   1      42.023  19.473  26.044  1.00  0.00     0.124 S 
ATOM     87  O   UNL A   1      42.433  18.666  27.187  1.00  0.00    -0.237 OA
ATOM     88  O   UNL A   1      40.593  19.485  25.751  1.00  0.00    -0.237 OA
ATOM     89  O   UNL A   1      42.892  19.402  24.873  1.00  0.00    -0.744 OA
ENDBRANCH  85  86
ENDBRANCH  53  78
BRANCH  65  90
ATOM     90  C   UNL A   1      48.181  27.391  29.881  1.00  0.00     0.058 A 
ATOM     91  C   UNL A   1      49.120  27.694  28.885  1.00  0.00     0.135 A 
ATOM     92  C   UNL A   1      48.648  26.844  31.087  1.00  0.00     0.135 A 
ATOM     93  F   UNL A   1      48.719  28.211  27.713  1.00  0.00    -0.206 F 
ATOM     94  C   UNL A   1      50.479  27.467  29.080  1.00  0.00     0.059 A 
ATOM     95  C   UNL A   1      50.004  26.625  31.310  1.00  0.00     0.059 A 
ATOM     96  F   UNL A   1      47.787  26.543  32.072  1.00  0.00    -0.206 F 
ATOM     97  C   UNL A   1      50.911  26.940  30.298  1.00  0.00     0.060 A 
BRANCH  97  98
ATOM     98  S   UNL A   1      52.683  26.721  30.570  1.00  0.00     0.124 S 
ATOM     99  O   UNL A   1      53.052  28.008  31.149  1.00  0.00    -0.237 OA
ATOM    100  O   UNL A   1      52.723  25.580  31.481  1.00  0.00    -0.237 OA
ATOM    101  O   UNL A   1      53.203  26.462  29.230  1.00  0.00    -0.744 OA
ENDBRANCH  97  98
ENDBRANCH  65  90
ENDBRANCH  39  40
ENDBRANCH  31  34
ENDBRANCH  29  30
ENDBRANCH  28  29
ENDBRANCH   1  28
TORSDOF 20
ENDMDL
MODEL 2
REMARK VINA RESULT:     -11.7      3.281      9.693
REMARK SMILES COC(=O)C[C@H](c1ccc(C(=O)NCCCCNC(=O)c2ccc(-c3c4nc(c(-c5c(F)cc(S(=O)(=O)[O-])cc5F)c5ccc([nH]5)c(-c5c(F)cc(S(=O)(=O)[O-])cc5F)c5nc(c(-c6c(F)cc(S(=O)(=O)[O-])cc6F)c6ccc3[nH]6)C=C5)C=C4)cc2)cc1)c1c(O)n[nH]c1C
REMARK SMILES IDX 15 1 14 2 13 3 11 4 12 5 10 7 7 8 8 9 88 10 9 11 87 12 6 13
REMARK SMILES IDX 5 14 3 15 4 16 2 17 1 18 89 19 90 20 94 21 92 22 93 23 95 24
REMARK SMILES IDX 91 26 16 28 17 29 18 30 19 31 20 33 21 34 22 35 86 36 23 37
REMARK SMILES IDX 85 38 24 39 25 40 26 41 79 42 27 43 84 44 78 45 80 46 28 47
REMARK SMILES IDX 83 48 77 49 76 50 29 52 63 53 42 54 62 55 43 56 46 57 61 58
REMARK SMILES IDX 81 59 44 60 45 61 60 63 82 64 47 65 30 66 31 67 40 68 32 69
REMARK SMILES IDX 33 70 39 71 41 72 34 73 35 74 36 75 37 76 38 77 64 78 65 79
REMARK SMILES IDX 74 80 66 81 67 82 73 83 75 84 68 85 69 86 70 87 71 88 72 89
REMARK SMILES IDX 48 90 49 91 58 92 50 93 51 94 57 95 59 96 52 97 53 98 54 99
REMARK SMILES IDX 55 100 56 101
REMARK H PARENT 13 6 93 25 91 27 18 32 80 51 46 62
REMARK Flexibility Score: inf
ROOT
ATOM      1  C   UNL A   1      35.076  22.139  25.634  1.00  0.00     0.023 C 
ENDROOT
BRANCH   1   2
ATOM      2  C   UNL A   1      33.998  22.353  24.569  1.00  0.00     0.116 C 
BRANCH   2   3
ATOM      3  N   UNL A   1      32.716  21.843  25.017  1.00  0.00    -0.352 N 
ATOM      4  C   UNL A   1      31.598  22.478  25.499  1.00  0.00     0.251 C 
ATOM      5  O   UNL A   1      30.606  21.794  25.750  1.00  0.00    -0.269 OA
ATOM      6  H   UNL A   1      32.632  20.863  24.966  1.00  0.00     0.163 HD
BRANCH   4   7
ATOM      7  C   UNL A   1      31.520  23.953  25.671  1.00  0.00     0.039 A 
ATOM      8  C   UNL A   1      31.325  26.771  25.801  1.00  0.00    -0.040 A 
ATOM      9  C   UNL A   1      30.463  26.033  24.977  1.00  0.00     0.005 A 
ATOM     10  C   UNL A   1      32.225  26.070  26.617  1.00  0.00     0.005 A 
ATOM     11  C   UNL A   1      30.572  24.642  24.903  1.00  0.00     0.014 A 
ATOM     12  C   UNL A   1      32.299  24.677  26.572  1.00  0.00     0.014 A 
BRANCH   8  13
ATOM     13  C   UNL A   1      31.347  28.292  25.819  1.00  0.00     0.068 C 
BRANCH  13  14
ATOM     14  C   UNL A   1      32.157  28.986  26.928  1.00  0.00     0.136 C 
BRANCH  14  15
ATOM     15  C   UNL A   1      32.317  30.477  26.771  1.00  0.00     0.306 C 
ATOM     16  O   UNL A   1      31.403  31.214  26.420  1.00  0.00    -0.252 OA
BRANCH  15  17
ATOM     17  O   UNL A   1      33.574  30.892  27.078  1.00  0.00    -0.469 OA
ATOM     18  C   UNL A   1      34.495  29.812  27.251  1.00  0.00     0.282 C 
ENDBRANCH  15  17
ENDBRANCH  14  15
ENDBRANCH  13  14
BRANCH  13  19
ATOM     19  C   UNL A   1      31.763  28.670  24.421  1.00  0.00     0.044 A 
ATOM     20  C   UNL A   1      33.006  28.480  23.790  1.00  0.00     0.234 A 
ATOM     21  C   UNL A   1      31.005  29.256  23.411  1.00  0.00     0.040 A 
ATOM     22  N   UNL A   1      33.074  28.893  22.536  1.00  0.00    -0.137 NA
ATOM     23  N   UNL A   1      31.827  29.341  22.314  1.00  0.00    -0.279 N 
ATOM     24  C   UNL A   1      29.594  29.701  23.359  1.00  0.00     0.066 C 
ATOM     25  H   UNL A   1      31.530  29.697  21.446  1.00  0.00     0.190 HD
BRANCH  20  26
ATOM     26  O   UNL A   1      34.126  27.939  24.259  1.00  0.00    -0.492 OA
ATOM     27  H   UNL A   1      34.958  28.258  23.968  1.00  0.00     0.295 HD
ENDBRANCH  20  26
ENDBRANCH  13  19
ENDBRANCH   8  13
ENDBRANCH   4   7
ENDBRANCH   2   3
ENDBRANCH   1   2
BRANCH   1  28
ATOM     28  C   UNL A   1      35.857  23.400  26.008  1.00  0.00     0.023 C 
BRANCH  28  29
ATOM     29  C   UNL A   1      37.076  23.674  25.139  1.00  0.00     0.116 C 
BRANCH  29  30
ATOM     30  N   UNL A   1      38.167  22.740  25.370  1.00  0.00    -0.352 N 
ATOM     31  C   UNL A   1      39.320  22.957  26.091  1.00  0.00     0.251 C 
ATOM     32  H   UNL A   1      38.070  21.848  24.963  1.00  0.00     0.163 HD
ATOM     33  O   UNL A   1      40.207  22.118  26.125  1.00  0.00    -0.269 OA
BRANCH  31  34
ATOM     34  C   UNL A   1      39.474  24.253  26.782  1.00  0.00     0.039 A 
ATOM     35  C   UNL A   1      38.892  24.424  28.041  1.00  0.00     0.014 A 
ATOM     36  C   UNL A   1      40.271  25.254  26.220  1.00  0.00     0.014 A 
ATOM     37  C   UNL A   1      39.174  25.577  28.775  1.00  0.00     0.010 A 
ATOM     38  C   UNL A   1      40.596  26.373  26.977  1.00  0.00     0.010 A 
ATOM     39  C   UNL A   1      40.060  26.538  28.264  1.00  0.00    -0.014 A 
BRANCH  39  40
ATOM     40  C   UNL A   1      40.459  27.731  29.051  1.00  0.00     0.031 A 
ATOM     41  C   UNL A   1      41.727  27.694  29.855  1.00  0.00     0.074 A 
ATOM     42  C   UNL A   1      39.631  28.790  29.129  1.00  0.00     0.049 A 
ATOM     43  N   UNL A   1      42.164  28.542  30.748  1.00  0.00    -0.248 NA
ATOM     44  C   UNL A   1      42.603  26.528  29.649  1.00  0.00     0.031 C 
ATOM     45  C   UNL A   1      38.357  28.926  28.421  1.00  0.00     0.029 A 
ATOM     46  N   UNL A   1      39.726  29.946  29.864  1.00  0.00    -0.354 N 
ATOM     47  C   UNL A   1      43.346  27.999  31.234  1.00  0.00     0.074 A 
ATOM     48  C   UNL A   1      43.543  26.735  30.559  1.00  0.00     0.031 C 
ATOM     49  C   UNL A   1      37.791  30.098  28.753  1.00  0.00     0.029 A 
ATOM     50  C   UNL A   1      38.640  30.778  29.727  1.00  0.00     0.049 A 
ATOM     51  H   UNL A   1      40.500  30.159  30.435  1.00  0.00     0.167 HD
ATOM     52  C   UNL A   1      44.196  28.517  32.153  1.00  0.00     0.037 A 
ATOM     53  C   UNL A   1      38.351  31.944  30.335  1.00  0.00     0.037 A 
ATOM     54  C   UNL A   1      44.013  29.792  32.791  1.00  0.00     0.049 A 
ATOM     55  C   UNL A   1      39.319  32.508  31.340  1.00  0.00     0.074 A 
ATOM     56  C   UNL A   1      44.844  30.430  33.693  1.00  0.00     0.029 A 
ATOM     57  N   UNL A   1      42.925  30.628  32.586  1.00  0.00    -0.354 N 
ATOM     58  N   UNL A   1      40.453  32.001  31.763  1.00  0.00    -0.248 NA
ATOM     59  C   UNL A   1      38.972  33.798  31.952  1.00  0.00     0.031 C 
ATOM     60  C   UNL A   1      44.247  31.643  34.054  1.00  0.00     0.029 A 
ATOM     61  C   UNL A   1      43.059  31.774  33.351  1.00  0.00     0.049 A 
ATOM     62  H   UNL A   1      42.168  30.434  31.986  1.00  0.00     0.167 HD
ATOM     63  C   UNL A   1      40.966  32.921  32.668  1.00  0.00     0.074 A 
ATOM     64  C   UNL A   1      40.023  34.018  32.733  1.00  0.00     0.031 C 
ATOM     65  C   UNL A   1      42.118  32.864  33.381  1.00  0.00     0.037 A 
BRANCH  52  66
ATOM     66  C   UNL A   1      45.401  27.697  32.517  1.00  0.00     0.058 A 
ATOM     67  C   UNL A   1      46.570  27.726  31.742  1.00  0.00     0.135 A 
ATOM     68  C   UNL A   1      45.394  26.888  33.665  1.00  0.00     0.135 A 
ATOM     69  F   UNL A   1      46.623  28.471  30.625  1.00  0.00    -0.206 F 
ATOM     70  C   UNL A   1      47.679  26.955  32.071  1.00  0.00     0.059 A 
ATOM     71  C   UNL A   1      46.501  26.127  34.026  1.00  0.00     0.059 A 
ATOM     72  F   UNL A   1      44.299  26.824  34.440  1.00  0.00    -0.206 F 
ATOM     73  C   UNL A   1      47.632  26.154  33.213  1.00  0.00     0.060 A 
BRANCH  73  74
ATOM     74  S   UNL A   1      49.075  25.151  33.625  1.00  0.00     0.124 S 
ATOM     75  O   UNL A   1      49.605  25.868  34.782  1.00  0.00    -0.237 OA
ATOM     76  O   UNL A   1      48.484  23.846  33.907  1.00  0.00    -0.237 OA
ATOM     77  O   UNL A   1      49.891  25.218  32.418  1.00  0.00    -0.744 OA
ENDBRANCH  73  74
ENDBRANCH  52  66
BRANCH  53  78
ATOM     78  C   UNL A   1      37.096  32.665  30.000  1.00  0.00     0.058 A 
ATOM     79  C   UNL A   1      35.898  32.365  30.663  1.00  0.00     0.135 A 
ATOM     80  C   UNL A   1      37.071  33.678  29.029  1.00  0.00     0.135 A 
ATOM     81  F   UNL A   1      35.873  31.400  31.596  1.00  0.00    -0.206 F 
ATOM     82  C   UNL A   1      34.715  33.034  30.370  1.00  0.00     0.059 A 
ATOM     83  C   UNL A   1      35.903  34.375  28.731  1.00  0.00     0.059 A 
ATOM     84  F   UNL A   1      38.196  34.013  28.378  1.00  0.00    -0.206 F 
ATOM     85  C   UNL A   1      34.728  34.040  29.402  1.00  0.00     0.060 A 
BRANCH  85  86
ATOM     86  S   UNL A   1      33.200  34.941  29.067  1.00  0.00     0.124 S 
ATOM     87  O   UNL A   1      33.711  36.226  28.606  1.00  0.00    -0.237 OA
ATOM     88  O   UNL A   1      32.565  34.106  28.051  1.00  0.00    -0.237 OA
ATOM     89  O   UNL A   1      32.528  34.953  30.363  1.00  0.00    -0.744 OA
ENDBRANCH  85  86
ENDBRANCH  53  78
BRANCH  65  90
ATOM     90  C   UNL A   1      42.451  34.033  34.262  1.00  0.00     0.058 A 
ATOM     91  C   UNL A   1      41.983  34.114  35.580  1.00  0.00     0.135 A 
ATOM     92  C   UNL A   1      43.327  35.031  33.808  1.00  0.00     0.135 A 
ATOM     93  F   UNL A   1      41.137  33.187  36.056  1.00  0.00    -0.206 F 
ATOM     94  C   UNL A   1      42.375  35.149  36.424  1.00  0.00     0.059 A 
ATOM     95  C   UNL A   1      43.746  36.065  34.640  1.00  0.00     0.059 A 
ATOM     96  F   UNL A   1      43.807  34.992  32.555  1.00  0.00    -0.206 F 
ATOM     97  C   UNL A   1      43.262  36.115  35.947  1.00  0.00     0.060 A 
BRANCH  97  98
ATOM     98  S   UNL A   1      43.825  37.410  37.073  1.00  0.00     0.124 S 
ATOM     99  O   UNL A   1      43.847  38.574  36.194  1.00  0.00    -0.237 OA
ATOM    100  O   UNL A   1      42.784  37.409  38.098  1.00  0.00    -0.237 OA
ATOM    101  O   UNL A   1      45.131  36.932  37.515  1.00  0.00    -0.744 OA
ENDBRANCH  97  98
ENDBRANCH  65  90
ENDBRANCH  39  40
ENDBRANCH  31  34
ENDBRANCH  29  30
ENDBRANCH  28  29
ENDBRANCH   1  28
TORSDOF 20
ENDMDL
MODEL 3
REMARK VINA RESULT:     -11.5      2.704      3.535
REMARK SMILES COC(=O)C[C@H](c1ccc(C(=O)NCCCCNC(=O)c2ccc(-c3c4nc(c(-c5c(F)cc(S(=O)(=O)[O-])cc5F)c5ccc([nH]5)c(-c5c(F)cc(S(=O)(=O)[O-])cc5F)c5nc(c(-c6c(F)cc(S(=O)(=O)[O-])cc6F)c6ccc3[nH]6)C=C5)C=C4)cc2)cc1)c1c(O)n[nH]c1C
REMARK SMILES IDX 15 1 14 2 13 3 11 4 12 5 10 7 7 8 8 9 88 10 9 11 87 12 6 13
REMARK SMILES IDX 5 14 3 15 4 16 2 17 1 18 89 19 90 20 94 21 92 22 93 23 95 24
REMARK SMILES IDX 91 26 16 28 17 29 18 30 19 31 20 33 21 34 22 35 86 36 23 37
REMARK SMILES IDX 85 38 24 39 25 40 26 41 79 42 27 43 84 44 78 45 80 46 28 47
REMARK SMILES IDX 83 48 77 49 76 50 29 52 63 53 42 54 62 55 43 56 46 57 61 58
REMARK SMILES IDX 81 59 44 60 45 61 60 63 82 64 47 65 30 66 31 67 40 68 32 69
REMARK SMILES IDX 33 70 39 71 41 72 34 73 35 74 36 75 37 76 38 77 64 78 65 79
REMARK SMILES IDX 74 80 66 81 67 82 73 83 75 84 68 85 69 86 70 87 71 88 72 89
REMARK SMILES IDX 48 90 49 91 58 92 50 93 51 94 57 95 59 96 52 97 53 98 54 99
REMARK SMILES IDX 55 100 56 101
REMARK H PARENT 13 6 93 25 91 27 18 32 80 51 46 62
REMARK Flexibility Score: inf
ROOT
ATOM      1  C   UNL A   1      32.635  29.324  24.664  1.00  0.00     0.023 C 
ENDROOT
BRANCH   1   2
ATOM      2  C   UNL A   1      31.180  29.778  24.807  1.00  0.00     0.116 C 
BRANCH   2   3
ATOM      3  N   UNL A   1      30.530  29.853  23.512  1.00  0.00    -0.352 N 
ATOM      4  C   UNL A   1      30.178  28.881  22.609  1.00  0.00     0.251 C 
ATOM      5  O   UNL A   1      29.567  29.222  21.596  1.00  0.00    -0.269 OA
ATOM      6  H   UNL A   1      30.299  30.767  23.230  1.00  0.00     0.163 HD
BRANCH   4   7
ATOM      7  C   UNL A   1      30.451  27.435  22.832  1.00  0.00     0.039 A 
ATOM      8  C   UNL A   1      30.914  24.715  23.450  1.00  0.00    -0.040 A 
ATOM      9  C   UNL A   1      29.842  25.407  24.031  1.00  0.00     0.005 A 
ATOM     10  C   UNL A   1      31.695  25.382  22.496  1.00  0.00     0.005 A 
ATOM     11  C   UNL A   1      29.624  26.756  23.737  1.00  0.00     0.014 A 
ATOM     12  C   UNL A   1      31.447  26.717  22.171  1.00  0.00     0.014 A 
BRANCH   8  13
ATOM     13  C   UNL A   1      31.282  23.290  23.836  1.00  0.00     0.068 C 
BRANCH  13  14
ATOM     14  C   UNL A   1      32.394  22.593  23.034  1.00  0.00     0.136 C 
BRANCH  14  15
ATOM     15  C   UNL A   1      33.027  21.405  23.711  1.00  0.00     0.306 C 
ATOM     16  O   UNL A   1      34.172  21.416  24.148  1.00  0.00    -0.252 OA
BRANCH  15  17
ATOM     17  O   UNL A   1      32.178  20.346  23.788  1.00  0.00    -0.469 OA
ATOM     18  C   UNL A   1      32.607  19.349  24.719  1.00  0.00     0.282 C 
ENDBRANCH  15  17
ENDBRANCH  14  15
ENDBRANCH  13  14
BRANCH  13  19
ATOM     19  C   UNL A   1      31.544  23.367  25.318  1.00  0.00     0.044 A 
ATOM     20  C   UNL A   1      30.804  22.807  26.374  1.00  0.00     0.234 A 
ATOM     21  C   UNL A   1      32.603  23.974  25.988  1.00  0.00     0.040 A 
ATOM     22  N   UNL A   1      31.292  23.019  27.584  1.00  0.00    -0.137 NA
ATOM     23  N   UNL A   1      32.411  23.715  27.323  1.00  0.00    -0.279 N 
ATOM     24  C   UNL A   1      33.782  24.728  25.505  1.00  0.00     0.066 C 
ATOM     25  H   UNL A   1      33.037  24.011  28.023  1.00  0.00     0.190 HD
BRANCH  20  26
ATOM     26  O   UNL A   1      29.687  22.085  26.344  1.00  0.00    -0.492 OA
ATOM     27  H   UNL A   1      29.127  22.120  25.592  1.00  0.00     0.295 HD
ENDBRANCH  20  26
ENDBRANCH  13  19
ENDBRANCH   8  13
ENDBRANCH   4   7
ENDBRANCH   2   3
ENDBRANCH   1   2
BRANCH   1  28
ATOM     28  C   UNL A   1      33.056  28.229  25.646  1.00  0.00     0.023 C 
BRANCH  28  29
ATOM     29  C   UNL A   1      33.618  28.740  26.965  1.00  0.00     0.116 C 
BRANCH  29  30
ATOM     30  N   UNL A   1      33.625  30.192  27.062  1.00  0.00    -0.352 N 
ATOM     31  C   UNL A   1      34.588  30.990  27.639  1.00  0.00     0.251 C 
ATOM     32  H   UNL A   1      32.852  30.659  26.669  1.00  0.00     0.163 HD
ATOM     33  O   UNL A   1      34.426  32.196  27.742  1.00  0.00    -0.269 OA
BRANCH  31  34
ATOM     34  C   UNL A   1      35.802  30.339  28.174  1.00  0.00     0.039 A 
ATOM     35  C   UNL A   1      36.997  30.441  27.457  1.00  0.00     0.014 A 
ATOM     36  C   UNL A   1      35.767  29.716  29.423  1.00  0.00     0.014 A 
ATOM     37  C   UNL A   1      38.182  29.981  28.032  1.00  0.00     0.010 A 
ATOM     38  C   UNL A   1      36.957  29.311  30.017  1.00  0.00     0.010 A 
ATOM     39  C   UNL A   1      38.175  29.451  29.332  1.00  0.00    -0.014 A 
BRANCH  39  40
ATOM     40  C   UNL A   1      39.424  29.037  30.016  1.00  0.00     0.031 A 
ATOM     41  C   UNL A   1      39.916  29.828  31.195  1.00  0.00     0.074 A 
ATOM     42  C   UNL A   1      40.165  28.033  29.510  1.00  0.00     0.049 A 
ATOM     43  N   UNL A   1      41.063  29.756  31.816  1.00  0.00    -0.248 NA
ATOM     44  C   UNL A   1      39.006  30.857  31.722  1.00  0.00     0.031 C 
ATOM     45  C   UNL A   1      39.807  27.216  28.348  1.00  0.00     0.029 A 
ATOM     46  N   UNL A   1      41.389  27.545  29.893  1.00  0.00    -0.354 N 
ATOM     47  C   UNL A   1      41.028  30.751  32.785  1.00  0.00     0.074 A 
ATOM     48  C   UNL A   1      39.759  31.431  32.650  1.00  0.00     0.031 C 
ATOM     49  C   UNL A   1      40.787  26.327  28.116  1.00  0.00     0.029 A 
ATOM     50  C   UNL A   1      41.860  26.537  29.084  1.00  0.00     0.049 A 
ATOM     51  H   UNL A   1      41.883  27.883  30.675  1.00  0.00     0.167 HD
ATOM     52  C   UNL A   1      41.967  31.059  33.711  1.00  0.00     0.037 A 
ATOM     53  C   UNL A   1      43.032  25.875  29.107  1.00  0.00     0.037 A 
ATOM     54  C   UNL A   1      43.210  30.353  33.864  1.00  0.00     0.049 A 
ATOM     55  C   UNL A   1      44.053  26.224  30.155  1.00  0.00     0.074 A 
ATOM     56  C   UNL A   1      44.202  30.552  34.806  1.00  0.00     0.029 A 
ATOM     57  N   UNL A   1      43.626  29.305  33.056  1.00  0.00    -0.354 N 
ATOM     58  N   UNL A   1      43.990  27.143  31.090  1.00  0.00    -0.248 NA
ATOM     59  C   UNL A   1      45.302  25.450  30.156  1.00  0.00     0.031 C 
ATOM     60  C   UNL A   1      45.232  29.639  34.554  1.00  0.00     0.029 A 
ATOM     61  C   UNL A   1      44.865  28.850  33.474  1.00  0.00     0.049 A 
ATOM     62  H   UNL A   1      43.116  28.938  32.297  1.00  0.00     0.167 HD
ATOM     63  C   UNL A   1      45.177  27.040  31.804  1.00  0.00     0.074 A 
ATOM     64  C   UNL A   1      45.941  25.969  31.197  1.00  0.00     0.031 C 
ATOM     65  C   UNL A   1      45.596  27.766  32.869  1.00  0.00     0.037 A 
BRANCH  52  66
ATOM     66  C   UNL A   1      41.678  32.212  34.630  1.00  0.00     0.058 A 
ATOM     67  C   UNL A   1      42.061  33.522  34.307  1.00  0.00     0.135 A 
ATOM     68  C   UNL A   1      40.993  32.006  35.839  1.00  0.00     0.135 A 
ATOM     69  F   UNL A   1      42.733  33.769  33.170  1.00  0.00    -0.206 F 
ATOM     70  C   UNL A   1      41.808  34.586  35.165  1.00  0.00     0.059 A 
ATOM     71  C   UNL A   1      40.708  33.060  36.702  1.00  0.00     0.059 A 
ATOM     72  F   UNL A   1      40.606  30.771  36.196  1.00  0.00    -0.206 F 
ATOM     73  C   UNL A   1      41.134  34.343  36.364  1.00  0.00     0.060 A 
BRANCH  73  74
ATOM     74  S   UNL A   1      40.818  35.731  37.474  1.00  0.00     0.124 S 
ATOM     75  O   UNL A   1      42.170  36.238  37.694  1.00  0.00    -0.237 OA
ATOM     76  O   UNL A   1      39.944  36.583  36.674  1.00  0.00    -0.237 OA
ATOM     77  O   UNL A   1      40.188  35.103  38.631  1.00  0.00    -0.744 OA
ENDBRANCH  73  74
ENDBRANCH  52  66
BRANCH  53  78
ATOM     78  C   UNL A   1      43.298  24.804  28.112  1.00  0.00     0.058 A 
ATOM     79  C   UNL A   1      43.937  25.096  26.898  1.00  0.00     0.135 A 
ATOM     80  C   UNL A   1      42.940  23.470  28.358  1.00  0.00     0.135 A 
ATOM     81  F   UNL A   1      44.294  26.359  26.616  1.00  0.00    -0.206 F 
ATOM     82  C   UNL A   1      44.203  24.106  25.958  1.00  0.00     0.059 A 
ATOM     83  C   UNL A   1      43.212  22.459  27.441  1.00  0.00     0.059 A 
ATOM     84  F   UNL A   1      42.340  23.138  29.512  1.00  0.00    -0.206 F 
ATOM     85  C   UNL A   1      43.838  22.789  26.240  1.00  0.00     0.060 A 
BRANCH  85  86
ATOM     86  S   UNL A   1      44.236  21.502  25.037  1.00  0.00     0.124 S 
ATOM     87  O   UNL A   1      44.123  22.230  23.779  1.00  0.00    -0.237 OA
ATOM     88  O   UNL A   1      45.587  21.117  25.432  1.00  0.00    -0.237 OA
ATOM     89  O   UNL A   1      43.210  20.491  25.279  1.00  0.00    -0.744 OA
ENDBRANCH  85  86
ENDBRANCH  53  78
BRANCH  65  90
ATOM     90  C   UNL A   1      46.920  27.407  33.480  1.00  0.00     0.058 A 
ATOM     91  C   UNL A   1      47.026  26.426  34.475  1.00  0.00     0.135 A 
ATOM     92  C   UNL A   1      48.102  27.987  32.993  1.00  0.00     0.135 A 
ATOM     93  F   UNL A   1      45.923  25.849  34.977  1.00  0.00    -0.206 F 
ATOM     94  C   UNL A   1      48.265  26.028  34.968  1.00  0.00     0.059 A 
ATOM     95  C   UNL A   1      49.352  27.592  33.458  1.00  0.00     0.059 A 
ATOM     96  F   UNL A   1      48.050  28.927  32.035  1.00  0.00    -0.206 F 
ATOM     97  C   UNL A   1      49.422  26.611  34.448  1.00  0.00     0.060 A 
BRANCH  97  98
ATOM     98  S   UNL A   1      51.028  26.033  35.039  1.00  0.00     0.124 S 
ATOM     99  O   UNL A   1      51.709  25.727  33.785  1.00  0.00    -0.237 OA
ATOM    100  O   UNL A   1      51.532  27.195  35.767  1.00  0.00    -0.237 OA
ATOM    101  O   UNL A   1      50.689  24.881  35.868  1.00  0.00    -0.744 OA
ENDBRANCH  97  98
ENDBRANCH  65  90
ENDBRANCH  39  40
ENDBRANCH  31  34
ENDBRANCH  29  30
ENDBRANCH  28  29
ENDBRANCH   1  28
TORSDOF 20
ENDMDL
