MODEL 1
REMARK VINA RESULT:     -11.0      0.000      0.000
REMARK SMILES O=C(Cc1ccccc1Nc1c(Cl)cccc1Cl)NCCCCNC(=O)c1ccc(-c2c3nc(c(-c4c(F)cc(S(=O)(=O)[O-])cc4F)c4ccc([nH]4)c(-c4c(F)cc(S(=O)(=O)[O-])cc4F)c4nc(c(-c5c(F)cc(S(=O)(=O)[O-])cc5F)c5ccc2[nH]5)C=C4)C=C3)cc1
REMARK SMILES IDX 21 1 20 2 19 3 1 4 2 5 3 7 4 8 5 9 9 10 6 11 8 12 7 13 10 14
REMARK SMILES IDX 11 16 12 17 17 18 13 19 14 20 16 21 18 22 15 23 22 24 23 25
REMARK SMILES IDX 24 26 25 27 26 29 27 30 28 31 92 32 29 33 91 34 30 35 31 36
REMARK SMILES IDX 32 37 85 38 33 39 90 40 84 41 86 42 34 43 89 44 83 45 82 46
REMARK SMILES IDX 35 48 69 49 48 50 68 51 49 52 52 53 67 54 87 55 50 56 51 57
REMARK SMILES IDX 66 59 88 60 53 61 36 62 37 63 46 64 38 65 39 66 45 67 47 68
REMARK SMILES IDX 40 69 41 70 42 71 43 72 44 73 70 74 71 75 80 76 72 77 73 78
REMARK SMILES IDX 79 79 81 80 74 81 75 82 76 83 77 84 78 85 54 86 55 87 64 88
REMARK SMILES IDX 56 89 57 90 63 91 65 92 58 93 59 94 60 95 61 96 62 97
REMARK H PARENT 19 6 10 15 24 28 86 47 52 58
REMARK Flexibility Score: inf
ROOT
ATOM      1  C   UNL A   1      32.530  27.823  23.987  1.00  0.00     0.023 C 
ENDROOT
BRANCH   1   2
ATOM      2  C   UNL A   1      31.906  26.511  24.451  1.00  0.00     0.116 C 
BRANCH   2   3
ATOM      3  N   UNL A   1      32.798  25.382  24.282  1.00  0.00    -0.356 N 
ATOM      4  O   UNL A   1      32.059  24.797  22.185  1.00  0.00    -0.275 OA
ATOM      5  C   UNL A   1      32.835  24.635  23.123  1.00  0.00     0.224 C 
ATOM      6  H   UNL A   1      33.400  25.140  25.022  1.00  0.00     0.163 HD
BRANCH   5   7
ATOM      7  C   UNL A   1      33.941  23.594  23.090  1.00  0.00     0.137 C 
BRANCH   7   8
ATOM      8  C   UNL A   1      33.692  22.325  23.895  1.00  0.00    -0.015 A 
ATOM      9  C   UNL A   1      32.386  21.833  24.095  1.00  0.00     0.006 A 
ATOM     10  C   UNL A   1      34.783  21.598  24.433  1.00  0.00     0.042 A 
ATOM     11  C   UNL A   1      32.151  20.649  24.793  1.00  0.00     0.000 A 
ATOM     12  C   UNL A   1      34.516  20.419  25.153  1.00  0.00     0.026 A 
ATOM     13  C   UNL A   1      33.218  19.944  25.327  1.00  0.00     0.002 A 
BRANCH  10  14
ATOM     14  N   UNL A   1      36.115  22.021  24.201  1.00  0.00    -0.353 N 
ATOM     15  H   UNL A   1      36.378  22.066  23.253  1.00  0.00     0.167 HD
BRANCH  14  16
ATOM     16  C   UNL A   1      37.129  22.388  25.123  1.00  0.00     0.076 A 
ATOM     17  C   UNL A   1      38.181  21.482  25.380  1.00  0.00     0.066 A 
ATOM     18  C   UNL A   1      37.203  23.653  25.743  1.00  0.00     0.066 A 
ATOM     19  Cl  UNL A   1      38.159  19.887  24.701  1.00  0.00    -0.082 Cl
ATOM     20  C   UNL A   1      39.275  21.832  26.178  1.00  0.00     0.023 A 
ATOM     21  C   UNL A   1      38.304  24.005  26.536  1.00  0.00     0.023 A 
ATOM     22  Cl  UNL A   1      35.912  24.805  25.657  1.00  0.00    -0.082 Cl
ATOM     23  C   UNL A   1      39.344  23.101  26.744  1.00  0.00     0.003 A 
ENDBRANCH  14  16
ENDBRANCH  10  14
ENDBRANCH   7   8
ENDBRANCH   5   7
ENDBRANCH   2   3
ENDBRANCH   1   2
BRANCH   1  24
ATOM     24  C   UNL A   1      33.896  28.145  24.599  1.00  0.00     0.023 C 
BRANCH  24  25
ATOM     25  C   UNL A   1      33.891  28.436  26.097  1.00  0.00     0.116 C 
BRANCH  25  26
ATOM     26  N   UNL A   1      33.751  29.851  26.395  1.00  0.00    -0.352 N 
ATOM     27  C   UNL A   1      34.477  30.643  27.253  1.00  0.00     0.251 C 
ATOM     28  H   UNL A   1      33.028  30.312  25.910  1.00  0.00     0.163 HD
ATOM     29  O   UNL A   1      34.096  31.787  27.492  1.00  0.00    -0.269 OA
BRANCH  27  30
ATOM     30  C   UNL A   1      35.694  30.116  27.912  1.00  0.00     0.039 A 
ATOM     31  C   UNL A   1      36.907  30.150  27.218  1.00  0.00     0.014 A 
ATOM     32  C   UNL A   1      35.647  29.584  29.204  1.00  0.00     0.014 A 
ATOM     33  C   UNL A   1      38.080  29.721  27.844  1.00  0.00     0.010 A 
ATOM     34  C   UNL A   1      36.829  29.228  29.853  1.00  0.00     0.010 A 
ATOM     35  C   UNL A   1      38.059  29.293  29.183  1.00  0.00    -0.014 A 
BRANCH  35  36
ATOM     36  C   UNL A   1      39.313  28.927  29.897  1.00  0.00     0.031 A 
ATOM     37  C   UNL A   1      39.736  29.681  31.130  1.00  0.00     0.074 A 
ATOM     38  C   UNL A   1      40.103  27.954  29.399  1.00  0.00     0.049 A 
ATOM     39  N   UNL A   1      40.823  29.547  31.848  1.00  0.00    -0.248 NA
ATOM     40  C   UNL A   1      38.834  30.742  31.603  1.00  0.00     0.031 C 
ATOM     41  C   UNL A   1      39.828  27.176  28.188  1.00  0.00     0.029 A 
ATOM     42  N   UNL A   1      41.305  27.457  29.842  1.00  0.00    -0.354 N 
ATOM     43  C   UNL A   1      40.742  30.511  32.846  1.00  0.00     0.074 A 
ATOM     44  C   UNL A   1      39.525  31.257  32.610  1.00  0.00     0.031 C 
ATOM     45  C   UNL A   1      40.815  26.287  28.001  1.00  0.00     0.029 A 
ATOM     46  C   UNL A   1      41.818  26.457  29.048  1.00  0.00     0.049 A 
ATOM     47  H   UNL A   1      41.758  27.787  30.652  1.00  0.00     0.167 HD
ATOM     48  C   UNL A   1      41.593  30.740  33.875  1.00  0.00     0.037 A 
ATOM     49  C   UNL A   1      42.969  25.762  29.144  1.00  0.00     0.037 A 
ATOM     50  C   UNL A   1      42.793  29.981  34.115  1.00  0.00     0.049 A 
ATOM     51  C   UNL A   1      43.905  26.048  30.288  1.00  0.00     0.074 A 
ATOM     52  C   UNL A   1      43.686  30.096  35.166  1.00  0.00     0.029 A 
ATOM     53  N   UNL A   1      43.273  28.972  33.293  1.00  0.00    -0.354 N 
ATOM     54  N   UNL A   1      43.778  26.917  31.261  1.00  0.00    -0.248 NA
ATOM     55  C   UNL A   1      45.142  25.255  30.348  1.00  0.00     0.031 C 
ATOM     56  C   UNL A   1      44.736  29.197  34.949  1.00  0.00     0.029 A 
ATOM     57  C   UNL A   1      44.465  28.477  33.796  1.00  0.00     0.049 A 
ATOM     58  H   UNL A   1      42.832  28.655  32.472  1.00  0.00     0.167 HD
ATOM     59  C   UNL A   1      44.899  26.753  32.068  1.00  0.00     0.074 A 
ATOM     60  C   UNL A   1      45.689  25.694  31.474  1.00  0.00     0.031 C 
ATOM     61  C   UNL A   1      45.242  27.417  33.200  1.00  0.00     0.037 A 
BRANCH  48  62
ATOM     62  C   UNL A   1      41.262  31.865  34.822  1.00  0.00     0.058 A 
ATOM     63  C   UNL A   1      41.770  33.161  34.640  1.00  0.00     0.135 A 
ATOM     64  C   UNL A   1      40.387  31.654  35.900  1.00  0.00     0.135 A 
ATOM     65  F   UNL A   1      42.622  33.420  33.633  1.00  0.00    -0.206 F 
ATOM     66  C   UNL A   1      41.450  34.198  35.509  1.00  0.00     0.059 A 
ATOM     67  C   UNL A   1      40.026  32.684  36.764  1.00  0.00     0.059 A 
ATOM     68  F   UNL A   1      39.868  30.436  36.122  1.00  0.00    -0.206 F 
ATOM     69  C   UNL A   1      40.575  33.951  36.569  1.00  0.00     0.060 A 
BRANCH  69  70
ATOM     70  S   UNL A   1      40.166  35.310  37.683  1.00  0.00     0.124 S 
ATOM     71  O   UNL A   1      38.926  34.831  38.284  1.00  0.00    -0.237 OA
ATOM     72  O   UNL A   1      41.326  35.348  38.568  1.00  0.00    -0.237 OA
ATOM     73  O   UNL A   1      40.026  36.455  36.787  1.00  0.00    -0.744 OA
ENDBRANCH  69  70
ENDBRANCH  48  62
BRANCH  49  74
ATOM     74  C   UNL A   1      43.292  24.713  28.138  1.00  0.00     0.058 A 
ATOM     75  C   UNL A   1      44.093  25.006  27.023  1.00  0.00     0.135 A 
ATOM     76  C   UNL A   1      42.815  23.400  28.271  1.00  0.00     0.135 A 
ATOM     77  F   UNL A   1      44.567  26.249  26.847  1.00  0.00    -0.206 F 
ATOM     78  C   UNL A   1      44.393  24.041  26.067  1.00  0.00     0.059 A 
ATOM     79  C   UNL A   1      43.127  22.410  27.344  1.00  0.00     0.059 A 
ATOM     80  F   UNL A   1      42.058  23.063  29.327  1.00  0.00    -0.206 F 
ATOM     81  C   UNL A   1      43.907  22.744  26.239  1.00  0.00     0.060 A 
BRANCH  81  82
ATOM     82  S   UNL A   1      44.341  21.489  25.014  1.00  0.00     0.124 S 
ATOM     83  O   UNL A   1      43.367  20.444  25.306  1.00  0.00    -0.237 OA
ATOM     84  O   UNL A   1      44.150  22.208  23.759  1.00  0.00    -0.237 OA
ATOM     85  O   UNL A   1      45.728  21.168  25.339  1.00  0.00    -0.744 OA
ENDBRANCH  81  82
ENDBRANCH  49  74
BRANCH  61  86
ATOM     86  C   UNL A   1      46.506  26.994  33.900  1.00  0.00     0.058 A 
ATOM     87  C   UNL A   1      47.742  27.603  33.631  1.00  0.00     0.135 A 
ATOM     88  C   UNL A   1      46.468  26.002  34.894  1.00  0.00     0.135 A 
ATOM     89  F   UNL A   1      47.837  28.552  32.687  1.00  0.00    -0.206 F 
ATOM     90  C   UNL A   1      48.899  27.225  34.304  1.00  0.00     0.059 A 
ATOM     91  C   UNL A   1      47.606  25.632  35.602  1.00  0.00     0.059 A 
ATOM     92  F   UNL A   1      45.310  25.394  35.200  1.00  0.00    -0.206 F 
ATOM     93  C   UNL A   1      48.821  26.240  35.291  1.00  0.00     0.060 A 
BRANCH  93  94
ATOM     94  S   UNL A   1      50.324  25.785  36.182  1.00  0.00     0.124 S 
ATOM     95  O   UNL A   1      51.254  25.540  35.085  1.00  0.00    -0.237 OA
ATOM     96  O   UNL A   1      50.587  26.980  36.980  1.00  0.00    -0.237 OA
ATOM     97  O   UNL A   1      49.925  24.606  36.944  1.00  0.00    -0.744 OA
ENDBRANCH  93  94
ENDBRANCH  61  86
ENDBRANCH  35  36
ENDBRANCH  27  30
ENDBRANCH  25  26
ENDBRANCH  24  25
ENDBRANCH   1  24
TORSDOF 17
ENDMDL
MODEL 2
REMARK VINA RESULT:     -10.9      5.060      6.958
REMARK SMILES O=C(Cc1ccccc1Nc1c(Cl)cccc1Cl)NCCCCNC(=O)c1ccc(-c2c3nc(c(-c4c(F)cc(S(=O)(=O)[O-])cc4F)c4ccc([nH]4)c(-c4c(F)cc(S(=O)(=O)[O-])cc4F)c4nc(c(-c5c(F)cc(S(=O)(=O)[O-])cc5F)c5ccc2[nH]5)C=C4)C=C3)cc1
REMARK SMILES IDX 21 1 20 2 19 3 1 4 2 5 3 7 4 8 5 9 9 10 6 11 8 12 7 13 10 14
REMARK SMILES IDX 11 16 12 17 17 18 13 19 14 20 16 21 18 22 15 23 22 24 23 25
REMARK SMILES IDX 24 26 25 27 26 29 27 30 28 31 92 32 29 33 91 34 30 35 31 36
REMARK SMILES IDX 32 37 85 38 33 39 90 40 84 41 86 42 34 43 89 44 83 45 82 46
REMARK SMILES IDX 35 48 69 49 48 50 68 51 49 52 52 53 67 54 87 55 50 56 51 57
REMARK SMILES IDX 66 59 88 60 53 61 36 62 37 63 46 64 38 65 39 66 45 67 47 68
REMARK SMILES IDX 40 69 41 70 42 71 43 72 44 73 70 74 71 75 80 76 72 77 73 78
REMARK SMILES IDX 79 79 81 80 74 81 75 82 76 83 77 84 78 85 54 86 55 87 64 88
REMARK SMILES IDX 56 89 57 90 63 91 65 92 58 93 59 94 60 95 61 96 62 97
REMARK H PARENT 19 6 10 15 24 28 86 47 52 58
REMARK Flexibility Score: inf
ROOT
ATOM      1  C   UNL A   1      35.486  32.392  27.890  1.00  0.00     0.023 C 
ENDROOT
BRANCH   1   2
ATOM      2  C   UNL A   1      34.128  31.700  27.947  1.00  0.00     0.116 C 
BRANCH   2   3
ATOM      3  N   UNL A   1      34.212  30.288  27.635  1.00  0.00    -0.356 N 
ATOM      4  O   UNL A   1      31.968  29.994  27.225  1.00  0.00    -0.275 OA
ATOM      5  C   UNL A   1      33.113  29.550  27.245  1.00  0.00     0.224 C 
ATOM      6  H   UNL A   1      35.085  29.839  27.702  1.00  0.00     0.163 HD
BRANCH   5   7
ATOM      7  C   UNL A   1      33.440  28.129  26.819  1.00  0.00     0.137 C 
BRANCH   7   8
ATOM      8  C   UNL A   1      33.467  27.867  25.319  1.00  0.00    -0.015 A 
ATOM      9  C   UNL A   1      33.465  28.931  24.393  1.00  0.00     0.006 A 
ATOM     10  C   UNL A   1      33.526  26.539  24.829  1.00  0.00     0.042 A 
ATOM     11  C   UNL A   1      33.534  28.702  23.019  1.00  0.00     0.000 A 
ATOM     12  C   UNL A   1      33.571  26.337  23.438  1.00  0.00     0.026 A 
ATOM     13  C   UNL A   1      33.582  27.403  22.541  1.00  0.00     0.002 A 
BRANCH  10  14
ATOM     14  N   UNL A   1      33.595  25.443  25.724  1.00  0.00    -0.353 N 
ATOM     15  H   UNL A   1      33.764  25.683  26.664  1.00  0.00     0.167 HD
BRANCH  14  16
ATOM     16  C   UNL A   1      33.459  24.053  25.476  1.00  0.00     0.076 A 
ATOM     17  C   UNL A   1      32.168  23.479  25.484  1.00  0.00     0.066 A 
ATOM     18  C   UNL A   1      34.535  23.209  25.131  1.00  0.00     0.066 A 
ATOM     19  Cl  UNL A   1      30.786  24.422  25.938  1.00  0.00    -0.082 Cl
ATOM     20  C   UNL A   1      31.954  22.145  25.123  1.00  0.00     0.023 A 
ATOM     21  C   UNL A   1      34.317  21.874  24.762  1.00  0.00     0.023 A 
ATOM     22  Cl  UNL A   1      36.186  23.722  25.238  1.00  0.00    -0.082 Cl
ATOM     23  C   UNL A   1      33.028  21.346  24.747  1.00  0.00     0.003 A 
ENDBRANCH  14  16
ENDBRANCH  10  14
ENDBRANCH   7   8
ENDBRANCH   5   7
ENDBRANCH   2   3
ENDBRANCH   1   2
BRANCH   1  24
ATOM     24  C   UNL A   1      35.715  33.463  28.960  1.00  0.00     0.023 C 
BRANCH  24  25
ATOM     25  C   UNL A   1      36.565  33.030  30.151  1.00  0.00     0.116 C 
BRANCH  25  26
ATOM     26  N   UNL A   1      36.055  31.833  30.800  1.00  0.00    -0.352 N 
ATOM     27  C   UNL A   1      36.598  30.572  30.862  1.00  0.00     0.251 C 
ATOM     28  H   UNL A   1      35.193  31.942  31.264  1.00  0.00     0.163 HD
ATOM     29  O   UNL A   1      35.931  29.646  31.321  1.00  0.00    -0.269 OA
BRANCH  27  30
ATOM     30  C   UNL A   1      37.966  30.317  30.355  1.00  0.00     0.039 A 
ATOM     31  C   UNL A   1      39.020  30.226  31.268  1.00  0.00     0.014 A 
ATOM     32  C   UNL A   1      38.217  30.173  28.987  1.00  0.00     0.014 A 
ATOM     33  C   UNL A   1      40.307  29.920  30.818  1.00  0.00     0.010 A 
ATOM     34  C   UNL A   1      39.485  29.792  28.549  1.00  0.00     0.010 A 
ATOM     35  C   UNL A   1      40.545  29.660  29.458  1.00  0.00    -0.014 A 
BRANCH  35  36
ATOM     36  C   UNL A   1      41.887  29.235  28.975  1.00  0.00     0.031 A 
ATOM     37  C   UNL A   1      43.008  30.235  28.860  1.00  0.00     0.074 A 
ATOM     38  C   UNL A   1      42.080  27.960  28.580  1.00  0.00     0.049 A 
ATOM     39  N   UNL A   1      44.222  30.064  28.403  1.00  0.00    -0.248 NA
ATOM     40  C   UNL A   1      42.718  31.611  29.291  1.00  0.00     0.031 C 
ATOM     41  C   UNL A   1      41.065  26.904  28.601  1.00  0.00     0.029 A 
ATOM     42  N   UNL A   1      43.194  27.334  28.074  1.00  0.00    -0.354 N 
ATOM     43  C   UNL A   1      44.836  31.310  28.478  1.00  0.00     0.074 A 
ATOM     44  C   UNL A   1      43.843  32.237  28.976  1.00  0.00     0.031 C 
ATOM     45  C   UNL A   1      41.607  25.760  28.155  1.00  0.00     0.029 A 
ATOM     46  C   UNL A   1      42.994  26.006  27.773  1.00  0.00     0.049 A 
ATOM     47  H   UNL A   1      44.054  27.793  27.938  1.00  0.00     0.167 HD
ATOM     48  C   UNL A   1      46.114  31.645  28.178  1.00  0.00     0.037 A 
ATOM     49  C   UNL A   1      43.829  25.091  27.240  1.00  0.00     0.037 A 
ATOM     50  C   UNL A   1      47.103  30.713  27.701  1.00  0.00     0.049 A 
ATOM     51  C   UNL A   1      45.239  25.494  26.900  1.00  0.00     0.074 A 
ATOM     52  C   UNL A   1      48.440  30.944  27.430  1.00  0.00     0.029 A 
ATOM     53  N   UNL A   1      46.864  29.377  27.416  1.00  0.00    -0.354 N 
ATOM     54  N   UNL A   1      45.821  26.661  27.043  1.00  0.00    -0.248 NA
ATOM     55  C   UNL A   1      46.108  24.455  26.329  1.00  0.00     0.031 C 
ATOM     56  C   UNL A   1      48.995  29.763  26.927  1.00  0.00     0.029 A 
ATOM     57  C   UNL A   1      48.021  28.778  26.944  1.00  0.00     0.049 A 
ATOM     58  H   UNL A   1      45.999  28.920  27.532  1.00  0.00     0.167 HD
ATOM     59  C   UNL A   1      47.133  26.487  26.613  1.00  0.00     0.074 A 
ATOM     60  C   UNL A   1      47.260  25.101  26.213  1.00  0.00     0.031 C 
ATOM     61  C   UNL A   1      48.140  27.393  26.556  1.00  0.00     0.037 A 
BRANCH  48  62
ATOM     62  C   UNL A   1      46.520  33.086  28.351  1.00  0.00     0.058 A 
ATOM     63  C   UNL A   1      46.369  34.028  27.320  1.00  0.00     0.135 A 
ATOM     64  C   UNL A   1      47.024  33.542  29.580  1.00  0.00     0.135 A 
ATOM     65  F   UNL A   1      45.904  33.648  26.118  1.00  0.00    -0.206 F 
ATOM     66  C   UNL A   1      46.733  35.359  27.490  1.00  0.00     0.059 A 
ATOM     67  C   UNL A   1      47.364  34.876  29.784  1.00  0.00     0.059 A 
ATOM     68  F   UNL A   1      47.188  32.687  30.603  1.00  0.00    -0.206 F 
ATOM     69  C   UNL A   1      47.228  35.776  28.727  1.00  0.00     0.060 A 
BRANCH  69  70
ATOM     70  S   UNL A   1      47.689  37.508  28.932  1.00  0.00     0.124 S 
ATOM     71  O   UNL A   1      47.240  37.770  30.295  1.00  0.00    -0.237 OA
ATOM     72  O   UNL A   1      49.135  37.471  28.736  1.00  0.00    -0.237 OA
ATOM     73  O   UNL A   1      46.934  38.188  27.882  1.00  0.00    -0.744 OA
ENDBRANCH  69  70
ENDBRANCH  48  62
BRANCH  49  74
ATOM     74  C   UNL A   1      43.359  23.697  27.013  1.00  0.00     0.058 A 
ATOM     75  C   UNL A   1      43.016  23.253  25.726  1.00  0.00     0.135 A 
ATOM     76  C   UNL A   1      43.248  22.781  28.069  1.00  0.00     0.135 A 
ATOM     77  F   UNL A   1      43.097  24.093  24.683  1.00  0.00    -0.206 F 
ATOM     78  C   UNL A   1      42.561  21.958  25.499  1.00  0.00     0.059 A 
ATOM     79  C   UNL A   1      42.825  21.471  27.862  1.00  0.00     0.059 A 
ATOM     80  F   UNL A   1      43.579  23.150  29.317  1.00  0.00    -0.206 F 
ATOM     81  C   UNL A   1      42.473  21.073  26.574  1.00  0.00     0.060 A 
BRANCH  81  82
ATOM     82  S   UNL A   1      41.926  19.381  26.259  1.00  0.00     0.124 S 
ATOM     83  O   UNL A   1      42.330  18.707  27.487  1.00  0.00    -0.237 OA
ATOM     84  O   UNL A   1      40.490  19.555  26.069  1.00  0.00    -0.237 OA
ATOM     85  O   UNL A   1      42.668  19.006  25.059  1.00  0.00    -0.744 OA
ENDBRANCH  81  82
ENDBRANCH  49  74
BRANCH  61  86
ATOM     86  C   UNL A   1      49.486  26.911  26.083  1.00  0.00     0.058 A 
ATOM     87  C   UNL A   1      49.884  27.020  24.742  1.00  0.00     0.135 A 
ATOM     88  C   UNL A   1      50.410  26.381  26.999  1.00  0.00     0.135 A 
ATOM     89  F   UNL A   1      49.038  27.512  23.823  1.00  0.00    -0.206 F 
ATOM     90  C   UNL A   1      51.141  26.597  24.320  1.00  0.00     0.059 A 
ATOM     91  C   UNL A   1      51.684  25.983  26.605  1.00  0.00     0.059 A 
ATOM     92  F   UNL A   1      50.086  26.264  28.297  1.00  0.00    -0.206 F 
ATOM     93  C   UNL A   1      52.036  26.083  25.261  1.00  0.00     0.060 A 
BRANCH  93  94
ATOM     94  S   UNL A   1      53.676  25.572  24.707  1.00  0.00     0.124 S 
ATOM     95  O   UNL A   1      54.530  26.157  25.735  1.00  0.00    -0.237 OA
ATOM     96  O   UNL A   1      53.571  24.116  24.723  1.00  0.00    -0.237 OA
ATOM     97  O   UNL A   1      53.789  26.171  23.380  1.00  0.00    -0.744 OA
ENDBRANCH  93  94
ENDBRANCH  61  86
ENDBRANCH  35  36
ENDBRANCH  27  30
ENDBRANCH  25  26
ENDBRANCH  24  25
ENDBRANCH   1  24
TORSDOF 17
ENDMDL
MODEL 3
REMARK VINA RESULT:     -10.9      1.183      2.312
REMARK SMILES O=C(Cc1ccccc1Nc1c(Cl)cccc1Cl)NCCCCNC(=O)c1ccc(-c2c3nc(c(-c4c(F)cc(S(=O)(=O)[O-])cc4F)c4ccc([nH]4)c(-c4c(F)cc(S(=O)(=O)[O-])cc4F)c4nc(c(-c5c(F)cc(S(=O)(=O)[O-])cc5F)c5ccc2[nH]5)C=C4)C=C3)cc1
REMARK SMILES IDX 21 1 20 2 19 3 1 4 2 5 3 7 4 8 5 9 9 10 6 11 8 12 7 13 10 14
REMARK SMILES IDX 11 16 12 17 17 18 13 19 14 20 16 21 18 22 15 23 22 24 23 25
REMARK SMILES IDX 24 26 25 27 26 29 27 30 28 31 92 32 29 33 91 34 30 35 31 36
REMARK SMILES IDX 32 37 85 38 33 39 90 40 84 41 86 42 34 43 89 44 83 45 82 46
REMARK SMILES IDX 35 48 69 49 48 50 68 51 49 52 52 53 67 54 87 55 50 56 51 57
REMARK SMILES IDX 66 59 88 60 53 61 36 62 37 63 46 64 38 65 39 66 45 67 47 68
REMARK SMILES IDX 40 69 41 70 42 71 43 72 44 73 70 74 71 75 80 76 72 77 73 78
REMARK SMILES IDX 79 79 81 80 74 81 75 82 76 83 77 84 78 85 54 86 55 87 64 88
REMARK SMILES IDX 56 89 57 90 63 91 65 92 58 93 59 94 60 95 61 96 62 97
REMARK H PARENT 19 6 10 15 24 28 86 47 52 58
REMARK Flexibility Score: inf
ROOT
ATOM      1  C   UNL A   1      34.352  28.738  23.433  1.00  0.00     0.023 C 
ENDROOT
BRANCH   1   2
ATOM      2  C   UNL A   1      33.944  28.232  22.053  1.00  0.00     0.116 C 
BRANCH   2   3
ATOM      3  N   UNL A   1      32.788  27.360  22.102  1.00  0.00    -0.356 N 
ATOM      4  O   UNL A   1      33.960  25.389  21.941  1.00  0.00    -0.275 OA
ATOM      5  C   UNL A   1      32.897  25.985  22.090  1.00  0.00     0.224 C 
ATOM      6  H   UNL A   1      31.892  27.765  22.145  1.00  0.00     0.163 HD
BRANCH   5   7
ATOM      7  C   UNL A   1      31.580  25.256  22.299  1.00  0.00     0.137 C 
BRANCH   7   8
ATOM      8  C   UNL A   1      31.150  25.048  23.745  1.00  0.00    -0.015 A 
ATOM      9  C   UNL A   1      30.202  25.897  24.353  1.00  0.00     0.006 A 
ATOM     10  C   UNL A   1      31.679  23.970  24.497  1.00  0.00     0.042 A 
ATOM     11  C   UNL A   1      29.770  25.688  25.662  1.00  0.00     0.000 A 
ATOM     12  C   UNL A   1      31.242  23.796  25.823  1.00  0.00     0.026 A 
ATOM     13  C   UNL A   1      30.295  24.639  26.399  1.00  0.00     0.002 A 
BRANCH  10  14
ATOM     14  N   UNL A   1      32.584  23.055  23.905  1.00  0.00    -0.353 N 
ATOM     15  H   UNL A   1      32.385  22.817  22.971  1.00  0.00     0.167 HD
BRANCH  14  16
ATOM     16  C   UNL A   1      33.734  22.428  24.451  1.00  0.00     0.076 A 
ATOM     17  C   UNL A   1      33.804  21.018  24.464  1.00  0.00     0.066 A 
ATOM     18  C   UNL A   1      34.868  23.132  24.908  1.00  0.00     0.066 A 
ATOM     19  Cl  UNL A   1      32.446  20.062  23.963  1.00  0.00    -0.082 Cl
ATOM     20  C   UNL A   1      34.959  20.341  24.869  1.00  0.00     0.023 A 
ATOM     21  C   UNL A   1      36.028  22.453  25.306  1.00  0.00     0.023 A 
ATOM     22  Cl  UNL A   1      34.873  24.853  25.107  1.00  0.00    -0.082 Cl
ATOM     23  C   UNL A   1      36.078  21.061  25.276  1.00  0.00     0.003 A 
ENDBRANCH  14  16
ENDBRANCH  10  14
ENDBRANCH   7   8
ENDBRANCH   5   7
ENDBRANCH   2   3
ENDBRANCH   1   2
BRANCH   1  24
ATOM     24  C   UNL A   1      33.415  28.335  24.575  1.00  0.00     0.023 C 
BRANCH  24  25
ATOM     25  C   UNL A   1      33.932  28.626  25.982  1.00  0.00     0.116 C 
BRANCH  25  26
ATOM     26  N   UNL A   1      33.718  30.005  26.386  1.00  0.00    -0.352 N 
ATOM     27  C   UNL A   1      34.393  30.761  27.316  1.00  0.00     0.251 C 
ATOM     28  H   UNL A   1      32.980  30.468  25.926  1.00  0.00     0.163 HD
ATOM     29  O   UNL A   1      33.953  31.863  27.636  1.00  0.00    -0.269 OA
BRANCH  27  30
ATOM     30  C   UNL A   1      35.626  30.243  27.952  1.00  0.00     0.039 A 
ATOM     31  C   UNL A   1      36.835  30.333  27.257  1.00  0.00     0.014 A 
ATOM     32  C   UNL A   1      35.597  29.665  29.225  1.00  0.00     0.014 A 
ATOM     33  C   UNL A   1      38.020  29.912  27.865  1.00  0.00     0.010 A 
ATOM     34  C   UNL A   1      36.789  29.317  29.858  1.00  0.00     0.010 A 
ATOM     35  C   UNL A   1      38.015  29.437  29.188  1.00  0.00    -0.014 A 
BRANCH  35  36
ATOM     36  C   UNL A   1      39.280  29.078  29.886  1.00  0.00     0.031 A 
ATOM     37  C   UNL A   1      39.726  29.849  31.100  1.00  0.00     0.074 A 
ATOM     38  C   UNL A   1      40.060  28.098  29.388  1.00  0.00     0.049 A 
ATOM     39  N   UNL A   1      40.824  29.723  31.801  1.00  0.00    -0.248 NA
ATOM     40  C   UNL A   1      38.833  30.919  31.574  1.00  0.00     0.031 C 
ATOM     41  C   UNL A   1      39.763  27.303  28.193  1.00  0.00     0.029 A 
ATOM     42  N   UNL A   1      41.269  27.605  29.817  1.00  0.00    -0.354 N 
ATOM     43  C   UNL A   1      40.762  30.701  32.787  1.00  0.00     0.074 A 
ATOM     44  C   UNL A   1      39.542  31.446  32.562  1.00  0.00     0.031 C 
ATOM     45  C   UNL A   1      40.746  26.409  28.002  1.00  0.00     0.029 A 
ATOM     46  C   UNL A   1      41.766  26.592  29.029  1.00  0.00     0.049 A 
ATOM     47  H   UNL A   1      41.736  27.944  30.615  1.00  0.00     0.167 HD
ATOM     48  C   UNL A   1      41.631  30.943  33.798  1.00  0.00     0.037 A 
ATOM     49  C   UNL A   1      42.918  25.897  29.115  1.00  0.00     0.037 A 
ATOM     50  C   UNL A   1      42.834  30.185  34.028  1.00  0.00     0.049 A 
ATOM     51  C   UNL A   1      43.874  26.196  30.238  1.00  0.00     0.074 A 
ATOM     52  C   UNL A   1      43.744  30.313  35.062  1.00  0.00     0.029 A 
ATOM     53  N   UNL A   1      43.298  29.164  33.213  1.00  0.00    -0.354 N 
ATOM     54  N   UNL A   1      43.764  27.079  31.202  1.00  0.00    -0.248 NA
ATOM     55  C   UNL A   1      45.110  25.403  30.289  1.00  0.00     0.031 C 
ATOM     56  C   UNL A   1      44.789  29.409  34.840  1.00  0.00     0.029 A 
ATOM     57  C   UNL A   1      44.498  28.674  33.702  1.00  0.00     0.049 A 
ATOM     58  H   UNL A   1      42.843  28.836  32.403  1.00  0.00     0.167 HD
ATOM     59  C   UNL A   1      44.899  26.924  31.992  1.00  0.00     0.074 A 
ATOM     60  C   UNL A   1      45.677  25.856  31.399  1.00  0.00     0.031 C 
ATOM     61  C   UNL A   1      45.262  27.603  33.108  1.00  0.00     0.037 A 
BRANCH  48  62
ATOM     62  C   UNL A   1      41.318  32.082  34.734  1.00  0.00     0.058 A 
ATOM     63  C   UNL A   1      41.819  33.377  34.521  1.00  0.00     0.135 A 
ATOM     64  C   UNL A   1      40.468  31.886  35.835  1.00  0.00     0.135 A 
ATOM     65  F   UNL A   1      42.647  33.621  33.492  1.00  0.00    -0.206 F 
ATOM     66  C   UNL A   1      41.515  34.426  35.381  1.00  0.00     0.059 A 
ATOM     67  C   UNL A   1      40.124  32.928  36.691  1.00  0.00     0.059 A 
ATOM     68  F   UNL A   1      39.958  30.670  36.088  1.00  0.00    -0.206 F 
ATOM     69  C   UNL A   1      40.665  34.193  36.464  1.00  0.00     0.060 A 
BRANCH  69  70
ATOM     70  S   UNL A   1      40.277  35.569  37.566  1.00  0.00     0.124 S 
ATOM     71  O   UNL A   1      39.787  36.568  36.622  1.00  0.00    -0.237 OA
ATOM     72  O   UNL A   1      39.273  34.986  38.450  1.00  0.00    -0.237 OA
ATOM     73  O   UNL A   1      41.559  35.875  38.193  1.00  0.00    -0.744 OA
ENDBRANCH  69  70
ENDBRANCH  48  62
BRANCH  49  74
ATOM     74  C   UNL A   1      43.222  24.833  28.119  1.00  0.00     0.058 A 
ATOM     75  C   UNL A   1      42.883  23.494  28.367  1.00  0.00     0.135 A 
ATOM     76  C   UNL A   1      43.851  25.130  26.900  1.00  0.00     0.135 A 
ATOM     77  F   UNL A   1      42.287  23.157  29.522  1.00  0.00    -0.206 F 
ATOM     78  C   UNL A   1      43.172  22.486  27.454  1.00  0.00     0.059 A 
ATOM     79  C   UNL A   1      44.124  24.144  25.957  1.00  0.00     0.059 A 
ATOM     80  F   UNL A   1      44.183  26.397  26.606  1.00  0.00    -0.206 F 
ATOM     81  C   UNL A   1      43.791  22.822  26.248  1.00  0.00     0.060 A 
BRANCH  81  82
ATOM     82  S   UNL A   1      44.120  21.512  25.050  1.00  0.00     0.124 S 
ATOM     83  O   UNL A   1      43.992  22.229  23.787  1.00  0.00    -0.237 OA
ATOM     84  O   UNL A   1      45.471  21.097  25.415  1.00  0.00    -0.237 OA
ATOM     85  O   UNL A   1      43.075  20.532  25.329  1.00  0.00    -0.744 OA
ENDBRANCH  81  82
ENDBRANCH  49  74
BRANCH  61  86
ATOM     86  C   UNL A   1      46.537  27.189  33.792  1.00  0.00     0.058 A 
ATOM     87  C   UNL A   1      46.564  26.169  34.756  1.00  0.00     0.135 A 
ATOM     88  C   UNL A   1      47.758  27.786  33.437  1.00  0.00     0.135 A 
ATOM     89  F   UNL A   1      45.426  25.569  35.138  1.00  0.00    -0.206 F 
ATOM     90  C   UNL A   1      47.753  25.773  35.363  1.00  0.00     0.059 A 
ATOM     91  C   UNL A   1      48.962  27.383  34.007  1.00  0.00     0.059 A 
ATOM     92  F   UNL A   1      47.792  28.759  32.513  1.00  0.00    -0.206 F 
ATOM     93  C   UNL A   1      48.948  26.385  34.978  1.00  0.00     0.060 A 
BRANCH  93  94
ATOM     94  S   UNL A   1      50.487  25.836  35.747  1.00  0.00     0.124 S 
ATOM     95  O   UNL A   1      51.484  26.497  34.912  1.00  0.00    -0.237 OA
ATOM     96  O   UNL A   1      50.357  26.353  37.106  1.00  0.00    -0.237 OA
ATOM     97  O   UNL A   1      50.429  24.383  35.627  1.00  0.00    -0.744 OA
ENDBRANCH  93  94
ENDBRANCH  61  86
ENDBRANCH  35  36
ENDBRANCH  27  30
ENDBRANCH  25  26
ENDBRANCH  24  25
ENDBRANCH   1  24
TORSDOF 17
ENDMDL
