MODEL 1
REMARK VINA RESULT:     -11.2      0.000      0.000
REMARK SMILES O=C(C[C@H]1C[C@H]2CC[C@@H](C1)N2C(=O)NCCC1CC1)NCCCCNC(=O)c1ccc(-c2c3nc(c(-c4c(F)cc(S(=O)(=O)[O-])cc4F)c4ccc([nH]4)c(-c4c(F)cc(S(=O)(=O)[O-])cc4F)c4nc(c(-c5c(F)cc(S(=O)(=O)[O-])cc5F)c5ccc2[nH]5)C=C4)C=C3)cc1
REMARK SMILES IDX 21 1 20 2 1 3 2 4 3 6 4 7 5 8 10 9 6 10 9 11 7 12 11 13 8 14
REMARK SMILES IDX 12 15 13 16 14 17 15 19 16 20 17 21 18 22 19 23 22 24 23 25
REMARK SMILES IDX 24 26 25 27 26 28 27 30 28 31 29 32 93 33 30 34 92 35 31 36
REMARK SMILES IDX 32 37 33 38 86 39 34 40 91 41 85 42 87 43 35 44 90 45 84 46
REMARK SMILES IDX 83 47 36 49 70 50 49 51 69 52 50 53 53 54 68 55 88 56 51 57
REMARK SMILES IDX 52 58 67 60 89 61 54 62 37 63 38 64 47 65 39 66 40 67 46 68
REMARK SMILES IDX 48 69 41 70 42 71 43 72 44 73 45 74 71 75 72 76 81 77 73 78
REMARK SMILES IDX 74 79 80 80 82 81 75 82 76 83 77 84 78 85 79 86 55 87 56 88
REMARK SMILES IDX 65 89 57 90 58 91 64 92 66 93 59 94 60 95 61 96 62 97 63 98
REMARK H PARENT 20 5 14 18 25 29 87 48 53 59
REMARK Flexibility Score: inf
ROOT
ATOM      1  C   UNL A   1      39.377  21.768  26.015  1.00  0.00     0.116 C 
ENDROOT
BRANCH   1   2
ATOM      2  N   UNL A   1      38.192  22.521  25.648  1.00  0.00    -0.356 N 
ATOM      3  O   UNL A   1      36.975  20.692  25.041  1.00  0.00    -0.275 OA
ATOM      4  C   UNL A   1      37.100  21.916  25.092  1.00  0.00     0.220 C 
ATOM      5  H   UNL A   1      38.175  23.493  25.805  1.00  0.00     0.163 HD
BRANCH   4   6
ATOM      6  C   UNL A   1      36.109  22.803  24.356  1.00  0.00     0.103 C 
BRANCH   6   7
ATOM      7  C   UNL A   1      35.300  23.902  25.077  1.00  0.00     0.002 C 
ATOM      8  C   UNL A   1      34.009  24.377  24.353  1.00  0.00     0.029 C 
ATOM      9  C   UNL A   1      34.942  23.441  26.520  1.00  0.00     0.029 C 
ATOM     10  C   UNL A   1      32.729  23.593  24.706  1.00  0.00     0.087 C 
ATOM     11  C   UNL A   1      33.598  22.689  26.636  1.00  0.00     0.087 C 
ATOM     12  C   UNL A   1      32.852  22.100  24.394  1.00  0.00     0.027 C 
ATOM     13  N   UNL A   1      32.557  23.576  26.153  1.00  0.00    -0.319 N 
ATOM     14  C   UNL A   1      33.456  21.498  25.675  1.00  0.00     0.027 C 
BRANCH  13  15
ATOM     15  C   UNL A   1      31.430  24.085  26.700  1.00  0.00     0.317 C 
ATOM     16  O   UNL A   1      30.609  23.355  27.266  1.00  0.00    -0.249 OA
ATOM     17  N   UNL A   1      31.117  25.388  26.709  1.00  0.00    -0.338 N 
ATOM     18  H   UNL A   1      30.366  25.566  27.321  1.00  0.00     0.165 HD
BRANCH  17  19
ATOM     19  C   UNL A   1      31.570  26.611  26.073  1.00  0.00     0.118 C 
BRANCH  19  20
ATOM     20  C   UNL A   1      31.880  27.699  27.101  1.00  0.00     0.025 C 
BRANCH  20  21
ATOM     21  C   UNL A   1      32.539  28.893  26.467  1.00  0.00    -0.009 C 
ATOM     22  C   UNL A   1      32.140  30.286  26.878  1.00  0.00     0.004 C 
ATOM     23  C   UNL A   1      33.502  29.759  27.236  1.00  0.00     0.004 C 
ENDBRANCH  20  21
ENDBRANCH  19  20
ENDBRANCH  17  19
ENDBRANCH  13  15
ENDBRANCH   6   7
ENDBRANCH   4   6
ENDBRANCH   1   2
BRANCH   1  24
ATOM     24  C   UNL A   1      40.057  22.361  27.250  1.00  0.00     0.023 C 
BRANCH  24  25
ATOM     25  C   UNL A   1      41.502  21.908  27.479  1.00  0.00     0.023 C 
BRANCH  25  26
ATOM     26  C   UNL A   1      42.561  22.992  27.324  1.00  0.00     0.116 C 
BRANCH  26  27
ATOM     27  N   UNL A   1      42.354  23.826  26.153  1.00  0.00    -0.352 N 
ATOM     28  C   UNL A   1      41.968  25.144  26.071  1.00  0.00     0.251 C 
ATOM     29  H   UNL A   1      42.512  23.382  25.289  1.00  0.00     0.163 HD
ATOM     30  O   UNL A   1      41.726  25.636  24.976  1.00  0.00    -0.269 OA
BRANCH  28  31
ATOM     31  C   UNL A   1      41.814  25.953  27.302  1.00  0.00     0.039 A 
ATOM     32  C   UNL A   1      42.813  26.875  27.625  1.00  0.00     0.014 A 
ATOM     33  C   UNL A   1      40.698  25.811  28.132  1.00  0.00     0.014 A 
ATOM     34  C   UNL A   1      42.659  27.701  28.741  1.00  0.00     0.010 A 
ATOM     35  C   UNL A   1      40.510  26.689  29.198  1.00  0.00     0.010 A 
ATOM     36  C   UNL A   1      41.488  27.645  29.514  1.00  0.00    -0.014 A 
BRANCH  36  37
ATOM     37  C   UNL A   1      41.266  28.584  30.646  1.00  0.00     0.031 A 
ATOM     38  C   UNL A   1      42.092  28.475  31.900  1.00  0.00     0.074 A 
ATOM     39  C   UNL A   1      40.278  29.498  30.568  1.00  0.00     0.049 A 
ATOM     40  N   UNL A   1      41.999  29.157  33.012  1.00  0.00    -0.248 NA
ATOM     41  C   UNL A   1      43.146  27.446  31.914  1.00  0.00     0.031 C 
ATOM     42  C   UNL A   1      39.377  29.674  29.427  1.00  0.00     0.029 A 
ATOM     43  N   UNL A   1      39.857  30.444  31.470  1.00  0.00    -0.354 N 
ATOM     44  C   UNL A   1      42.972  28.637  33.859  1.00  0.00     0.074 A 
ATOM     45  C   UNL A   1      43.605  27.546  33.153  1.00  0.00     0.031 C 
ATOM     46  C   UNL A   1      38.524  30.677  29.688  1.00  0.00     0.029 A 
ATOM     47  C   UNL A   1      38.786  31.188  31.031  1.00  0.00     0.049 A 
ATOM     48  H   UNL A   1      40.280  30.577  32.348  1.00  0.00     0.167 HD
ATOM     49  C   UNL A   1      43.322  29.049  35.102  1.00  0.00     0.037 A 
ATOM     50  C   UNL A   1      38.084  32.163  31.642  1.00  0.00     0.037 A 
ATOM     51  C   UNL A   1      42.697  30.147  35.794  1.00  0.00     0.049 A 
ATOM     52  C   UNL A   1      38.480  32.591  33.030  1.00  0.00     0.074 A 
ATOM     53  C   UNL A   1      43.012  30.672  37.036  1.00  0.00     0.029 A 
ATOM     54  N   UNL A   1      41.627  30.887  35.309  1.00  0.00    -0.354 N 
ATOM     55  N   UNL A   1      39.445  32.131  33.791  1.00  0.00    -0.248 NA
ATOM     56  C   UNL A   1      37.699  33.677  33.640  1.00  0.00     0.031 C 
ATOM     57  C   UNL A   1      42.101  31.693  37.324  1.00  0.00     0.029 A 
ATOM     58  C   UNL A   1      41.256  31.847  36.236  1.00  0.00     0.049 A 
ATOM     59  H   UNL A   1      41.196  30.748  34.435  1.00  0.00     0.167 HD
ATOM     60  C   UNL A   1      39.405  32.889  34.957  1.00  0.00     0.074 A 
ATOM     61  C   UNL A   1      38.330  33.847  34.794  1.00  0.00     0.031 C 
ATOM     62  C   UNL A   1      40.188  32.801  36.060  1.00  0.00     0.037 A 
BRANCH  49  63
ATOM     63  C   UNL A   1      44.436  28.310  35.795  1.00  0.00     0.058 A 
ATOM     64  C   UNL A   1      44.182  27.233  36.659  1.00  0.00     0.135 A 
ATOM     65  C   UNL A   1      45.777  28.658  35.565  1.00  0.00     0.135 A 
ATOM     66  F   UNL A   1      42.919  26.865  36.928  1.00  0.00    -0.206 F 
ATOM     67  C   UNL A   1      45.213  26.547  37.293  1.00  0.00     0.059 A 
ATOM     68  C   UNL A   1      46.827  27.967  36.163  1.00  0.00     0.059 A 
ATOM     69  F   UNL A   1      46.081  29.679  34.748  1.00  0.00    -0.206 F 
ATOM     70  C   UNL A   1      46.534  26.922  37.038  1.00  0.00     0.060 A 
BRANCH  70  71
ATOM     71  S   UNL A   1      47.858  26.018  37.867  1.00  0.00     0.124 S 
ATOM     72  O   UNL A   1      47.342  25.930  39.230  1.00  0.00    -0.237 OA
ATOM     73  O   UNL A   1      47.896  24.765  37.121  1.00  0.00    -0.237 OA
ATOM     74  O   UNL A   1      49.022  26.883  37.693  1.00  0.00    -0.744 OA
ENDBRANCH  70  71
ENDBRANCH  49  63
BRANCH  50  75
ATOM     75  C   UNL A   1      36.941  32.808  30.942  1.00  0.00     0.058 A 
ATOM     76  C   UNL A   1      37.150  33.826  29.999  1.00  0.00     0.135 A 
ATOM     77  C   UNL A   1      35.617  32.412  31.189  1.00  0.00     0.135 A 
ATOM     78  F   UNL A   1      38.396  34.246  29.732  1.00  0.00    -0.206 F 
ATOM     79  C   UNL A   1      36.089  34.442  29.343  1.00  0.00     0.059 A 
ATOM     80  C   UNL A   1      34.541  32.992  30.524  1.00  0.00     0.059 A 
ATOM     81  F   UNL A   1      35.363  31.430  32.069  1.00  0.00    -0.206 F 
ATOM     82  C   UNL A   1      34.787  34.015  29.609  1.00  0.00     0.060 A 
BRANCH  82  83
ATOM     83  S   UNL A   1      33.422  34.790  28.717  1.00  0.00     0.124 S 
ATOM     84  O   UNL A   1      32.484  35.069  29.798  1.00  0.00    -0.237 OA
ATOM     85  O   UNL A   1      34.070  35.952  28.117  1.00  0.00    -0.237 OA
ATOM     86  O   UNL A   1      33.008  33.755  27.773  1.00  0.00    -0.744 OA
ENDBRANCH  82  83
ENDBRANCH  50  75
BRANCH  62  87
ATOM     87  C   UNL A   1      39.942  33.789  37.169  1.00  0.00     0.058 A 
ATOM     88  C   UNL A   1      40.565  35.046  37.195  1.00  0.00     0.135 A 
ATOM     89  C   UNL A   1      39.029  33.490  38.194  1.00  0.00     0.135 A 
ATOM     90  F   UNL A   1      41.451  35.381  36.244  1.00  0.00    -0.206 F 
ATOM     91  C   UNL A   1      40.309  35.964  38.209  1.00  0.00     0.059 A 
ATOM     92  C   UNL A   1      38.735  34.404  39.201  1.00  0.00     0.059 A 
ATOM     93  F   UNL A   1      38.398  32.305  38.214  1.00  0.00    -0.206 F 
ATOM     94  C   UNL A   1      39.389  35.635  39.207  1.00  0.00     0.060 A 
BRANCH  94  95
ATOM     95  S   UNL A   1      39.040  36.848  40.497  1.00  0.00     0.124 S 
ATOM     96  O   UNL A   1      38.126  36.107  41.360  1.00  0.00    -0.237 OA
ATOM     97  O   UNL A   1      40.365  37.105  41.050  1.00  0.00    -0.237 OA
ATOM     98  O   UNL A   1      38.446  37.963  39.764  1.00  0.00    -0.744 OA
ENDBRANCH  94  95
ENDBRANCH  62  87
ENDBRANCH  36  37
ENDBRANCH  28  31
ENDBRANCH  26  27
ENDBRANCH  25  26
ENDBRANCH  24  25
ENDBRANCH   1  24
TORSDOF 19
ENDMDL
MODEL 2
REMARK VINA RESULT:     -11.1      6.309     12.053
REMARK SMILES O=C(C[C@H]1C[C@H]2CC[C@@H](C1)N2C(=O)NCCC1CC1)NCCCCNC(=O)c1ccc(-c2c3nc(c(-c4c(F)cc(S(=O)(=O)[O-])cc4F)c4ccc([nH]4)c(-c4c(F)cc(S(=O)(=O)[O-])cc4F)c4nc(c(-c5c(F)cc(S(=O)(=O)[O-])cc5F)c5ccc2[nH]5)C=C4)C=C3)cc1
REMARK SMILES IDX 21 1 20 2 1 3 2 4 3 6 4 7 5 8 10 9 6 10 9 11 7 12 11 13 8 14
REMARK SMILES IDX 12 15 13 16 14 17 15 19 16 20 17 21 18 22 19 23 22 24 23 25
REMARK SMILES IDX 24 26 25 27 26 28 27 30 28 31 29 32 93 33 30 34 92 35 31 36
REMARK SMILES IDX 32 37 33 38 86 39 34 40 91 41 85 42 87 43 35 44 90 45 84 46
REMARK SMILES IDX 83 47 36 49 70 50 49 51 69 52 50 53 53 54 68 55 88 56 51 57
REMARK SMILES IDX 52 58 67 60 89 61 54 62 37 63 38 64 47 65 39 66 40 67 46 68
REMARK SMILES IDX 48 69 41 70 42 71 43 72 44 73 45 74 71 75 72 76 81 77 73 78
REMARK SMILES IDX 74 79 80 80 82 81 75 82 76 83 77 84 78 85 79 86 55 87 56 88
REMARK SMILES IDX 65 89 57 90 58 91 64 92 66 93 59 94 60 95 61 96 62 97 63 98
REMARK H PARENT 20 5 14 18 25 29 87 48 53 59
REMARK Flexibility Score: inf
ROOT
ATOM      1  C   UNL A   1      35.147  31.953  27.753  1.00  0.00     0.116 C 
ENDROOT
BRANCH   1   2
ATOM      2  N   UNL A   1      34.117  30.946  27.926  1.00  0.00    -0.356 N 
ATOM      3  O   UNL A   1      35.439  29.200  27.295  1.00  0.00    -0.275 OA
ATOM      4  C   UNL A   1      34.326  29.638  27.586  1.00  0.00     0.220 C 
ATOM      5  H   UNL A   1      33.246  31.212  28.299  1.00  0.00     0.163 HD
BRANCH   4   6
ATOM      6  C   UNL A   1      33.099  28.763  27.391  1.00  0.00     0.103 C 
BRANCH   6   7
ATOM      7  C   UNL A   1      32.064  29.040  26.281  1.00  0.00     0.002 C 
ATOM      8  C   UNL A   1      32.643  29.498  24.913  1.00  0.00     0.029 C 
ATOM      9  C   UNL A   1      31.164  27.787  26.066  1.00  0.00     0.029 C 
ATOM     10  C   UNL A   1      32.983  28.362  23.927  1.00  0.00     0.087 C 
ATOM     11  C   UNL A   1      31.697  26.792  25.011  1.00  0.00     0.087 C 
ATOM     12  C   UNL A   1      34.004  27.376  24.499  1.00  0.00     0.027 C 
ATOM     13  N   UNL A   1      31.816  27.507  23.755  1.00  0.00    -0.319 N 
ATOM     14  C   UNL A   1      33.146  26.339  25.245  1.00  0.00     0.027 C 
BRANCH  13  15
ATOM     15  C   UNL A   1      31.290  27.331  22.521  1.00  0.00     0.317 C 
ATOM     16  O   UNL A   1      30.280  27.947  22.164  1.00  0.00    -0.249 OA
ATOM     17  N   UNL A   1      31.810  26.524  21.587  1.00  0.00    -0.338 N 
ATOM     18  H   UNL A   1      31.398  26.690  20.708  1.00  0.00     0.165 HD
BRANCH  17  19
ATOM     19  C   UNL A   1      32.809  25.475  21.503  1.00  0.00     0.118 C 
BRANCH  19  20
ATOM     20  C   UNL A   1      32.435  24.270  22.367  1.00  0.00     0.025 C 
BRANCH  20  21
ATOM     21  C   UNL A   1      33.458  23.172  22.265  1.00  0.00    -0.009 C 
ATOM     22  C   UNL A   1      34.725  23.241  23.076  1.00  0.00     0.004 C 
ATOM     23  C   UNL A   1      33.686  22.203  23.396  1.00  0.00     0.004 C 
ENDBRANCH  20  21
ENDBRANCH  19  20
ENDBRANCH  17  19
ENDBRANCH  13  15
ENDBRANCH   6   7
ENDBRANCH   4   6
ENDBRANCH   1   2
BRANCH   1  24
ATOM     24  C   UNL A   1      35.069  33.027  28.839  1.00  0.00     0.023 C 
BRANCH  24  25
ATOM     25  C   UNL A   1      36.375  33.782  29.104  1.00  0.00     0.023 C 
BRANCH  25  26
ATOM     26  C   UNL A   1      37.132  33.359  30.357  1.00  0.00     0.116 C 
BRANCH  26  27
ATOM     27  N   UNL A   1      36.428  32.355  31.135  1.00  0.00    -0.352 N 
ATOM     28  C   UNL A   1      36.742  31.033  31.350  1.00  0.00     0.251 C 
ATOM     29  H   UNL A   1      35.603  32.666  31.573  1.00  0.00     0.163 HD
ATOM     30  O   UNL A   1      35.948  30.311  31.939  1.00  0.00    -0.269 OA
BRANCH  28  31
ATOM     31  C   UNL A   1      38.018  30.478  30.841  1.00  0.00     0.039 A 
ATOM     32  C   UNL A   1      38.192  30.364  29.460  1.00  0.00     0.014 A 
ATOM     33  C   UNL A   1      39.035  30.076  31.710  1.00  0.00     0.014 A 
ATOM     34  C   UNL A   1      39.412  29.911  28.950  1.00  0.00     0.010 A 
ATOM     35  C   UNL A   1      40.276  29.700  31.199  1.00  0.00     0.010 A 
ATOM     36  C   UNL A   1      40.479  29.614  29.813  1.00  0.00    -0.014 A 
BRANCH  36  37
ATOM     37  C   UNL A   1      41.813  29.226  29.284  1.00  0.00     0.031 A 
ATOM     38  C   UNL A   1      42.912  30.248  29.162  1.00  0.00     0.074 A 
ATOM     39  C   UNL A   1      42.018  27.964  28.855  1.00  0.00     0.049 A 
ATOM     40  N   UNL A   1      44.114  30.114  28.663  1.00  0.00    -0.248 NA
ATOM     41  C   UNL A   1      42.610  31.607  29.642  1.00  0.00     0.031 C 
ATOM     42  C   UNL A   1      41.020  26.892  28.875  1.00  0.00     0.029 A 
ATOM     43  N   UNL A   1      43.128  27.370  28.307  1.00  0.00    -0.354 N 
ATOM     44  C   UNL A   1      44.708  31.367  28.761  1.00  0.00     0.074 A 
ATOM     45  C   UNL A   1      43.715  32.261  29.314  1.00  0.00     0.031 C 
ATOM     46  C   UNL A   1      41.567  25.769  28.382  1.00  0.00     0.029 A 
ATOM     47  C   UNL A   1      42.939  26.049  27.969  1.00  0.00     0.049 A 
ATOM     48  H   UNL A   1      43.979  27.844  28.168  1.00  0.00     0.167 HD
ATOM     49  C   UNL A   1      45.973  31.732  28.442  1.00  0.00     0.037 A 
ATOM     50  C   UNL A   1      43.770  25.166  27.383  1.00  0.00     0.037 A 
ATOM     51  C   UNL A   1      46.962  30.833  27.905  1.00  0.00     0.049 A 
ATOM     52  C   UNL A   1      45.166  25.600  27.021  1.00  0.00     0.074 A 
ATOM     53  C   UNL A   1      48.285  31.096  27.596  1.00  0.00     0.029 A 
ATOM     54  N   UNL A   1      46.738  29.499  27.594  1.00  0.00    -0.354 N 
ATOM     55  N   UNL A   1      45.731  26.773  27.180  1.00  0.00    -0.248 NA
ATOM     56  C   UNL A   1      46.040  24.589  26.410  1.00  0.00     0.031 C 
ATOM     57  C   UNL A   1      48.846  29.936  27.049  1.00  0.00     0.029 A 
ATOM     58  C   UNL A   1      47.890  28.933  27.074  1.00  0.00     0.049 A 
ATOM     59  H   UNL A   1      45.884  29.025  27.723  1.00  0.00     0.167 HD
ATOM     60  C   UNL A   1      47.035  26.633  26.714  1.00  0.00     0.074 A 
ATOM     61  C   UNL A   1      47.177  25.258  26.282  1.00  0.00     0.031 C 
ATOM     62  C   UNL A   1      48.023  27.559  26.653  1.00  0.00     0.037 A 
BRANCH  49  63
ATOM     63  C   UNL A   1      46.364  33.169  28.669  1.00  0.00     0.058 A 
ATOM     64  C   UNL A   1      46.209  34.143  27.669  1.00  0.00     0.135 A 
ATOM     65  C   UNL A   1      46.865  33.587  29.913  1.00  0.00     0.135 A 
ATOM     66  F   UNL A   1      45.748  33.798  26.456  1.00  0.00    -0.206 F 
ATOM     67  C   UNL A   1      46.564  35.470  27.882  1.00  0.00     0.059 A 
ATOM     68  C   UNL A   1      47.197  34.916  30.160  1.00  0.00     0.059 A 
ATOM     69  F   UNL A   1      47.034  32.700  30.907  1.00  0.00    -0.206 F 
ATOM     70  C   UNL A   1      47.057  35.848  29.132  1.00  0.00     0.060 A 
BRANCH  70  71
ATOM     71  S   UNL A   1      47.509  37.576  29.392  1.00  0.00     0.124 S 
ATOM     72  O   UNL A   1      46.204  38.229  29.332  1.00  0.00    -0.237 OA
ATOM     73  O   UNL A   1      48.139  37.540  30.707  1.00  0.00    -0.237 OA
ATOM     74  O   UNL A   1      48.406  37.866  28.277  1.00  0.00    -0.744 OA
ENDBRANCH  70  71
ENDBRANCH  49  63
BRANCH  50  75
ATOM     75  C   UNL A   1      43.308  23.778  27.110  1.00  0.00     0.058 A 
ATOM     76  C   UNL A   1      43.276  22.812  28.127  1.00  0.00     0.135 A 
ATOM     77  C   UNL A   1      42.877  23.391  25.831  1.00  0.00     0.135 A 
ATOM     78  F   UNL A   1      43.684  23.128  29.365  1.00  0.00    -0.206 F 
ATOM     79  C   UNL A   1      42.853  21.509  27.883  1.00  0.00     0.059 A 
ATOM     80  C   UNL A   1      42.421  22.103  25.569  1.00  0.00     0.059 A 
ATOM     81  F   UNL A   1      42.871  24.282  24.827  1.00  0.00    -0.206 F 
ATOM     82  C   UNL A   1      42.423  21.165  26.600  1.00  0.00     0.060 A 
BRANCH  82  83
ATOM     83  S   UNL A   1      41.832  19.484  26.307  1.00  0.00     0.124 S 
ATOM     84  O   UNL A   1      42.610  19.099  25.135  1.00  0.00    -0.237 OA
ATOM     85  O   UNL A   1      42.184  18.814  27.555  1.00  0.00    -0.237 OA
ATOM     86  O   UNL A   1      40.401  19.665  26.083  1.00  0.00    -0.744 OA
ENDBRANCH  82  83
ENDBRANCH  50  75
BRANCH  62  87
ATOM     87  C   UNL A   1      49.364  27.113  26.133  1.00  0.00     0.058 A 
ATOM     88  C   UNL A   1      50.302  26.470  26.954  1.00  0.00     0.135 A 
ATOM     89  C   UNL A   1      49.691  27.288  24.777  1.00  0.00     0.135 A 
ATOM     90  F   UNL A   1      50.044  26.284  28.258  1.00  0.00    -0.206 F 
ATOM     91  C   UNL A   1      51.527  26.036  26.457  1.00  0.00     0.059 A 
ATOM     92  C   UNL A   1      50.897  26.834  24.252  1.00  0.00     0.059 A 
ATOM     93  F   UNL A   1      48.827  27.889  23.944  1.00  0.00    -0.206 F 
ATOM     94  C   UNL A   1      51.815  26.219  25.103  1.00  0.00     0.060 A 
BRANCH  94  95
ATOM     95  S   UNL A   1      53.392  25.619  24.464  1.00  0.00     0.124 S 
ATOM     96  O   UNL A   1      54.328  26.580  25.040  1.00  0.00    -0.237 OA
ATOM     97  O   UNL A   1      53.456  24.267  25.009  1.00  0.00    -0.237 OA
ATOM     98  O   UNL A   1      53.225  25.697  23.015  1.00  0.00    -0.744 OA
ENDBRANCH  94  95
ENDBRANCH  62  87
ENDBRANCH  36  37
ENDBRANCH  28  31
ENDBRANCH  26  27
ENDBRANCH  25  26
ENDBRANCH  24  25
ENDBRANCH   1  24
TORSDOF 19
ENDMDL
MODEL 3
REMARK VINA RESULT:     -11.0      1.474      2.320
REMARK SMILES O=C(C[C@H]1C[C@H]2CC[C@@H](C1)N2C(=O)NCCC1CC1)NCCCCNC(=O)c1ccc(-c2c3nc(c(-c4c(F)cc(S(=O)(=O)[O-])cc4F)c4ccc([nH]4)c(-c4c(F)cc(S(=O)(=O)[O-])cc4F)c4nc(c(-c5c(F)cc(S(=O)(=O)[O-])cc5F)c5ccc2[nH]5)C=C4)C=C3)cc1
REMARK SMILES IDX 21 1 20 2 1 3 2 4 3 6 4 7 5 8 10 9 6 10 9 11 7 12 11 13 8 14
REMARK SMILES IDX 12 15 13 16 14 17 15 19 16 20 17 21 18 22 19 23 22 24 23 25
REMARK SMILES IDX 24 26 25 27 26 28 27 30 28 31 29 32 93 33 30 34 92 35 31 36
REMARK SMILES IDX 32 37 33 38 86 39 34 40 91 41 85 42 87 43 35 44 90 45 84 46
REMARK SMILES IDX 83 47 36 49 70 50 49 51 69 52 50 53 53 54 68 55 88 56 51 57
REMARK SMILES IDX 52 58 67 60 89 61 54 62 37 63 38 64 47 65 39 66 40 67 46 68
REMARK SMILES IDX 48 69 41 70 42 71 43 72 44 73 45 74 71 75 72 76 81 77 73 78
REMARK SMILES IDX 74 79 80 80 82 81 75 82 76 83 77 84 78 85 79 86 55 87 56 88
REMARK SMILES IDX 65 89 57 90 58 91 64 92 66 93 59 94 60 95 61 96 62 97 63 98
REMARK H PARENT 20 5 14 18 25 29 87 48 53 59
REMARK Flexibility Score: inf
ROOT
ATOM      1  C   UNL A   1      35.290  22.240  25.954  1.00  0.00     0.116 C 
ENDROOT
BRANCH   1   2
ATOM      2  N   UNL A   1      33.874  22.536  25.848  1.00  0.00    -0.356 N 
ATOM      3  O   UNL A   1      33.518  21.164  24.063  1.00  0.00    -0.275 OA
ATOM      4  C   UNL A   1      33.109  22.035  24.832  1.00  0.00     0.220 C 
ATOM      5  H   UNL A   1      33.453  23.112  26.526  1.00  0.00     0.163 HD
BRANCH   4   6
ATOM      6  C   UNL A   1      31.783  22.722  24.551  1.00  0.00     0.103 C 
BRANCH   6   7
ATOM      7  C   UNL A   1      31.601  23.700  23.370  1.00  0.00     0.002 C 
ATOM      8  C   UNL A   1      30.332  24.595  23.422  1.00  0.00     0.029 C 
ATOM      9  C   UNL A   1      32.863  24.602  23.225  1.00  0.00     0.029 C 
ATOM     10  C   UNL A   1      30.505  25.943  24.149  1.00  0.00     0.087 C 
ATOM     11  C   UNL A   1      32.803  25.918  24.033  1.00  0.00     0.087 C 
ATOM     12  C   UNL A   1      30.948  25.771  25.604  1.00  0.00     0.027 C 
ATOM     13  N   UNL A   1      31.640  26.657  23.580  1.00  0.00    -0.319 N 
ATOM     14  C   UNL A   1      32.484  25.729  25.524  1.00  0.00     0.027 C 
BRANCH  13  15
ATOM     15  C   UNL A   1      31.460  27.886  23.045  1.00  0.00     0.317 C 
ATOM     16  O   UNL A   1      30.818  28.039  22.000  1.00  0.00    -0.249 OA
ATOM     17  N   UNL A   1      31.915  29.021  23.591  1.00  0.00    -0.338 N 
ATOM     18  H   UNL A   1      31.512  29.808  23.158  1.00  0.00     0.165 HD
BRANCH  17  19
ATOM     19  C   UNL A   1      32.834  29.420  24.641  1.00  0.00     0.118 C 
BRANCH  19  20
ATOM     20  C   UNL A   1      32.111  29.634  25.972  1.00  0.00     0.025 C 
BRANCH  20  21
ATOM     21  C   UNL A   1      33.045  29.488  27.142  1.00  0.00    -0.009 C 
ATOM     22  C   UNL A   1      34.526  29.340  26.916  1.00  0.00     0.004 C 
ATOM     23  C   UNL A   1      33.985  30.596  27.540  1.00  0.00     0.004 C 
ENDBRANCH  20  21
ENDBRANCH  19  20
ENDBRANCH  17  19
ENDBRANCH  13  15
ENDBRANCH   6   7
ENDBRANCH   4   6
ENDBRANCH   1   2
BRANCH   1  24
ATOM     24  C   UNL A   1      36.126  23.519  26.020  1.00  0.00     0.023 C 
BRANCH  24  25
ATOM     25  C   UNL A   1      37.609  23.346  25.679  1.00  0.00     0.023 C 
BRANCH  25  26
ATOM     26  C   UNL A   1      38.586  23.900  26.708  1.00  0.00     0.116 C 
BRANCH  26  27
ATOM     27  N   UNL A   1      39.970  23.843  26.267  1.00  0.00    -0.352 N 
ATOM     28  C   UNL A   1      41.020  24.682  26.561  1.00  0.00     0.251 C 
ATOM     29  H   UNL A   1      40.188  23.093  25.668  1.00  0.00     0.163 HD
ATOM     30  O   UNL A   1      42.090  24.535  25.986  1.00  0.00    -0.269 OA
BRANCH  28  31
ATOM     31  C   UNL A   1      40.846  25.777  27.543  1.00  0.00     0.039 A 
ATOM     32  C   UNL A   1      39.772  25.709  28.435  1.00  0.00     0.014 A 
ATOM     33  C   UNL A   1      41.729  26.859  27.592  1.00  0.00     0.014 A 
ATOM     34  C   UNL A   1      39.625  26.691  29.418  1.00  0.00     0.010 A 
ATOM     35  C   UNL A   1      41.625  27.793  28.621  1.00  0.00     0.010 A 
ATOM     36  C   UNL A   1      40.573  27.719  29.547  1.00  0.00    -0.014 A 
BRANCH  36  37
ATOM     37  C   UNL A   1      40.485  28.715  30.647  1.00  0.00     0.031 A 
ATOM     38  C   UNL A   1      41.362  28.585  31.864  1.00  0.00     0.074 A 
ATOM     39  C   UNL A   1      39.571  29.704  30.580  1.00  0.00     0.049 A 
ATOM     40  N   UNL A   1      41.381  29.313  32.951  1.00  0.00    -0.248 NA
ATOM     41  C   UNL A   1      42.328  27.474  31.871  1.00  0.00     0.031 C 
ATOM     42  C   UNL A   1      38.630  29.912  29.476  1.00  0.00     0.029 A 
ATOM     43  N   UNL A   1      39.274  30.714  31.461  1.00  0.00    -0.354 N 
ATOM     44  C   UNL A   1      42.351  28.747  33.771  1.00  0.00     0.074 A 
ATOM     45  C   UNL A   1      42.857  27.581  33.081  1.00  0.00     0.031 C 
ATOM     46  C   UNL A   1      37.875  30.990  29.736  1.00  0.00     0.029 A 
ATOM     47  C   UNL A   1      38.245  31.528  31.043  1.00  0.00     0.049 A 
ATOM     48  H   UNL A   1      39.751  30.845  32.311  1.00  0.00     0.167 HD
ATOM     49  C   UNL A   1      42.795  29.174  34.978  1.00  0.00     0.037 A 
ATOM     50  C   UNL A   1      37.656  32.579  31.646  1.00  0.00     0.037 A 
ATOM     51  C   UNL A   1      42.296  30.345  35.654  1.00  0.00     0.049 A 
ATOM     52  C   UNL A   1      38.156  33.025  32.995  1.00  0.00     0.074 A 
ATOM     53  C   UNL A   1      42.716  30.888  36.855  1.00  0.00     0.029 A 
ATOM     54  N   UNL A   1      41.267  31.152  35.190  1.00  0.00    -0.354 N 
ATOM     55  N   UNL A   1      39.117  32.515  33.727  1.00  0.00    -0.248 NA
ATOM     56  C   UNL A   1      37.497  34.193  33.595  1.00  0.00     0.031 C 
ATOM     57  C   UNL A   1      41.906  31.991  37.144  1.00  0.00     0.029 A 
ATOM     58  C   UNL A   1      41.021  32.173  36.093  1.00  0.00     0.049 A 
ATOM     59  H   UNL A   1      40.782  31.018  34.344  1.00  0.00     0.167 HD
ATOM     60  C   UNL A   1      39.198  33.317  34.862  1.00  0.00     0.074 A 
ATOM     61  C   UNL A   1      38.197  34.353  34.710  1.00  0.00     0.031 C 
ATOM     62  C   UNL A   1      40.027  33.205  35.929  1.00  0.00     0.037 A 
BRANCH  49  63
ATOM     63  C   UNL A   1      43.880  28.372  35.647  1.00  0.00     0.058 A 
ATOM     64  C   UNL A   1      43.583  27.329  36.538  1.00  0.00     0.135 A 
ATOM     65  C   UNL A   1      45.233  28.625  35.366  1.00  0.00     0.135 A 
ATOM     66  F   UNL A   1      42.309  27.052  36.855  1.00  0.00    -0.206 F 
ATOM     67  C   UNL A   1      44.587  26.585  37.150  1.00  0.00     0.059 A 
ATOM     68  C   UNL A   1      46.253  27.873  35.942  1.00  0.00     0.059 A 
ATOM     69  F   UNL A   1      45.577  29.610  34.521  1.00  0.00    -0.206 F 
ATOM     70  C   UNL A   1      45.920  26.864  36.845  1.00  0.00     0.060 A 
BRANCH  70  71
ATOM     71  S   UNL A   1      47.208  25.886  37.645  1.00  0.00     0.124 S 
ATOM     72  O   UNL A   1      47.504  26.700  38.820  1.00  0.00    -0.237 OA
ATOM     73  O   UNL A   1      46.526  24.623  37.905  1.00  0.00    -0.237 OA
ATOM     74  O   UNL A   1      48.267  25.829  36.641  1.00  0.00    -0.744 OA
ENDBRANCH  70  71
ENDBRANCH  49  63
BRANCH  50  75
ATOM     75  C   UNL A   1      36.535  33.290  30.975  1.00  0.00     0.058 A 
ATOM     76  C   UNL A   1      36.764  34.127  29.873  1.00  0.00     0.135 A 
ATOM     77  C   UNL A   1      35.209  33.137  31.412  1.00  0.00     0.135 A 
ATOM     78  F   UNL A   1      38.013  34.312  29.420  1.00  0.00    -0.206 F 
ATOM     79  C   UNL A   1      35.725  34.803  29.241  1.00  0.00     0.059 A 
ATOM     80  C   UNL A   1      34.150  33.779  30.779  1.00  0.00     0.059 A 
ATOM     81  F   UNL A   1      34.933  32.334  32.451  1.00  0.00    -0.206 F 
ATOM     82  C   UNL A   1      34.419  34.619  29.699  1.00  0.00     0.060 A 
BRANCH  82  83
ATOM     83  S   UNL A   1      33.074  35.464  28.841  1.00  0.00     0.124 S 
ATOM     84  O   UNL A   1      33.798  36.481  28.088  1.00  0.00    -0.237 OA
ATOM     85  O   UNL A   1      32.485  34.384  28.056  1.00  0.00    -0.237 OA
ATOM     86  O   UNL A   1      32.240  35.962  29.932  1.00  0.00    -0.744 OA
ENDBRANCH  82  83
ENDBRANCH  50  75
BRANCH  62  87
ATOM     87  C   UNL A   1      39.918  34.251  37.007  1.00  0.00     0.058 A 
ATOM     88  C   UNL A   1      40.581  35.484  36.914  1.00  0.00     0.135 A 
ATOM     89  C   UNL A   1      39.095  34.032  38.125  1.00  0.00     0.135 A 
ATOM     90  F   UNL A   1      41.384  35.743  35.870  1.00  0.00    -0.206 F 
ATOM     91  C   UNL A   1      40.451  36.455  37.902  1.00  0.00     0.059 A 
ATOM     92  C   UNL A   1      38.927  35.001  39.109  1.00  0.00     0.059 A 
ATOM     93  F   UNL A   1      38.431  32.873  38.260  1.00  0.00    -0.206 F 
ATOM     94  C   UNL A   1      39.618  36.206  38.995  1.00  0.00     0.060 A 
BRANCH  94  95
ATOM     95  S   UNL A   1      39.431  37.488  40.251  1.00  0.00     0.124 S 
ATOM     96  O   UNL A   1      38.540  38.430  39.580  1.00  0.00    -0.237 OA
ATOM     97  O   UNL A   1      38.848  36.750  41.366  1.00  0.00    -0.237 OA
ATOM     98  O   UNL A   1      40.797  37.959  40.464  1.00  0.00    -0.744 OA
ENDBRANCH  94  95
ENDBRANCH  62  87
ENDBRANCH  36  37
ENDBRANCH  28  31
ENDBRANCH  26  27
ENDBRANCH  25  26
ENDBRANCH  24  25
ENDBRANCH   1  24
TORSDOF 19
ENDMDL
