MODEL 1
REMARK VINA RESULT:     -12.2      0.000      0.000
REMARK SMILES O=C(NCCCCNC(=O)[C@H]1CCCN1S(=O)(=O)c1ccccc1Cl)c1ccc(-c2c3nc(c(-c4c(F)cc(S(=O)(=O)[O-])cc4F)c4ccc([nH]4)c(-c4c(F)cc(S(=O)(=O)[O-])cc4F)c4nc(c(-c5c(F)cc(S(=O)(=O)[O-])cc5F)c5ccc2[nH]5)C=C4)C=C3)cc1
REMARK SMILES IDX 5 1 4 2 3 3 1 4 2 5 26 7 27 8 91 9 28 10 90 11 29 12 30 13
REMARK SMILES IDX 31 14 84 15 32 16 89 17 83 18 85 19 33 20 88 21 82 22 81 23
REMARK SMILES IDX 34 25 68 26 47 27 67 28 48 29 51 30 66 31 86 32 49 33 50 34
REMARK SMILES IDX 65 36 87 37 52 38 35 39 36 40 45 41 37 42 38 43 44 44 46 45
REMARK SMILES IDX 39 46 40 47 41 48 42 49 43 50 69 51 70 52 79 53 71 54 72 55
REMARK SMILES IDX 78 56 80 57 73 58 74 59 75 60 76 61 77 62 53 63 54 64 63 65
REMARK SMILES IDX 55 66 56 67 62 68 64 69 57 70 58 71 59 72 60 73 61 74 6 75
REMARK SMILES IDX 7 76 8 77 9 78 10 80 11 81 12 82 15 83 13 84 14 85 16 86
REMARK SMILES IDX 17 87 18 88 19 89 20 90 24 91 21 92 23 93 25 94 22 95
REMARK H PARENT 3 6 85 24 51 35 8 79
REMARK Flexibility Score: inf
ROOT
ATOM      1  C   UNL A   1      40.398  21.637  26.958  1.00  0.00     0.023 C 
ENDROOT
BRANCH   1   2
ATOM      2  C   UNL A   1      40.651  23.104  27.281  1.00  0.00     0.116 C 
BRANCH   2   3
ATOM      3  N   UNL A   1      41.061  23.891  26.126  1.00  0.00    -0.352 N 
ATOM      4  O   UNL A   1      41.538  25.790  24.991  1.00  0.00    -0.269 OA
ATOM      5  C   UNL A   1      41.309  25.245  26.066  1.00  0.00     0.251 C 
ATOM      6  H   UNL A   1      41.177  23.394  25.284  1.00  0.00     0.163 HD
BRANCH   5   7
ATOM      7  C   UNL A   1      41.259  26.031  27.318  1.00  0.00     0.039 A 
ATOM      8  C   UNL A   1      40.176  25.882  28.185  1.00  0.00     0.014 A 
ATOM      9  C   UNL A   1      42.260  26.968  27.590  1.00  0.00     0.014 A 
ATOM     10  C   UNL A   1      40.004  26.784  29.223  1.00  0.00     0.010 A 
ATOM     11  C   UNL A   1      42.136  27.807  28.704  1.00  0.00     0.010 A 
ATOM     12  C   UNL A   1      40.990  27.746  29.510  1.00  0.00    -0.014 A 
BRANCH  12  13
ATOM     13  C   UNL A   1      40.805  28.608  30.706  1.00  0.00     0.031 A 
ATOM     14  C   UNL A   1      41.719  28.519  31.897  1.00  0.00     0.074 A 
ATOM     15  C   UNL A   1      39.829  29.538  30.665  1.00  0.00     0.049 A 
ATOM     16  N   UNL A   1      41.724  29.254  32.981  1.00  0.00    -0.248 NA
ATOM     17  C   UNL A   1      42.754  27.474  31.881  1.00  0.00     0.031 C 
ATOM     18  C   UNL A   1      38.867  29.695  29.568  1.00  0.00     0.029 A 
ATOM     19  N   UNL A   1      39.503  30.544  31.535  1.00  0.00    -0.354 N 
ATOM     20  C   UNL A   1      42.749  28.758  33.779  1.00  0.00     0.074 A 
ATOM     21  C   UNL A   1      43.329  27.640  33.067  1.00  0.00     0.031 C 
ATOM     22  C   UNL A   1      38.107  30.774  29.800  1.00  0.00     0.029 A 
ATOM     23  C   UNL A   1      38.475  31.340  31.091  1.00  0.00     0.049 A 
ATOM     24  H   UNL A   1      39.961  30.683  32.395  1.00  0.00     0.167 HD
ATOM     25  C   UNL A   1      43.171  29.205  34.988  1.00  0.00     0.037 A 
ATOM     26  C   UNL A   1      37.877  32.401  31.663  1.00  0.00     0.037 A 
ATOM     27  C   UNL A   1      42.590  30.328  35.683  1.00  0.00     0.049 A 
ATOM     28  C   UNL A   1      38.368  32.873  33.000  1.00  0.00     0.074 A 
ATOM     29  C   UNL A   1      42.951  30.862  36.910  1.00  0.00     0.029 A 
ATOM     30  N   UNL A   1      41.534  31.095  35.214  1.00  0.00    -0.354 N 
ATOM     31  N   UNL A   1      39.346  32.394  33.731  1.00  0.00    -0.248 NA
ATOM     32  C   UNL A   1      37.675  34.024  33.590  1.00  0.00     0.031 C 
ATOM     33  C   UNL A   1      42.089  31.928  37.196  1.00  0.00     0.029 A 
ATOM     34  C   UNL A   1      41.222  32.088  36.130  1.00  0.00     0.049 A 
ATOM     35  H   UNL A   1      41.072  30.954  34.355  1.00  0.00     0.167 HD
ATOM     36  C   UNL A   1      39.385  33.185  34.872  1.00  0.00     0.074 A 
ATOM     37  C   UNL A   1      38.359  34.196  34.713  1.00  0.00     0.031 C 
ATOM     38  C   UNL A   1      40.187  33.077  35.959  1.00  0.00     0.037 A 
BRANCH  25  39
ATOM     39  C   UNL A   1      44.314  28.483  35.650  1.00  0.00     0.058 A 
ATOM     40  C   UNL A   1      45.649  28.855  35.421  1.00  0.00     0.135 A 
ATOM     41  C   UNL A   1      44.073  27.463  36.585  1.00  0.00     0.135 A 
ATOM     42  F   UNL A   1      45.940  29.813  34.527  1.00  0.00    -0.206 F 
ATOM     43  C   UNL A   1      46.702  28.235  36.086  1.00  0.00     0.059 A 
ATOM     44  C   UNL A   1      45.110  26.844  37.279  1.00  0.00     0.059 A 
ATOM     45  F   UNL A   1      42.817  27.067  36.843  1.00  0.00    -0.206 F 
ATOM     46  C   UNL A   1      46.423  27.233  37.018  1.00  0.00     0.060 A 
BRANCH  46  47
ATOM     47  S   UNL A   1      47.800  26.460  37.894  1.00  0.00     0.124 S 
ATOM     48  O   UNL A   1      47.592  25.051  37.579  1.00  0.00    -0.237 OA
ATOM     49  O   UNL A   1      48.960  27.086  37.265  1.00  0.00    -0.237 OA
ATOM     50  O   UNL A   1      47.570  26.832  39.286  1.00  0.00    -0.744 OA
ENDBRANCH  46  47
ENDBRANCH  25  39
BRANCH  26  51
ATOM     51  C   UNL A   1      36.733  33.061  30.982  1.00  0.00     0.058 A 
ATOM     52  C   UNL A   1      35.418  32.897  31.437  1.00  0.00     0.135 A 
ATOM     53  C   UNL A   1      36.942  33.884  29.863  1.00  0.00     0.135 A 
ATOM     54  F   UNL A   1      35.168  32.121  32.502  1.00  0.00    -0.206 F 
ATOM     55  C   UNL A   1      34.345  33.508  30.795  1.00  0.00     0.059 A 
ATOM     56  C   UNL A   1      35.891  34.531  29.225  1.00  0.00     0.059 A 
ATOM     57  F   UNL A   1      38.186  34.092  29.403  1.00  0.00    -0.206 F 
ATOM     58  C   UNL A   1      34.594  34.322  29.688  1.00  0.00     0.060 A 
BRANCH  58  59
ATOM     59  S   UNL A   1      33.204  35.141  28.877  1.00  0.00     0.124 S 
ATOM     60  O   UNL A   1      32.701  34.076  28.017  1.00  0.00    -0.237 OA
ATOM     61  O   UNL A   1      32.355  35.503  30.008  1.00  0.00    -0.237 OA
ATOM     62  O   UNL A   1      33.834  36.265  28.191  1.00  0.00    -0.744 OA
ENDBRANCH  58  59
ENDBRANCH  26  51
BRANCH  38  63
ATOM     63  C   UNL A   1      39.981  34.088  37.050  1.00  0.00     0.058 A 
ATOM     64  C   UNL A   1      39.130  33.828  38.138  1.00  0.00     0.135 A 
ATOM     65  C   UNL A   1      40.633  35.329  37.008  1.00  0.00     0.135 A 
ATOM     66  F   UNL A   1      38.477  32.659  38.220  1.00  0.00    -0.206 F 
ATOM     67  C   UNL A   1      38.901  34.781  39.123  1.00  0.00     0.059 A 
ATOM     68  C   UNL A   1      40.439  36.288  37.998  1.00  0.00     0.059 A 
ATOM     69  F   UNL A   1      41.464  35.623  35.995  1.00  0.00    -0.206 F 
ATOM     70  C   UNL A   1      39.555  36.012  39.040  1.00  0.00     0.060 A 
BRANCH  70  71
ATOM     71  S   UNL A   1      39.245  37.246  40.320  1.00  0.00     0.124 S 
ATOM     72  O   UNL A   1      40.601  37.663  40.659  1.00  0.00    -0.237 OA
ATOM     73  O   UNL A   1      38.436  38.235  39.614  1.00  0.00    -0.237 OA
ATOM     74  O   UNL A   1      38.541  36.493  41.353  1.00  0.00    -0.744 OA
ENDBRANCH  70  71
ENDBRANCH  38  63
ENDBRANCH  12  13
ENDBRANCH   5   7
ENDBRANCH   2   3
ENDBRANCH   1   2
BRANCH   1  75
ATOM     75  C   UNL A   1      39.485  21.388  25.759  1.00  0.00     0.023 C 
BRANCH  75  76
ATOM     76  C   UNL A   1      38.177  22.171  25.786  1.00  0.00     0.116 C 
BRANCH  76  77
ATOM     77  N   UNL A   1      37.722  22.496  24.449  1.00  0.00    -0.355 N 
ATOM     78  C   UNL A   1      36.469  22.759  23.978  1.00  0.00     0.238 C 
ATOM     79  H   UNL A   1      38.433  22.532  23.769  1.00  0.00     0.163 HD
ATOM     80  O   UNL A   1      36.360  22.987  22.770  1.00  0.00    -0.273 OA
BRANCH  78  81
ATOM     81  C   UNL A   1      35.257  22.775  24.926  1.00  0.00     0.162 C 
ATOM     82  C   UNL A   1      34.981  24.193  25.411  1.00  0.00     0.032 C 
ATOM     83  N   UNL A   1      34.016  22.381  24.190  1.00  0.00    -0.185 NA
ATOM     84  C   UNL A   1      34.134  24.812  24.315  1.00  0.00     0.019 C 
ATOM     85  C   UNL A   1      33.498  23.646  23.567  1.00  0.00     0.103 C 
BRANCH  83  86
ATOM     86  S   UNL A   1      32.823  21.525  25.061  1.00  0.00     0.245 S 
ATOM     87  O   UNL A   1      33.259  21.419  26.438  1.00  0.00    -0.207 OA
ATOM     88  O   UNL A   1      31.553  22.158  24.771  1.00  0.00    -0.207 OA
BRANCH  86  89
ATOM     89  C   UNL A   1      32.768  19.916  24.306  1.00  0.00     0.101 A 
ATOM     90  C   UNL A   1      33.293  18.848  25.062  1.00  0.00     0.023 A 
ATOM     91  C   UNL A   1      32.352  19.681  22.994  1.00  0.00     0.061 A 
ATOM     92  C   UNL A   1      33.358  17.559  24.531  1.00  0.00     0.002 A 
ATOM     93  C   UNL A   1      32.389  18.373  22.482  1.00  0.00     0.022 A 
ATOM     94  Cl  UNL A   1      31.761  20.878  21.900  1.00  0.00    -0.083 Cl
ATOM     95  C   UNL A   1      32.890  17.318  23.245  1.00  0.00     0.002 A 
ENDBRANCH  86  89
ENDBRANCH  83  86
ENDBRANCH  78  81
ENDBRANCH  76  77
ENDBRANCH  75  76
ENDBRANCH   1  75
TORSDOF 16
ENDMDL
MODEL 2
REMARK VINA RESULT:     -12.1      5.038      9.900
REMARK SMILES O=C(NCCCCNC(=O)[C@H]1CCCN1S(=O)(=O)c1ccccc1Cl)c1ccc(-c2c3nc(c(-c4c(F)cc(S(=O)(=O)[O-])cc4F)c4ccc([nH]4)c(-c4c(F)cc(S(=O)(=O)[O-])cc4F)c4nc(c(-c5c(F)cc(S(=O)(=O)[O-])cc5F)c5ccc2[nH]5)C=C4)C=C3)cc1
REMARK SMILES IDX 5 1 4 2 3 3 1 4 2 5 26 7 27 8 91 9 28 10 90 11 29 12 30 13
REMARK SMILES IDX 31 14 84 15 32 16 89 17 83 18 85 19 33 20 88 21 82 22 81 23
REMARK SMILES IDX 34 25 68 26 47 27 67 28 48 29 51 30 66 31 86 32 49 33 50 34
REMARK SMILES IDX 65 36 87 37 52 38 35 39 36 40 45 41 37 42 38 43 44 44 46 45
REMARK SMILES IDX 39 46 40 47 41 48 42 49 43 50 69 51 70 52 79 53 71 54 72 55
REMARK SMILES IDX 78 56 80 57 73 58 74 59 75 60 76 61 77 62 53 63 54 64 63 65
REMARK SMILES IDX 55 66 56 67 62 68 64 69 57 70 58 71 59 72 60 73 61 74 6 75
REMARK SMILES IDX 7 76 8 77 9 78 10 80 11 81 12 82 15 83 13 84 14 85 16 86
REMARK SMILES IDX 17 87 18 88 19 89 20 90 24 91 21 92 23 93 25 94 22 95
REMARK H PARENT 3 6 85 24 51 35 8 79
REMARK Flexibility Score: inf
ROOT
ATOM      1  C   UNL A   1      32.660  27.561  27.043  1.00  0.00     0.023 C 
ENDROOT
BRANCH   1   2
ATOM      2  C   UNL A   1      33.890  28.457  26.958  1.00  0.00     0.116 C 
BRANCH   2   3
ATOM      3  N   UNL A   1      33.685  29.780  27.533  1.00  0.00    -0.352 N 
ATOM      4  O   UNL A   1      34.227  31.594  28.772  1.00  0.00    -0.269 OA
ATOM      5  C   UNL A   1      34.581  30.542  28.251  1.00  0.00     0.251 C 
ATOM      6  H   UNL A   1      32.796  30.180  27.390  1.00  0.00     0.163 HD
BRANCH   5   7
ATOM      7  C   UNL A   1      35.965  30.047  28.409  1.00  0.00     0.039 A 
ATOM      8  C   UNL A   1      36.390  29.564  29.647  1.00  0.00     0.014 A 
ATOM      9  C   UNL A   1      36.859  30.131  27.337  1.00  0.00     0.014 A 
ATOM     10  C   UNL A   1      37.740  29.332  29.863  1.00  0.00     0.010 A 
ATOM     11  C   UNL A   1      38.203  29.792  27.531  1.00  0.00     0.010 A 
ATOM     12  C   UNL A   1      38.662  29.423  28.805  1.00  0.00    -0.014 A 
BRANCH  12  13
ATOM     13  C   UNL A   1      40.075  29.050  29.069  1.00  0.00     0.031 A 
ATOM     14  C   UNL A   1      40.624  27.701  28.693  1.00  0.00     0.074 A 
ATOM     15  C   UNL A   1      40.886  29.991  29.594  1.00  0.00     0.049 A 
ATOM     16  N   UNL A   1      41.852  27.258  28.797  1.00  0.00    -0.248 NA
ATOM     17  C   UNL A   1      39.682  26.717  28.136  1.00  0.00     0.031 C 
ATOM     18  C   UNL A   1      40.453  31.327  30.020  1.00  0.00     0.029 A 
ATOM     19  N   UNL A   1      42.236  29.994  29.824  1.00  0.00    -0.354 N 
ATOM     20  C   UNL A   1      41.832  25.949  28.332  1.00  0.00     0.074 A 
ATOM     21  C   UNL A   1      40.462  25.655  27.968  1.00  0.00     0.031 C 
ATOM     22  C   UNL A   1      41.524  32.039  30.396  1.00  0.00     0.029 A 
ATOM     23  C   UNL A   1      42.706  31.192  30.308  1.00  0.00     0.049 A 
ATOM     24  H   UNL A   1      42.813  29.213  29.661  1.00  0.00     0.167 HD
ATOM     25  C   UNL A   1      42.865  25.078  28.210  1.00  0.00     0.037 A 
ATOM     26  C   UNL A   1      43.949  31.568  30.660  1.00  0.00     0.037 A 
ATOM     27  C   UNL A   1      44.229  25.387  28.566  1.00  0.00     0.049 A 
ATOM     28  C   UNL A   1      45.071  30.584  30.511  1.00  0.00     0.074 A 
ATOM     29  C   UNL A   1      45.348  24.575  28.475  1.00  0.00     0.029 A 
ATOM     30  N   UNL A   1      44.663  26.602  29.076  1.00  0.00    -0.354 N 
ATOM     31  N   UNL A   1      45.029  29.353  30.059  1.00  0.00    -0.248 NA
ATOM     32  C   UNL A   1      46.405  31.036  30.921  1.00  0.00     0.031 C 
ATOM     33  C   UNL A   1      46.450  25.288  28.962  1.00  0.00     0.029 A 
ATOM     34  C   UNL A   1      46.028  26.558  29.314  1.00  0.00     0.049 A 
ATOM     35  H   UNL A   1      44.085  27.382  29.244  1.00  0.00     0.167 HD
ATOM     36  C   UNL A   1      46.333  28.881  30.133  1.00  0.00     0.074 A 
ATOM     37  C   UNL A   1      47.144  29.972  30.635  1.00  0.00     0.031 C 
ATOM     38  C   UNL A   1      46.815  27.652  29.827  1.00  0.00     0.037 A 
BRANCH  25  39
ATOM     39  C   UNL A   1      42.572  23.703  27.673  1.00  0.00     0.058 A 
ATOM     40  C   UNL A   1      42.533  23.446  26.293  1.00  0.00     0.135 A 
ATOM     41  C   UNL A   1      42.410  22.613  28.544  1.00  0.00     0.135 A 
ATOM     42  F   UNL A   1      42.667  24.452  25.414  1.00  0.00    -0.206 F 
ATOM     43  C   UNL A   1      42.333  22.161  25.796  1.00  0.00     0.059 A 
ATOM     44  C   UNL A   1      42.230  21.316  28.070  1.00  0.00     0.059 A 
ATOM     45  F   UNL A   1      42.438  22.800  29.873  1.00  0.00    -0.206 F 
ATOM     46  C   UNL A   1      42.187  21.100  26.693  1.00  0.00     0.060 A 
BRANCH  46  47
ATOM     47  S   UNL A   1      41.958  19.436  26.031  1.00  0.00     0.124 S 
ATOM     48  O   UNL A   1      42.391  18.613  27.157  1.00  0.00    -0.237 OA
ATOM     49  O   UNL A   1      40.528  19.410  25.740  1.00  0.00    -0.237 OA
ATOM     50  O   UNL A   1      42.833  19.410  24.863  1.00  0.00    -0.744 OA
ENDBRANCH  46  47
ENDBRANCH  25  39
BRANCH  26  51
ATOM     51  C   UNL A   1      44.181  32.928  31.212  1.00  0.00     0.058 A 
ATOM     52  C   UNL A   1      44.512  34.007  30.383  1.00  0.00     0.135 A 
ATOM     53  C   UNL A   1      44.059  33.173  32.590  1.00  0.00     0.135 A 
ATOM     54  F   UNL A   1      44.639  33.823  29.060  1.00  0.00    -0.206 F 
ATOM     55  C   UNL A   1      44.737  35.280  30.900  1.00  0.00     0.059 A 
ATOM     56  C   UNL A   1      44.246  34.442  33.126  1.00  0.00     0.059 A 
ATOM     57  F   UNL A   1      43.720  32.177  33.423  1.00  0.00    -0.206 F 
ATOM     58  C   UNL A   1      44.603  35.485  32.275  1.00  0.00     0.060 A 
BRANCH  58  59
ATOM     59  S   UNL A   1      44.861  37.143  32.939  1.00  0.00     0.124 S 
ATOM     60  O   UNL A   1      45.646  36.857  34.135  1.00  0.00    -0.237 OA
ATOM     61  O   UNL A   1      45.574  37.806  31.851  1.00  0.00    -0.237 OA
ATOM     62  O   UNL A   1      43.503  37.624  33.173  1.00  0.00    -0.744 OA
ENDBRANCH  58  59
ENDBRANCH  26  51
BRANCH  38  63
ATOM     63  C   UNL A   1      48.288  27.438  30.025  1.00  0.00     0.058 A 
ATOM     64  C   UNL A   1      48.800  26.946  31.237  1.00  0.00     0.135 A 
ATOM     65  C   UNL A   1      49.198  27.732  28.998  1.00  0.00     0.135 A 
ATOM     66  F   UNL A   1      47.972  26.657  32.252  1.00  0.00    -0.206 F 
ATOM     67  C   UNL A   1      50.167  26.793  31.438  1.00  0.00     0.059 A 
ATOM     68  C   UNL A   1      50.568  27.561  29.168  1.00  0.00     0.059 A 
ATOM     69  F   UNL A   1      48.759  28.195  27.817  1.00  0.00    -0.206 F 
ATOM     70  C   UNL A   1      51.044  27.111  30.399  1.00  0.00     0.060 A 
BRANCH  70  71
ATOM     71  S   UNL A   1      52.818  26.917  30.672  1.00  0.00     0.124 S 
ATOM     72  O   UNL A   1      53.303  26.713  29.311  1.00  0.00    -0.237 OA
ATOM     73  O   UNL A   1      53.181  28.189  31.291  1.00  0.00    -0.237 OA
ATOM     74  O   UNL A   1      52.900  25.754  31.550  1.00  0.00    -0.744 OA
ENDBRANCH  70  71
ENDBRANCH  38  63
ENDBRANCH  12  13
ENDBRANCH   5   7
ENDBRANCH   2   3
ENDBRANCH   1   2
BRANCH   1  75
ATOM     75  C   UNL A   1      31.552  27.890  26.044  1.00  0.00     0.023 C 
BRANCH  75  76
ATOM     76  C   UNL A   1      30.978  26.680  25.314  1.00  0.00     0.116 C 
BRANCH  76  77
ATOM     77  N   UNL A   1      30.496  25.676  26.242  1.00  0.00    -0.355 N 
ATOM     78  C   UNL A   1      30.856  24.371  26.400  1.00  0.00     0.238 C 
ATOM     79  H   UNL A   1      29.794  25.987  26.857  1.00  0.00     0.163 HD
ATOM     80  O   UNL A   1      30.257  23.725  27.266  1.00  0.00    -0.273 OA
BRANCH  78  81
ATOM     81  C   UNL A   1      31.966  23.747  25.535  1.00  0.00     0.162 C 
ATOM     82  C   UNL A   1      33.333  24.250  25.983  1.00  0.00     0.032 C 
ATOM     83  N   UNL A   1      32.022  22.268  25.749  1.00  0.00    -0.185 NA
ATOM     84  C   UNL A   1      33.716  23.340  27.134  1.00  0.00     0.019 C 
ATOM     85  C   UNL A   1      32.898  22.066  26.952  1.00  0.00     0.103 C 
BRANCH  83  86
ATOM     86  S   UNL A   1      32.475  21.297  24.419  1.00  0.00     0.245 S 
ATOM     87  O   UNL A   1      32.154  19.921  24.735  1.00  0.00    -0.207 OA
ATOM     88  O   UNL A   1      31.896  21.903  23.238  1.00  0.00    -0.207 OA
BRANCH  86  89
ATOM     89  C   UNL A   1      34.236  21.502  24.279  1.00  0.00     0.101 A 
ATOM     90  C   UNL A   1      35.034  20.617  25.032  1.00  0.00     0.023 A 
ATOM     91  C   UNL A   1      34.849  22.540  23.575  1.00  0.00     0.061 A 
ATOM     92  C   UNL A   1      36.425  20.740  25.042  1.00  0.00     0.002 A 
ATOM     93  C   UNL A   1      36.251  22.633  23.565  1.00  0.00     0.022 A 
ATOM     94  Cl  UNL A   1      34.028  23.760  22.670  1.00  0.00    -0.083 Cl
ATOM     95  C   UNL A   1      37.035  21.739  24.295  1.00  0.00     0.002 A 
ENDBRANCH  86  89
ENDBRANCH  83  86
ENDBRANCH  78  81
ENDBRANCH  76  77
ENDBRANCH  75  76
ENDBRANCH   1  75
TORSDOF 16
ENDMDL
MODEL 3
REMARK VINA RESULT:     -12.0      4.104      5.467
REMARK SMILES O=C(NCCCCNC(=O)[C@H]1CCCN1S(=O)(=O)c1ccccc1Cl)c1ccc(-c2c3nc(c(-c4c(F)cc(S(=O)(=O)[O-])cc4F)c4ccc([nH]4)c(-c4c(F)cc(S(=O)(=O)[O-])cc4F)c4nc(c(-c5c(F)cc(S(=O)(=O)[O-])cc5F)c5ccc2[nH]5)C=C4)C=C3)cc1
REMARK SMILES IDX 5 1 4 2 3 3 1 4 2 5 26 7 27 8 91 9 28 10 90 11 29 12 30 13
REMARK SMILES IDX 31 14 84 15 32 16 89 17 83 18 85 19 33 20 88 21 82 22 81 23
REMARK SMILES IDX 34 25 68 26 47 27 67 28 48 29 51 30 66 31 86 32 49 33 50 34
REMARK SMILES IDX 65 36 87 37 52 38 35 39 36 40 45 41 37 42 38 43 44 44 46 45
REMARK SMILES IDX 39 46 40 47 41 48 42 49 43 50 69 51 70 52 79 53 71 54 72 55
REMARK SMILES IDX 78 56 80 57 73 58 74 59 75 60 76 61 77 62 53 63 54 64 63 65
REMARK SMILES IDX 55 66 56 67 62 68 64 69 57 70 58 71 59 72 60 73 61 74 6 75
REMARK SMILES IDX 7 76 8 77 9 78 10 80 11 81 12 82 15 83 13 84 14 85 16 86
REMARK SMILES IDX 17 87 18 88 19 89 20 90 24 91 21 92 23 93 25 94 22 95
REMARK H PARENT 3 6 85 24 51 35 8 79
REMARK Flexibility Score: inf
ROOT
ATOM      1  C   UNL A   1      42.719  23.109  28.594  1.00  0.00     0.023 C 
ENDROOT
BRANCH   1   2
ATOM      2  C   UNL A   1      41.307  23.325  28.066  1.00  0.00     0.116 C 
BRANCH   2   3
ATOM      3  N   UNL A   1      41.269  23.953  26.752  1.00  0.00    -0.352 N 
ATOM      4  O   UNL A   1      40.842  25.611  25.273  1.00  0.00    -0.269 OA
ATOM      5  C   UNL A   1      40.941  25.255  26.442  1.00  0.00     0.251 C 
ATOM      6  H   UNL A   1      41.507  23.376  25.990  1.00  0.00     0.163 HD
BRANCH   5   7
ATOM      7  C   UNL A   1      40.678  26.202  27.548  1.00  0.00     0.039 A 
ATOM      8  C   UNL A   1      41.496  27.320  27.710  1.00  0.00     0.014 A 
ATOM      9  C   UNL A   1      39.658  25.933  28.465  1.00  0.00     0.014 A 
ATOM     10  C   UNL A   1      41.409  28.067  28.874  1.00  0.00     0.010 A 
ATOM     11  C   UNL A   1      39.503  26.755  29.587  1.00  0.00     0.010 A 
ATOM     12  C   UNL A   1      40.400  27.809  29.819  1.00  0.00    -0.014 A 
BRANCH  12  13
ATOM     13  C   UNL A   1      40.283  28.716  30.990  1.00  0.00     0.031 A 
ATOM     14  C   UNL A   1      41.210  28.614  32.169  1.00  0.00     0.074 A 
ATOM     15  C   UNL A   1      39.359  29.696  30.934  1.00  0.00     0.049 A 
ATOM     16  N   UNL A   1      41.274  29.380  33.229  1.00  0.00    -0.248 NA
ATOM     17  C   UNL A   1      42.187  27.513  32.170  1.00  0.00     0.031 C 
ATOM     18  C   UNL A   1      38.388  29.873  29.848  1.00  0.00     0.029 A 
ATOM     19  N   UNL A   1      39.103  30.746  31.777  1.00  0.00    -0.354 N 
ATOM     20  C   UNL A   1      42.284  28.854  34.027  1.00  0.00     0.074 A 
ATOM     21  C   UNL A   1      42.790  27.684  33.342  1.00  0.00     0.031 C 
ATOM     22  C   UNL A   1      37.691  30.998  30.057  1.00  0.00     0.029 A 
ATOM     23  C   UNL A   1      38.111  31.583  31.323  1.00  0.00     0.049 A 
ATOM     24  H   UNL A   1      39.582  30.885  32.625  1.00  0.00     0.167 HD
ATOM     25  C   UNL A   1      42.749  29.314  35.215  1.00  0.00     0.037 A 
ATOM     26  C   UNL A   1      37.582  32.692  31.871  1.00  0.00     0.037 A 
ATOM     27  C   UNL A   1      42.243  30.488  35.883  1.00  0.00     0.049 A 
ATOM     28  C   UNL A   1      38.121  33.177  33.184  1.00  0.00     0.074 A 
ATOM     29  C   UNL A   1      42.652  31.039  37.086  1.00  0.00     0.029 A 
ATOM     30  N   UNL A   1      41.222  31.297  35.406  1.00  0.00    -0.354 N 
ATOM     31  N   UNL A   1      39.084  32.668  33.915  1.00  0.00    -0.248 NA
ATOM     32  C   UNL A   1      37.502  34.382  33.748  1.00  0.00     0.031 C 
ATOM     33  C   UNL A   1      41.855  32.158  37.352  1.00  0.00     0.029 A 
ATOM     34  C   UNL A   1      40.980  32.332  36.294  1.00  0.00     0.049 A 
ATOM     35  H   UNL A   1      40.738  31.155  34.559  1.00  0.00     0.167 HD
ATOM     36  C   UNL A   1      39.184  33.490  35.030  1.00  0.00     0.074 A 
ATOM     37  C   UNL A   1      38.212  34.551  34.855  1.00  0.00     0.031 C 
ATOM     38  C   UNL A   1      39.998  33.372  36.107  1.00  0.00     0.037 A 
BRANCH  25  39
ATOM     39  C   UNL A   1      43.863  28.551  35.881  1.00  0.00     0.058 A 
ATOM     40  C   UNL A   1      43.603  27.463  36.731  1.00  0.00     0.135 A 
ATOM     41  C   UNL A   1      45.207  28.857  35.606  1.00  0.00     0.135 A 
ATOM     42  F   UNL A   1      42.339  27.135  37.041  1.00  0.00    -0.206 F 
ATOM     43  C   UNL A   1      44.633  26.714  37.291  1.00  0.00     0.059 A 
ATOM     44  C   UNL A   1      46.253  28.107  36.138  1.00  0.00     0.059 A 
ATOM     45  F   UNL A   1      45.513  29.886  34.801  1.00  0.00    -0.206 F 
ATOM     46  C   UNL A   1      45.956  27.041  36.985  1.00  0.00     0.060 A 
BRANCH  46  47
ATOM     47  S   UNL A   1      47.280  26.039  37.697  1.00  0.00     0.124 S 
ATOM     48  O   UNL A   1      47.567  26.768  38.928  1.00  0.00    -0.237 OA
ATOM     49  O   UNL A   1      46.632  24.741  37.865  1.00  0.00    -0.237 OA
ATOM     50  O   UNL A   1      48.327  26.086  36.682  1.00  0.00    -0.744 OA
ENDBRANCH  46  47
ENDBRANCH  25  39
BRANCH  26  51
ATOM     51  C   UNL A   1      36.465  33.392  31.187  1.00  0.00     0.058 A 
ATOM     52  C   UNL A   1      35.163  33.372  31.705  1.00  0.00     0.135 A 
ATOM     53  C   UNL A   1      36.687  34.111  30.001  1.00  0.00     0.135 A 
ATOM     54  F   UNL A   1      34.901  32.700  32.835  1.00  0.00    -0.206 F 
ATOM     55  C   UNL A   1      34.114  34.021  31.060  1.00  0.00     0.059 A 
ATOM     56  C   UNL A   1      35.663  34.795  29.356  1.00  0.00     0.059 A 
ATOM     57  F   UNL A   1      37.921  34.181  29.477  1.00  0.00    -0.206 F 
ATOM     58  C   UNL A   1      34.376  34.728  29.885  1.00  0.00     0.060 A 
BRANCH  58  59
ATOM     59  S   UNL A   1      33.020  35.597  29.068  1.00  0.00     0.124 S 
ATOM     60  O   UNL A   1      33.736  36.654  28.364  1.00  0.00    -0.237 OA
ATOM     61  O   UNL A   1      32.440  34.551  28.231  1.00  0.00    -0.237 OA
ATOM     62  O   UNL A   1      32.184  36.032  30.184  1.00  0.00    -0.744 OA
ENDBRANCH  58  59
ENDBRANCH  26  51
BRANCH  38  63
ATOM     63  C   UNL A   1      39.865  34.425  37.170  1.00  0.00     0.058 A 
ATOM     64  C   UNL A   1      40.569  35.638  37.090  1.00  0.00     0.135 A 
ATOM     65  C   UNL A   1      39.033  34.219  38.280  1.00  0.00     0.135 A 
ATOM     66  F   UNL A   1      41.383  35.880  36.052  1.00  0.00    -0.206 F 
ATOM     67  C   UNL A   1      40.484  36.593  38.097  1.00  0.00     0.059 A 
ATOM     68  C   UNL A   1      38.912  35.173  39.287  1.00  0.00     0.059 A 
ATOM     69  F   UNL A   1      38.331  33.081  38.399  1.00  0.00    -0.206 F 
ATOM     70  C   UNL A   1      39.657  36.348  39.196  1.00  0.00     0.060 A 
BRANCH  70  71
ATOM     71  S   UNL A   1      39.561  37.590  40.501  1.00  0.00     0.124 S 
ATOM     72  O   UNL A   1      40.966  37.941  40.675  1.00  0.00    -0.237 OA
ATOM     73  O   UNL A   1      38.720  38.619  39.895  1.00  0.00    -0.237 OA
ATOM     74  O   UNL A   1      38.951  36.867  41.612  1.00  0.00    -0.744 OA
ENDBRANCH  70  71
ENDBRANCH  38  63
ENDBRANCH  12  13
ENDBRANCH   5   7
ENDBRANCH   2   3
ENDBRANCH   1   2
BRANCH   1  75
ATOM     75  C   UNL A   1      43.201  24.156  29.596  1.00  0.00     0.023 C 
BRANCH  75  76
ATOM     76  C   UNL A   1      44.075  25.252  28.995  1.00  0.00     0.116 C 
BRANCH  76  77
ATOM     77  N   UNL A   1      45.412  24.771  28.709  1.00  0.00    -0.355 N 
ATOM     78  C   UNL A   1      45.968  24.343  27.539  1.00  0.00     0.238 C 
ATOM     79  H   UNL A   1      46.018  24.750  29.485  1.00  0.00     0.163 HD
ATOM     80  O   UNL A   1      47.140  23.959  27.584  1.00  0.00    -0.273 OA
BRANCH  78  81
ATOM     81  C   UNL A   1      45.157  24.349  26.231  1.00  0.00     0.162 C 
ATOM     82  C   UNL A   1      45.589  25.512  25.346  1.00  0.00     0.032 C 
ATOM     83  N   UNL A   1      45.465  23.129  25.424  1.00  0.00    -0.185 NA
ATOM     84  C   UNL A   1      46.800  24.992  24.596  1.00  0.00     0.019 C 
ATOM     85  C   UNL A   1      46.689  23.471  24.623  1.00  0.00     0.103 C 
BRANCH  83  86
ATOM     86  S   UNL A   1      44.205  22.475  24.474  1.00  0.00     0.245 S 
ATOM     87  O   UNL A   1      43.022  23.286  24.677  1.00  0.00    -0.207 OA
ATOM     88  O   UNL A   1      44.727  22.314  23.133  1.00  0.00    -0.207 OA
BRANCH  86  89
ATOM     89  C   UNL A   1      43.946  20.838  25.116  1.00  0.00     0.101 A 
ATOM     90  C   UNL A   1      42.729  20.610  25.788  1.00  0.00     0.023 A 
ATOM     91  C   UNL A   1      44.911  19.827  25.092  1.00  0.00     0.061 A 
ATOM     92  C   UNL A   1      42.461  19.377  26.386  1.00  0.00     0.002 A 
ATOM     93  C   UNL A   1      44.616  18.580  25.667  1.00  0.00     0.022 A 
ATOM     94  Cl  UNL A   1      46.482  19.957  24.390  1.00  0.00    -0.083 Cl
ATOM     95  C   UNL A   1      43.399  18.355  26.311  1.00  0.00     0.002 A 
ENDBRANCH  86  89
ENDBRANCH  83  86
ENDBRANCH  78  81
ENDBRANCH  76  77
ENDBRANCH  75  76
ENDBRANCH   1  75
TORSDOF 16
ENDMDL
