MODEL 1
REMARK VINA RESULT:     -11.8      0.000      0.000
REMARK SMILES C[C@H]1[C@H](C(=O)NCCCCNC(=O)c2ccc(-c3c4nc(c(-c5c(F)cc(S(=O)(=O)[O-])cc5F)c5ccc([nH]5)c(-c5c(F)cc(S(=O)(=O)[O-])cc5F)c5nc(c(-c6c(F)cc(S(=O)(=O)[O-])cc6F)c6ccc3[nH]6)C=C5)C=C4)cc2)CCN1C(=O)NCc1cnn(C)c1
REMARK SMILES IDX 8 1 7 2 6 3 4 4 5 5 3 7 1 8 2 9 82 10 80 11 81 12 83 13
REMARK SMILES IDX 84 14 85 15 86 17 87 18 88 19 92 20 89 21 90 22 91 23 9 24
REMARK SMILES IDX 10 25 11 26 12 27 13 29 14 30 15 31 79 32 16 33 78 34 17 35
REMARK SMILES IDX 18 36 19 37 72 38 20 39 77 40 71 41 73 42 21 43 76 44 70 45
REMARK SMILES IDX 69 46 22 48 56 49 35 50 55 51 36 52 39 53 54 54 74 55 37 56
REMARK SMILES IDX 38 57 53 59 75 60 40 61 23 62 24 63 33 64 25 65 26 66 32 67
REMARK SMILES IDX 34 68 27 69 28 70 29 71 30 72 31 73 57 74 58 75 67 76 59 77
REMARK SMILES IDX 60 78 66 79 68 80 61 81 62 82 63 83 64 84 65 85 41 86 42 87
REMARK SMILES IDX 51 88 43 89 44 90 50 91 52 92 45 93 46 94 47 95 48 96 49 97
REMARK H PARENT 6 6 85 16 11 28 73 47 39 58
REMARK Flexibility Score: inf
ROOT
ATOM      1  C   UNL A   1      33.171  29.721  26.773  1.00  0.00     0.023 C 
ENDROOT
BRANCH   1   2
ATOM      2  C   UNL A   1      31.804  29.262  27.263  1.00  0.00     0.116 C 
BRANCH   2   3
ATOM      3  N   UNL A   1      31.725  27.817  27.385  1.00  0.00    -0.356 N 
ATOM      4  C   UNL A   1      31.394  26.853  26.487  1.00  0.00     0.225 C 
ATOM      5  O   UNL A   1      31.371  25.686  26.892  1.00  0.00    -0.275 OA
ATOM      6  H   UNL A   1      31.950  27.474  28.279  1.00  0.00     0.163 HD
BRANCH   4   7
ATOM      7  C   UNL A   1      31.035  27.145  25.038  1.00  0.00     0.102 C 
ATOM      8  C   UNL A   1      32.236  28.673  23.443  1.00  0.00     0.032 C 
ATOM      9  C   UNL A   1      32.274  27.307  24.141  1.00  0.00     0.096 C 
ATOM     10  N   UNL A   1      32.187  26.229  23.162  1.00  0.00    -0.321 N 
ATOM     11  C   UNL A   1      30.134  26.109  24.371  1.00  0.00     0.037 C 
ATOM     12  C   UNL A   1      30.808  25.776  23.049  1.00  0.00     0.122 C 
BRANCH  10  13
ATOM     13  C   UNL A   1      33.139  25.608  22.419  1.00  0.00     0.317 C 
ATOM     14  O   UNL A   1      33.475  26.053  21.315  1.00  0.00    -0.249 OA
ATOM     15  N   UNL A   1      33.767  24.484  22.789  1.00  0.00    -0.334 N 
ATOM     16  H   UNL A   1      34.295  24.110  22.047  1.00  0.00     0.165 HD
BRANCH  15  17
ATOM     17  C   UNL A   1      33.885  23.668  23.978  1.00  0.00     0.157 C 
BRANCH  17  18
ATOM     18  C   UNL A   1      33.296  22.328  23.726  1.00  0.00     0.009 A 
ATOM     19  C   UNL A   1      32.409  21.976  22.680  1.00  0.00     0.140 A 
ATOM     20  C   UNL A   1      33.439  21.153  24.441  1.00  0.00     0.113 A 
ATOM     21  N   UNL A   1      32.048  20.694  22.719  1.00  0.00    -0.181 NA
ATOM     22  N   UNL A   1      32.689  20.212  23.795  1.00  0.00    -0.275 N 
ATOM     23  C   UNL A   1      32.527  18.824  24.155  1.00  0.00     0.173 C 
ENDBRANCH  17  18
ENDBRANCH  15  17
ENDBRANCH  10  13
ENDBRANCH   4   7
ENDBRANCH   2   3
ENDBRANCH   1   2
BRANCH   1  24
ATOM     24  C   UNL A   1      34.354  29.270  27.629  1.00  0.00     0.023 C 
BRANCH  24  25
ATOM     25  C   UNL A   1      35.381  30.351  27.941  1.00  0.00     0.116 C 
BRANCH  25  26
ATOM     26  N   UNL A   1      35.389  30.754  29.339  1.00  0.00    -0.352 N 
ATOM     27  C   UNL A   1      36.378  30.582  30.279  1.00  0.00     0.251 C 
ATOM     28  H   UNL A   1      34.575  31.211  29.655  1.00  0.00     0.163 HD
ATOM     29  O   UNL A   1      36.170  30.876  31.452  1.00  0.00    -0.269 OA
BRANCH  27  30
ATOM     30  C   UNL A   1      37.677  30.003  29.874  1.00  0.00     0.039 A 
ATOM     31  C   UNL A   1      38.032  30.024  28.523  1.00  0.00     0.014 A 
ATOM     32  C   UNL A   1      38.553  29.470  30.823  1.00  0.00     0.014 A 
ATOM     33  C   UNL A   1      39.297  29.579  28.134  1.00  0.00     0.010 A 
ATOM     34  C   UNL A   1      39.838  29.093  30.443  1.00  0.00     0.010 A 
ATOM     35  C   UNL A   1      40.224  29.147  29.095  1.00  0.00    -0.014 A 
BRANCH  35  36
ATOM     36  C   UNL A   1      41.606  28.758  28.714  1.00  0.00     0.031 A 
ATOM     37  C   UNL A   1      42.695  29.795  28.657  1.00  0.00     0.074 A 
ATOM     38  C   UNL A   1      41.863  27.485  28.351  1.00  0.00     0.049 A 
ATOM     39  N   UNL A   1      43.939  29.666  28.277  1.00  0.00    -0.248 NA
ATOM     40  C   UNL A   1      42.327  31.164  29.054  1.00  0.00     0.031 C 
ATOM     41  C   UNL A   1      40.879  26.401  28.310  1.00  0.00     0.029 A 
ATOM     42  N   UNL A   1      43.028  26.890  27.934  1.00  0.00    -0.354 N 
ATOM     43  C   UNL A   1      44.498  30.934  28.371  1.00  0.00     0.074 A 
ATOM     44  C   UNL A   1      43.444  31.830  28.796  1.00  0.00     0.031 C 
ATOM     45  C   UNL A   1      41.485  25.270  27.912  1.00  0.00     0.029 A 
ATOM     46  C   UNL A   1      42.890  25.554  27.636  1.00  0.00     0.049 A 
ATOM     47  H   UNL A   1      43.882  27.374  27.856  1.00  0.00     0.167 HD
ATOM     48  C   UNL A   1      45.778  31.315  28.145  1.00  0.00     0.037 A 
ATOM     49  C   UNL A   1      43.792  24.661  27.185  1.00  0.00     0.037 A 
ATOM     50  C   UNL A   1      46.830  30.413  27.753  1.00  0.00     0.049 A 
ATOM     51  C   UNL A   1      45.212  25.103  26.957  1.00  0.00     0.074 A 
ATOM     52  C   UNL A   1      48.173  30.688  27.561  1.00  0.00     0.029 A 
ATOM     53  N   UNL A   1      46.658  29.061  27.490  1.00  0.00    -0.354 N 
ATOM     54  N   UNL A   1      45.737  26.295  27.113  1.00  0.00    -0.248 NA
ATOM     55  C   UNL A   1      46.161  24.081  26.498  1.00  0.00     0.031 C 
ATOM     56  C   UNL A   1      48.806  29.511  27.150  1.00  0.00     0.029 A 
ATOM     57  C   UNL A   1      47.866  28.492  27.125  1.00  0.00     0.049 A 
ATOM     58  H   UNL A   1      45.802  28.578  27.556  1.00  0.00     0.167 HD
ATOM     59  C   UNL A   1      47.085  26.161  26.795  1.00  0.00     0.074 A 
ATOM     60  C   UNL A   1      47.294  24.769  26.449  1.00  0.00     0.031 C 
ATOM     61  C   UNL A   1      48.059  27.103  26.791  1.00  0.00     0.037 A 
BRANCH  48  62
ATOM     62  C   UNL A   1      46.113  32.769  28.328  1.00  0.00     0.058 A 
ATOM     63  C   UNL A   1      46.549  33.274  29.564  1.00  0.00     0.135 A 
ATOM     64  C   UNL A   1      46.026  33.664  27.250  1.00  0.00     0.135 A 
ATOM     65  F   UNL A   1      46.636  32.464  30.631  1.00  0.00    -0.206 F 
ATOM     66  C   UNL A   1      46.855  34.620  29.734  1.00  0.00     0.059 A 
ATOM     67  C   UNL A   1      46.353  35.010  27.390  1.00  0.00     0.059 A 
ATOM     68  F   UNL A   1      45.615  33.236  26.046  1.00  0.00    -0.206 F 
ATOM     69  C   UNL A   1      46.752  35.482  28.641  1.00  0.00     0.060 A 
BRANCH  69  70
ATOM     70  S   UNL A   1      47.151  37.226  28.877  1.00  0.00     0.124 S 
ATOM     71  O   UNL A   1      46.247  37.862  27.925  1.00  0.00    -0.237 OA
ATOM     72  O   UNL A   1      46.834  37.431  30.287  1.00  0.00    -0.237 OA
ATOM     73  O   UNL A   1      48.570  37.298  28.540  1.00  0.00    -0.744 OA
ENDBRANCH  69  70
ENDBRANCH  48  62
BRANCH  49  74
ATOM     74  C   UNL A   1      43.385  23.250  26.946  1.00  0.00     0.058 A 
ATOM     75  C   UNL A   1      43.220  22.760  25.642  1.00  0.00     0.135 A 
ATOM     76  C   UNL A   1      43.167  22.363  28.012  1.00  0.00     0.135 A 
ATOM     77  F   UNL A   1      43.412  23.572  24.592  1.00  0.00    -0.206 F 
ATOM     78  C   UNL A   1      42.839  21.445  25.401  1.00  0.00     0.059 A 
ATOM     79  C   UNL A   1      42.808  21.037  27.796  1.00  0.00     0.059 A 
ATOM     80  F   UNL A   1      43.327  22.780  29.278  1.00  0.00    -0.206 F 
ATOM     81  C   UNL A   1      42.637  20.589  26.486  1.00  0.00     0.060 A 
BRANCH  81  82
ATOM     82  S   UNL A   1      42.190  18.870  26.160  1.00  0.00     0.124 S 
ATOM     83  O   UNL A   1      42.381  18.263  27.472  1.00  0.00    -0.237 OA
ATOM     84  O   UNL A   1      40.807  18.991  25.708  1.00  0.00    -0.237 OA
ATOM     85  O   UNL A   1      43.143  18.465  25.132  1.00  0.00    -0.744 OA
ENDBRANCH  81  82
ENDBRANCH  49  74
BRANCH  61  86
ATOM     86  C   UNL A   1      49.449  26.658  26.430  1.00  0.00     0.058 A 
ATOM     87  C   UNL A   1      50.292  26.044  27.367  1.00  0.00     0.135 A 
ATOM     88  C   UNL A   1      49.920  26.799  25.115  1.00  0.00     0.135 A 
ATOM     89  F   UNL A   1      49.891  25.891  28.640  1.00  0.00    -0.206 F 
ATOM     90  C   UNL A   1      51.565  25.604  27.020  1.00  0.00     0.059 A 
ATOM     91  C   UNL A   1      51.180  26.344  24.739  1.00  0.00     0.059 A 
ATOM     92  F   UNL A   1      49.148  27.370  24.177  1.00  0.00    -0.206 F 
ATOM     93  C   UNL A   1      52.000  25.758  25.701  1.00  0.00     0.060 A 
BRANCH  93  94
ATOM     94  S   UNL A   1      53.640  25.151  25.253  1.00  0.00     0.124 S 
ATOM     95  O   UNL A   1      53.453  23.707  25.338  1.00  0.00    -0.237 OA
ATOM     96  O   UNL A   1      53.818  25.690  23.908  1.00  0.00    -0.237 OA
ATOM     97  O   UNL A   1      54.507  25.734  26.273  1.00  0.00    -0.744 OA
ENDBRANCH  93  94
ENDBRANCH  61  86
ENDBRANCH  35  36
ENDBRANCH  27  30
ENDBRANCH  25  26
ENDBRANCH  24  25
ENDBRANCH   1  24
TORSDOF 17
ENDMDL
MODEL 2
REMARK VINA RESULT:     -11.8      6.529     12.235
REMARK SMILES C[C@H]1[C@H](C(=O)NCCCCNC(=O)c2ccc(-c3c4nc(c(-c5c(F)cc(S(=O)(=O)[O-])cc5F)c5ccc([nH]5)c(-c5c(F)cc(S(=O)(=O)[O-])cc5F)c5nc(c(-c6c(F)cc(S(=O)(=O)[O-])cc6F)c6ccc3[nH]6)C=C5)C=C4)cc2)CCN1C(=O)NCc1cnn(C)c1
REMARK SMILES IDX 8 1 7 2 6 3 4 4 5 5 3 7 1 8 2 9 82 10 80 11 81 12 83 13
REMARK SMILES IDX 84 14 85 15 86 17 87 18 88 19 92 20 89 21 90 22 91 23 9 24
REMARK SMILES IDX 10 25 11 26 12 27 13 29 14 30 15 31 79 32 16 33 78 34 17 35
REMARK SMILES IDX 18 36 19 37 72 38 20 39 77 40 71 41 73 42 21 43 76 44 70 45
REMARK SMILES IDX 69 46 22 48 56 49 35 50 55 51 36 52 39 53 54 54 74 55 37 56
REMARK SMILES IDX 38 57 53 59 75 60 40 61 23 62 24 63 33 64 25 65 26 66 32 67
REMARK SMILES IDX 34 68 27 69 28 70 29 71 30 72 31 73 57 74 58 75 67 76 59 77
REMARK SMILES IDX 60 78 66 79 68 80 61 81 62 82 63 83 64 84 65 85 41 86 42 87
REMARK SMILES IDX 51 88 43 89 44 90 50 91 52 92 45 93 46 94 47 95 48 96 49 97
REMARK H PARENT 6 6 85 16 11 28 73 47 39 58
REMARK Flexibility Score: inf
ROOT
ATOM      1  C   UNL A   1      37.647  22.110  25.128  1.00  0.00     0.023 C 
ENDROOT
BRANCH   1   2
ATOM      2  C   UNL A   1      36.445  21.617  24.335  1.00  0.00     0.116 C 
BRANCH   2   3
ATOM      3  N   UNL A   1      35.916  22.640  23.451  1.00  0.00    -0.356 N 
ATOM      4  C   UNL A   1      34.645  23.051  23.204  1.00  0.00     0.225 C 
ATOM      5  O   UNL A   1      34.490  23.932  22.353  1.00  0.00    -0.275 OA
ATOM      6  H   UNL A   1      36.603  23.123  22.937  1.00  0.00     0.163 HD
BRANCH   4   7
ATOM      7  C   UNL A   1      33.426  22.467  23.902  1.00  0.00     0.102 C 
ATOM      8  C   UNL A   1      33.243  21.728  26.298  1.00  0.00     0.032 C 
ATOM      9  C   UNL A   1      33.294  22.941  25.360  1.00  0.00     0.096 C 
ATOM     10  N   UNL A   1      32.039  23.683  25.413  1.00  0.00    -0.321 N 
ATOM     11  C   UNL A   1      32.091  22.749  23.219  1.00  0.00     0.037 C 
ATOM     12  C   UNL A   1      31.176  23.271  24.315  1.00  0.00     0.122 C 
BRANCH  10  13
ATOM     13  C   UNL A   1      31.601  24.654  26.255  1.00  0.00     0.317 C 
ATOM     14  O   UNL A   1      30.897  24.378  27.233  1.00  0.00    -0.249 OA
ATOM     15  N   UNL A   1      31.866  25.959  26.100  1.00  0.00    -0.334 N 
ATOM     16  H   UNL A   1      31.327  26.507  26.716  1.00  0.00     0.165 HD
BRANCH  15  17
ATOM     17  C   UNL A   1      32.725  26.784  25.280  1.00  0.00     0.157 C 
BRANCH  17  18
ATOM     18  C   UNL A   1      32.771  28.162  25.833  1.00  0.00     0.009 A 
ATOM     19  C   UNL A   1      31.862  29.213  25.566  1.00  0.00     0.140 A 
ATOM     20  C   UNL A   1      33.695  28.739  26.685  1.00  0.00     0.113 A 
ATOM     21  N   UNL A   1      32.171  30.339  26.209  1.00  0.00    -0.181 NA
ATOM     22  N   UNL A   1      33.286  30.026  26.886  1.00  0.00    -0.275 N 
ATOM     23  C   UNL A   1      33.920  31.026  27.711  1.00  0.00     0.173 C 
ENDBRANCH  17  18
ENDBRANCH  15  17
ENDBRANCH  10  13
ENDBRANCH   4   7
ENDBRANCH   2   3
ENDBRANCH   1   2
BRANCH   1  24
ATOM     24  C   UNL A   1      37.571  23.567  25.587  1.00  0.00     0.023 C 
BRANCH  24  25
ATOM     25  C   UNL A   1      38.549  23.954  26.689  1.00  0.00     0.116 C 
BRANCH  25  26
ATOM     26  N   UNL A   1      39.943  23.867  26.281  1.00  0.00    -0.352 N 
ATOM     27  C   UNL A   1      40.989  24.696  26.610  1.00  0.00     0.251 C 
ATOM     28  H   UNL A   1      40.166  23.113  25.688  1.00  0.00     0.163 HD
ATOM     29  O   UNL A   1      42.084  24.546  26.076  1.00  0.00    -0.269 OA
BRANCH  27  30
ATOM     30  C   UNL A   1      40.774  25.793  27.577  1.00  0.00     0.039 A 
ATOM     31  C   UNL A   1      39.758  25.665  28.527  1.00  0.00     0.014 A 
ATOM     32  C   UNL A   1      41.589  26.928  27.569  1.00  0.00     0.014 A 
ATOM     33  C   UNL A   1      39.608  26.640  29.515  1.00  0.00     0.010 A 
ATOM     34  C   UNL A   1      41.485  27.863  28.596  1.00  0.00     0.010 A 
ATOM     35  C   UNL A   1      40.495  27.726  29.581  1.00  0.00    -0.014 A 
BRANCH  35  36
ATOM     36  C   UNL A   1      40.412  28.724  30.678  1.00  0.00     0.031 A 
ATOM     37  C   UNL A   1      41.297  28.593  31.887  1.00  0.00     0.074 A 
ATOM     38  C   UNL A   1      39.491  29.707  30.616  1.00  0.00     0.049 A 
ATOM     39  N   UNL A   1      41.320  29.318  32.976  1.00  0.00    -0.248 NA
ATOM     40  C   UNL A   1      42.264  27.484  31.884  1.00  0.00     0.031 C 
ATOM     41  C   UNL A   1      38.537  29.905  29.522  1.00  0.00     0.029 A 
ATOM     42  N   UNL A   1      39.195  30.716  31.498  1.00  0.00    -0.354 N 
ATOM     43  C   UNL A   1      42.287  28.745  33.792  1.00  0.00     0.074 A 
ATOM     44  C   UNL A   1      42.794  27.582  33.095  1.00  0.00     0.031 C 
ATOM     45  C   UNL A   1      37.778  30.981  29.788  1.00  0.00     0.029 A 
ATOM     46  C   UNL A   1      38.166  31.528  31.084  1.00  0.00     0.049 A 
ATOM     47  H   UNL A   1      39.676  30.846  32.347  1.00  0.00     0.167 HD
ATOM     48  C   UNL A   1      42.729  29.161  35.003  1.00  0.00     0.037 A 
ATOM     49  C   UNL A   1      37.593  32.590  31.686  1.00  0.00     0.037 A 
ATOM     50  C   UNL A   1      42.243  30.337  35.678  1.00  0.00     0.049 A 
ATOM     51  C   UNL A   1      38.112  33.044  33.023  1.00  0.00     0.074 A 
ATOM     52  C   UNL A   1      42.671  30.880  36.877  1.00  0.00     0.029 A 
ATOM     53  N   UNL A   1      41.221  31.151  35.213  1.00  0.00    -0.354 N 
ATOM     54  N   UNL A   1      39.073  32.527  33.751  1.00  0.00    -0.248 NA
ATOM     55  C   UNL A   1      37.476  34.226  33.616  1.00  0.00     0.031 C 
ATOM     56  C   UNL A   1      41.884  32.002  37.154  1.00  0.00     0.029 A 
ATOM     57  C   UNL A   1      40.993  32.183  36.107  1.00  0.00     0.049 A 
ATOM     58  H   UNL A   1      40.730  31.016  34.370  1.00  0.00     0.167 HD
ATOM     59  C   UNL A   1      39.172  33.336  34.878  1.00  0.00     0.074 A 
ATOM     60  C   UNL A   1      38.181  34.382  34.728  1.00  0.00     0.031 C 
ATOM     61  C   UNL A   1      40.008  33.222  35.939  1.00  0.00     0.037 A 
BRANCH  48  62
ATOM     62  C   UNL A   1      43.801  28.344  35.671  1.00  0.00     0.058 A 
ATOM     63  C   UNL A   1      45.163  28.568  35.415  1.00  0.00     0.135 A 
ATOM     64  C   UNL A   1      43.465  27.344  36.597  1.00  0.00     0.135 A 
ATOM     65  F   UNL A   1      45.539  29.501  34.526  1.00  0.00    -0.206 F 
ATOM     66  C   UNL A   1      46.154  27.809  36.030  1.00  0.00     0.059 A 
ATOM     67  C   UNL A   1      44.440  26.591  37.244  1.00  0.00     0.059 A 
ATOM     68  F   UNL A   1      42.178  27.088  36.880  1.00  0.00    -0.206 F 
ATOM     69  C   UNL A   1      45.782  26.821  36.942  1.00  0.00     0.060 A 
BRANCH  69  70
ATOM     70  S   UNL A   1      47.079  25.844  37.731  1.00  0.00     0.124 S 
ATOM     71  O   UNL A   1      47.748  26.853  38.545  1.00  0.00    -0.237 OA
ATOM     72  O   UNL A   1      46.313  24.843  38.467  1.00  0.00    -0.237 OA
ATOM     73  O   UNL A   1      47.852  25.332  36.603  1.00  0.00    -0.744 OA
ENDBRANCH  69  70
ENDBRANCH  48  62
BRANCH  49  74
ATOM     74  C   UNL A   1      36.482  33.314  31.012  1.00  0.00     0.058 A 
ATOM     75  C   UNL A   1      36.727  34.133  29.900  1.00  0.00     0.135 A 
ATOM     76  C   UNL A   1      35.156  33.191  31.455  1.00  0.00     0.135 A 
ATOM     77  F   UNL A   1      37.979  34.286  29.444  1.00  0.00    -0.206 F 
ATOM     78  C   UNL A   1      35.701  34.818  29.259  1.00  0.00     0.059 A 
ATOM     79  C   UNL A   1      34.109  33.847  30.816  1.00  0.00     0.059 A 
ATOM     80  F   UNL A   1      34.868  32.406  32.505  1.00  0.00    -0.206 F 
ATOM     81  C   UNL A   1      34.393  34.667  29.724  1.00  0.00     0.060 A 
BRANCH  81  82
ATOM     82  S   UNL A   1      33.061  35.521  28.854  1.00  0.00     0.124 S 
ATOM     83  O   UNL A   1      32.280  36.055  29.963  1.00  0.00    -0.237 OA
ATOM     84  O   UNL A   1      33.793  36.502  28.057  1.00  0.00    -0.237 OA
ATOM     85  O   UNL A   1      32.424  34.455  28.087  1.00  0.00    -0.744 OA
ENDBRANCH  81  82
ENDBRANCH  49  74
BRANCH  61  86
ATOM     86  C   UNL A   1      39.911  34.273  37.010  1.00  0.00     0.058 A 
ATOM     87  C   UNL A   1      40.536  35.521  36.876  1.00  0.00     0.135 A 
ATOM     88  C   UNL A   1      39.137  34.045  38.159  1.00  0.00     0.135 A 
ATOM     89  F   UNL A   1      41.293  35.786  35.799  1.00  0.00    -0.206 F 
ATOM     90  C   UNL A   1      40.416  36.502  37.855  1.00  0.00     0.059 A 
ATOM     91  C   UNL A   1      38.982  35.021  39.139  1.00  0.00     0.059 A 
ATOM     92  F   UNL A   1      38.508  32.871  38.331  1.00  0.00    -0.206 F 
ATOM     93  C   UNL A   1      39.636  36.242  38.984  1.00  0.00     0.060 A 
BRANCH  93  94
ATOM     94  S   UNL A   1      39.458  37.536  40.231  1.00  0.00     0.124 S 
ATOM     95  O   UNL A   1      40.837  37.981  40.391  1.00  0.00    -0.237 OA
ATOM     96  O   UNL A   1      38.557  38.480  39.578  1.00  0.00    -0.237 OA
ATOM     97  O   UNL A   1      38.890  36.827  41.374  1.00  0.00    -0.744 OA
ENDBRANCH  93  94
ENDBRANCH  61  86
ENDBRANCH  35  36
ENDBRANCH  27  30
ENDBRANCH  25  26
ENDBRANCH  24  25
ENDBRANCH   1  24
TORSDOF 17
ENDMDL
MODEL 3
REMARK VINA RESULT:     -11.7      6.496     11.982
REMARK SMILES C[C@H]1[C@H](C(=O)NCCCCNC(=O)c2ccc(-c3c4nc(c(-c5c(F)cc(S(=O)(=O)[O-])cc5F)c5ccc([nH]5)c(-c5c(F)cc(S(=O)(=O)[O-])cc5F)c5nc(c(-c6c(F)cc(S(=O)(=O)[O-])cc6F)c6ccc3[nH]6)C=C5)C=C4)cc2)CCN1C(=O)NCc1cnn(C)c1
REMARK SMILES IDX 8 1 7 2 6 3 4 4 5 5 3 7 1 8 2 9 82 10 80 11 81 12 83 13
REMARK SMILES IDX 84 14 85 15 86 17 87 18 88 19 92 20 89 21 90 22 91 23 9 24
REMARK SMILES IDX 10 25 11 26 12 27 13 29 14 30 15 31 79 32 16 33 78 34 17 35
REMARK SMILES IDX 18 36 19 37 72 38 20 39 77 40 71 41 73 42 21 43 76 44 70 45
REMARK SMILES IDX 69 46 22 48 56 49 35 50 55 51 36 52 39 53 54 54 74 55 37 56
REMARK SMILES IDX 38 57 53 59 75 60 40 61 23 62 24 63 33 64 25 65 26 66 32 67
REMARK SMILES IDX 34 68 27 69 28 70 29 71 30 72 31 73 57 74 58 75 67 76 59 77
REMARK SMILES IDX 60 78 66 79 68 80 61 81 62 82 63 83 64 84 65 85 41 86 42 87
REMARK SMILES IDX 51 88 43 89 44 90 50 91 52 92 45 93 46 94 47 95 48 96 49 97
REMARK H PARENT 6 6 85 16 11 28 73 47 39 58
REMARK Flexibility Score: inf
ROOT
ATOM      1  C   UNL A   1      38.200  22.380  26.121  1.00  0.00     0.023 C 
ENDROOT
BRANCH   1   2
ATOM      2  C   UNL A   1      37.665  21.570  24.948  1.00  0.00     0.116 C 
BRANCH   2   3
ATOM      3  N   UNL A   1      36.971  22.400  23.981  1.00  0.00    -0.356 N 
ATOM      4  C   UNL A   1      35.649  22.650  23.790  1.00  0.00     0.225 C 
ATOM      5  O   UNL A   1      35.343  23.381  22.842  1.00  0.00    -0.275 OA
ATOM      6  H   UNL A   1      37.564  22.866  23.349  1.00  0.00     0.163 HD
BRANCH   4   7
ATOM      7  C   UNL A   1      34.551  22.062  24.662  1.00  0.00     0.102 C 
ATOM      8  C   UNL A   1      34.462  21.998  27.173  1.00  0.00     0.032 C 
ATOM      9  C   UNL A   1      34.298  22.888  25.935  1.00  0.00     0.096 C 
ATOM     10  N   UNL A   1      32.923  23.361  25.822  1.00  0.00    -0.321 N 
ATOM     11  C   UNL A   1      33.201  21.881  23.972  1.00  0.00     0.037 C 
ATOM     12  C   UNL A   1      32.179  22.503  24.911  1.00  0.00     0.122 C 
BRANCH  10  13
ATOM     13  C   UNL A   1      32.288  24.426  26.376  1.00  0.00     0.317 C 
ATOM     14  O   UNL A   1      31.304  24.269  27.110  1.00  0.00    -0.249 OA
ATOM     15  N   UNL A   1      32.642  25.702  26.173  1.00  0.00    -0.334 N 
ATOM     16  H   UNL A   1      31.964  26.321  26.527  1.00  0.00     0.165 HD
BRANCH  15  17
ATOM     17  C   UNL A   1      33.747  26.422  25.577  1.00  0.00     0.157 C 
BRANCH  17  18
ATOM     18  C   UNL A   1      33.527  26.553  24.114  1.00  0.00     0.009 A 
ATOM     19  C   UNL A   1      33.984  27.600  23.279  1.00  0.00     0.140 A 
ATOM     20  C   UNL A   1      32.824  25.731  23.252  1.00  0.00     0.113 A 
ATOM     21  N   UNL A   1      33.623  27.441  22.006  1.00  0.00    -0.181 NA
ATOM     22  N   UNL A   1      32.922  26.296  22.012  1.00  0.00    -0.275 N 
ATOM     23  C   UNL A   1      32.361  25.801  20.779  1.00  0.00     0.173 C 
ENDBRANCH  17  18
ENDBRANCH  15  17
ENDBRANCH  10  13
ENDBRANCH   4   7
ENDBRANCH   2   3
ENDBRANCH   1   2
BRANCH   1  24
ATOM     24  C   UNL A   1      39.631  22.048  26.543  1.00  0.00     0.023 C 
BRANCH  24  25
ATOM     25  C   UNL A   1      40.450  23.228  27.050  1.00  0.00     0.116 C 
BRANCH  25  26
ATOM     26  N   UNL A   1      41.161  23.934  25.994  1.00  0.00    -0.352 N 
ATOM     27  C   UNL A   1      41.650  25.218  25.995  1.00  0.00     0.251 C 
ATOM     28  H   UNL A   1      41.313  23.420  25.167  1.00  0.00     0.163 HD
ATOM     29  O   UNL A   1      42.121  25.699  24.969  1.00  0.00    -0.269 OA
BRANCH  27  30
ATOM     30  C   UNL A   1      41.565  26.031  27.228  1.00  0.00     0.039 A 
ATOM     31  C   UNL A   1      42.550  26.991  27.471  1.00  0.00     0.014 A 
ATOM     32  C   UNL A   1      40.504  25.869  28.123  1.00  0.00     0.014 A 
ATOM     33  C   UNL A   1      42.431  27.840  28.573  1.00  0.00     0.010 A 
ATOM     34  C   UNL A   1      40.349  26.761  29.181  1.00  0.00     0.010 A 
ATOM     35  C   UNL A   1      41.309  27.758  29.414  1.00  0.00    -0.014 A 
BRANCH  35  36
ATOM     36  C   UNL A   1      41.116  28.711  30.537  1.00  0.00     0.031 A 
ATOM     37  C   UNL A   1      41.974  28.613  31.768  1.00  0.00     0.074 A 
ATOM     38  C   UNL A   1      40.120  29.618  30.476  1.00  0.00     0.049 A 
ATOM     39  N   UNL A   1      41.908  29.302  32.878  1.00  0.00    -0.248 NA
ATOM     40  C   UNL A   1      43.028  27.586  31.761  1.00  0.00     0.031 C 
ATOM     41  C   UNL A   1      39.184  29.774  29.360  1.00  0.00     0.029 A 
ATOM     42  N   UNL A   1      39.719  30.572  31.378  1.00  0.00    -0.354 N 
ATOM     43  C   UNL A   1      42.896  28.783  33.706  1.00  0.00     0.074 A 
ATOM     44  C   UNL A   1      43.514  27.687  32.990  1.00  0.00     0.031 C 
ATOM     45  C   UNL A   1      38.333  30.776  29.634  1.00  0.00     0.029 A 
ATOM     46  C   UNL A   1      38.639  31.311  30.957  1.00  0.00     0.049 A 
ATOM     47  H   UNL A   1      40.164  30.713  32.245  1.00  0.00     0.167 HD
ATOM     48  C   UNL A   1      43.269  29.195  34.941  1.00  0.00     0.037 A 
ATOM     49  C   UNL A   1      37.966  32.304  31.571  1.00  0.00     0.037 A 
ATOM     50  C   UNL A   1      42.671  30.306  35.635  1.00  0.00     0.049 A 
ATOM     51  C   UNL A   1      38.409  32.756  32.936  1.00  0.00     0.074 A 
ATOM     52  C   UNL A   1      43.020  30.843  36.862  1.00  0.00     0.029 A 
ATOM     53  N   UNL A   1      41.599  31.050  35.163  1.00  0.00    -0.354 N 
ATOM     54  N   UNL A   1      39.388  32.295  33.678  1.00  0.00    -0.248 NA
ATOM     55  C   UNL A   1      37.663  33.864  33.545  1.00  0.00     0.031 C 
ATOM     56  C   UNL A   1      42.137  31.890  37.148  1.00  0.00     0.029 A 
ATOM     57  C   UNL A   1      41.264  32.032  36.080  1.00  0.00     0.049 A 
ATOM     58  H   UNL A   1      41.144  30.903  34.302  1.00  0.00     0.167 HD
ATOM     59  C   UNL A   1      39.390  33.073  34.831  1.00  0.00     0.074 A 
ATOM     60  C   UNL A   1      38.322  34.041  34.681  1.00  0.00     0.031 C 
ATOM     61  C   UNL A   1      40.203  32.993  35.913  1.00  0.00     0.037 A 
BRANCH  48  62
ATOM     62  C   UNL A   1      44.384  28.446  35.616  1.00  0.00     0.058 A 
ATOM     63  C   UNL A   1      44.130  27.365  36.475  1.00  0.00     0.135 A 
ATOM     64  C   UNL A   1      45.724  28.794  35.382  1.00  0.00     0.135 A 
ATOM     65  F   UNL A   1      42.866  27.000  36.746  1.00  0.00    -0.206 F 
ATOM     66  C   UNL A   1      45.161  26.675  37.103  1.00  0.00     0.059 A 
ATOM     67  C   UNL A   1      46.773  28.100  35.978  1.00  0.00     0.059 A 
ATOM     68  F   UNL A   1      46.025  29.819  34.569  1.00  0.00    -0.206 F 
ATOM     69  C   UNL A   1      46.481  27.051  36.849  1.00  0.00     0.060 A 
BRANCH  69  70
ATOM     70  S   UNL A   1      47.809  26.147  37.672  1.00  0.00     0.124 S 
ATOM     71  O   UNL A   1      47.054  25.224  38.512  1.00  0.00    -0.237 OA
ATOM     72  O   UNL A   1      48.520  25.544  36.548  1.00  0.00    -0.237 OA
ATOM     73  O   UNL A   1      48.540  27.190  38.385  1.00  0.00    -0.744 OA
ENDBRANCH  69  70
ENDBRANCH  48  62
BRANCH  49  74
ATOM     74  C   UNL A   1      36.819  32.958  30.886  1.00  0.00     0.058 A 
ATOM     75  C   UNL A   1      35.498  32.654  31.247  1.00  0.00     0.135 A 
ATOM     76  C   UNL A   1      37.019  33.907  29.872  1.00  0.00     0.135 A 
ATOM     77  F   UNL A   1      35.257  31.749  32.207  1.00  0.00    -0.206 F 
ATOM     78  C   UNL A   1      34.414  33.255  30.616  1.00  0.00     0.059 A 
ATOM     79  C   UNL A   1      35.952  34.539  29.242  1.00  0.00     0.059 A 
ATOM     80  F   UNL A   1      38.264  34.245  29.502  1.00  0.00    -0.206 F 
ATOM     81  C   UNL A   1      34.651  34.199  29.616  1.00  0.00     0.060 A 
BRANCH  81  82
ATOM     82  S   UNL A   1      33.237  35.010  28.838  1.00  0.00     0.124 S 
ATOM     83  O   UNL A   1      32.417  35.346  29.995  1.00  0.00    -0.237 OA
ATOM     84  O   UNL A   1      33.867  36.136  28.153  1.00  0.00    -0.237 OA
ATOM     85  O   UNL A   1      32.700  33.976  27.959  1.00  0.00    -0.744 OA
ENDBRANCH  81  82
ENDBRANCH  49  74
BRANCH  61  86
ATOM     86  C   UNL A   1      39.991  33.999  37.011  1.00  0.00     0.058 A 
ATOM     87  C   UNL A   1      40.622  35.252  36.994  1.00  0.00     0.135 A 
ATOM     88  C   UNL A   1      39.103  33.724  38.063  1.00  0.00     0.135 A 
ATOM     89  F   UNL A   1      41.484  35.561  36.012  1.00  0.00    -0.206 F 
ATOM     90  C   UNL A   1      40.397  36.190  37.995  1.00  0.00     0.059 A 
ATOM     91  C   UNL A   1      38.844  34.657  39.061  1.00  0.00     0.059 A 
ATOM     92  F   UNL A   1      38.465  32.543  38.120  1.00  0.00    -0.206 F 
ATOM     93  C   UNL A   1      39.505  35.884  39.025  1.00  0.00     0.060 A 
BRANCH  93  94
ATOM     94  S   UNL A   1      39.194  37.124  40.300  1.00  0.00     0.124 S 
ATOM     95  O   UNL A   1      38.465  38.141  39.549  1.00  0.00    -0.237 OA
ATOM     96  O   UNL A   1      38.412  36.377  41.280  1.00  0.00    -0.237 OA
ATOM     97  O   UNL A   1      40.534  37.505  40.736  1.00  0.00    -0.744 OA
ENDBRANCH  93  94
ENDBRANCH  61  86
ENDBRANCH  35  36
ENDBRANCH  27  30
ENDBRANCH  25  26
ENDBRANCH  24  25
ENDBRANCH   1  24
TORSDOF 17
ENDMDL
