MODEL 1
REMARK VINA RESULT:     -10.9      0.000      0.000
REMARK SMILES O=C(C[C@@H]1C[N@@H+](CCSc2ccccc2F)CCO1)NCCCCNC(=O)c1ccc(-c2c3nc(c(-c4c(F)cc(S(=O)(=O)[O-])cc4F)c4ccc([nH]4)c(-c4c(F)cc(S(=O)(=O)[O-])cc4F)c4nc(c(-c5c(F)cc(S(=O)(=O)[O-])cc5F)c5ccc2[nH]5)C=C4)C=C3)cc1
REMARK SMILES IDX 21 1 20 2 1 3 2 4 3 6 4 7 5 8 19 9 6 10 18 11 17 12 7 14
REMARK SMILES IDX 8 15 9 16 10 17 11 18 15 19 12 20 14 21 16 22 13 23 22 24
REMARK SMILES IDX 23 25 24 26 25 27 26 28 27 30 28 31 29 32 93 33 30 34 92 35
REMARK SMILES IDX 31 36 32 37 33 38 86 39 34 40 91 41 85 42 87 43 35 44 90 45
REMARK SMILES IDX 84 46 83 47 36 49 70 50 49 51 69 52 50 53 53 54 68 55 88 56
REMARK SMILES IDX 51 57 52 58 67 60 89 61 54 62 37 63 38 64 47 65 39 66 40 67
REMARK SMILES IDX 46 68 48 69 41 70 42 71 43 72 44 73 45 74 71 75 72 76 81 77
REMARK SMILES IDX 73 78 74 79 80 80 82 81 75 82 76 83 77 84 78 85 79 86 55 87
REMARK SMILES IDX 56 88 65 89 57 90 58 91 64 92 66 93 59 94 60 95 61 96 62 97
REMARK SMILES IDX 63 98
REMARK H PARENT 20 5 6 13 25 29 87 48 53 59
REMARK Flexibility Score: inf
ROOT
ATOM      1  C   UNL A   1      38.175  23.308  26.038  1.00  0.00     0.116 C 
ENDROOT
BRANCH   1   2
ATOM      2  N   UNL A   1      37.242  23.256  24.944  1.00  0.00    -0.356 N 
ATOM      3  O   UNL A   1      35.385  22.596  26.123  1.00  0.00    -0.275 OA
ATOM      4  C   UNL A   1      35.933  22.874  25.073  1.00  0.00     0.222 C 
ATOM      5  H   UNL A   1      37.565  23.511  24.049  1.00  0.00     0.163 HD
BRANCH   4   6
ATOM      6  C   UNL A   1      35.271  22.808  23.725  1.00  0.00     0.138 C 
BRANCH   6   7
ATOM      7  C   UNL A   1      34.688  24.135  23.220  1.00  0.00     0.182 C 
ATOM      8  C   UNL A   1      34.037  25.135  24.259  1.00  0.00     0.295 C 
ATOM      9  O   UNL A   1      33.776  23.659  22.223  1.00  0.00    -0.366 OA
ATOM     10  N   UNL A   1      32.986  26.042  23.753  1.00  0.00    -0.330 N 
ATOM     11  C   UNL A   1      32.960  24.691  21.727  1.00  0.00     0.222 C 
ATOM     12  C   UNL A   1      32.144  25.256  22.881  1.00  0.00     0.291 C 
ATOM     13  H   UNL A   1      32.503  26.381  24.585  1.00  0.00     0.348 HD
BRANCH  10  14
ATOM     14  C   UNL A   1      33.317  27.388  23.243  1.00  0.00     0.273 C 
BRANCH  14  15
ATOM     15  C   UNL A   1      32.641  28.746  23.710  1.00  0.00     0.136 C 
BRANCH  15  16
ATOM     16  S   UNL A   1      31.821  29.071  25.382  1.00  0.00    -0.117 SA
BRANCH  16  17
ATOM     17  C   UNL A   1      33.082  29.567  26.567  1.00  0.00     0.043 A 
ATOM     18  C   UNL A   1      32.929  30.844  27.140  1.00  0.00     0.018 A 
ATOM     19  C   UNL A   1      34.234  28.844  26.899  1.00  0.00     0.136 A 
ATOM     20  C   UNL A   1      33.992  31.466  27.808  1.00  0.00     0.001 A 
ATOM     21  C   UNL A   1      35.279  29.443  27.626  1.00  0.00     0.040 A 
ATOM     22  F   UNL A   1      34.437  27.609  26.416  1.00  0.00    -0.206 F 
ATOM     23  C   UNL A   1      35.182  30.779  28.020  1.00  0.00     0.003 A 
ENDBRANCH  16  17
ENDBRANCH  15  16
ENDBRANCH  14  15
ENDBRANCH  10  14
ENDBRANCH   6   7
ENDBRANCH   4   6
ENDBRANCH   1   2
BRANCH   1  24
ATOM     24  C   UNL A   1      38.934  21.987  26.097  1.00  0.00     0.023 C 
BRANCH  24  25
ATOM     25  C   UNL A   1      40.370  22.110  26.628  1.00  0.00     0.023 C 
BRANCH  25  26
ATOM     26  C   UNL A   1      40.750  23.509  27.104  1.00  0.00     0.116 C 
BRANCH  26  27
ATOM     27  N   UNL A   1      41.411  24.260  26.052  1.00  0.00    -0.352 N 
ATOM     28  C   UNL A   1      41.554  25.617  25.917  1.00  0.00     0.251 C 
ATOM     29  H   UNL A   1      41.814  23.719  25.335  1.00  0.00     0.163 HD
ATOM     30  O   UNL A   1      41.878  26.091  24.833  1.00  0.00    -0.269 OA
BRANCH  28  31
ATOM     31  C   UNL A   1      41.308  26.500  27.076  1.00  0.00     0.039 A 
ATOM     32  C   UNL A   1      40.310  26.157  27.989  1.00  0.00     0.014 A 
ATOM     33  C   UNL A   1      42.049  27.673  27.249  1.00  0.00     0.014 A 
ATOM     34  C   UNL A   1      40.091  26.965  29.106  1.00  0.00     0.010 A 
ATOM     35  C   UNL A   1      41.883  28.434  28.403  1.00  0.00     0.010 A 
ATOM     36  C   UNL A   1      40.897  28.092  29.341  1.00  0.00    -0.014 A 
BRANCH  36  37
ATOM     37  C   UNL A   1      40.727  28.917  30.564  1.00  0.00     0.031 A 
ATOM     38  C   UNL A   1      39.670  29.986  30.618  1.00  0.00     0.074 A 
ATOM     39  C   UNL A   1      41.559  28.736  31.609  1.00  0.00     0.049 A 
ATOM     40  N   UNL A   1      39.411  30.841  31.573  1.00  0.00    -0.248 NA
ATOM     41  C   UNL A   1      38.803  30.129  29.437  1.00  0.00     0.031 C 
ATOM     42  C   UNL A   1      42.646  27.755  31.662  1.00  0.00     0.029 A 
ATOM     43  N   UNL A   1      41.625  29.367  32.826  1.00  0.00    -0.354 N 
ATOM     44  C   UNL A   1      38.358  31.621  31.110  1.00  0.00     0.074 A 
ATOM     45  C   UNL A   1      38.067  31.181  29.764  1.00  0.00     0.031 C 
ATOM     46  C   UNL A   1      43.247  27.828  32.858  1.00  0.00     0.029 A 
ATOM     47  C   UNL A   1      42.623  28.891  33.642  1.00  0.00     0.049 A 
ATOM     48  H   UNL A   1      41.014  30.093  33.089  1.00  0.00     0.167 HD
ATOM     49  C   UNL A   1      37.677  32.596  31.759  1.00  0.00     0.037 A 
ATOM     50  C   UNL A   1      43.002  29.269  34.879  1.00  0.00     0.037 A 
ATOM     51  C   UNL A   1      37.964  33.017  33.106  1.00  0.00     0.049 A 
ATOM     52  C   UNL A   1      42.253  30.376  35.569  1.00  0.00     0.074 A 
ATOM     53  C   UNL A   1      37.306  33.970  33.865  1.00  0.00     0.029 A 
ATOM     54  N   UNL A   1      38.989  32.517  33.897  1.00  0.00    -0.354 N 
ATOM     55  N   UNL A   1      41.231  31.073  35.132  1.00  0.00    -0.248 NA
ATOM     56  C   UNL A   1      42.702  30.749  36.917  1.00  0.00     0.031 C 
ATOM     57  C   UNL A   1      37.966  34.084  35.091  1.00  0.00     0.029 A 
ATOM     58  C   UNL A   1      38.997  33.159  35.124  1.00  0.00     0.049 A 
ATOM     59  H   UNL A   1      39.618  31.810  33.624  1.00  0.00     0.167 HD
ATOM     60  C   UNL A   1      40.901  31.951  36.160  1.00  0.00     0.074 A 
ATOM     61  C   UNL A   1      41.824  31.688  37.243  1.00  0.00     0.031 C 
ATOM     62  C   UNL A   1      39.922  32.888  36.197  1.00  0.00     0.037 A 
BRANCH  49  63
ATOM     63  C   UNL A   1      36.546  33.268  31.030  1.00  0.00     0.058 A 
ATOM     64  C   UNL A   1      36.802  34.177  29.990  1.00  0.00     0.135 A 
ATOM     65  C   UNL A   1      35.206  33.062  31.401  1.00  0.00     0.135 A 
ATOM     66  F   UNL A   1      38.062  34.410  29.590  1.00  0.00    -0.206 F 
ATOM     67  C   UNL A   1      35.774  34.865  29.355  1.00  0.00     0.059 A 
ATOM     68  C   UNL A   1      34.160  33.717  30.758  1.00  0.00     0.059 A 
ATOM     69  F   UNL A   1      34.902  32.190  32.375  1.00  0.00    -0.206 F 
ATOM     70  C   UNL A   1      34.455  34.629  29.745  1.00  0.00     0.060 A 
BRANCH  70  71
ATOM     71  S   UNL A   1      33.131  35.504  28.886  1.00  0.00     0.124 S 
ATOM     72  O   UNL A   1      32.521  34.435  28.104  1.00  0.00    -0.237 OA
ATOM     73  O   UNL A   1      32.334  36.016  29.997  1.00  0.00    -0.237 OA
ATOM     74  O   UNL A   1      33.842  36.522  28.116  1.00  0.00    -0.744 OA
ENDBRANCH  70  71
ENDBRANCH  49  63
BRANCH  50  75
ATOM     75  C   UNL A   1      44.130  28.567  35.548  1.00  0.00     0.058 A 
ATOM     76  C   UNL A   1      43.905  27.492  36.422  1.00  0.00     0.135 A 
ATOM     77  C   UNL A   1      45.454  28.995  35.367  1.00  0.00     0.135 A 
ATOM     78  F   UNL A   1      42.656  27.051  36.639  1.00  0.00    -0.206 F 
ATOM     79  C   UNL A   1      44.946  26.888  37.117  1.00  0.00     0.059 A 
ATOM     80  C   UNL A   1      46.517  28.388  36.031  1.00  0.00     0.059 A 
ATOM     81  F   UNL A   1      45.721  30.012  34.533  1.00  0.00    -0.206 F 
ATOM     82  C   UNL A   1      46.249  27.348  36.920  1.00  0.00     0.060 A 
BRANCH  82  83
ATOM     83  S   UNL A   1      47.580  26.570  37.859  1.00  0.00     0.124 S 
ATOM     84  O   UNL A   1      48.737  27.344  37.418  1.00  0.00    -0.237 OA
ATOM     85  O   UNL A   1      47.153  26.795  39.235  1.00  0.00    -0.237 OA
ATOM     86  O   UNL A   1      47.545  25.183  37.410  1.00  0.00    -0.744 OA
ENDBRANCH  82  83
ENDBRANCH  50  75
BRANCH  62  87
ATOM     87  C   UNL A   1      39.773  33.699  37.457  1.00  0.00     0.058 A 
ATOM     88  C   UNL A   1      38.922  33.264  38.486  1.00  0.00     0.135 A 
ATOM     89  C   UNL A   1      40.399  34.946  37.609  1.00  0.00     0.135 A 
ATOM     90  F   UNL A   1      38.293  32.081  38.391  1.00  0.00    -0.206 F 
ATOM     91  C   UNL A   1      38.675  34.049  39.607  1.00  0.00     0.059 A 
ATOM     92  C   UNL A   1      40.191  35.734  38.737  1.00  0.00     0.059 A 
ATOM     93  F   UNL A   1      41.232  35.403  36.660  1.00  0.00    -0.206 F 
ATOM     94  C   UNL A   1      39.313  35.284  39.722  1.00  0.00     0.060 A 
BRANCH  94  95
ATOM     95  S   UNL A   1      38.980  36.288  41.185  1.00  0.00     0.124 S 
ATOM     96  O   UNL A   1      38.758  37.607  40.601  1.00  0.00    -0.237 OA
ATOM     97  O   UNL A   1      37.801  35.634  41.745  1.00  0.00    -0.237 OA
ATOM     98  O   UNL A   1      40.200  36.150  41.976  1.00  0.00    -0.744 OA
ENDBRANCH  94  95
ENDBRANCH  62  87
ENDBRANCH  36  37
ENDBRANCH  28  31
ENDBRANCH  26  27
ENDBRANCH  25  26
ENDBRANCH  24  25
ENDBRANCH   1  24
TORSDOF 19
ENDMDL
MODEL 2
REMARK VINA RESULT:     -10.2      6.606     12.375
REMARK SMILES O=C(C[C@@H]1C[N@@H+](CCSc2ccccc2F)CCO1)NCCCCNC(=O)c1ccc(-c2c3nc(c(-c4c(F)cc(S(=O)(=O)[O-])cc4F)c4ccc([nH]4)c(-c4c(F)cc(S(=O)(=O)[O-])cc4F)c4nc(c(-c5c(F)cc(S(=O)(=O)[O-])cc5F)c5ccc2[nH]5)C=C4)C=C3)cc1
REMARK SMILES IDX 21 1 20 2 1 3 2 4 3 6 4 7 5 8 19 9 6 10 18 11 17 12 7 14
REMARK SMILES IDX 8 15 9 16 10 17 11 18 15 19 12 20 14 21 16 22 13 23 22 24
REMARK SMILES IDX 23 25 24 26 25 27 26 28 27 30 28 31 29 32 93 33 30 34 92 35
REMARK SMILES IDX 31 36 32 37 33 38 86 39 34 40 91 41 85 42 87 43 35 44 90 45
REMARK SMILES IDX 84 46 83 47 36 49 70 50 49 51 69 52 50 53 53 54 68 55 88 56
REMARK SMILES IDX 51 57 52 58 67 60 89 61 54 62 37 63 38 64 47 65 39 66 40 67
REMARK SMILES IDX 46 68 48 69 41 70 42 71 43 72 44 73 45 74 71 75 72 76 81 77
REMARK SMILES IDX 73 78 74 79 80 80 82 81 75 82 76 83 77 84 78 85 79 86 55 87
REMARK SMILES IDX 56 88 65 89 57 90 58 91 64 92 66 93 59 94 60 95 61 96 62 97
REMARK SMILES IDX 63 98
REMARK H PARENT 20 5 6 13 25 29 87 48 53 59
REMARK Flexibility Score: inf
ROOT
ATOM      1  C   UNL A   1      34.686  30.476  27.596  1.00  0.00     0.116 C 
ENDROOT
BRANCH   1   2
ATOM      2  N   UNL A   1      33.792  30.400  26.471  1.00  0.00    -0.356 N 
ATOM      3  O   UNL A   1      31.971  29.512  27.552  1.00  0.00    -0.275 OA
ATOM      4  C   UNL A   1      32.520  29.895  26.536  1.00  0.00     0.222 C 
ATOM      5  H   UNL A   1      34.115  30.731  25.602  1.00  0.00     0.163 HD
BRANCH   4   6
ATOM      6  C   UNL A   1      31.906  29.843  25.166  1.00  0.00     0.138 C 
BRANCH   6   7
ATOM      7  C   UNL A   1      31.481  28.445  24.695  1.00  0.00     0.182 C 
ATOM      8  C   UNL A   1      32.596  27.379  24.346  1.00  0.00     0.295 C 
ATOM      9  O   UNL A   1      30.638  28.786  23.588  1.00  0.00    -0.366 OA
ATOM     10  N   UNL A   1      32.245  26.335  23.362  1.00  0.00    -0.330 N 
ATOM     11  C   UNL A   1      30.260  27.650  22.851  1.00  0.00     0.222 C 
ATOM     12  C   UNL A   1      31.518  26.993  22.300  1.00  0.00     0.291 C 
ATOM     13  H   UNL A   1      33.137  25.943  23.059  1.00  0.00     0.348 HD
BRANCH  10  14
ATOM     14  C   UNL A   1      31.677  25.040  23.787  1.00  0.00     0.273 C 
BRANCH  14  15
ATOM     15  C   UNL A   1      32.369  24.007  24.775  1.00  0.00     0.136 C 
BRANCH  15  16
ATOM     16  S   UNL A   1      33.940  23.012  24.435  1.00  0.00    -0.117 SA
BRANCH  16  17
ATOM     17  C   UNL A   1      33.520  21.264  24.343  1.00  0.00     0.043 A 
ATOM     18  C   UNL A   1      34.424  20.375  24.953  1.00  0.00     0.018 A 
ATOM     19  C   UNL A   1      32.437  20.710  23.651  1.00  0.00     0.136 A 
ATOM     20  C   UNL A   1      34.387  19.003  24.672  1.00  0.00     0.001 A 
ATOM     21  C   UNL A   1      32.359  19.324  23.420  1.00  0.00     0.040 A 
ATOM     22  F   UNL A   1      31.517  21.493  23.067  1.00  0.00    -0.206 F 
ATOM     23  C   UNL A   1      33.375  18.480  23.874  1.00  0.00     0.003 A 
ENDBRANCH  16  17
ENDBRANCH  15  16
ENDBRANCH  14  15
ENDBRANCH  10  14
ENDBRANCH   6   7
ENDBRANCH   4   6
ENDBRANCH   1   2
BRANCH   1  24
ATOM     24  C   UNL A   1      34.610  31.879  28.187  1.00  0.00     0.023 C 
BRANCH  24  25
ATOM     25  C   UNL A   1      35.886  32.712  27.993  1.00  0.00     0.023 C 
BRANCH  25  26
ATOM     26  C   UNL A   1      36.753  32.838  29.242  1.00  0.00     0.116 C 
BRANCH  26  27
ATOM     27  N   UNL A   1      36.294  31.947  30.292  1.00  0.00    -0.352 N 
ATOM     28  C   UNL A   1      36.773  30.713  30.650  1.00  0.00     0.251 C 
ATOM     29  H   UNL A   1      35.531  32.274  30.822  1.00  0.00     0.163 HD
ATOM     30  O   UNL A   1      36.093  29.976  31.356  1.00  0.00    -0.269 OA
BRANCH  28  31
ATOM     31  C   UNL A   1      38.103  30.276  30.176  1.00  0.00     0.039 A 
ATOM     32  C   UNL A   1      38.286  30.021  28.816  1.00  0.00     0.014 A 
ATOM     33  C   UNL A   1      39.159  30.100  31.075  1.00  0.00     0.014 A 
ATOM     34  C   UNL A   1      39.546  29.640  28.351  1.00  0.00     0.010 A 
ATOM     35  C   UNL A   1      40.432  29.796  30.599  1.00  0.00     0.010 A 
ATOM     36  C   UNL A   1      40.638  29.558  29.232  1.00  0.00    -0.014 A 
BRANCH  36  37
ATOM     37  C   UNL A   1      42.000  29.229  28.740  1.00  0.00     0.031 A 
ATOM     38  C   UNL A   1      42.337  27.825  28.319  1.00  0.00     0.074 A 
ATOM     39  C   UNL A   1      42.948  30.187  28.720  1.00  0.00     0.049 A 
ATOM     40  N   UNL A   1      43.483  27.337  27.918  1.00  0.00    -0.248 NA
ATOM     41  C   UNL A   1      41.252  26.832  28.373  1.00  0.00     0.031 C 
ATOM     42  C   UNL A   1      42.752  31.577  29.138  1.00  0.00     0.029 A 
ATOM     43  N   UNL A   1      44.265  30.141  28.335  1.00  0.00    -0.354 N 
ATOM     44  C   UNL A   1      43.259  25.987  27.678  1.00  0.00     0.074 A 
ATOM     45  C   UNL A   1      41.884  25.718  28.036  1.00  0.00     0.031 C 
ATOM     46  C   UNL A   1      43.894  32.256  28.956  1.00  0.00     0.029 A 
ATOM     47  C   UNL A   1      44.918  31.344  28.456  1.00  0.00     0.049 A 
ATOM     48  H   UNL A   1      44.700  29.322  28.005  1.00  0.00     0.167 HD
ATOM     49  C   UNL A   1      44.113  25.064  27.175  1.00  0.00     0.037 A 
ATOM     50  C   UNL A   1      46.199  31.678  28.199  1.00  0.00     0.037 A 
ATOM     51  C   UNL A   1      45.476  25.345  26.805  1.00  0.00     0.049 A 
ATOM     52  C   UNL A   1      47.139  30.629  27.673  1.00  0.00     0.074 A 
ATOM     53  C   UNL A   1      46.409  24.485  26.251  1.00  0.00     0.029 A 
ATOM     54  N   UNL A   1      46.103  26.575  26.950  1.00  0.00    -0.354 N 
ATOM     55  N   UNL A   1      46.896  29.367  27.408  1.00  0.00    -0.248 NA
ATOM     56  C   UNL A   1      48.523  31.044  27.406  1.00  0.00     0.031 C 
ATOM     57  C   UNL A   1      47.614  25.180  26.112  1.00  0.00     0.029 A 
ATOM     58  C   UNL A   1      47.417  26.489  26.521  1.00  0.00     0.049 A 
ATOM     59  H   UNL A   1      45.676  27.387  27.307  1.00  0.00     0.167 HD
ATOM     60  C   UNL A   1      48.091  28.843  26.924  1.00  0.00     0.074 A 
ATOM     61  C   UNL A   1      49.050  29.928  26.921  1.00  0.00     0.031 C 
ATOM     62  C   UNL A   1      48.364  27.578  26.521  1.00  0.00     0.037 A 
BRANCH  49  63
ATOM     63  C   UNL A   1      43.598  23.663  26.980  1.00  0.00     0.058 A 
ATOM     64  C   UNL A   1      43.249  23.199  25.701  1.00  0.00     0.135 A 
ATOM     65  C   UNL A   1      43.389  22.798  28.067  1.00  0.00     0.135 A 
ATOM     66  F   UNL A   1      43.431  23.980  24.624  1.00  0.00    -0.206 F 
ATOM     67  C   UNL A   1      42.701  21.935  25.510  1.00  0.00     0.059 A 
ATOM     68  C   UNL A   1      42.871  21.518  27.896  1.00  0.00     0.059 A 
ATOM     69  F   UNL A   1      43.724  23.183  29.310  1.00  0.00    -0.206 F 
ATOM     70  C   UNL A   1      42.516  21.101  26.614  1.00  0.00     0.060 A 
BRANCH  70  71
ATOM     71  S   UNL A   1      41.836  19.451  26.343  1.00  0.00     0.124 S 
ATOM     72  O   UNL A   1      40.404  19.719  26.290  1.00  0.00    -0.237 OA
ATOM     73  O   UNL A   1      42.460  19.069  25.079  1.00  0.00    -0.237 OA
ATOM     74  O   UNL A   1      42.295  18.700  27.509  1.00  0.00    -0.744 OA
ENDBRANCH  70  71
ENDBRANCH  49  63
BRANCH  50  75
ATOM     75  C   UNL A   1      46.648  33.080  28.413  1.00  0.00     0.058 A 
ATOM     76  C   UNL A   1      47.187  33.494  29.642  1.00  0.00     0.135 A 
ATOM     77  C   UNL A   1      46.496  34.048  27.409  1.00  0.00     0.135 A 
ATOM     78  F   UNL A   1      47.343  32.611  30.641  1.00  0.00    -0.206 F 
ATOM     79  C   UNL A   1      47.528  34.821  29.879  1.00  0.00     0.059 A 
ATOM     80  C   UNL A   1      46.856  35.378  27.612  1.00  0.00     0.059 A 
ATOM     81  F   UNL A   1      45.996  33.698  26.213  1.00  0.00    -0.206 F 
ATOM     82  C   UNL A   1      47.352  35.757  28.858  1.00  0.00     0.060 A 
BRANCH  82  83
ATOM     83  S   UNL A   1      47.770  37.480  29.199  1.00  0.00     0.124 S 
ATOM     84  O   UNL A   1      47.510  37.563  30.633  1.00  0.00    -0.237 OA
ATOM     85  O   UNL A   1      49.173  37.536  28.804  1.00  0.00    -0.237 OA
ATOM     86  O   UNL A   1      46.849  38.226  28.349  1.00  0.00    -0.744 OA
ENDBRANCH  82  83
ENDBRANCH  50  75
BRANCH  62  87
ATOM     87  C   UNL A   1      49.753  27.284  26.019  1.00  0.00     0.058 A 
ATOM     88  C   UNL A   1      50.028  27.293  24.642  1.00  0.00     0.135 A 
ATOM     89  C   UNL A   1      50.786  26.906  26.891  1.00  0.00     0.135 A 
ATOM     90  F   UNL A   1      49.074  27.641  23.762  1.00  0.00    -0.206 F 
ATOM     91  C   UNL A   1      51.269  26.911  24.145  1.00  0.00     0.059 A 
ATOM     92  C   UNL A   1      52.046  26.551  26.417  1.00  0.00     0.059 A 
ATOM     93  F   UNL A   1      50.579  26.893  28.217  1.00  0.00    -0.206 F 
ATOM     94  C   UNL A   1      52.271  26.539  25.041  1.00  0.00     0.060 A 
BRANCH  94  95
ATOM     95  S   UNL A   1      53.876  26.048  24.377  1.00  0.00     0.124 S 
ATOM     96  O   UNL A   1      54.787  26.910  25.122  1.00  0.00    -0.237 OA
ATOM     97  O   UNL A   1      53.927  24.628  24.714  1.00  0.00    -0.237 OA
ATOM     98  O   UNL A   1      53.759  26.343  22.952  1.00  0.00    -0.744 OA
ENDBRANCH  94  95
ENDBRANCH  62  87
ENDBRANCH  36  37
ENDBRANCH  28  31
ENDBRANCH  26  27
ENDBRANCH  25  26
ENDBRANCH  24  25
ENDBRANCH   1  24
TORSDOF 19
ENDMDL
MODEL 3
REMARK VINA RESULT:     -10.1      6.526     12.272
REMARK SMILES O=C(C[C@@H]1C[N@@H+](CCSc2ccccc2F)CCO1)NCCCCNC(=O)c1ccc(-c2c3nc(c(-c4c(F)cc(S(=O)(=O)[O-])cc4F)c4ccc([nH]4)c(-c4c(F)cc(S(=O)(=O)[O-])cc4F)c4nc(c(-c5c(F)cc(S(=O)(=O)[O-])cc5F)c5ccc2[nH]5)C=C4)C=C3)cc1
REMARK SMILES IDX 21 1 20 2 1 3 2 4 3 6 4 7 5 8 19 9 6 10 18 11 17 12 7 14
REMARK SMILES IDX 8 15 9 16 10 17 11 18 15 19 12 20 14 21 16 22 13 23 22 24
REMARK SMILES IDX 23 25 24 26 25 27 26 28 27 30 28 31 29 32 93 33 30 34 92 35
REMARK SMILES IDX 31 36 32 37 33 38 86 39 34 40 91 41 85 42 87 43 35 44 90 45
REMARK SMILES IDX 84 46 83 47 36 49 70 50 49 51 69 52 50 53 53 54 68 55 88 56
REMARK SMILES IDX 51 57 52 58 67 60 89 61 54 62 37 63 38 64 47 65 39 66 40 67
REMARK SMILES IDX 46 68 48 69 41 70 42 71 43 72 44 73 45 74 71 75 72 76 81 77
REMARK SMILES IDX 73 78 74 79 80 80 82 81 75 82 76 83 77 84 78 85 79 86 55 87
REMARK SMILES IDX 56 88 65 89 57 90 58 91 64 92 66 93 59 94 60 95 61 96 62 97
REMARK SMILES IDX 63 98
REMARK H PARENT 20 5 6 13 25 29 87 48 53 59
REMARK Flexibility Score: inf
ROOT
ATOM      1  C   UNL A   1      35.608  32.201  27.854  1.00  0.00     0.116 C 
ENDROOT
BRANCH   1   2
ATOM      2  N   UNL A   1      34.359  31.590  27.486  1.00  0.00    -0.356 N 
ATOM      3  O   UNL A   1      34.997  29.391  27.663  1.00  0.00    -0.275 OA
ATOM      4  C   UNL A   1      34.166  30.237  27.391  1.00  0.00     0.222 C 
ATOM      5  H   UNL A   1      33.595  32.181  27.291  1.00  0.00     0.163 HD
BRANCH   4   6
ATOM      6  C   UNL A   1      32.791  29.939  26.863  1.00  0.00     0.138 C 
BRANCH   6   7
ATOM      7  C   UNL A   1      32.658  28.612  26.104  1.00  0.00     0.182 C 
ATOM      8  C   UNL A   1      32.582  28.633  24.524  1.00  0.00     0.295 C 
ATOM      9  O   UNL A   1      31.494  28.064  26.733  1.00  0.00    -0.366 OA
ATOM     10  N   UNL A   1      31.867  27.518  23.869  1.00  0.00    -0.330 N 
ATOM     11  C   UNL A   1      31.041  26.906  26.077  1.00  0.00     0.222 C 
ATOM     12  C   UNL A   1      30.674  27.276  24.647  1.00  0.00     0.291 C 
ATOM     13  H   UNL A   1      31.674  27.845  22.922  1.00  0.00     0.348 HD
BRANCH  10  14
ATOM     14  C   UNL A   1      32.581  26.299  23.438  1.00  0.00     0.273 C 
BRANCH  14  15
ATOM     15  C   UNL A   1      31.900  24.975  22.890  1.00  0.00     0.136 C 
BRANCH  15  16
ATOM     16  S   UNL A   1      31.527  23.412  23.886  1.00  0.00    -0.117 SA
BRANCH  16  17
ATOM     17  C   UNL A   1      33.042  22.838  24.669  1.00  0.00     0.043 A 
ATOM     18  C   UNL A   1      33.520  21.582  24.252  1.00  0.00     0.018 A 
ATOM     19  C   UNL A   1      33.730  23.479  25.707  1.00  0.00     0.136 A 
ATOM     20  C   UNL A   1      34.481  20.891  25.002  1.00  0.00     0.001 A 
ATOM     21  C   UNL A   1      34.741  22.813  26.424  1.00  0.00     0.040 A 
ATOM     22  F   UNL A   1      33.352  24.691  26.140  1.00  0.00    -0.206 F 
ATOM     23  C   UNL A   1      35.067  21.491  26.112  1.00  0.00     0.003 A 
ENDBRANCH  16  17
ENDBRANCH  15  16
ENDBRANCH  14  15
ENDBRANCH  10  14
ENDBRANCH   6   7
ENDBRANCH   4   6
ENDBRANCH   1   2
BRANCH   1  24
ATOM     24  C   UNL A   1      35.330  33.600  28.390  1.00  0.00     0.023 C 
BRANCH  24  25
ATOM     25  C   UNL A   1      35.602  33.763  29.893  1.00  0.00     0.023 C 
BRANCH  25  26
ATOM     26  C   UNL A   1      36.805  32.977  30.406  1.00  0.00     0.116 C 
BRANCH  26  27
ATOM     27  N   UNL A   1      36.387  31.830  31.192  1.00  0.00    -0.352 N 
ATOM     28  C   UNL A   1      36.904  30.559  31.210  1.00  0.00     0.251 C 
ATOM     29  H   UNL A   1      35.627  31.985  31.796  1.00  0.00     0.163 HD
ATOM     30  O   UNL A   1      36.254  29.645  31.705  1.00  0.00    -0.269 OA
BRANCH  28  31
ATOM     31  C   UNL A   1      38.235  30.300  30.623  1.00  0.00     0.039 A 
ATOM     32  C   UNL A   1      39.328  30.129  31.474  1.00  0.00     0.014 A 
ATOM     33  C   UNL A   1      38.406  30.245  29.236  1.00  0.00     0.014 A 
ATOM     34  C   UNL A   1      40.584  29.850  30.933  1.00  0.00     0.010 A 
ATOM     35  C   UNL A   1      39.641  29.890  28.703  1.00  0.00     0.010 A 
ATOM     36  C   UNL A   1      40.746  29.694  29.545  1.00  0.00    -0.014 A 
BRANCH  36  37
ATOM     37  C   UNL A   1      42.060  29.321  28.961  1.00  0.00     0.031 A 
ATOM     38  C   UNL A   1      42.310  27.915  28.490  1.00  0.00     0.074 A 
ATOM     39  C   UNL A   1      43.045  30.240  28.902  1.00  0.00     0.049 A 
ATOM     40  N   UNL A   1      43.408  27.390  28.009  1.00  0.00    -0.248 NA
ATOM     41  C   UNL A   1      41.189  26.967  28.592  1.00  0.00     0.031 C 
ATOM     42  C   UNL A   1      42.934  31.626  29.361  1.00  0.00     0.029 A 
ATOM     43  N   UNL A   1      44.333  30.148  28.435  1.00  0.00    -0.354 N 
ATOM     44  C   UNL A   1      43.111  26.057  27.754  1.00  0.00     0.074 A 
ATOM     45  C   UNL A   1      41.751  25.835  28.192  1.00  0.00     0.031 C 
ATOM     46  C   UNL A   1      44.091  32.262  29.122  1.00  0.00     0.029 A 
ATOM     47  C   UNL A   1      45.043  31.321  28.539  1.00  0.00     0.049 A 
ATOM     48  H   UNL A   1      44.711  29.320  28.061  1.00  0.00     0.167 HD
ATOM     49  C   UNL A   1      43.892  25.111  27.179  1.00  0.00     0.037 A 
ATOM     50  C   UNL A   1      46.318  31.608  28.210  1.00  0.00     0.037 A 
ATOM     51  C   UNL A   1      45.241  25.345  26.731  1.00  0.00     0.049 A 
ATOM     52  C   UNL A   1      47.178  30.533  27.603  1.00  0.00     0.074 A 
ATOM     53  C   UNL A   1      46.100  24.461  26.101  1.00  0.00     0.029 A 
ATOM     54  N   UNL A   1      45.928  26.543  26.862  1.00  0.00    -0.354 N 
ATOM     55  N   UNL A   1      46.866  29.289  27.328  1.00  0.00    -0.248 NA
ATOM     56  C   UNL A   1      48.559  30.897  27.260  1.00  0.00     0.031 C 
ATOM     57  C   UNL A   1      47.323  25.108  25.902  1.00  0.00     0.029 A 
ATOM     58  C   UNL A   1      47.208  26.414  26.349  1.00  0.00     0.049 A 
ATOM     59  H   UNL A   1      45.559  27.364  27.262  1.00  0.00     0.167 HD
ATOM     60  C   UNL A   1      48.005  28.728  26.759  1.00  0.00     0.074 A 
ATOM     61  C   UNL A   1      49.007  29.772  26.718  1.00  0.00     0.031 C 
ATOM     62  C   UNL A   1      48.198  27.462  26.313  1.00  0.00     0.037 A 
BRANCH  49  63
ATOM     63  C   UNL A   1      43.308  23.738  26.988  1.00  0.00     0.058 A 
ATOM     64  C   UNL A   1      43.192  22.851  28.070  1.00  0.00     0.135 A 
ATOM     65  C   UNL A   1      42.920  23.273  25.720  1.00  0.00     0.135 A 
ATOM     66  F   UNL A   1      43.544  23.240  29.306  1.00  0.00    -0.206 F 
ATOM     67  C   UNL A   1      42.725  21.551  27.900  1.00  0.00     0.059 A 
ATOM     68  C   UNL A   1      42.421  21.988  25.532  1.00  0.00     0.059 A 
ATOM     69  F   UNL A   1      42.990  24.085  24.653  1.00  0.00    -0.206 F 
ATOM     70  C   UNL A   1      42.341  21.128  26.627  1.00  0.00     0.060 A 
BRANCH  70  71
ATOM     71  S   UNL A   1      41.704  19.451  26.431  1.00  0.00     0.124 S 
ATOM     72  O   UNL A   1      42.161  18.810  27.658  1.00  0.00    -0.237 OA
ATOM     73  O   UNL A   1      40.266  19.682  26.329  1.00  0.00    -0.237 OA
ATOM     74  O   UNL A   1      42.343  18.988  25.201  1.00  0.00    -0.744 OA
ENDBRANCH  70  71
ENDBRANCH  49  63
BRANCH  50  75
ATOM     75  C   UNL A   1      46.839  32.984  28.425  1.00  0.00     0.058 A 
ATOM     76  C   UNL A   1      47.399  33.369  29.654  1.00  0.00     0.135 A 
ATOM     77  C   UNL A   1      46.736  33.959  27.422  1.00  0.00     0.135 A 
ATOM     78  F   UNL A   1      47.510  32.478  30.652  1.00  0.00    -0.206 F 
ATOM     79  C   UNL A   1      47.807  34.676  29.891  1.00  0.00     0.059 A 
ATOM     80  C   UNL A   1      47.164  35.269  27.625  1.00  0.00     0.059 A 
ATOM     81  F   UNL A   1      46.218  33.637  26.226  1.00  0.00    -0.206 F 
ATOM     82  C   UNL A   1      47.680  35.621  28.871  1.00  0.00     0.060 A 
BRANCH  82  83
ATOM     83  S   UNL A   1      48.186  37.320  29.214  1.00  0.00     0.124 S 
ATOM     84  O   UNL A   1      49.304  37.110  30.128  1.00  0.00    -0.237 OA
ATOM     85  O   UNL A   1      48.536  37.806  27.883  1.00  0.00    -0.237 OA
ATOM     86  O   UNL A   1      46.993  37.916  29.806  1.00  0.00    -0.744 OA
ENDBRANCH  82  83
ENDBRANCH  50  75
BRANCH  62  87
ATOM     87  C   UNL A   1      49.540  27.124  25.719  1.00  0.00     0.058 A 
ATOM     88  C   UNL A   1      50.617  26.773  26.548  1.00  0.00     0.135 A 
ATOM     89  C   UNL A   1      49.784  27.236  24.341  1.00  0.00     0.135 A 
ATOM     90  F   UNL A   1      50.441  26.657  27.875  1.00  0.00    -0.206 F 
ATOM     91  C   UNL A   1      51.894  26.571  26.037  1.00  0.00     0.059 A 
ATOM     92  C   UNL A   1      51.048  27.008  23.803  1.00  0.00     0.059 A 
ATOM     93  F   UNL A   1      48.786  27.558  23.503  1.00  0.00    -0.206 F 
ATOM     94  C   UNL A   1      52.100  26.694  24.663  1.00  0.00     0.060 A 
BRANCH  94  95
ATOM     95  S   UNL A   1      53.765  26.427  24.018  1.00  0.00     0.124 S 
ATOM     96  O   UNL A   1      54.169  25.215  24.722  1.00  0.00    -0.237 OA
ATOM     97  O   UNL A   1      53.520  26.279  22.587  1.00  0.00    -0.237 OA
ATOM     98  O   UNL A   1      54.477  27.643  24.403  1.00  0.00    -0.744 OA
ENDBRANCH  94  95
ENDBRANCH  62  87
ENDBRANCH  36  37
ENDBRANCH  28  31
ENDBRANCH  26  27
ENDBRANCH  25  26
ENDBRANCH  24  25
ENDBRANCH   1  24
TORSDOF 19
ENDMDL
