MODEL 1
REMARK VINA RESULT:     -12.1      0.000      0.000
REMARK SMILES C[C@H](C(=O)NC1CCCC1)[N@@H+]1CCn2nc(CCC(=O)NCCCCNC(=O)c3ccc(-c4c5nc(c(-c6c(F)cc(S(=O)(=O)[O-])cc6F)c6ccc([nH]6)c(-c6c(F)cc(S(=O)(=O)[O-])cc6F)c6nc(c(-c7c(F)cc(S(=O)(=O)[O-])cc7F)c7ccc4[nH]7)C=C6)C=C5)cc3)cc2C1
REMARK SMILES IDX 22 1 21 2 19 3 20 4 18 6 17 7 16 8 11 9 12 10 97 11 13 13
REMARK SMILES IDX 96 14 14 15 95 16 15 17 2 18 1 19 3 20 4 21 5 22 6 24 7 25
REMARK SMILES IDX 10 26 8 27 9 28 23 29 24 30 25 31 26 32 27 33 28 35 29 36
REMARK SMILES IDX 30 37 94 38 31 39 93 40 32 41 33 42 34 43 87 44 35 45 92 46
REMARK SMILES IDX 86 47 88 48 36 49 91 50 85 51 84 52 37 54 71 55 50 56 70 57
REMARK SMILES IDX 51 58 54 59 69 60 89 61 52 62 53 63 68 65 90 66 55 67 38 68
REMARK SMILES IDX 39 69 48 70 40 71 41 72 47 73 49 74 42 75 43 76 44 77 45 78
REMARK SMILES IDX 46 79 72 80 73 81 82 82 74 83 75 84 81 85 83 86 76 87 77 88
REMARK SMILES IDX 78 89 79 90 80 91 56 92 57 93 66 94 58 95 59 96 65 97 67 98
REMARK SMILES IDX 60 99 61 100 62 101 63 102 64 103
REMARK H PARENT 21 5 11 12 5 23 26 34 88 53 54 64
REMARK Flexibility Score: inf
ROOT
ATOM      1  C   UNL A   1      38.734  23.041  26.440  1.00  0.00     0.116 C 
ENDROOT
BRANCH   1   2
ATOM      2  N   UNL A   1      37.921  21.899  26.071  1.00  0.00    -0.356 N 
ATOM      3  C   UNL A   1      36.970  21.795  25.098  1.00  0.00     0.220 C 
ATOM      4  O   UNL A   1      36.250  20.795  25.077  1.00  0.00    -0.275 OA
ATOM      5  H   UNL A   1      38.076  21.082  26.599  1.00  0.00     0.163 HD
BRANCH   3   6
ATOM      6  C   UNL A   1      36.803  22.888  24.064  1.00  0.00     0.106 C 
BRANCH   6   7
ATOM      7  C   UNL A   1      35.485  22.749  23.308  1.00  0.00     0.068 C 
BRANCH   7   8
ATOM      8  C   UNL A   1      34.465  23.783  23.673  1.00  0.00     0.063 A 
ATOM      9  N   UNL A   1      31.670  27.253  24.480  1.00  0.00    -0.318 N 
ATOM     10  C   UNL A   1      31.665  26.678  25.832  1.00  0.00     0.287 C 
ATOM     11  C   UNL A   1      31.744  26.269  23.409  1.00  0.00     0.319 C 
ATOM     12  H   UNL A   1      30.723  27.587  24.307  1.00  0.00     0.349 HD
ATOM     13  C   UNL A   1      32.533  25.424  26.093  1.00  0.00     0.206 C 
ATOM     14  C   UNL A   1      32.842  25.300  23.631  1.00  0.00     0.093 A 
ATOM     15  N   UNL A   1      33.161  24.912  24.895  1.00  0.00    -0.258 N 
ATOM     16  C   UNL A   1      33.672  24.579  22.802  1.00  0.00     0.055 A 
ATOM     17  N   UNL A   1      34.162  24.015  24.959  1.00  0.00    -0.177 NA
BRANCH   9  18
ATOM     18  C   UNL A   1      32.303  28.581  24.336  1.00  0.00     0.271 C 
ATOM     19  C   UNL A   1      33.698  28.540  24.967  1.00  0.00     0.086 C 
BRANCH  18  20
ATOM     20  C   UNL A   1      31.536  29.761  24.961  1.00  0.00     0.278 C 
ATOM     21  O   UNL A   1      31.885  30.292  26.020  1.00  0.00    -0.268 OA
ATOM     22  N   UNL A   1      30.450  30.291  24.334  1.00  0.00    -0.348 N 
ATOM     23  H   UNL A   1      30.035  31.039  24.821  1.00  0.00     0.163 HD
BRANCH  22  24
ATOM     24  C   UNL A   1      29.785  29.963  23.086  1.00  0.00     0.082 C 
ATOM     25  C   UNL A   1      28.819  28.784  23.151  1.00  0.00     0.025 C 
ATOM     26  C   UNL A   1      29.048  31.130  22.450  1.00  0.00     0.025 C 
ATOM     27  C   UNL A   1      27.468  29.262  22.633  1.00  0.00     0.002 C 
ATOM     28  C   UNL A   1      27.585  30.739  22.316  1.00  0.00     0.002 C 
ENDBRANCH  22  24
ENDBRANCH  18  20
ENDBRANCH   9  18
ENDBRANCH   7   8
ENDBRANCH   6   7
ENDBRANCH   3   6
ENDBRANCH   1   2
BRANCH   1  29
ATOM     29  C   UNL A   1      40.223  22.673  26.460  1.00  0.00     0.023 C 
BRANCH  29  30
ATOM     30  C   UNL A   1      40.544  21.176  26.646  1.00  0.00     0.023 C 
BRANCH  30  31
ATOM     31  C   UNL A   1      41.672  20.832  27.626  1.00  0.00     0.116 C 
BRANCH  31  32
ATOM     32  N   UNL A   1      42.795  20.181  26.958  1.00  0.00    -0.352 N 
ATOM     33  C   UNL A   1      43.278  20.537  25.715  1.00  0.00     0.251 C 
ATOM     34  H   UNL A   1      43.238  19.437  27.427  1.00  0.00     0.163 HD
ATOM     35  O   UNL A   1      43.225  19.786  24.750  1.00  0.00    -0.269 OA
BRANCH  33  36
ATOM     36  C   UNL A   1      43.929  21.872  25.621  1.00  0.00     0.039 A 
ATOM     37  C   UNL A   1      43.312  22.901  24.910  1.00  0.00     0.014 A 
ATOM     38  C   UNL A   1      45.058  22.137  26.397  1.00  0.00     0.014 A 
ATOM     39  C   UNL A   1      43.662  24.215  25.204  1.00  0.00     0.010 A 
ATOM     40  C   UNL A   1      45.367  23.433  26.735  1.00  0.00     0.010 A 
ATOM     41  C   UNL A   1      44.573  24.465  26.244  1.00  0.00    -0.014 A 
BRANCH  41  42
ATOM     42  C   UNL A   1      44.279  25.590  27.149  1.00  0.00     0.031 A 
ATOM     43  C   UNL A   1      45.127  26.812  26.901  1.00  0.00     0.074 A 
ATOM     44  C   UNL A   1      43.129  25.811  27.814  1.00  0.00     0.049 A 
ATOM     45  N   UNL A   1      46.017  27.351  27.669  1.00  0.00    -0.248 NA
ATOM     46  C   UNL A   1      45.033  27.444  25.572  1.00  0.00     0.031 C 
ATOM     47  C   UNL A   1      41.897  25.024  27.862  1.00  0.00     0.029 A 
ATOM     48  N   UNL A   1      42.801  26.936  28.502  1.00  0.00    -0.354 N 
ATOM     49  C   UNL A   1      46.494  28.478  26.995  1.00  0.00     0.074 A 
ATOM     50  C   UNL A   1      45.966  28.393  25.654  1.00  0.00     0.031 C 
ATOM     51  C   UNL A   1      40.898  25.794  28.350  1.00  0.00     0.029 A 
ATOM     52  C   UNL A   1      41.462  27.050  28.813  1.00  0.00     0.049 A 
ATOM     53  H   UNL A   1      43.466  27.616  28.758  1.00  0.00     0.167 HD
ATOM     54  C   UNL A   1      47.160  29.493  27.618  1.00  0.00     0.037 A 
ATOM     55  C   UNL A   1      40.868  28.122  29.384  1.00  0.00     0.037 A 
ATOM     56  C   UNL A   1      47.507  29.148  28.972  1.00  0.00     0.049 A 
ATOM     57  C   UNL A   1      41.934  28.907  30.068  1.00  0.00     0.074 A 
ATOM     58  C   UNL A   1      48.259  28.145  29.557  1.00  0.00     0.029 A 
ATOM     59  N   UNL A   1      46.718  29.643  29.985  1.00  0.00    -0.354 N 
ATOM     60  N   UNL A   1      42.653  28.455  31.063  1.00  0.00    -0.248 NA
ATOM     61  C   UNL A   1      42.498  30.060  29.381  1.00  0.00     0.031 C 
ATOM     62  C   UNL A   1      47.496  27.742  30.697  1.00  0.00     0.029 A 
ATOM     63  C   UNL A   1      46.367  28.562  30.759  1.00  0.00     0.049 A 
ATOM     64  H   UNL A   1      46.457  30.581  30.126  1.00  0.00     0.167 HD
ATOM     65  C   UNL A   1      43.921  28.991  30.878  1.00  0.00     0.074 A 
ATOM     66  C   UNL A   1      43.731  30.058  29.897  1.00  0.00     0.031 C 
ATOM     67  C   UNL A   1      45.048  28.357  31.328  1.00  0.00     0.037 A 
BRANCH  54  68
ATOM     68  C   UNL A   1      47.269  30.908  27.104  1.00  0.00     0.058 A 
ATOM     69  C   UNL A   1      48.530  31.531  26.995  1.00  0.00     0.135 A 
ATOM     70  C   UNL A   1      46.154  31.757  26.928  1.00  0.00     0.135 A 
ATOM     71  F   UNL A   1      49.658  30.825  27.172  1.00  0.00    -0.206 F 
ATOM     72  C   UNL A   1      48.672  32.902  26.765  1.00  0.00     0.059 A 
ATOM     73  C   UNL A   1      46.273  33.113  26.642  1.00  0.00     0.059 A 
ATOM     74  F   UNL A   1      44.903  31.322  27.125  1.00  0.00    -0.206 F 
ATOM     75  C   UNL A   1      47.534  33.686  26.602  1.00  0.00     0.060 A 
BRANCH  75  76
ATOM     76  S   UNL A   1      47.700  35.471  26.403  1.00  0.00     0.124 S 
ATOM     77  O   UNL A   1      48.858  35.556  25.520  1.00  0.00    -0.237 OA
ATOM     78  O   UNL A   1      46.419  35.841  25.811  1.00  0.00    -0.237 OA
ATOM     79  O   UNL A   1      47.910  35.940  27.770  1.00  0.00    -0.744 OA
ENDBRANCH  75  76
ENDBRANCH  54  68
BRANCH  55  80
ATOM     80  C   UNL A   1      39.497  28.621  29.124  1.00  0.00     0.058 A 
ATOM     81  C   UNL A   1      38.552  28.739  30.154  1.00  0.00     0.135 A 
ATOM     82  C   UNL A   1      39.154  29.213  27.888  1.00  0.00     0.135 A 
ATOM     83  F   UNL A   1      38.813  28.233  31.368  1.00  0.00    -0.206 F 
ATOM     84  C   UNL A   1      37.349  29.429  29.979  1.00  0.00     0.059 A 
ATOM     85  C   UNL A   1      37.955  29.891  27.686  1.00  0.00     0.059 A 
ATOM     86  F   UNL A   1      40.018  29.223  26.861  1.00  0.00    -0.206 F 
ATOM     87  C   UNL A   1      37.065  30.013  28.745  1.00  0.00     0.060 A 
BRANCH  87  88
ATOM     88  S   UNL A   1      35.588  31.039  28.566  1.00  0.00     0.124 S 
ATOM     89  O   UNL A   1      36.095  32.160  27.782  1.00  0.00    -0.237 OA
ATOM     90  O   UNL A   1      34.672  30.138  27.875  1.00  0.00    -0.237 OA
ATOM     91  O   UNL A   1      35.226  31.355  29.945  1.00  0.00    -0.744 OA
ENDBRANCH  87  88
ENDBRANCH  55  80
BRANCH  67  92
ATOM     92  C   UNL A   1      44.896  27.172  32.259  1.00  0.00     0.058 A 
ATOM     93  C   UNL A   1      44.646  27.283  33.637  1.00  0.00     0.135 A 
ATOM     94  C   UNL A   1      44.819  25.880  31.714  1.00  0.00     0.135 A 
ATOM     95  F   UNL A   1      44.576  28.477  34.231  1.00  0.00    -0.206 F 
ATOM     96  C   UNL A   1      44.378  26.177  34.443  1.00  0.00     0.059 A 
ATOM     97  C   UNL A   1      44.519  24.761  32.492  1.00  0.00     0.059 A 
ATOM     98  F   UNL A   1      44.977  25.699  30.392  1.00  0.00    -0.206 F 
ATOM     99  C   UNL A   1      44.312  24.916  33.861  1.00  0.00     0.060 A 
BRANCH  99 100
ATOM    100  S   UNL A   1      43.867  23.506  34.896  1.00  0.00     0.124 S 
ATOM    101  O   UNL A   1      44.557  23.814  36.145  1.00  0.00    -0.237 OA
ATOM    102  O   UNL A   1      42.409  23.589  34.941  1.00  0.00    -0.237 OA
ATOM    103  O   UNL A   1      44.393  22.362  34.155  1.00  0.00    -0.744 OA
ENDBRANCH  99 100
ENDBRANCH  67  92
ENDBRANCH  41  42
ENDBRANCH  33  36
ENDBRANCH  31  32
ENDBRANCH  30  31
ENDBRANCH  29  30
ENDBRANCH   1  29
TORSDOF 19
ENDMDL
MODEL 2
REMARK VINA RESULT:     -11.4      2.560      3.616
REMARK SMILES C[C@H](C(=O)NC1CCCC1)[N@@H+]1CCn2nc(CCC(=O)NCCCCNC(=O)c3ccc(-c4c5nc(c(-c6c(F)cc(S(=O)(=O)[O-])cc6F)c6ccc([nH]6)c(-c6c(F)cc(S(=O)(=O)[O-])cc6F)c6nc(c(-c7c(F)cc(S(=O)(=O)[O-])cc7F)c7ccc4[nH]7)C=C6)C=C5)cc3)cc2C1
REMARK SMILES IDX 22 1 21 2 19 3 20 4 18 6 17 7 16 8 11 9 12 10 97 11 13 13
REMARK SMILES IDX 96 14 14 15 95 16 15 17 2 18 1 19 3 20 4 21 5 22 6 24 7 25
REMARK SMILES IDX 10 26 8 27 9 28 23 29 24 30 25 31 26 32 27 33 28 35 29 36
REMARK SMILES IDX 30 37 94 38 31 39 93 40 32 41 33 42 34 43 87 44 35 45 92 46
REMARK SMILES IDX 86 47 88 48 36 49 91 50 85 51 84 52 37 54 71 55 50 56 70 57
REMARK SMILES IDX 51 58 54 59 69 60 89 61 52 62 53 63 68 65 90 66 55 67 38 68
REMARK SMILES IDX 39 69 48 70 40 71 41 72 47 73 49 74 42 75 43 76 44 77 45 78
REMARK SMILES IDX 46 79 72 80 73 81 82 82 74 83 75 84 81 85 83 86 76 87 77 88
REMARK SMILES IDX 78 89 79 90 80 91 56 92 57 93 66 94 58 95 59 96 65 97 67 98
REMARK SMILES IDX 60 99 61 100 62 101 63 102 64 103
REMARK H PARENT 21 5 11 12 5 23 26 34 88 53 54 64
REMARK Flexibility Score: inf
ROOT
ATOM      1  C   UNL A   1      40.015  21.822  26.582  1.00  0.00     0.116 C 
ENDROOT
BRANCH   1   2
ATOM      2  N   UNL A   1      39.262  20.879  25.779  1.00  0.00    -0.356 N 
ATOM      3  C   UNL A   1      38.051  21.037  25.171  1.00  0.00     0.220 C 
ATOM      4  O   UNL A   1      37.488  20.046  24.702  1.00  0.00    -0.275 OA
ATOM      5  H   UNL A   1      39.684  19.998  25.655  1.00  0.00     0.163 HD
BRANCH   3   6
ATOM      6  C   UNL A   1      37.409  22.405  25.077  1.00  0.00     0.106 C 
BRANCH   6   7
ATOM      7  C   UNL A   1      36.542  22.534  23.828  1.00  0.00     0.068 C 
BRANCH   7   8
ATOM      8  C   UNL A   1      35.333  23.398  24.015  1.00  0.00     0.063 A 
ATOM      9  N   UNL A   1      31.640  26.018  24.046  1.00  0.00    -0.318 N 
ATOM     10  C   UNL A   1      32.373  26.699  25.122  1.00  0.00     0.287 C 
ATOM     11  C   UNL A   1      31.831  24.576  24.007  1.00  0.00     0.319 C 
ATOM     12  H   UNL A   1      30.658  26.030  24.315  1.00  0.00     0.349 HD
ATOM     13  C   UNL A   1      33.777  26.168  25.495  1.00  0.00     0.206 C 
ATOM     14  C   UNL A   1      33.265  24.211  24.053  1.00  0.00     0.093 A 
ATOM     15  N   UNL A   1      34.135  24.963  24.779  1.00  0.00    -0.258 N 
ATOM     16  C   UNL A   1      34.012  23.174  23.541  1.00  0.00     0.055 A 
ATOM     17  N   UNL A   1      35.404  24.516  24.753  1.00  0.00    -0.177 NA
BRANCH   9  18
ATOM     18  C   UNL A   1      31.441  26.791  22.801  1.00  0.00     0.271 C 
ATOM     19  C   UNL A   1      32.017  25.997  21.623  1.00  0.00     0.086 C 
BRANCH  18  20
ATOM     20  C   UNL A   1      32.070  28.196  22.775  1.00  0.00     0.278 C 
ATOM     21  O   UNL A   1      33.247  28.390  22.457  1.00  0.00    -0.268 OA
ATOM     22  N   UNL A   1      31.322  29.295  23.072  1.00  0.00    -0.348 N 
ATOM     23  H   UNL A   1      31.823  30.141  23.026  1.00  0.00     0.163 HD
BRANCH  22  24
ATOM     24  C   UNL A   1      29.928  29.458  23.442  1.00  0.00     0.082 C 
ATOM     25  C   UNL A   1      29.527  30.866  23.870  1.00  0.00     0.025 C 
ATOM     26  C   UNL A   1      28.945  29.001  22.378  1.00  0.00     0.025 C 
ATOM     27  C   UNL A   1      28.351  31.297  23.003  1.00  0.00     0.002 C 
ATOM     28  C   UNL A   1      28.075  30.190  22.006  1.00  0.00     0.002 C 
ENDBRANCH  22  24
ENDBRANCH  18  20
ENDBRANCH   9  18
ENDBRANCH   7   8
ENDBRANCH   6   7
ENDBRANCH   3   6
ENDBRANCH   1   2
BRANCH   1  29
ATOM     29  C   UNL A   1      41.267  21.163  27.175  1.00  0.00     0.023 C 
BRANCH  29  30
ATOM     30  C   UNL A   1      42.346  20.732  26.160  1.00  0.00     0.023 C 
BRANCH  30  31
ATOM     31  C   UNL A   1      43.060  21.855  25.398  1.00  0.00     0.116 C 
BRANCH  31  32
ATOM     32  N   UNL A   1      43.875  22.681  26.283  1.00  0.00    -0.352 N 
ATOM     33  C   UNL A   1      43.870  24.061  26.288  1.00  0.00     0.251 C 
ATOM     34  H   UNL A   1      44.471  22.222  26.919  1.00  0.00     0.163 HD
ATOM     35  O   UNL A   1      44.851  24.724  25.978  1.00  0.00    -0.269 OA
BRANCH  33  36
ATOM     36  C   UNL A   1      42.615  24.711  26.755  1.00  0.00     0.039 A 
ATOM     37  C   UNL A   1      42.117  24.433  28.028  1.00  0.00     0.014 A 
ATOM     38  C   UNL A   1      42.047  25.730  25.989  1.00  0.00     0.014 A 
ATOM     39  C   UNL A   1      41.255  25.351  28.620  1.00  0.00     0.010 A 
ATOM     40  C   UNL A   1      41.243  26.669  26.588  1.00  0.00     0.010 A 
ATOM     41  C   UNL A   1      40.964  26.550  27.946  1.00  0.00    -0.014 A 
BRANCH  41  42
ATOM     42  C   UNL A   1      40.925  27.787  28.747  1.00  0.00     0.031 A 
ATOM     43  C   UNL A   1      41.971  28.801  28.356  1.00  0.00     0.074 A 
ATOM     44  C   UNL A   1      39.868  28.277  29.421  1.00  0.00     0.049 A 
ATOM     45  N   UNL A   1      42.981  29.229  29.042  1.00  0.00    -0.248 NA
ATOM     46  C   UNL A   1      41.932  29.318  26.977  1.00  0.00     0.031 C 
ATOM     47  C   UNL A   1      38.516  27.743  29.582  1.00  0.00     0.029 A 
ATOM     48  N   UNL A   1      39.786  29.501  30.008  1.00  0.00    -0.354 N 
ATOM     49  C   UNL A   1      43.623  30.182  28.248  1.00  0.00     0.074 A 
ATOM     50  C   UNL A   1      43.026  30.079  26.939  1.00  0.00     0.031 C 
ATOM     51  C   UNL A   1      37.700  28.728  30.024  1.00  0.00     0.029 A 
ATOM     52  C   UNL A   1      38.507  29.891  30.346  1.00  0.00     0.049 A 
ATOM     53  H   UNL A   1      40.576  30.064  30.176  1.00  0.00     0.167 HD
ATOM     54  C   UNL A   1      44.494  31.106  28.751  1.00  0.00     0.037 A 
ATOM     55  C   UNL A   1      38.148  31.103  30.829  1.00  0.00     0.037 A 
ATOM     56  C   UNL A   1      44.836  30.824  30.120  1.00  0.00     0.049 A 
ATOM     57  C   UNL A   1      39.372  31.731  31.402  1.00  0.00     0.074 A 
ATOM     58  C   UNL A   1      45.417  29.754  30.777  1.00  0.00     0.029 A 
ATOM     59  N   UNL A   1      44.200  31.546  31.105  1.00  0.00    -0.354 N 
ATOM     60  N   UNL A   1      40.042  31.243  32.414  1.00  0.00    -0.248 NA
ATOM     61  C   UNL A   1      40.104  32.692  30.590  1.00  0.00     0.031 C 
ATOM     62  C   UNL A   1      44.648  29.604  31.972  1.00  0.00     0.029 A 
ATOM     63  C   UNL A   1      43.693  30.624  31.989  1.00  0.00     0.049 A 
ATOM     64  H   UNL A   1      44.123  32.526  31.162  1.00  0.00     0.167 HD
ATOM     65  C   UNL A   1      41.377  31.513  32.140  1.00  0.00     0.074 A 
ATOM     66  C   UNL A   1      41.339  32.504  31.067  1.00  0.00     0.031 C 
ATOM     67  C   UNL A   1      42.388  30.721  32.615  1.00  0.00     0.037 A 
BRANCH  54  68
ATOM     68  C   UNL A   1      44.837  32.424  28.099  1.00  0.00     0.058 A 
ATOM     69  C   UNL A   1      46.132  32.651  27.590  1.00  0.00     0.135 A 
ATOM     70  C   UNL A   1      44.000  33.560  28.162  1.00  0.00     0.135 A 
ATOM     71  F   UNL A   1      47.021  31.647  27.512  1.00  0.00    -0.206 F 
ATOM     72  C   UNL A   1      46.577  33.919  27.206  1.00  0.00     0.059 A 
ATOM     73  C   UNL A   1      44.402  34.820  27.731  1.00  0.00     0.059 A 
ATOM     74  F   UNL A   1      42.791  33.511  28.735  1.00  0.00    -0.206 F 
ATOM     75  C   UNL A   1      45.705  35.000  27.293  1.00  0.00     0.060 A 
BRANCH  75  76
ATOM     76  S   UNL A   1      46.294  36.658  26.893  1.00  0.00     0.124 S 
ATOM     77  O   UNL A   1      46.957  37.035  28.136  1.00  0.00    -0.237 OA
ATOM     78  O   UNL A   1      47.169  36.413  25.751  1.00  0.00    -0.237 OA
ATOM     79  O   UNL A   1      45.063  37.382  26.587  1.00  0.00    -0.744 OA
ENDBRANCH  75  76
ENDBRANCH  54  68
BRANCH  55  80
ATOM     80  C   UNL A   1      36.882  31.824  30.563  1.00  0.00     0.058 A 
ATOM     81  C   UNL A   1      36.172  32.463  31.591  1.00  0.00     0.135 A 
ATOM     82  C   UNL A   1      36.457  32.099  29.245  1.00  0.00     0.135 A 
ATOM     83  F   UNL A   1      36.531  32.281  32.870  1.00  0.00    -0.206 F 
ATOM     84  C   UNL A   1      35.120  33.344  31.328  1.00  0.00     0.059 A 
ATOM     85  C   UNL A   1      35.402  32.961  28.958  1.00  0.00     0.059 A 
ATOM     86  F   UNL A   1      37.115  31.601  28.186  1.00  0.00    -0.206 F 
ATOM     87  C   UNL A   1      34.751  33.598  30.007  1.00  0.00     0.060 A 
BRANCH  87  88
ATOM     88  S   UNL A   1      33.502  34.858  29.659  1.00  0.00     0.124 S 
ATOM     89  O   UNL A   1      34.315  35.948  29.132  1.00  0.00    -0.237 OA
ATOM     90  O   UNL A   1      32.642  34.178  28.696  1.00  0.00    -0.237 OA
ATOM     91  O   UNL A   1      32.897  35.105  30.966  1.00  0.00    -0.744 OA
ENDBRANCH  87  88
ENDBRANCH  55  80
BRANCH  67  92
ATOM     92  C   UNL A   1      42.064  29.673  33.660  1.00  0.00     0.058 A 
ATOM     93  C   UNL A   1      41.710  28.347  33.359  1.00  0.00     0.135 A 
ATOM     94  C   UNL A   1      42.295  29.965  35.014  1.00  0.00     0.135 A 
ATOM     95  F   UNL A   1      41.587  27.937  32.094  1.00  0.00    -0.206 F 
ATOM     96  C   UNL A   1      41.549  27.372  34.342  1.00  0.00     0.059 A 
ATOM     97  C   UNL A   1      42.174  28.999  36.014  1.00  0.00     0.059 A 
ATOM     98  F   UNL A   1      42.704  31.192  35.376  1.00  0.00    -0.206 F 
ATOM     99  C   UNL A   1      41.787  27.705  35.671  1.00  0.00     0.060 A 
BRANCH  99 100
ATOM    100  S   UNL A   1      41.671  26.410  36.923  1.00  0.00     0.124 S 
ATOM    101  O   UNL A   1      41.692  25.197  36.111  1.00  0.00    -0.237 OA
ATOM    102  O   UNL A   1      42.860  26.647  37.738  1.00  0.00    -0.237 OA
ATOM    103  O   UNL A   1      40.403  26.695  37.590  1.00  0.00    -0.744 OA
ENDBRANCH  99 100
ENDBRANCH  67  92
ENDBRANCH  41  42
ENDBRANCH  33  36
ENDBRANCH  31  32
ENDBRANCH  30  31
ENDBRANCH  29  30
ENDBRANCH   1  29
TORSDOF 19
ENDMDL
MODEL 3
REMARK VINA RESULT:     -10.9      2.833      9.604
REMARK SMILES C[C@H](C(=O)NC1CCCC1)[N@@H+]1CCn2nc(CCC(=O)NCCCCNC(=O)c3ccc(-c4c5nc(c(-c6c(F)cc(S(=O)(=O)[O-])cc6F)c6ccc([nH]6)c(-c6c(F)cc(S(=O)(=O)[O-])cc6F)c6nc(c(-c7c(F)cc(S(=O)(=O)[O-])cc7F)c7ccc4[nH]7)C=C6)C=C5)cc3)cc2C1
REMARK SMILES IDX 22 1 21 2 19 3 20 4 18 6 17 7 16 8 11 9 12 10 97 11 13 13
REMARK SMILES IDX 96 14 14 15 95 16 15 17 2 18 1 19 3 20 4 21 5 22 6 24 7 25
REMARK SMILES IDX 10 26 8 27 9 28 23 29 24 30 25 31 26 32 27 33 28 35 29 36
REMARK SMILES IDX 30 37 94 38 31 39 93 40 32 41 33 42 34 43 87 44 35 45 92 46
REMARK SMILES IDX 86 47 88 48 36 49 91 50 85 51 84 52 37 54 71 55 50 56 70 57
REMARK SMILES IDX 51 58 54 59 69 60 89 61 52 62 53 63 68 65 90 66 55 67 38 68
REMARK SMILES IDX 39 69 48 70 40 71 41 72 47 73 49 74 42 75 43 76 44 77 45 78
REMARK SMILES IDX 46 79 72 80 73 81 82 82 74 83 75 84 81 85 83 86 76 87 77 88
REMARK SMILES IDX 78 89 79 90 80 91 56 92 57 93 66 94 58 95 59 96 65 97 67 98
REMARK SMILES IDX 60 99 61 100 62 101 63 102 64 103
REMARK H PARENT 21 5 11 12 5 23 26 34 88 53 54 64
REMARK Flexibility Score: inf
ROOT
ATOM      1  C   UNL A   1      33.533  32.825  28.047  1.00  0.00     0.116 C 
ENDROOT
BRANCH   1   2
ATOM      2  N   UNL A   1      34.386  31.656  27.945  1.00  0.00    -0.356 N 
ATOM      3  C   UNL A   1      34.134  30.453  27.354  1.00  0.00     0.220 C 
ATOM      4  O   UNL A   1      34.914  29.520  27.551  1.00  0.00    -0.275 OA
ATOM      5  H   UNL A   1      35.273  31.744  28.363  1.00  0.00     0.163 HD
BRANCH   3   6
ATOM      6  C   UNL A   1      32.917  30.267  26.473  1.00  0.00     0.106 C 
BRANCH   6   7
ATOM      7  C   UNL A   1      31.997  29.174  27.009  1.00  0.00     0.068 C 
BRANCH   7   8
ATOM      8  C   UNL A   1      32.156  27.855  26.318  1.00  0.00     0.063 A 
ATOM      9  N   UNL A   1      32.709  23.655  24.718  1.00  0.00    -0.318 N 
ATOM     10  C   UNL A   1      33.481  24.361  23.686  1.00  0.00     0.287 C 
ATOM     11  C   UNL A   1      31.547  24.384  25.205  1.00  0.00     0.319 C 
ATOM     12  H   UNL A   1      32.219  22.899  24.242  1.00  0.00     0.349 HD
ATOM     13  C   UNL A   1      33.618  25.897  23.805  1.00  0.00     0.206 C 
ATOM     14  C   UNL A   1      31.893  25.773  25.588  1.00  0.00     0.093 A 
ATOM     15  N   UNL A   1      32.845  26.452  24.894  1.00  0.00    -0.258 N 
ATOM     16  C   UNL A   1      31.416  26.659  26.527  1.00  0.00     0.055 A 
ATOM     17  N   UNL A   1      33.051  27.708  25.330  1.00  0.00    -0.177 NA
BRANCH   9  18
ATOM     18  C   UNL A   1      33.477  22.766  25.615  1.00  0.00     0.271 C 
ATOM     19  C   UNL A   1      34.074  23.600  26.753  1.00  0.00     0.086 C 
BRANCH  18  20
ATOM     20  C   UNL A   1      34.624  21.976  24.957  1.00  0.00     0.278 C 
ATOM     21  O   UNL A   1      35.762  22.438  24.836  1.00  0.00    -0.268 OA
ATOM     22  N   UNL A   1      34.423  20.705  24.513  1.00  0.00    -0.348 N 
ATOM     23  H   UNL A   1      35.221  20.294  24.109  1.00  0.00     0.163 HD
BRANCH  22  24
ATOM     24  C   UNL A   1      33.258  19.839  24.521  1.00  0.00     0.082 C 
ATOM     25  C   UNL A   1      32.383  19.911  23.274  1.00  0.00     0.025 C 
ATOM     26  C   UNL A   1      33.574  18.376  24.780  1.00  0.00     0.025 C 
ATOM     27  C   UNL A   1      32.239  18.497  22.725  1.00  0.00     0.002 C 
ATOM     28  C   UNL A   1      33.073  17.573  23.590  1.00  0.00     0.002 C 
ENDBRANCH  22  24
ENDBRANCH  18  20
ENDBRANCH   9  18
ENDBRANCH   7   8
ENDBRANCH   6   7
ENDBRANCH   3   6
ENDBRANCH   1   2
BRANCH   1  29
ATOM     29  C   UNL A   1      34.188  33.910  28.910  1.00  0.00     0.023 C 
BRANCH  29  30
ATOM     30  C   UNL A   1      34.458  33.529  30.381  1.00  0.00     0.023 C 
BRANCH  30  31
ATOM     31  C   UNL A   1      35.846  33.868  30.935  1.00  0.00     0.116 C 
BRANCH  31  32
ATOM     32  N   UNL A   1      36.360  32.812  31.802  1.00  0.00    -0.352 N 
ATOM     33  C   UNL A   1      36.227  31.462  31.553  1.00  0.00     0.251 C 
ATOM     34  H   UNL A   1      36.835  33.083  32.622  1.00  0.00     0.163 HD
ATOM     35  O   UNL A   1      35.575  30.720  32.276  1.00  0.00    -0.269 OA
BRANCH  33  36
ATOM     36  C   UNL A   1      36.977  30.934  30.380  1.00  0.00     0.039 A 
ATOM     37  C   UNL A   1      37.805  31.780  29.643  1.00  0.00     0.014 A 
ATOM     38  C   UNL A   1      36.989  29.560  30.139  1.00  0.00     0.014 A 
ATOM     39  C   UNL A   1      38.823  31.216  28.881  1.00  0.00     0.010 A 
ATOM     40  C   UNL A   1      38.026  28.998  29.436  1.00  0.00     0.010 A 
ATOM     41  C   UNL A   1      39.022  29.825  28.926  1.00  0.00    -0.014 A 
BRANCH  41  42
ATOM     42  C   UNL A   1      40.412  29.339  28.988  1.00  0.00     0.031 A 
ATOM     43  C   UNL A   1      40.900  29.058  30.387  1.00  0.00     0.074 A 
ATOM     44  C   UNL A   1      41.096  28.726  28.003  1.00  0.00     0.049 A 
ATOM     45  N   UNL A   1      41.828  29.659  31.058  1.00  0.00    -0.248 NA
ATOM     46  C   UNL A   1      40.175  28.037  31.165  1.00  0.00     0.031 C 
ATOM     47  C   UNL A   1      40.699  28.401  26.634  1.00  0.00     0.029 A 
ATOM     48  N   UNL A   1      42.309  28.124  28.122  1.00  0.00    -0.354 N 
ATOM     49  C   UNL A   1      41.916  29.002  32.288  1.00  0.00     0.074 A 
ATOM     50  C   UNL A   1      40.776  28.120  32.352  1.00  0.00     0.031 C 
ATOM     51  C   UNL A   1      41.552  27.479  26.132  1.00  0.00     0.029 A 
ATOM     52  C   UNL A   1      42.644  27.296  27.070  1.00  0.00     0.049 A 
ATOM     53  H   UNL A   1      42.901  28.267  28.895  1.00  0.00     0.167 HD
ATOM     54  C   UNL A   1      43.002  29.103  33.110  1.00  0.00     0.037 A 
ATOM     55  C   UNL A   1      43.734  26.497  27.005  1.00  0.00     0.037 A 
ATOM     56  C   UNL A   1      43.909  30.130  32.669  1.00  0.00     0.049 A 
ATOM     57  C   UNL A   1      44.732  27.030  27.975  1.00  0.00     0.074 A 
ATOM     58  C   UNL A   1      43.805  31.492  32.455  1.00  0.00     0.029 A 
ATOM     59  N   UNL A   1      45.032  29.742  31.973  1.00  0.00    -0.354 N 
ATOM     60  N   UNL A   1      45.280  28.215  27.887  1.00  0.00    -0.248 NA
ATOM     61  C   UNL A   1      44.824  26.411  29.288  1.00  0.00     0.031 C 
ATOM     62  C   UNL A   1      44.515  31.721  31.237  1.00  0.00     0.029 A 
ATOM     63  C   UNL A   1      45.050  30.498  30.825  1.00  0.00     0.049 A 
ATOM     64  H   UNL A   1      45.688  29.061  32.244  1.00  0.00     0.167 HD
ATOM     65  C   UNL A   1      45.421  28.657  29.196  1.00  0.00     0.074 A 
ATOM     66  C   UNL A   1      45.231  27.459  30.011  1.00  0.00     0.031 C 
ATOM     67  C   UNL A   1      45.413  29.988  29.516  1.00  0.00     0.037 A 
BRANCH  54  68
ATOM     68  C   UNL A   1      43.391  28.095  34.165  1.00  0.00     0.058 A 
ATOM     69  C   UNL A   1      43.640  28.512  35.489  1.00  0.00     0.135 A 
ATOM     70  C   UNL A   1      43.751  26.763  33.869  1.00  0.00     0.135 A 
ATOM     71  F   UNL A   1      43.363  29.768  35.874  1.00  0.00    -0.206 F 
ATOM     72  C   UNL A   1      44.237  27.678  36.439  1.00  0.00     0.059 A 
ATOM     73  C   UNL A   1      44.292  25.897  34.813  1.00  0.00     0.059 A 
ATOM     74  F   UNL A   1      43.681  26.276  32.623  1.00  0.00    -0.206 F 
ATOM     75  C   UNL A   1      44.571  26.374  36.085  1.00  0.00     0.060 A 
BRANCH  75  76
ATOM     76  S   UNL A   1      45.429  25.318  37.269  1.00  0.00     0.124 S 
ATOM     77  O   UNL A   1      46.143  24.409  36.379  1.00  0.00    -0.237 OA
ATOM     78  O   UNL A   1      46.253  26.273  38.001  1.00  0.00    -0.237 OA
ATOM     79  O   UNL A   1      44.337  24.725  38.037  1.00  0.00    -0.744 OA
ENDBRANCH  75  76
ENDBRANCH  54  68
BRANCH  55  80
ATOM     80  C   UNL A   1      43.822  25.168  26.357  1.00  0.00     0.058 A 
ATOM     81  C   UNL A   1      44.740  24.914  25.326  1.00  0.00     0.135 A 
ATOM     82  C   UNL A   1      43.161  24.043  26.898  1.00  0.00     0.135 A 
ATOM     83  F   UNL A   1      45.434  25.923  24.781  1.00  0.00    -0.206 F 
ATOM     84  C   UNL A   1      45.006  23.618  24.875  1.00  0.00     0.059 A 
ATOM     85  C   UNL A   1      43.398  22.745  26.454  1.00  0.00     0.059 A 
ATOM     86  F   UNL A   1      42.321  24.167  27.938  1.00  0.00    -0.206 F 
ATOM     87  C   UNL A   1      44.341  22.538  25.455  1.00  0.00     0.060 A 
BRANCH  87  88
ATOM     88  S   UNL A   1      44.802  20.854  24.986  1.00  0.00     0.124 S 
ATOM     89  O   UNL A   1      43.844  20.060  25.748  1.00  0.00    -0.237 OA
ATOM     90  O   UNL A   1      44.609  20.876  23.541  1.00  0.00    -0.237 OA
ATOM     91  O   UNL A   1      46.190  20.748  25.427  1.00  0.00    -0.744 OA
ENDBRANCH  87  88
ENDBRANCH  55  80
BRANCH  67  92
ATOM     92  C   UNL A   1      45.498  31.007  28.399  1.00  0.00     0.058 A 
ATOM     93  C   UNL A   1      44.378  31.570  27.763  1.00  0.00     0.135 A 
ATOM     94  C   UNL A   1      46.744  31.571  28.081  1.00  0.00     0.135 A 
ATOM     95  F   UNL A   1      43.139  31.190  28.085  1.00  0.00    -0.206 F 
ATOM     96  C   UNL A   1      44.484  32.603  26.832  1.00  0.00     0.059 A 
ATOM     97  C   UNL A   1      46.874  32.628  27.178  1.00  0.00     0.059 A 
ATOM     98  F   UNL A   1      47.855  31.135  28.698  1.00  0.00    -0.206 F 
ATOM     99  C   UNL A   1      45.739  33.131  26.547  1.00  0.00     0.060 A 
BRANCH  99 100
ATOM    100  S   UNL A   1      45.852  34.532  25.415  1.00  0.00     0.124 S 
ATOM    101  O   UNL A   1      45.309  35.621  26.221  1.00  0.00    -0.237 OA
ATOM    102  O   UNL A   1      47.285  34.604  25.138  1.00  0.00    -0.237 OA
ATOM    103  O   UNL A   1      45.028  34.121  24.282  1.00  0.00    -0.744 OA
ENDBRANCH  99 100
ENDBRANCH  67  92
ENDBRANCH  41  42
ENDBRANCH  33  36
ENDBRANCH  31  32
ENDBRANCH  30  31
ENDBRANCH  29  30
ENDBRANCH   1  29
TORSDOF 19
ENDMDL
