MODEL 1
REMARK VINA RESULT:     -12.2      0.000      0.000
REMARK SMILES O=C(NCCCCNC(=O)[C@H]1C[N@H+](Cc2ccc(Cl)c(Cl)c2)CC12CCCCC2)c1ccc(-c2c3nc(c(-c4c(F)cc(S(=O)(=O)[O-])cc4F)c4ccc([nH]4)c(-c4c(F)cc(S(=O)(=O)[O-])cc4F)c4nc(c(-c5c(F)cc(S(=O)(=O)[O-])cc5F)c5ccc2[nH]5)C=C4)C=C3)cc1
REMARK SMILES IDX 5 1 4 2 3 3 1 4 2 5 30 7 31 8 95 9 32 10 94 11 33 12 34 13
REMARK SMILES IDX 35 14 88 15 36 16 93 17 87 18 89 19 37 20 92 21 86 22 85 23
REMARK SMILES IDX 38 25 72 26 51 27 71 28 52 29 55 30 70 31 90 32 53 33 54 34
REMARK SMILES IDX 69 36 91 37 56 38 39 39 40 40 49 41 41 42 42 43 48 44 50 45
REMARK SMILES IDX 43 46 44 47 45 48 46 49 47 50 73 51 74 52 83 53 75 54 76 55
REMARK SMILES IDX 82 56 84 57 77 58 78 59 79 60 80 61 81 62 57 63 58 64 67 65
REMARK SMILES IDX 59 66 60 67 66 68 68 69 61 70 62 71 63 72 64 73 65 74 6 75
REMARK SMILES IDX 7 76 8 77 9 78 10 80 11 81 12 82 24 83 13 84 23 85 25 86
REMARK SMILES IDX 29 87 26 89 28 90 27 91 14 92 15 93 16 94 22 95 17 96 20 97
REMARK SMILES IDX 18 98 21 99 19 100
REMARK H PARENT 3 6 89 24 55 35 8 79 13 88
REMARK Flexibility Score: inf
ROOT
ATOM      1  C   UNL A   1      34.313  29.120  26.719  1.00  0.00     0.023 C 
ENDROOT
BRANCH   1   2
ATOM      2  C   UNL A   1      35.455  29.086  27.728  1.00  0.00     0.116 C 
BRANCH   2   3
ATOM      3  N   UNL A   1      35.230  29.962  28.869  1.00  0.00    -0.352 N 
ATOM      4  O   UNL A   1      35.820  31.096  30.735  1.00  0.00    -0.269 OA
ATOM      5  C   UNL A   1      36.164  30.455  29.747  1.00  0.00     0.251 C 
ATOM      6  H   UNL A   1      34.298  30.233  29.030  1.00  0.00     0.163 HD
BRANCH   5   7
ATOM      7  C   UNL A   1      37.585  30.165  29.488  1.00  0.00     0.039 A 
ATOM      8  C   UNL A   1      38.089  30.268  28.188  1.00  0.00     0.014 A 
ATOM      9  C   UNL A   1      38.388  29.717  30.537  1.00  0.00     0.014 A 
ATOM     10  C   UNL A   1      39.372  29.812  27.916  1.00  0.00     0.010 A 
ATOM     11  C   UNL A   1      39.699  29.326  30.273  1.00  0.00     0.010 A 
ATOM     12  C   UNL A   1      40.192  29.347  28.958  1.00  0.00    -0.014 A 
BRANCH  12  13
ATOM     13  C   UNL A   1      41.591  28.958  28.669  1.00  0.00     0.031 A 
ATOM     14  C   UNL A   1      42.701  29.967  28.703  1.00  0.00     0.074 A 
ATOM     15  C   UNL A   1      41.840  27.673  28.355  1.00  0.00     0.049 A 
ATOM     16  N   UNL A   1      43.968  29.804  28.424  1.00  0.00    -0.248 NA
ATOM     17  C   UNL A   1      42.342  31.340  29.090  1.00  0.00     0.031 C 
ATOM     18  C   UNL A   1      40.828  26.618  28.275  1.00  0.00     0.029 A 
ATOM     19  N   UNL A   1      43.011  27.038  28.034  1.00  0.00    -0.354 N 
ATOM     20  C   UNL A   1      44.556  31.054  28.573  1.00  0.00     0.074 A 
ATOM     21  C   UNL A   1      43.502  31.970  28.955  1.00  0.00     0.031 C 
ATOM     22  C   UNL A   1      41.421  25.464  27.940  1.00  0.00     0.029 A 
ATOM     23  C   UNL A   1      42.842  25.711  27.725  1.00  0.00     0.049 A 
ATOM     24  H   UNL A   1      43.886  27.488  28.028  1.00  0.00     0.167 HD
ATOM     25  C   UNL A   1      45.856  31.398  28.405  1.00  0.00     0.037 A 
ATOM     26  C   UNL A   1      43.726  24.798  27.281  1.00  0.00     0.037 A 
ATOM     27  C   UNL A   1      46.893  30.468  28.036  1.00  0.00     0.049 A 
ATOM     28  C   UNL A   1      45.157  25.201  27.099  1.00  0.00     0.074 A 
ATOM     29  C   UNL A   1      48.249  30.702  27.893  1.00  0.00     0.029 A 
ATOM     30  N   UNL A   1      46.687  29.127  27.739  1.00  0.00    -0.354 N 
ATOM     31  N   UNL A   1      45.707  26.376  27.291  1.00  0.00    -0.248 NA
ATOM     32  C   UNL A   1      46.088  24.163  26.644  1.00  0.00     0.031 C 
ATOM     33  C   UNL A   1      48.856  29.513  27.468  1.00  0.00     0.029 A 
ATOM     34  C   UNL A   1      47.885  28.527  27.387  1.00  0.00     0.049 A 
ATOM     35  H   UNL A   1      45.815  28.669  27.772  1.00  0.00     0.167 HD
ATOM     36  C   UNL A   1      47.052  26.219  26.985  1.00  0.00     0.074 A 
ATOM     37  C   UNL A   1      47.234  24.830  26.611  1.00  0.00     0.031 C 
ATOM     38  C   UNL A   1      48.044  27.144  27.012  1.00  0.00     0.037 A 
BRANCH  25  39
ATOM     39  C   UNL A   1      46.222  32.844  28.592  1.00  0.00     0.058 A 
ATOM     40  C   UNL A   1      46.617  33.357  29.838  1.00  0.00     0.135 A 
ATOM     41  C   UNL A   1      46.186  33.732  27.503  1.00  0.00     0.135 A 
ATOM     42  F   UNL A   1      46.657  32.557  30.915  1.00  0.00    -0.206 F 
ATOM     43  C   UNL A   1      46.926  34.703  30.007  1.00  0.00     0.059 A 
ATOM     44  C   UNL A   1      46.514  35.077  27.644  1.00  0.00     0.059 A 
ATOM     45  F   UNL A   1      45.819  33.296  26.288  1.00  0.00    -0.206 F 
ATOM     46  C   UNL A   1      46.861  35.558  28.906  1.00  0.00     0.060 A 
BRANCH  46  47
ATOM     47  S   UNL A   1      47.228  37.310  29.145  1.00  0.00     0.124 S 
ATOM     48  O   UNL A   1      47.120  37.817  27.781  1.00  0.00    -0.237 OA
ATOM     49  O   UNL A   1      46.172  37.731  30.060  1.00  0.00    -0.237 OA
ATOM     50  O   UNL A   1      48.574  37.303  29.708  1.00  0.00    -0.744 OA
ENDBRANCH  46  47
ENDBRANCH  25  39
BRANCH  26  51
ATOM     51  C   UNL A   1      43.246  23.428  26.972  1.00  0.00     0.058 A 
ATOM     52  C   UNL A   1      43.094  22.996  25.649  1.00  0.00     0.135 A 
ATOM     53  C   UNL A   1      43.029  22.494  27.999  1.00  0.00     0.135 A 
ATOM     54  F   UNL A   1      43.291  23.853  24.636  1.00  0.00    -0.206 F 
ATOM     55  C   UNL A   1      42.753  21.680  25.351  1.00  0.00     0.059 A 
ATOM     56  C   UNL A   1      42.711  21.169  27.725  1.00  0.00     0.059 A 
ATOM     57  F   UNL A   1      43.186  22.857  29.282  1.00  0.00    -0.206 F 
ATOM     58  C   UNL A   1      42.574  20.772  26.396  1.00  0.00     0.060 A 
BRANCH  58  59
ATOM     59  S   UNL A   1      42.236  19.044  25.997  1.00  0.00     0.124 S 
ATOM     60  O   UNL A   1      42.619  18.376  27.236  1.00  0.00    -0.237 OA
ATOM     61  O   UNL A   1      40.807  19.070  25.700  1.00  0.00    -0.237 OA
ATOM     62  O   UNL A   1      43.100  18.791  24.847  1.00  0.00    -0.744 OA
ENDBRANCH  58  59
ENDBRANCH  26  51
BRANCH  38  63
ATOM     63  C   UNL A   1      49.422  26.680  26.638  1.00  0.00     0.058 A 
ATOM     64  C   UNL A   1      50.269  26.071  27.577  1.00  0.00     0.135 A 
ATOM     65  C   UNL A   1      49.874  26.787  25.313  1.00  0.00     0.135 A 
ATOM     66  F   UNL A   1      49.885  25.955  28.857  1.00  0.00    -0.206 F 
ATOM     67  C   UNL A   1      51.523  25.589  27.216  1.00  0.00     0.059 A 
ATOM     68  C   UNL A   1      51.115  26.293  24.925  1.00  0.00     0.059 A 
ATOM     69  F   UNL A   1      49.098  27.358  24.378  1.00  0.00    -0.206 F 
ATOM     70  C   UNL A   1      51.935  25.701  25.886  1.00  0.00     0.060 A 
BRANCH  70  71
ATOM     71  S   UNL A   1      53.541  25.023  25.416  1.00  0.00     0.124 S 
ATOM     72  O   UNL A   1      53.760  25.656  24.120  1.00  0.00    -0.237 OA
ATOM     73  O   UNL A   1      54.404  25.482  26.501  1.00  0.00    -0.237 OA
ATOM     74  O   UNL A   1      53.303  23.583  25.381  1.00  0.00    -0.744 OA
ENDBRANCH  70  71
ENDBRANCH  38  63
ENDBRANCH  12  13
ENDBRANCH   5   7
ENDBRANCH   2   3
ENDBRANCH   1   2
BRANCH   1  75
ATOM     75  C   UNL A   1      33.110  28.248  27.081  1.00  0.00     0.023 C 
BRANCH  75  76
ATOM     76  C   UNL A   1      32.258  27.836  25.888  1.00  0.00     0.116 C 
BRANCH  76  77
ATOM     77  N   UNL A   1      31.019  27.202  26.296  1.00  0.00    -0.356 N 
ATOM     78  C   UNL A   1      30.606  25.912  26.219  1.00  0.00     0.229 C 
ATOM     79  H   UNL A   1      30.363  27.815  26.701  1.00  0.00     0.163 HD
ATOM     80  O   UNL A   1      29.498  25.644  26.692  1.00  0.00    -0.275 OA
BRANCH  78  81
ATOM     81  C   UNL A   1      31.446  24.806  25.602  1.00  0.00     0.145 C 
ATOM     82  C   UNL A   1      30.969  23.402  25.961  1.00  0.00     0.276 C 
ATOM     83  C   UNL A   1      31.719  24.842  24.067  1.00  0.00     0.037 C 
ATOM     84  N   UNL A   1      31.280  22.553  24.822  1.00  0.00    -0.330 N 
ATOM     85  C   UNL A   1      31.374  23.395  23.628  1.00  0.00     0.270 C 
ATOM     86  C   UNL A   1      30.914  25.902  23.270  1.00  0.00     0.014 C 
ATOM     87  C   UNL A   1      33.216  25.194  23.835  1.00  0.00     0.014 C 
ATOM     88  H   UNL A   1      30.505  21.909  24.668  1.00  0.00     0.348 HD
ATOM     89  C   UNL A   1      31.306  26.009  21.793  1.00  0.00     0.001 C 
ATOM     90  C   UNL A   1      33.624  25.242  22.364  1.00  0.00     0.001 C 
ATOM     91  C   UNL A   1      32.794  26.264  21.608  1.00  0.00     0.000 C 
BRANCH  84  92
ATOM     92  C   UNL A   1      32.294  21.519  25.027  1.00  0.00     0.299 C 
BRANCH  92  93
ATOM     93  C   UNL A   1      33.714  21.987  25.253  1.00  0.00     0.008 A 
ATOM     94  C   UNL A   1      34.151  22.401  26.520  1.00  0.00     0.011 A 
ATOM     95  C   UNL A   1      34.612  22.067  24.175  1.00  0.00     0.031 A 
ATOM     96  C   UNL A   1      35.413  22.976  26.689  1.00  0.00     0.022 A 
ATOM     97  C   UNL A   1      35.885  22.626  24.344  1.00  0.00     0.060 A 
ATOM     98  C   UNL A   1      36.276  23.105  25.599  1.00  0.00     0.059 A 
ATOM     99  Cl  UNL A   1      36.900  22.743  22.951  1.00  0.00    -0.083 Cl
ATOM    100  Cl  UNL A   1      37.792  23.889  25.864  1.00  0.00    -0.083 Cl
ENDBRANCH  92  93
ENDBRANCH  84  92
ENDBRANCH  78  81
ENDBRANCH  76  77
ENDBRANCH  75  76
ENDBRANCH   1  75
TORSDOF 16
ENDMDL
MODEL 2
REMARK VINA RESULT:     -12.1      1.075      1.897
REMARK SMILES O=C(NCCCCNC(=O)[C@H]1C[N@H+](Cc2ccc(Cl)c(Cl)c2)CC12CCCCC2)c1ccc(-c2c3nc(c(-c4c(F)cc(S(=O)(=O)[O-])cc4F)c4ccc([nH]4)c(-c4c(F)cc(S(=O)(=O)[O-])cc4F)c4nc(c(-c5c(F)cc(S(=O)(=O)[O-])cc5F)c5ccc2[nH]5)C=C4)C=C3)cc1
REMARK SMILES IDX 5 1 4 2 3 3 1 4 2 5 30 7 31 8 95 9 32 10 94 11 33 12 34 13
REMARK SMILES IDX 35 14 88 15 36 16 93 17 87 18 89 19 37 20 92 21 86 22 85 23
REMARK SMILES IDX 38 25 72 26 51 27 71 28 52 29 55 30 70 31 90 32 53 33 54 34
REMARK SMILES IDX 69 36 91 37 56 38 39 39 40 40 49 41 41 42 42 43 48 44 50 45
REMARK SMILES IDX 43 46 44 47 45 48 46 49 47 50 73 51 74 52 83 53 75 54 76 55
REMARK SMILES IDX 82 56 84 57 77 58 78 59 79 60 80 61 81 62 57 63 58 64 67 65
REMARK SMILES IDX 59 66 60 67 66 68 68 69 61 70 62 71 63 72 64 73 65 74 6 75
REMARK SMILES IDX 7 76 8 77 9 78 10 80 11 81 12 82 24 83 13 84 23 85 25 86
REMARK SMILES IDX 29 87 26 89 28 90 27 91 14 92 15 93 16 94 22 95 17 96 20 97
REMARK SMILES IDX 18 98 21 99 19 100
REMARK H PARENT 3 6 89 24 55 35 8 79 13 88
REMARK Flexibility Score: inf
ROOT
ATOM      1  C   UNL A   1      34.484  31.159  27.659  1.00  0.00     0.023 C 
ENDROOT
BRANCH   1   2
ATOM      2  C   UNL A   1      35.779  31.286  28.452  1.00  0.00     0.116 C 
BRANCH   2   3
ATOM      3  N   UNL A   1      35.579  31.158  29.888  1.00  0.00    -0.352 N 
ATOM      4  O   UNL A   1      36.077  30.442  31.976  1.00  0.00    -0.269 OA
ATOM      5  C   UNL A   1      36.423  30.582  30.807  1.00  0.00     0.251 C 
ATOM      6  H   UNL A   1      34.739  31.528  30.244  1.00  0.00     0.163 HD
BRANCH   5   7
ATOM      7  C   UNL A   1      37.737  30.108  30.342  1.00  0.00     0.039 A 
ATOM      8  C   UNL A   1      38.675  29.643  31.269  1.00  0.00     0.014 A 
ATOM      9  C   UNL A   1      38.052  30.202  28.987  1.00  0.00     0.014 A 
ATOM     10  C   UNL A   1      39.973  29.380  30.852  1.00  0.00     0.010 A 
ATOM     11  C   UNL A   1      39.337  29.869  28.560  1.00  0.00     0.010 A 
ATOM     12  C   UNL A   1      40.312  29.479  29.493  1.00  0.00    -0.014 A 
BRANCH  12  13
ATOM     13  C   UNL A   1      41.672  29.098  29.048  1.00  0.00     0.031 A 
ATOM     14  C   UNL A   1      42.779  30.109  28.983  1.00  0.00     0.074 A 
ATOM     15  C   UNL A   1      41.886  27.821  28.683  1.00  0.00     0.049 A 
ATOM     16  N   UNL A   1      44.009  29.954  28.566  1.00  0.00    -0.248 NA
ATOM     17  C   UNL A   1      42.464  31.473  29.433  1.00  0.00     0.031 C 
ATOM     18  C   UNL A   1      40.871  26.765  28.692  1.00  0.00     0.029 A 
ATOM     19  N   UNL A   1      43.016  27.194  28.227  1.00  0.00    -0.354 N 
ATOM     20  C   UNL A   1      44.610  31.202  28.676  1.00  0.00     0.074 A 
ATOM     21  C   UNL A   1      43.603  32.108  29.187  1.00  0.00     0.031 C 
ATOM     22  C   UNL A   1      41.425  25.619  28.273  1.00  0.00     0.029 A 
ATOM     23  C   UNL A   1      42.815  25.873  27.912  1.00  0.00     0.049 A 
ATOM     24  H   UNL A   1      43.885  27.646  28.136  1.00  0.00     0.167 HD
ATOM     25  C   UNL A   1      45.885  31.552  28.377  1.00  0.00     0.037 A 
ATOM     26  C   UNL A   1      43.646  24.970  27.358  1.00  0.00     0.037 A 
ATOM     27  C   UNL A   1      46.875  30.631  27.880  1.00  0.00     0.049 A 
ATOM     28  C   UNL A   1      45.049  25.380  27.031  1.00  0.00     0.074 A 
ATOM     29  C   UNL A   1      48.209  30.872  27.597  1.00  0.00     0.029 A 
ATOM     30  N   UNL A   1      46.639  29.296  27.580  1.00  0.00    -0.354 N 
ATOM     31  N   UNL A   1      45.617  26.553  27.186  1.00  0.00    -0.248 NA
ATOM     32  C   UNL A   1      45.926  24.353  26.459  1.00  0.00     0.031 C 
ATOM     33  C   UNL A   1      48.766  29.692  27.086  1.00  0.00     0.029 A 
ATOM     34  C   UNL A   1      47.792  28.706  27.091  1.00  0.00     0.049 A 
ATOM     35  H   UNL A   1      45.775  28.836  27.698  1.00  0.00     0.167 HD
ATOM     36  C   UNL A   1      46.921  26.405  26.735  1.00  0.00     0.074 A 
ATOM     37  C   UNL A   1      47.062  25.024  26.317  1.00  0.00     0.031 C 
ATOM     38  C   UNL A   1      47.910  27.331  26.674  1.00  0.00     0.037 A 
BRANCH  25  39
ATOM     39  C   UNL A   1      46.268  32.995  28.552  1.00  0.00     0.058 A 
ATOM     40  C   UNL A   1      46.788  33.486  29.760  1.00  0.00     0.135 A 
ATOM     41  C   UNL A   1      46.123  33.902  27.488  1.00  0.00     0.135 A 
ATOM     42  F   UNL A   1      46.936  32.667  30.813  1.00  0.00    -0.206 F 
ATOM     43  C   UNL A   1      47.113  34.829  29.921  1.00  0.00     0.059 A 
ATOM     44  C   UNL A   1      46.463  35.245  27.619  1.00  0.00     0.059 A 
ATOM     45  F   UNL A   1      45.634  33.488  26.309  1.00  0.00    -0.206 F 
ATOM     46  C   UNL A   1      46.937  35.704  28.848  1.00  0.00     0.060 A 
BRANCH  46  47
ATOM     47  S   UNL A   1      47.327  37.452  29.080  1.00  0.00     0.124 S 
ATOM     48  O   UNL A   1      48.666  37.528  28.506  1.00  0.00    -0.237 OA
ATOM     49  O   UNL A   1      46.274  38.114  28.317  1.00  0.00    -0.237 OA
ATOM     50  O   UNL A   1      47.252  37.628  30.527  1.00  0.00    -0.744 OA
ENDBRANCH  46  47
ENDBRANCH  25  39
BRANCH  26  51
ATOM     51  C   UNL A   1      43.135  23.606  27.075  1.00  0.00     0.058 A 
ATOM     52  C   UNL A   1      42.787  23.218  25.775  1.00  0.00     0.135 A 
ATOM     53  C   UNL A   1      43.086  22.634  28.088  1.00  0.00     0.135 A 
ATOM     54  F   UNL A   1      42.820  24.114  24.777  1.00  0.00    -0.206 F 
ATOM     55  C   UNL A   1      42.415  21.910  25.484  1.00  0.00     0.059 A 
ATOM     56  C   UNL A   1      42.740  21.315  27.817  1.00  0.00     0.059 A 
ATOM     57  F   UNL A   1      43.434  22.953  29.344  1.00  0.00    -0.206 F 
ATOM     58  C   UNL A   1      42.406  20.963  26.511  1.00  0.00     0.060 A 
BRANCH  58  59
ATOM     59  S   UNL A   1      42.025  19.246  26.104  1.00  0.00     0.124 S 
ATOM     60  O   UNL A   1      40.585  19.311  25.875  1.00  0.00    -0.237 OA
ATOM     61  O   UNL A   1      42.850  19.018  24.922  1.00  0.00    -0.237 OA
ATOM     62  O   UNL A   1      42.444  18.518  27.298  1.00  0.00    -0.744 OA
ENDBRANCH  58  59
ENDBRANCH  26  51
BRANCH  38  63
ATOM     63  C   UNL A   1      49.240  26.876  26.145  1.00  0.00     0.058 A 
ATOM     64  C   UNL A   1      49.628  27.134  24.821  1.00  0.00     0.135 A 
ATOM     65  C   UNL A   1      50.160  26.234  26.988  1.00  0.00     0.135 A 
ATOM     66  F   UNL A   1      48.779  27.736  23.973  1.00  0.00    -0.206 F 
ATOM     67  C   UNL A   1      50.882  26.764  24.348  1.00  0.00     0.059 A 
ATOM     68  C   UNL A   1      51.428  25.875  26.543  1.00  0.00     0.059 A 
ATOM     69  F   UNL A   1      49.837  25.970  28.264  1.00  0.00    -0.206 F 
ATOM     70  C   UNL A   1      51.777  26.138  25.219  1.00  0.00     0.060 A 
BRANCH  70  71
ATOM     71  S   UNL A   1      53.423  25.712  24.612  1.00  0.00     0.124 S 
ATOM     72  O   UNL A   1      54.203  26.870  25.037  1.00  0.00    -0.237 OA
ATOM     73  O   UNL A   1      53.704  24.464  25.316  1.00  0.00    -0.237 OA
ATOM     74  O   UNL A   1      53.228  25.580  23.171  1.00  0.00    -0.744 OA
ENDBRANCH  70  71
ENDBRANCH  38  63
ENDBRANCH  12  13
ENDBRANCH   5   7
ENDBRANCH   2   3
ENDBRANCH   1   2
BRANCH   1  75
ATOM     75  C   UNL A   1      34.473  30.031  26.626  1.00  0.00     0.023 C 
BRANCH  75  76
ATOM     76  C   UNL A   1      34.175  28.656  27.208  1.00  0.00     0.116 C 
BRANCH  76  77
ATOM     77  N   UNL A   1      32.830  28.570  27.742  1.00  0.00    -0.356 N 
ATOM     78  C   UNL A   1      31.792  27.753  27.428  1.00  0.00     0.229 C 
ATOM     79  H   UNL A   1      32.633  29.218  28.456  1.00  0.00     0.163 HD
ATOM     80  O   UNL A   1      30.756  27.877  28.087  1.00  0.00    -0.275 OA
BRANCH  78  81
ATOM     81  C   UNL A   1      31.865  26.701  26.333  1.00  0.00     0.145 C 
ATOM     82  C   UNL A   1      30.922  25.522  26.554  1.00  0.00     0.276 C 
ATOM     83  C   UNL A   1      31.726  27.157  24.848  1.00  0.00     0.037 C 
ATOM     84  N   UNL A   1      30.522  25.058  25.235  1.00  0.00    -0.330 N 
ATOM     85  C   UNL A   1      30.673  26.164  24.288  1.00  0.00     0.270 C 
ATOM     86  C   UNL A   1      31.303  28.635  24.640  1.00  0.00     0.014 C 
ATOM     87  C   UNL A   1      33.108  27.015  24.151  1.00  0.00     0.014 C 
ATOM     88  H   UNL A   1      29.531  24.820  25.255  1.00  0.00     0.348 HD
ATOM     89  C   UNL A   1      31.311  29.090  23.178  1.00  0.00     0.001 C 
ATOM     90  C   UNL A   1      33.106  27.412  22.676  1.00  0.00     0.001 C 
ATOM     91  C   UNL A   1      32.655  28.853  22.506  1.00  0.00     0.000 C 
BRANCH  84  92
ATOM     92  C   UNL A   1      30.985  23.729  24.835  1.00  0.00     0.299 C 
BRANCH  92  93
ATOM     93  C   UNL A   1      32.425  23.611  24.389  1.00  0.00     0.008 A 
ATOM     94  C   UNL A   1      32.759  23.487  23.031  1.00  0.00     0.011 A 
ATOM     95  C   UNL A   1      33.458  23.569  25.340  1.00  0.00     0.031 A 
ATOM     96  C   UNL A   1      34.074  23.223  22.640  1.00  0.00     0.022 A 
ATOM     97  C   UNL A   1      34.780  23.324  24.949  1.00  0.00     0.060 A 
ATOM     98  C   UNL A   1      35.084  23.125  23.598  1.00  0.00     0.059 A 
ATOM     99  Cl  UNL A   1      35.978  23.226  26.190  1.00  0.00    -0.083 Cl
ATOM    100  Cl  UNL A   1      36.673  22.728  23.050  1.00  0.00    -0.083 Cl
ENDBRANCH  92  93
ENDBRANCH  84  92
ENDBRANCH  78  81
ENDBRANCH  76  77
ENDBRANCH  75  76
ENDBRANCH   1  75
TORSDOF 16
ENDMDL
MODEL 3
REMARK VINA RESULT:     -12.1      6.500     11.693
REMARK SMILES O=C(NCCCCNC(=O)[C@H]1C[N@H+](Cc2ccc(Cl)c(Cl)c2)CC12CCCCC2)c1ccc(-c2c3nc(c(-c4c(F)cc(S(=O)(=O)[O-])cc4F)c4ccc([nH]4)c(-c4c(F)cc(S(=O)(=O)[O-])cc4F)c4nc(c(-c5c(F)cc(S(=O)(=O)[O-])cc5F)c5ccc2[nH]5)C=C4)C=C3)cc1
REMARK SMILES IDX 5 1 4 2 3 3 1 4 2 5 30 7 31 8 95 9 32 10 94 11 33 12 34 13
REMARK SMILES IDX 35 14 88 15 36 16 93 17 87 18 89 19 37 20 92 21 86 22 85 23
REMARK SMILES IDX 38 25 72 26 51 27 71 28 52 29 55 30 70 31 90 32 53 33 54 34
REMARK SMILES IDX 69 36 91 37 56 38 39 39 40 40 49 41 41 42 42 43 48 44 50 45
REMARK SMILES IDX 43 46 44 47 45 48 46 49 47 50 73 51 74 52 83 53 75 54 76 55
REMARK SMILES IDX 82 56 84 57 77 58 78 59 79 60 80 61 81 62 57 63 58 64 67 65
REMARK SMILES IDX 59 66 60 67 66 68 68 69 61 70 62 71 63 72 64 73 65 74 6 75
REMARK SMILES IDX 7 76 8 77 9 78 10 80 11 81 12 82 24 83 13 84 23 85 25 86
REMARK SMILES IDX 29 87 26 89 28 90 27 91 14 92 15 93 16 94 22 95 17 96 20 97
REMARK SMILES IDX 18 98 21 99 19 100
REMARK H PARENT 3 6 89 24 55 35 8 79 13 88
REMARK Flexibility Score: inf
ROOT
ATOM      1  C   UNL A   1      39.531  22.982  26.723  1.00  0.00     0.023 C 
ENDROOT
BRANCH   1   2
ATOM      2  C   UNL A   1      40.912  23.471  27.140  1.00  0.00     0.116 C 
BRANCH   2   3
ATOM      3  N   UNL A   1      41.656  24.074  26.043  1.00  0.00    -0.352 N 
ATOM      4  O   UNL A   1      42.559  25.783  24.868  1.00  0.00    -0.269 OA
ATOM      5  C   UNL A   1      42.029  25.388  25.902  1.00  0.00     0.251 C 
ATOM      6  H   UNL A   1      41.923  23.467  25.315  1.00  0.00     0.163 HD
BRANCH   5   7
ATOM      7  C   UNL A   1      41.747  26.315  27.012  1.00  0.00     0.039 A 
ATOM      8  C   UNL A   1      42.488  27.494  27.138  1.00  0.00     0.014 A 
ATOM      9  C   UNL A   1      40.790  25.961  27.964  1.00  0.00     0.014 A 
ATOM     10  C   UNL A   1      42.351  28.265  28.284  1.00  0.00     0.010 A 
ATOM     11  C   UNL A   1      40.605  26.776  29.079  1.00  0.00     0.010 A 
ATOM     12  C   UNL A   1      41.401  27.919  29.259  1.00  0.00    -0.014 A 
BRANCH  12  13
ATOM     13  C   UNL A   1      41.195  28.806  30.427  1.00  0.00     0.031 A 
ATOM     14  C   UNL A   1      42.041  28.675  31.660  1.00  0.00     0.074 A 
ATOM     15  C   UNL A   1      40.213  29.724  30.363  1.00  0.00     0.049 A 
ATOM     16  N   UNL A   1      41.957  29.332  32.787  1.00  0.00    -0.248 NA
ATOM     17  C   UNL A   1      43.113  27.668  31.629  1.00  0.00     0.031 C 
ATOM     18  C   UNL A   1      39.321  29.919  29.217  1.00  0.00     0.029 A 
ATOM     19  N   UNL A   1      39.791  30.653  31.277  1.00  0.00    -0.354 N 
ATOM     20  C   UNL A   1      42.943  28.805  33.611  1.00  0.00     0.074 A 
ATOM     21  C   UNL A   1      43.606  27.761  32.857  1.00  0.00     0.031 C 
ATOM     22  C   UNL A   1      38.466  30.913  29.491  1.00  0.00     0.029 A 
ATOM     23  C   UNL A   1      38.711  31.384  30.849  1.00  0.00     0.049 A 
ATOM     24  H   UNL A   1      40.221  30.785  32.152  1.00  0.00     0.167 HD
ATOM     25  C   UNL A   1      43.262  29.164  34.879  1.00  0.00     0.037 A 
ATOM     26  C   UNL A   1      37.972  32.309  31.490  1.00  0.00     0.037 A 
ATOM     27  C   UNL A   1      42.598  30.214  35.608  1.00  0.00     0.049 A 
ATOM     28  C   UNL A   1      38.339  32.687  32.892  1.00  0.00     0.074 A 
ATOM     29  C   UNL A   1      42.878  30.692  36.876  1.00  0.00     0.029 A 
ATOM     30  N   UNL A   1      41.511  30.941  35.139  1.00  0.00    -0.354 N 
ATOM     31  N   UNL A   1      39.305  32.213  33.641  1.00  0.00    -0.248 NA
ATOM     32  C   UNL A   1      37.523  33.721  33.537  1.00  0.00     0.031 C 
ATOM     33  C   UNL A   1      41.935  31.679  37.189  1.00  0.00     0.029 A 
ATOM     34  C   UNL A   1      41.093  31.846  36.101  1.00  0.00     0.049 A 
ATOM     35  H   UNL A   1      41.098  30.829  34.252  1.00  0.00     0.167 HD
ATOM     36  C   UNL A   1      39.219  32.895  34.847  1.00  0.00     0.074 A 
ATOM     37  C   UNL A   1      38.116  33.826  34.720  1.00  0.00     0.031 C 
ATOM     38  C   UNL A   1      39.986  32.760  35.957  1.00  0.00     0.037 A 
BRANCH  25  39
ATOM     39  C   UNL A   1      44.357  28.395  35.564  1.00  0.00     0.058 A 
ATOM     40  C   UNL A   1      44.092  27.253  36.337  1.00  0.00     0.135 A 
ATOM     41  C   UNL A   1      45.696  28.800  35.437  1.00  0.00     0.135 A 
ATOM     42  F   UNL A   1      42.830  26.828  36.503  1.00  0.00    -0.206 F 
ATOM     43  C   UNL A   1      45.110  26.564  36.991  1.00  0.00     0.059 A 
ATOM     44  C   UNL A   1      46.733  28.113  36.062  1.00  0.00     0.059 A 
ATOM     45  F   UNL A   1      46.008  29.883  34.707  1.00  0.00    -0.206 F 
ATOM     46  C   UNL A   1      46.426  27.008  36.856  1.00  0.00     0.060 A 
BRANCH  46  47
ATOM     47  S   UNL A   1      47.733  26.128  37.739  1.00  0.00     0.124 S 
ATOM     48  O   UNL A   1      47.848  26.926  38.955  1.00  0.00    -0.237 OA
ATOM     49  O   UNL A   1      47.159  24.797  37.908  1.00  0.00    -0.237 OA
ATOM     50  O   UNL A   1      48.870  26.205  36.827  1.00  0.00    -0.744 OA
ENDBRANCH  46  47
ENDBRANCH  25  39
BRANCH  26  51
ATOM     51  C   UNL A   1      36.808  32.908  30.789  1.00  0.00     0.058 A 
ATOM     52  C   UNL A   1      35.498  32.537  31.115  1.00  0.00     0.135 A 
ATOM     53  C   UNL A   1      36.988  33.938  29.851  1.00  0.00     0.135 A 
ATOM     54  F   UNL A   1      35.279  31.558  32.006  1.00  0.00    -0.206 F 
ATOM     55  C   UNL A   1      34.401  33.174  30.544  1.00  0.00     0.059 A 
ATOM     56  C   UNL A   1      35.908  34.604  29.284  1.00  0.00     0.059 A 
ATOM     57  F   UNL A   1      38.225  34.343  29.525  1.00  0.00    -0.206 F 
ATOM     58  C   UNL A   1      34.617  34.214  29.637  1.00  0.00     0.060 A 
BRANCH  58  59
ATOM     59  S   UNL A   1      33.190  35.104  28.981  1.00  0.00     0.124 S 
ATOM     60  O   UNL A   1      33.819  36.292  28.415  1.00  0.00    -0.237 OA
ATOM     61  O   UNL A   1      32.646  34.149  28.020  1.00  0.00    -0.237 OA
ATOM     62  O   UNL A   1      32.362  35.328  30.163  1.00  0.00    -0.744 OA
ENDBRANCH  58  59
ENDBRANCH  26  51
BRANCH  38  63
ATOM     63  C   UNL A   1      39.666  33.651  37.123  1.00  0.00     0.058 A 
ATOM     64  C   UNL A   1      38.784  33.242  38.135  1.00  0.00     0.135 A 
ATOM     65  C   UNL A   1      40.295  34.898  37.260  1.00  0.00     0.135 A 
ATOM     66  F   UNL A   1      38.149  32.063  38.043  1.00  0.00    -0.206 F 
ATOM     67  C   UNL A   1      38.531  34.044  39.243  1.00  0.00     0.059 A 
ATOM     68  C   UNL A   1      40.074  35.707  38.370  1.00  0.00     0.059 A 
ATOM     69  F   UNL A   1      41.151  35.330  36.320  1.00  0.00    -0.206 F 
ATOM     70  C   UNL A   1      39.185  35.274  39.353  1.00  0.00     0.060 A 
BRANCH  70  71
ATOM     71  S   UNL A   1      38.893  36.282  40.822  1.00  0.00     0.124 S 
ATOM     72  O   UNL A   1      38.490  37.553  40.230  1.00  0.00    -0.237 OA
ATOM     73  O   UNL A   1      37.840  35.539  41.508  1.00  0.00    -0.237 OA
ATOM     74  O   UNL A   1      40.189  36.284  41.494  1.00  0.00    -0.744 OA
ENDBRANCH  70  71
ENDBRANCH  38  63
ENDBRANCH  12  13
ENDBRANCH   5   7
ENDBRANCH   2   3
ENDBRANCH   1   2
BRANCH   1  75
ATOM     75  C   UNL A   1      38.522  24.089  26.417  1.00  0.00     0.023 C 
BRANCH  75  76
ATOM     76  C   UNL A   1      37.174  23.584  25.920  1.00  0.00     0.116 C 
BRANCH  76  77
ATOM     77  N   UNL A   1      37.221  23.191  24.525  1.00  0.00    -0.356 N 
ATOM     78  C   UNL A   1      36.268  23.205  23.559  1.00  0.00     0.229 C 
ATOM     79  H   UNL A   1      38.096  22.854  24.226  1.00  0.00     0.163 HD
ATOM     80  O   UNL A   1      36.606  22.846  22.427  1.00  0.00    -0.275 OA
BRANCH  78  81
ATOM     81  C   UNL A   1      34.838  23.655  23.808  1.00  0.00     0.145 C 
ATOM     82  C   UNL A   1      34.091  24.051  22.538  1.00  0.00     0.276 C 
ATOM     83  C   UNL A   1      33.901  22.736  24.650  1.00  0.00     0.037 C 
ATOM     84  N   UNL A   1      32.693  23.716  22.757  1.00  0.00    -0.330 N 
ATOM     85  C   UNL A   1      32.621  22.667  23.776  1.00  0.00     0.270 C 
ATOM     86  C   UNL A   1      34.463  21.327  24.974  1.00  0.00     0.014 C 
ATOM     87  C   UNL A   1      33.646  23.411  26.027  1.00  0.00     0.014 C 
ATOM     88  H   UNL A   1      32.310  23.320  21.899  1.00  0.00     0.348 HD
ATOM     89  C   UNL A   1      33.583  20.501  25.917  1.00  0.00     0.001 C 
ATOM     90  C   UNL A   1      32.719  22.618  26.948  1.00  0.00     0.001 C 
ATOM     91  C   UNL A   1      33.283  21.233  27.216  1.00  0.00     0.000 C 
BRANCH  84  92
ATOM     92  C   UNL A   1      31.751  24.833  22.839  1.00  0.00     0.299 C 
BRANCH  92  93
ATOM     93  C   UNL A   1      31.753  25.638  24.119  1.00  0.00     0.008 A 
ATOM     94  C   UNL A   1      30.730  25.495  25.070  1.00  0.00     0.011 A 
ATOM     95  C   UNL A   1      32.760  26.588  24.356  1.00  0.00     0.031 A 
ATOM     96  C   UNL A   1      30.655  26.349  26.173  1.00  0.00     0.022 A 
ATOM     97  C   UNL A   1      32.698  27.433  25.471  1.00  0.00     0.060 A 
ATOM     98  C   UNL A   1      31.629  27.330  26.367  1.00  0.00     0.059 A 
ATOM     99  Cl  UNL A   1      33.944  28.617  25.649  1.00  0.00    -0.083 Cl
ATOM    100  Cl  UNL A   1      31.437  28.396  27.712  1.00  0.00    -0.083 Cl
ENDBRANCH  92  93
ENDBRANCH  84  92
ENDBRANCH  78  81
ENDBRANCH  76  77
ENDBRANCH  75  76
ENDBRANCH   1  75
TORSDOF 16
ENDMDL
