MODEL 1
REMARK VINA RESULT:     -11.0      0.000      0.000
REMARK SMILES C[NH+](C)CC(C)(C)CNc1cccc(F)c1C(=O)NCCCCNC(=O)c1ccc(-c2c3nc(c(-c4c(F)cc(S(=O)(=O)[O-])cc4F)c4ccc([nH]4)c(-c4c(F)cc(S(=O)(=O)[O-])cc4F)c4nc(c(-c5c(F)cc(S(=O)(=O)[O-])cc5F)c5ccc2[nH]5)C=C4)C=C3)cc1
REMARK SMILES IDX 20 1 19 2 17 3 18 4 16 6 10 7 11 8 12 9 14 10 13 11 15 12
REMARK SMILES IDX 9 13 8 15 5 16 6 17 7 18 4 19 2 20 1 21 3 22 21 24 22 25
REMARK SMILES IDX 23 26 24 27 25 28 26 30 27 31 28 32 92 33 29 34 91 35 30 36
REMARK SMILES IDX 31 37 32 38 85 39 33 40 90 41 84 42 86 43 34 44 89 45 83 46
REMARK SMILES IDX 82 47 35 49 69 50 48 51 68 52 49 53 52 54 67 55 87 56 50 57
REMARK SMILES IDX 51 58 66 60 88 61 53 62 36 63 37 64 46 65 38 66 39 67 45 68
REMARK SMILES IDX 47 69 40 70 41 71 42 72 43 73 44 74 70 75 71 76 80 77 72 78
REMARK SMILES IDX 73 79 79 80 81 81 74 82 75 83 76 84 77 85 78 86 54 87 55 88
REMARK SMILES IDX 64 89 56 90 57 91 63 92 65 93 58 94 59 95 60 96 61 97 62 98
REMARK H PARENT 19 5 9 14 2 23 24 29 86 48 52 59
REMARK Flexibility Score: inf
ROOT
ATOM      1  C   UNL A   1      33.805  28.822  23.195  1.00  0.00     0.116 C 
ENDROOT
BRANCH   1   2
ATOM      2  N   UNL A   1      33.804  27.748  22.219  1.00  0.00    -0.352 N 
ATOM      3  C   UNL A   1      32.858  26.811  21.877  1.00  0.00     0.256 C 
ATOM      4  O   UNL A   1      33.203  25.978  21.034  1.00  0.00    -0.269 OA
ATOM      5  H   UNL A   1      34.640  27.677  21.704  1.00  0.00     0.163 HD
BRANCH   3   6
ATOM      6  C   UNL A   1      31.510  26.705  22.520  1.00  0.00     0.098 A 
ATOM      7  C   UNL A   1      31.076  25.463  23.058  1.00  0.00     0.050 A 
ATOM      8  C   UNL A   1      29.878  25.428  23.801  1.00  0.00     0.027 A 
ATOM      9  C   UNL A   1      29.062  26.549  23.919  1.00  0.00     0.005 A 
ATOM     10  C   UNL A   1      30.610  27.774  22.540  1.00  0.00     0.138 A 
ATOM     11  C   UNL A   1      29.409  27.712  23.248  1.00  0.00     0.040 A 
ATOM     12  F   UNL A   1      30.820  28.881  21.813  1.00  0.00    -0.206 F 
BRANCH   7  13
ATOM     13  N   UNL A   1      31.745  24.264  22.784  1.00  0.00    -0.384 N 
ATOM     14  H   UNL A   1      32.566  24.279  22.240  1.00  0.00     0.160 HD
BRANCH  13  15
ATOM     15  C   UNL A   1      31.243  22.989  23.297  1.00  0.00     0.125 C 
BRANCH  15  16
ATOM     16  C   UNL A   1      32.279  22.185  24.134  1.00  0.00     0.031 C 
ATOM     17  C   UNL A   1      32.518  20.840  23.416  1.00  0.00     0.019 C 
ATOM     18  C   UNL A   1      31.656  21.834  25.511  1.00  0.00     0.019 C 
BRANCH  16  19
ATOM     19  C   UNL A   1      33.633  22.929  24.409  1.00  0.00     0.269 C 
BRANCH  19  20
ATOM     20  N   UNL A   1      34.013  23.540  25.687  1.00  0.00    -0.339 N 
ATOM     21  C   UNL A   1      35.244  23.083  26.296  1.00  0.00     0.332 C 
ATOM     22  C   UNL A   1      33.820  24.970  25.800  1.00  0.00     0.332 C 
ATOM     23  H   UNL A   1      33.288  23.136  26.279  1.00  0.00     0.347 HD
ENDBRANCH  19  20
ENDBRANCH  16  19
ENDBRANCH  15  16
ENDBRANCH  13  15
ENDBRANCH   7  13
ENDBRANCH   3   6
ENDBRANCH   1   2
BRANCH   1  24
ATOM     24  C   UNL A   1      33.975  28.344  24.634  1.00  0.00     0.023 C 
BRANCH  24  25
ATOM     25  C   UNL A   1      32.988  28.895  25.661  1.00  0.00     0.023 C 
BRANCH  25  26
ATOM     26  C   UNL A   1      33.442  28.880  27.117  1.00  0.00     0.116 C 
BRANCH  26  27
ATOM     27  N   UNL A   1      33.479  30.199  27.735  1.00  0.00    -0.352 N 
ATOM     28  C   UNL A   1      34.499  30.839  28.399  1.00  0.00     0.251 C 
ATOM     29  H   UNL A   1      32.641  30.711  27.665  1.00  0.00     0.163 HD
ATOM     30  O   UNL A   1      34.290  31.931  28.924  1.00  0.00    -0.269 OA
BRANCH  28  31
ATOM     31  C   UNL A   1      35.829  30.204  28.522  1.00  0.00     0.039 A 
ATOM     32  C   UNL A   1      36.694  30.238  27.424  1.00  0.00     0.014 A 
ATOM     33  C   UNL A   1      36.237  29.605  29.716  1.00  0.00     0.014 A 
ATOM     34  C   UNL A   1      38.003  29.768  27.559  1.00  0.00     0.010 A 
ATOM     35  C   UNL A   1      37.564  29.205  29.870  1.00  0.00     0.010 A 
ATOM     36  C   UNL A   1      38.467  29.303  28.800  1.00  0.00    -0.014 A 
BRANCH  36  37
ATOM     37  C   UNL A   1      39.899  28.968  29.016  1.00  0.00     0.031 A 
ATOM     38  C   UNL A   1      40.855  30.003  29.539  1.00  0.00     0.074 A 
ATOM     39  C   UNL A   1      40.353  27.749  28.661  1.00  0.00     0.049 A 
ATOM     40  N   UNL A   1      42.151  29.922  29.697  1.00  0.00    -0.248 NA
ATOM     41  C   UNL A   1      40.284  31.307  29.913  1.00  0.00     0.031 C 
ATOM     42  C   UNL A   1      39.534  26.671  28.101  1.00  0.00     0.029 A 
ATOM     43  N   UNL A   1      41.616  27.211  28.707  1.00  0.00    -0.354 N 
ATOM     44  C   UNL A   1      42.553  31.162  30.175  1.00  0.00     0.074 A 
ATOM     45  C   UNL A   1      41.370  31.993  30.239  1.00  0.00     0.031 C 
ATOM     46  C   UNL A   1      40.307  25.595  27.884  1.00  0.00     0.029 A 
ATOM     47  C   UNL A   1      41.685  25.918  28.244  1.00  0.00     0.049 A 
ATOM     48  H   UNL A   1      42.400  27.705  29.042  1.00  0.00     0.167 HD
ATOM     49  C   UNL A   1      43.791  31.564  30.550  1.00  0.00     0.037 A 
ATOM     50  C   UNL A   1      42.737  25.086  28.112  1.00  0.00     0.037 A 
ATOM     51  C   UNL A   1      44.961  30.724  30.510  1.00  0.00     0.049 A 
ATOM     52  C   UNL A   1      44.104  25.559  28.515  1.00  0.00     0.074 A 
ATOM     53  C   UNL A   1      46.246  31.023  30.923  1.00  0.00     0.029 A 
ATOM     54  N   UNL A   1      44.988  29.423  30.030  1.00  0.00    -0.354 N 
ATOM     55  N   UNL A   1      44.458  26.721  29.011  1.00  0.00    -0.248 NA
ATOM     56  C   UNL A   1      45.218  24.616  28.339  1.00  0.00     0.031 C 
ATOM     57  C   UNL A   1      47.060  29.918  30.658  1.00  0.00     0.029 A 
ATOM     58  C   UNL A   1      46.274  28.914  30.116  1.00  0.00     0.049 A 
ATOM     59  H   UNL A   1      44.210  28.933  29.679  1.00  0.00     0.167 HD
ATOM     60  C   UNL A   1      45.831  26.646  29.216  1.00  0.00     0.074 A 
ATOM     61  C   UNL A   1      46.242  25.319  28.805  1.00  0.00     0.031 C 
ATOM     62  C   UNL A   1      46.671  27.592  29.700  1.00  0.00     0.037 A 
BRANCH  49  63
ATOM     63  C   UNL A   1      43.947  32.971  31.055  1.00  0.00     0.058 A 
ATOM     64  C   UNL A   1      43.706  33.280  32.402  1.00  0.00     0.135 A 
ATOM     65  C   UNL A   1      44.285  34.025  30.190  1.00  0.00     0.135 A 
ATOM     66  F   UNL A   1      43.384  32.310  33.273  1.00  0.00    -0.206 F 
ATOM     67  C   UNL A   1      43.785  34.587  32.874  1.00  0.00     0.059 A 
ATOM     68  C   UNL A   1      44.394  35.336  30.645  1.00  0.00     0.059 A 
ATOM     69  F   UNL A   1      44.545  33.779  28.896  1.00  0.00    -0.206 F 
ATOM     70  C   UNL A   1      44.129  35.608  31.986  1.00  0.00     0.060 A 
BRANCH  70  71
ATOM     71  S   UNL A   1      44.269  37.293  32.620  1.00  0.00     0.124 S 
ATOM     72  O   UNL A   1      43.830  38.083  31.476  1.00  0.00    -0.237 OA
ATOM     73  O   UNL A   1      43.361  37.267  33.764  1.00  0.00    -0.237 OA
ATOM     74  O   UNL A   1      45.685  37.408  32.960  1.00  0.00    -0.744 OA
ENDBRANCH  70  71
ENDBRANCH  49  63
BRANCH  50  75
ATOM     75  C   UNL A   1      42.522  23.707  27.598  1.00  0.00     0.058 A 
ATOM     76  C   UNL A   1      42.369  22.617  28.466  1.00  0.00     0.135 A 
ATOM     77  C   UNL A   1      42.516  23.451  26.218  1.00  0.00     0.135 A 
ATOM     78  F   UNL A   1      42.376  22.807  29.794  1.00  0.00    -0.206 F 
ATOM     79  C   UNL A   1      42.250  21.317  27.988  1.00  0.00     0.059 A 
ATOM     80  C   UNL A   1      42.375  22.162  25.714  1.00  0.00     0.059 A 
ATOM     81  F   UNL A   1      42.644  24.466  25.349  1.00  0.00    -0.206 F 
ATOM     82  C   UNL A   1      42.264  21.098  26.609  1.00  0.00     0.060 A 
BRANCH  82  83
ATOM     83  S   UNL A   1      42.139  19.400  26.007  1.00  0.00     0.124 S 
ATOM     84  O   UNL A   1      43.001  19.446  24.830  1.00  0.00    -0.237 OA
ATOM     85  O   UNL A   1      42.650  18.635  27.139  1.00  0.00    -0.237 OA
ATOM     86  O   UNL A   1      40.714  19.241  25.736  1.00  0.00    -0.744 OA
ENDBRANCH  82  83
ENDBRANCH  50  75
BRANCH  62  87
ATOM     87  C   UNL A   1      48.127  27.240  29.820  1.00  0.00     0.058 A 
ATOM     88  C   UNL A   1      48.658  26.805  31.045  1.00  0.00     0.135 A 
ATOM     89  C   UNL A   1      49.012  27.424  28.748  1.00  0.00     0.135 A 
ATOM     90  F   UNL A   1      47.852  26.615  32.102  1.00  0.00    -0.206 F 
ATOM     91  C   UNL A   1      50.021  26.593  31.211  1.00  0.00     0.059 A 
ATOM     92  C   UNL A   1      50.379  27.196  28.885  1.00  0.00     0.059 A 
ATOM     93  F   UNL A   1      48.551  27.825  27.552  1.00  0.00    -0.206 F 
ATOM     94  C   UNL A   1      50.876  26.801  30.127  1.00  0.00     0.060 A 
BRANCH  94  95
ATOM     95  S   UNL A   1      52.646  26.535  30.363  1.00  0.00     0.124 S 
ATOM     96  O   UNL A   1      53.069  27.818  30.916  1.00  0.00    -0.237 OA
ATOM     97  O   UNL A   1      52.669  25.406  31.288  1.00  0.00    -0.237 OA
ATOM     98  O   UNL A   1      53.127  26.242  29.016  1.00  0.00    -0.744 OA
ENDBRANCH  94  95
ENDBRANCH  62  87
ENDBRANCH  36  37
ENDBRANCH  28  31
ENDBRANCH  26  27
ENDBRANCH  25  26
ENDBRANCH  24  25
ENDBRANCH   1  24
TORSDOF 19
ENDMDL
MODEL 2
REMARK VINA RESULT:     -10.5      5.077     10.606
REMARK SMILES C[NH+](C)CC(C)(C)CNc1cccc(F)c1C(=O)NCCCCNC(=O)c1ccc(-c2c3nc(c(-c4c(F)cc(S(=O)(=O)[O-])cc4F)c4ccc([nH]4)c(-c4c(F)cc(S(=O)(=O)[O-])cc4F)c4nc(c(-c5c(F)cc(S(=O)(=O)[O-])cc5F)c5ccc2[nH]5)C=C4)C=C3)cc1
REMARK SMILES IDX 20 1 19 2 17 3 18 4 16 6 10 7 11 8 12 9 14 10 13 11 15 12
REMARK SMILES IDX 9 13 8 15 5 16 6 17 7 18 4 19 2 20 1 21 3 22 21 24 22 25
REMARK SMILES IDX 23 26 24 27 25 28 26 30 27 31 28 32 92 33 29 34 91 35 30 36
REMARK SMILES IDX 31 37 32 38 85 39 33 40 90 41 84 42 86 43 34 44 89 45 83 46
REMARK SMILES IDX 82 47 35 49 69 50 48 51 68 52 49 53 52 54 67 55 87 56 50 57
REMARK SMILES IDX 51 58 66 60 88 61 53 62 36 63 37 64 46 65 38 66 39 67 45 68
REMARK SMILES IDX 47 69 40 70 41 71 42 72 43 73 44 74 70 75 71 76 80 77 72 78
REMARK SMILES IDX 73 79 79 80 81 81 74 82 75 83 76 84 77 85 78 86 54 87 55 88
REMARK SMILES IDX 64 89 56 90 57 91 63 92 65 93 58 94 59 95 60 96 61 97 62 98
REMARK H PARENT 19 5 9 14 2 23 24 29 86 48 52 59
REMARK Flexibility Score: inf
ROOT
ATOM      1  C   UNL A   1      37.727  22.820  25.831  1.00  0.00     0.116 C 
ENDROOT
BRANCH   1   2
ATOM      2  N   UNL A   1      37.470  22.998  24.413  1.00  0.00    -0.352 N 
ATOM      3  C   UNL A   1      36.340  22.823  23.650  1.00  0.00     0.256 C 
ATOM      4  O   UNL A   1      36.475  23.000  22.436  1.00  0.00    -0.269 OA
ATOM      5  H   UNL A   1      38.253  23.303  23.901  1.00  0.00     0.163 HD
BRANCH   3   6
ATOM      6  C   UNL A   1      35.024  22.358  24.192  1.00  0.00     0.098 A 
ATOM      7  C   UNL A   1      33.950  23.278  24.335  1.00  0.00     0.050 A 
ATOM      8  C   UNL A   1      32.678  22.784  24.691  1.00  0.00     0.027 A 
ATOM      9  C   UNL A   1      32.481  21.444  25.015  1.00  0.00     0.005 A 
ATOM     10  C   UNL A   1      34.828  21.052  24.652  1.00  0.00     0.138 A 
ATOM     11  C   UNL A   1      33.571  20.588  25.037  1.00  0.00     0.040 A 
ATOM     12  F   UNL A   1      35.856  20.207  24.819  1.00  0.00    -0.206 F 
BRANCH   7  13
ATOM     13  N   UNL A   1      34.143  24.661  24.235  1.00  0.00    -0.384 N 
ATOM     14  H   UNL A   1      34.170  25.084  23.347  1.00  0.00     0.160 HD
BRANCH  13  15
ATOM     15  C   UNL A   1      34.302  25.486  25.434  1.00  0.00     0.125 C 
BRANCH  15  16
ATOM     16  C   UNL A   1      33.262  26.637  25.559  1.00  0.00     0.031 C 
ATOM     17  C   UNL A   1      33.882  27.731  26.453  1.00  0.00     0.019 C 
ATOM     18  C   UNL A   1      32.016  26.114  26.320  1.00  0.00     0.019 C 
BRANCH  16  19
ATOM     19  C   UNL A   1      32.763  27.233  24.196  1.00  0.00     0.269 C 
BRANCH  19  20
ATOM     20  N   UNL A   1      31.368  27.559  23.881  1.00  0.00    -0.339 N 
ATOM     21  C   UNL A   1      31.017  28.962  23.820  1.00  0.00     0.332 C 
ATOM     22  C   UNL A   1      30.741  26.771  22.841  1.00  0.00     0.332 C 
ATOM     23  H   UNL A   1      30.931  27.238  24.744  1.00  0.00     0.347 HD
ENDBRANCH  19  20
ENDBRANCH  16  19
ENDBRANCH  15  16
ENDBRANCH  13  15
ENDBRANCH   7  13
ENDBRANCH   3   6
ENDBRANCH   1   2
BRANCH   1  24
ATOM     24  C   UNL A   1      39.087  22.201  26.135  1.00  0.00     0.023 C 
BRANCH  24  25
ATOM     25  C   UNL A   1      39.894  22.838  27.265  1.00  0.00     0.023 C 
BRANCH  25  26
ATOM     26  C   UNL A   1      41.371  23.094  26.985  1.00  0.00     0.116 C 
BRANCH  26  27
ATOM     27  N   UNL A   1      41.609  24.061  25.923  1.00  0.00    -0.352 N 
ATOM     28  C   UNL A   1      41.693  25.433  25.974  1.00  0.00     0.251 C 
ATOM     29  H   UNL A   1      41.728  23.671  25.027  1.00  0.00     0.163 HD
ATOM     30  O   UNL A   1      41.817  26.073  24.933  1.00  0.00    -0.269 OA
BRANCH  28  31
ATOM     31  C   UNL A   1      41.592  26.143  27.268  1.00  0.00     0.039 A 
ATOM     32  C   UNL A   1      42.668  26.931  27.689  1.00  0.00     0.014 A 
ATOM     33  C   UNL A   1      40.439  26.060  28.051  1.00  0.00     0.014 A 
ATOM     34  C   UNL A   1      42.543  27.718  28.836  1.00  0.00     0.010 A 
ATOM     35  C   UNL A   1      40.289  26.900  29.153  1.00  0.00     0.010 A 
ATOM     36  C   UNL A   1      41.332  27.755  29.544  1.00  0.00    -0.014 A 
BRANCH  36  37
ATOM     37  C   UNL A   1      41.114  28.715  30.657  1.00  0.00     0.031 A 
ATOM     38  C   UNL A   1      41.935  28.629  31.913  1.00  0.00     0.074 A 
ATOM     39  C   UNL A   1      40.115  29.618  30.566  1.00  0.00     0.049 A 
ATOM     40  N   UNL A   1      41.820  29.314  33.022  1.00  0.00    -0.248 NA
ATOM     41  C   UNL A   1      43.011  27.626  31.935  1.00  0.00     0.031 C 
ATOM     42  C   UNL A   1      39.219  29.774  29.417  1.00  0.00     0.029 A 
ATOM     43  N   UNL A   1      39.677  30.567  31.456  1.00  0.00    -0.354 N 
ATOM     44  C   UNL A   1      42.797  28.820  33.876  1.00  0.00     0.074 A 
ATOM     45  C   UNL A   1      43.466  27.746  33.175  1.00  0.00     0.031 C 
ATOM     46  C   UNL A   1      38.360  30.777  29.661  1.00  0.00     0.029 A 
ATOM     47  C   UNL A   1      38.611  31.306  30.998  1.00  0.00     0.049 A 
ATOM     48  H   UNL A   1      40.088  30.708  32.340  1.00  0.00     0.167 HD
ATOM     49  C   UNL A   1      43.123  29.239  35.122  1.00  0.00     0.037 A 
ATOM     50  C   UNL A   1      37.904  32.290  31.588  1.00  0.00     0.037 A 
ATOM     51  C   UNL A   1      42.471  30.327  35.805  1.00  0.00     0.049 A 
ATOM     52  C   UNL A   1      38.270  32.726  32.979  1.00  0.00     0.074 A 
ATOM     53  C   UNL A   1      42.769  30.863  37.045  1.00  0.00     0.029 A 
ATOM     54  N   UNL A   1      41.393  31.045  35.309  1.00  0.00    -0.354 N 
ATOM     55  N   UNL A   1      39.229  32.278  33.754  1.00  0.00    -0.248 NA
ATOM     56  C   UNL A   1      37.459  33.794  33.580  1.00  0.00     0.031 C 
ATOM     57  C   UNL A   1      41.847  31.879  37.316  1.00  0.00     0.029 A 
ATOM     58  C   UNL A   1      40.999  32.004  36.227  1.00  0.00     0.049 A 
ATOM     59  H   UNL A   1      40.969  30.895  34.433  1.00  0.00     0.167 HD
ATOM     60  C   UNL A   1      39.145  33.017  34.929  1.00  0.00     0.074 A 
ATOM     61  C   UNL A   1      38.050  33.951  34.758  1.00  0.00     0.031 C 
ATOM     62  C   UNL A   1      39.906  32.926  36.046  1.00  0.00     0.037 A 
BRANCH  49  63
ATOM     63  C   UNL A   1      44.247  28.534  35.826  1.00  0.00     0.058 A 
ATOM     64  C   UNL A   1      43.986  27.494  36.732  1.00  0.00     0.135 A 
ATOM     65  C   UNL A   1      45.583  28.924  35.644  1.00  0.00     0.135 A 
ATOM     66  F   UNL A   1      42.727  27.078  36.941  1.00  0.00    -0.206 F 
ATOM     67  C   UNL A   1      45.009  26.872  37.440  1.00  0.00     0.059 A 
ATOM     68  C   UNL A   1      46.626  28.300  36.323  1.00  0.00     0.059 A 
ATOM     69  F   UNL A   1      45.889  29.901  34.774  1.00  0.00    -0.206 F 
ATOM     70  C   UNL A   1      46.327  27.283  37.229  1.00  0.00     0.060 A 
BRANCH  70  71
ATOM     71  S   UNL A   1      47.649  26.439  38.123  1.00  0.00     0.124 S 
ATOM     72  O   UNL A   1      46.916  25.395  38.829  1.00  0.00    -0.237 OA
ATOM     73  O   UNL A   1      48.515  25.989  37.037  1.00  0.00    -0.237 OA
ATOM     74  O   UNL A   1      48.212  27.493  38.963  1.00  0.00    -0.744 OA
ENDBRANCH  70  71
ENDBRANCH  49  63
BRANCH  50  75
ATOM     75  C   UNL A   1      36.796  32.945  30.845  1.00  0.00     0.058 A 
ATOM     76  C   UNL A   1      37.028  34.037  29.996  1.00  0.00     0.135 A 
ATOM     77  C   UNL A   1      35.470  32.517  31.012  1.00  0.00     0.135 A 
ATOM     78  F   UNL A   1      38.277  34.491  29.808  1.00  0.00    -0.206 F 
ATOM     79  C   UNL A   1      35.984  34.702  29.363  1.00  0.00     0.059 A 
ATOM     80  C   UNL A   1      34.410  33.152  30.373  1.00  0.00     0.059 A 
ATOM     81  F   UNL A   1      35.201  31.467  31.803  1.00  0.00    -0.206 F 
ATOM     82  C   UNL A   1      34.676  34.258  29.566  1.00  0.00     0.060 A 
BRANCH  82  83
ATOM     83  S   UNL A   1      33.329  35.154  28.761  1.00  0.00     0.124 S 
ATOM     84  O   UNL A   1      32.609  35.688  29.912  1.00  0.00    -0.237 OA
ATOM     85  O   UNL A   1      34.051  36.130  27.953  1.00  0.00    -0.237 OA
ATOM     86  O   UNL A   1      32.632  34.113  28.012  1.00  0.00    -0.744 OA
ENDBRANCH  82  83
ENDBRANCH  50  75
BRANCH  62  87
ATOM     87  C   UNL A   1      39.595  33.859  37.182  1.00  0.00     0.058 A 
ATOM     88  C   UNL A   1      40.169  35.139  37.234  1.00  0.00     0.135 A 
ATOM     89  C   UNL A   1      38.805  33.448  38.267  1.00  0.00     0.135 A 
ATOM     90  F   UNL A   1      40.934  35.578  36.221  1.00  0.00    -0.206 F 
ATOM     91  C   UNL A   1      39.994  35.969  38.334  1.00  0.00     0.059 A 
ATOM     92  C   UNL A   1      38.597  34.272  39.369  1.00  0.00     0.059 A 
ATOM     93  F   UNL A   1      38.222  32.238  38.258  1.00  0.00    -0.206 F 
ATOM     94  C   UNL A   1      39.213  35.523  39.402  1.00  0.00     0.060 A 
BRANCH  94  95
ATOM     95  S   UNL A   1      39.008  36.608  40.831  1.00  0.00     0.124 S 
ATOM     96  O   UNL A   1      38.034  35.870  41.628  1.00  0.00    -0.237 OA
ATOM     97  O   UNL A   1      40.362  36.664  41.373  1.00  0.00    -0.237 OA
ATOM     98  O   UNL A   1      38.525  37.854  40.243  1.00  0.00    -0.744 OA
ENDBRANCH  94  95
ENDBRANCH  62  87
ENDBRANCH  36  37
ENDBRANCH  28  31
ENDBRANCH  26  27
ENDBRANCH  25  26
ENDBRANCH  24  25
ENDBRANCH   1  24
TORSDOF 19
ENDMDL
MODEL 3
REMARK VINA RESULT:     -10.4      2.575      3.427
REMARK SMILES C[NH+](C)CC(C)(C)CNc1cccc(F)c1C(=O)NCCCCNC(=O)c1ccc(-c2c3nc(c(-c4c(F)cc(S(=O)(=O)[O-])cc4F)c4ccc([nH]4)c(-c4c(F)cc(S(=O)(=O)[O-])cc4F)c4nc(c(-c5c(F)cc(S(=O)(=O)[O-])cc5F)c5ccc2[nH]5)C=C4)C=C3)cc1
REMARK SMILES IDX 20 1 19 2 17 3 18 4 16 6 10 7 11 8 12 9 14 10 13 11 15 12
REMARK SMILES IDX 9 13 8 15 5 16 6 17 7 18 4 19 2 20 1 21 3 22 21 24 22 25
REMARK SMILES IDX 23 26 24 27 25 28 26 30 27 31 28 32 92 33 29 34 91 35 30 36
REMARK SMILES IDX 31 37 32 38 85 39 33 40 90 41 84 42 86 43 34 44 89 45 83 46
REMARK SMILES IDX 82 47 35 49 69 50 48 51 68 52 49 53 52 54 67 55 87 56 50 57
REMARK SMILES IDX 51 58 66 60 88 61 53 62 36 63 37 64 46 65 38 66 39 67 45 68
REMARK SMILES IDX 47 69 40 70 41 71 42 72 43 73 44 74 70 75 71 76 80 77 72 78
REMARK SMILES IDX 73 79 79 80 81 81 74 82 75 83 76 84 77 85 78 86 54 87 55 88
REMARK SMILES IDX 64 89 56 90 57 91 63 92 65 93 58 94 59 95 60 96 61 97 62 98
REMARK H PARENT 19 5 9 14 2 23 24 29 86 48 52 59
REMARK Flexibility Score: inf
ROOT
ATOM      1  C   UNL A   1      32.243  30.030  25.847  1.00  0.00     0.116 C 
ENDROOT
BRANCH   1   2
ATOM      2  N   UNL A   1      33.001  29.728  24.647  1.00  0.00    -0.352 N 
ATOM      3  C   UNL A   1      32.868  28.746  23.692  1.00  0.00     0.256 C 
ATOM      4  O   UNL A   1      33.736  28.726  22.814  1.00  0.00    -0.269 OA
ATOM      5  H   UNL A   1      33.753  30.342  24.485  1.00  0.00     0.163 HD
BRANCH   3   6
ATOM      6  C   UNL A   1      31.810  27.688  23.718  1.00  0.00     0.098 A 
ATOM      7  C   UNL A   1      32.176  26.321  23.854  1.00  0.00     0.050 A 
ATOM      8  C   UNL A   1      31.159  25.363  24.040  1.00  0.00     0.027 A 
ATOM      9  C   UNL A   1      29.812  25.709  23.979  1.00  0.00     0.005 A 
ATOM     10  C   UNL A   1      30.457  27.984  23.526  1.00  0.00     0.138 A 
ATOM     11  C   UNL A   1      29.464  27.016  23.676  1.00  0.00     0.040 A 
ATOM     12  F   UNL A   1      30.057  29.194  23.110  1.00  0.00    -0.206 F 
BRANCH   7  13
ATOM     13  N   UNL A   1      33.501  25.892  23.705  1.00  0.00    -0.384 N 
ATOM     14  H   UNL A   1      33.989  26.103  22.876  1.00  0.00     0.160 HD
BRANCH  13  15
ATOM     15  C   UNL A   1      34.169  25.136  24.765  1.00  0.00     0.125 C 
BRANCH  15  16
ATOM     16  C   UNL A   1      34.507  23.666  24.385  1.00  0.00     0.031 C 
ATOM     17  C   UNL A   1      36.043  23.522  24.391  1.00  0.00     0.019 C 
ATOM     18  C   UNL A   1      34.055  23.403  22.924  1.00  0.00     0.019 C 
BRANCH  16  19
ATOM     19  C   UNL A   1      33.832  22.574  25.288  1.00  0.00     0.269 C 
BRANCH  19  20
ATOM     20  N   UNL A   1      33.156  22.837  26.563  1.00  0.00    -0.339 N 
ATOM     21  C   UNL A   1      31.711  22.744  26.574  1.00  0.00     0.332 C 
ATOM     22  C   UNL A   1      33.771  22.273  27.746  1.00  0.00     0.332 C 
ATOM     23  H   UNL A   1      33.334  23.839  26.634  1.00  0.00     0.347 HD
ENDBRANCH  19  20
ENDBRANCH  16  19
ENDBRANCH  15  16
ENDBRANCH  13  15
ENDBRANCH   7  13
ENDBRANCH   3   6
ENDBRANCH   1   2
BRANCH   1  24
ATOM     24  C   UNL A   1      33.025  29.812  27.138  1.00  0.00     0.023 C 
BRANCH  24  25
ATOM     25  C   UNL A   1      34.262  28.921  27.049  1.00  0.00     0.023 C 
BRANCH  25  26
ATOM     26  C   UNL A   1      35.534  29.457  27.698  1.00  0.00     0.116 C 
BRANCH  26  27
ATOM     27  N   UNL A   1      35.404  29.705  29.128  1.00  0.00    -0.352 N 
ATOM     28  C   UNL A   1      36.369  29.807  30.102  1.00  0.00     0.251 C 
ATOM     29  H   UNL A   1      34.479  29.816  29.446  1.00  0.00     0.163 HD
ATOM     30  O   UNL A   1      36.034  29.937  31.278  1.00  0.00    -0.269 OA
BRANCH  28  31
ATOM     31  C   UNL A   1      37.803  29.718  29.750  1.00  0.00     0.039 A 
ATOM     32  C   UNL A   1      38.730  29.467  30.766  1.00  0.00     0.014 A 
ATOM     33  C   UNL A   1      38.234  29.852  28.428  1.00  0.00     0.014 A 
ATOM     34  C   UNL A   1      40.071  29.242  30.441  1.00  0.00     0.010 A 
ATOM     35  C   UNL A   1      39.556  29.556  28.098  1.00  0.00     0.010 A 
ATOM     36  C   UNL A   1      40.483  29.226  29.099  1.00  0.00    -0.014 A 
BRANCH  36  37
ATOM     37  C   UNL A   1      41.858  28.813  28.716  1.00  0.00     0.031 A 
ATOM     38  C   UNL A   1      42.975  29.819  28.678  1.00  0.00     0.074 A 
ATOM     39  C   UNL A   1      42.082  27.543  28.323  1.00  0.00     0.049 A 
ATOM     40  N   UNL A   1      44.210  29.664  28.275  1.00  0.00    -0.248 NA
ATOM     41  C   UNL A   1      42.656  31.183  29.129  1.00  0.00     0.031 C 
ATOM     42  C   UNL A   1      41.073  26.482  28.274  1.00  0.00     0.029 A 
ATOM     43  N   UNL A   1      43.227  26.927  27.879  1.00  0.00    -0.354 N 
ATOM     44  C   UNL A   1      44.812  30.908  28.412  1.00  0.00     0.074 A 
ATOM     45  C   UNL A   1      43.795  31.818  28.892  1.00  0.00     0.031 C 
ATOM     46  C   UNL A   1      41.648  25.343  27.855  1.00  0.00     0.029 A 
ATOM     47  C   UNL A   1      43.055  25.600  27.561  1.00  0.00     0.049 A 
ATOM     48  H   UNL A   1      44.092  27.391  27.798  1.00  0.00     0.167 HD
ATOM     49  C   UNL A   1      46.101  31.253  28.182  1.00  0.00     0.037 A 
ATOM     50  C   UNL A   1      43.924  24.692  27.076  1.00  0.00     0.037 A 
ATOM     51  C   UNL A   1      47.116  30.336  27.730  1.00  0.00     0.049 A 
ATOM     52  C   UNL A   1      45.345  25.102  26.809  1.00  0.00     0.074 A 
ATOM     53  C   UNL A   1      48.463  30.580  27.525  1.00  0.00     0.029 A 
ATOM     54  N   UNL A   1      46.900  29.004  27.415  1.00  0.00    -0.354 N 
ATOM     55  N   UNL A   1      45.909  26.273  26.990  1.00  0.00    -0.248 NA
ATOM     56  C   UNL A   1      46.247  24.076  26.269  1.00  0.00     0.031 C 
ATOM     57  C   UNL A   1      49.053  29.405  27.048  1.00  0.00     0.029 A 
ATOM     58  C   UNL A   1      48.082  28.418  26.995  1.00  0.00     0.049 A 
ATOM     59  H   UNL A   1      46.032  28.541  27.479  1.00  0.00     0.167 HD
ATOM     60  C   UNL A   1      47.233  26.122  26.597  1.00  0.00     0.074 A 
ATOM     61  C   UNL A   1      47.391  24.743  26.182  1.00  0.00     0.031 C 
ATOM     62  C   UNL A   1      48.226  27.044  26.581  1.00  0.00     0.037 A 
BRANCH  49  63
ATOM     63  C   UNL A   1      46.498  32.681  28.432  1.00  0.00     0.058 A 
ATOM     64  C   UNL A   1      46.339  33.655  27.434  1.00  0.00     0.135 A 
ATOM     65  C   UNL A   1      47.087  33.075  29.644  1.00  0.00     0.135 A 
ATOM     66  F   UNL A   1      45.779  33.333  26.257  1.00  0.00    -0.206 F 
ATOM     67  C   UNL A   1      46.759  34.968  27.625  1.00  0.00     0.059 A 
ATOM     68  C   UNL A   1      47.492  34.388  29.867  1.00  0.00     0.059 A 
ATOM     69  F   UNL A   1      47.244  32.187  30.639  1.00  0.00    -0.206 F 
ATOM     70  C   UNL A   1      47.335  35.324  28.845  1.00  0.00     0.060 A 
BRANCH  70  71
ATOM     71  S   UNL A   1      47.836  37.041  29.095  1.00  0.00     0.124 S 
ATOM     72  O   UNL A   1      48.382  37.001  30.447  1.00  0.00    -0.237 OA
ATOM     73  O   UNL A   1      48.806  37.237  28.021  1.00  0.00    -0.237 OA
ATOM     74  O   UNL A   1      46.587  37.782  28.941  1.00  0.00    -0.744 OA
ENDBRANCH  70  71
ENDBRANCH  49  63
BRANCH  50  75
ATOM     75  C   UNL A   1      43.471  23.295  26.840  1.00  0.00     0.058 A 
ATOM     76  C   UNL A   1      43.236  22.411  27.903  1.00  0.00     0.135 A 
ATOM     77  C   UNL A   1      43.313  22.805  25.535  1.00  0.00     0.135 A 
ATOM     78  F   UNL A   1      43.381  22.829  29.171  1.00  0.00    -0.206 F 
ATOM     79  C   UNL A   1      42.892  21.083  27.683  1.00  0.00     0.059 A 
ATOM     80  C   UNL A   1      42.947  21.485  25.288  1.00  0.00     0.059 A 
ATOM     81  F   UNL A   1      43.513  23.618  24.486  1.00  0.00    -0.206 F 
ATOM     82  C   UNL A   1      42.759  20.626  26.371  1.00  0.00     0.060 A 
BRANCH  82  83
ATOM     83  S   UNL A   1      42.342  18.889  26.104  1.00  0.00     0.124 S 
ATOM     84  O   UNL A   1      42.638  18.315  27.413  1.00  0.00    -0.237 OA
ATOM     85  O   UNL A   1      40.930  18.964  25.747  1.00  0.00    -0.237 OA
ATOM     86  O   UNL A   1      43.240  18.489  25.025  1.00  0.00    -0.744 OA
ENDBRANCH  82  83
ENDBRANCH  50  75
BRANCH  62  87
ATOM     87  C   UNL A   1      49.581  26.605  26.104  1.00  0.00     0.058 A 
ATOM     88  C   UNL A   1      50.462  25.938  26.970  1.00  0.00     0.135 A 
ATOM     89  C   UNL A   1      50.043  26.932  24.820  1.00  0.00     0.135 A 
ATOM     90  F   UNL A   1      50.068  25.604  28.209  1.00  0.00    -0.206 F 
ATOM     91  C   UNL A   1      51.763  25.633  26.588  1.00  0.00     0.059 A 
ATOM     92  C   UNL A   1      51.334  26.617  24.409  1.00  0.00     0.059 A 
ATOM     93  F   UNL A   1      49.233  27.558  23.950  1.00  0.00    -0.206 F 
ATOM     94  C   UNL A   1      52.194  25.986  25.308  1.00  0.00     0.060 A 
BRANCH  94  95
ATOM     95  S   UNL A   1      53.892  25.597  24.834  1.00  0.00     0.124 S 
ATOM     96  O   UNL A   1      53.874  25.880  23.403  1.00  0.00    -0.237 OA
ATOM     97  O   UNL A   1      54.663  26.525  25.656  1.00  0.00    -0.237 OA
ATOM     98  O   UNL A   1      54.031  24.189  25.195  1.00  0.00    -0.744 OA
ENDBRANCH  94  95
ENDBRANCH  62  87
ENDBRANCH  36  37
ENDBRANCH  28  31
ENDBRANCH  26  27
ENDBRANCH  25  26
ENDBRANCH  24  25
ENDBRANCH   1  24
TORSDOF 19
ENDMDL
