MODEL 1
REMARK VINA RESULT:     -11.0      0.000      0.000
REMARK SMILES CCc1nc(COC)cc(N2CCCC[C@H]2C(=O)NCCCCNC(=O)c2ccc(-c3c4nc(c(-c5c(F)cc(S(=O)(=O)[O-])cc5F)c5ccc([nH]5)c(-c5c(F)cc(S(=O)(=O)[O-])cc5F)c5nc(c(-c6c(F)cc(S(=O)(=O)[O-])cc6F)c6ccc3[nH]6)C=C5)C=C4)cc2)n1
REMARK SMILES IDX 21 1 20 2 19 3 17 4 18 5 16 7 11 8 12 9 13 10 15 11 14 12
REMARK SMILES IDX 10 13 3 14 4 15 93 16 5 17 9 18 2 19 1 20 6 21 7 22 8 23
REMARK SMILES IDX 22 24 23 25 24 26 25 27 26 29 27 30 28 31 92 32 29 33 91 34
REMARK SMILES IDX 30 35 31 36 32 37 85 38 33 39 90 40 84 41 86 42 34 43 89 44
REMARK SMILES IDX 83 45 82 46 35 48 69 49 48 50 68 51 49 52 52 53 67 54 87 55
REMARK SMILES IDX 50 56 51 57 66 59 88 60 53 61 36 62 37 63 46 64 38 65 39 66
REMARK SMILES IDX 45 67 47 68 40 69 41 70 42 71 43 72 44 73 70 74 71 75 80 76
REMARK SMILES IDX 72 77 73 78 79 79 81 80 74 81 75 82 76 83 77 84 78 85 54 86
REMARK SMILES IDX 55 87 64 88 56 89 57 90 63 91 65 92 58 93 59 94 60 95 61 96
REMARK SMILES IDX 62 97
REMARK H PARENT 19 6 24 28 86 47 52 58
REMARK Flexibility Score: inf
ROOT
ATOM      1  C   UNL A   1      32.500  27.956  25.046  1.00  0.00     0.023 C 
ENDROOT
BRANCH   1   2
ATOM      2  C   UNL A   1      33.693  27.037  24.795  1.00  0.00     0.116 C 
BRANCH   2   3
ATOM      3  N   UNL A   1      33.772  26.604  23.422  1.00  0.00    -0.354 N 
ATOM      4  C   UNL A   1      33.337  25.460  22.830  1.00  0.00     0.242 C 
ATOM      5  O   UNL A   1      33.600  25.340  21.626  1.00  0.00    -0.273 OA
ATOM      6  H   UNL A   1      34.213  27.240  22.815  1.00  0.00     0.163 HD
BRANCH   4   7
ATOM      7  C   UNL A   1      32.534  24.347  23.551  1.00  0.00     0.173 C 
ATOM      8  N   UNL A   1      32.972  24.050  24.927  1.00  0.00    -0.344 N 
ATOM      9  C   UNL A   1      32.183  24.421  26.097  1.00  0.00     0.119 C 
ATOM     10  C   UNL A   1      30.686  24.301  25.872  1.00  0.00     0.022 C 
ATOM     11  C   UNL A   1      31.012  24.451  23.382  1.00  0.00     0.035 C 
ATOM     12  C   UNL A   1      30.219  24.952  24.581  1.00  0.00     0.004 C 
BRANCH   8  13
ATOM     13  C   UNL A   1      33.960  23.092  25.122  1.00  0.00     0.133 A 
ATOM     14  C   UNL A   1      36.168  22.605  25.601  1.00  0.00     0.130 A 
ATOM     15  N   UNL A   1      36.009  21.286  25.430  1.00  0.00    -0.235 NA
ATOM     16  N   UNL A   1      35.195  23.517  25.437  1.00  0.00    -0.216 NA
ATOM     17  C   UNL A   1      34.775  20.869  25.075  1.00  0.00     0.072 A 
ATOM     18  C   UNL A   1      33.709  21.744  24.950  1.00  0.00     0.073 A 
BRANCH  14  19
ATOM     19  C   UNL A   1      37.554  23.110  25.892  1.00  0.00     0.074 C 
ATOM     20  C   UNL A   1      38.598  22.005  25.855  1.00  0.00     0.012 C 
ENDBRANCH  14  19
BRANCH  17  21
ATOM     21  C   UNL A   1      34.612  19.412  24.698  1.00  0.00     0.216 C 
BRANCH  21  22
ATOM     22  O   UNL A   1      33.305  19.111  24.190  1.00  0.00    -0.378 OA
ATOM     23  C   UNL A   1      33.206  17.807  23.632  1.00  0.00     0.195 C 
ENDBRANCH  21  22
ENDBRANCH  17  21
ENDBRANCH   8  13
ENDBRANCH   4   7
ENDBRANCH   2   3
ENDBRANCH   1   2
BRANCH   1  24
ATOM     24  C   UNL A   1      32.214  28.224  26.522  1.00  0.00     0.023 C 
BRANCH  24  25
ATOM     25  C   UNL A   1      33.428  28.626  27.357  1.00  0.00     0.116 C 
BRANCH  25  26
ATOM     26  N   UNL A   1      33.414  30.012  27.810  1.00  0.00    -0.352 N 
ATOM     27  C   UNL A   1      34.455  30.740  28.347  1.00  0.00     0.251 C 
ATOM     28  H   UNL A   1      32.555  30.486  27.721  1.00  0.00     0.163 HD
ATOM     29  O   UNL A   1      34.288  31.876  28.740  1.00  0.00    -0.269 OA
BRANCH  27  30
ATOM     30  C   UNL A   1      35.771  30.075  28.476  1.00  0.00     0.039 A 
ATOM     31  C   UNL A   1      36.639  30.082  27.382  1.00  0.00     0.014 A 
ATOM     32  C   UNL A   1      36.177  29.555  29.707  1.00  0.00     0.014 A 
ATOM     33  C   UNL A   1      37.954  29.648  27.551  1.00  0.00     0.010 A 
ATOM     34  C   UNL A   1      37.506  29.194  29.891  1.00  0.00     0.010 A 
ATOM     35  C   UNL A   1      38.411  29.250  28.819  1.00  0.00    -0.014 A 
BRANCH  35  36
ATOM     36  C   UNL A   1      39.837  28.911  29.056  1.00  0.00     0.031 A 
ATOM     37  C   UNL A   1      40.776  29.954  29.595  1.00  0.00     0.074 A 
ATOM     38  C   UNL A   1      40.304  27.698  28.699  1.00  0.00     0.049 A 
ATOM     39  N   UNL A   1      42.069  29.886  29.771  1.00  0.00    -0.248 NA
ATOM     40  C   UNL A   1      40.189  31.257  29.945  1.00  0.00     0.031 C 
ATOM     41  C   UNL A   1      39.506  26.624  28.099  1.00  0.00     0.029 A 
ATOM     42  N   UNL A   1      41.567  27.167  28.773  1.00  0.00    -0.354 N 
ATOM     43  C   UNL A   1      42.455  31.142  30.224  1.00  0.00     0.074 A 
ATOM     44  C   UNL A   1      41.266  31.965  30.253  1.00  0.00     0.031 C 
ATOM     45  C   UNL A   1      40.294  25.558  27.883  1.00  0.00     0.029 A 
ATOM     46  C   UNL A   1      41.655  25.879  28.298  1.00  0.00     0.049 A 
ATOM     47  H   UNL A   1      42.338  27.661  29.133  1.00  0.00     0.167 HD
ATOM     48  C   UNL A   1      43.684  31.564  30.602  1.00  0.00     0.037 A 
ATOM     49  C   UNL A   1      42.715  25.051  28.206  1.00  0.00     0.037 A 
ATOM     50  C   UNL A   1      44.852  30.725  30.623  1.00  0.00     0.049 A 
ATOM     51  C   UNL A   1      44.057  25.522  28.690  1.00  0.00     0.074 A 
ATOM     52  C   UNL A   1      46.125  31.034  31.068  1.00  0.00     0.029 A 
ATOM     53  N   UNL A   1      44.889  29.408  30.189  1.00  0.00    -0.354 N 
ATOM     54  N   UNL A   1      44.391  26.695  29.174  1.00  0.00    -0.248 NA
ATOM     55  C   UNL A   1      45.165  24.559  28.623  1.00  0.00     0.031 C 
ATOM     56  C   UNL A   1      46.940  29.912  30.880  1.00  0.00     0.029 A 
ATOM     57  C   UNL A   1      46.164  28.893  30.349  1.00  0.00     0.049 A 
ATOM     58  H   UNL A   1      44.122  28.913  29.822  1.00  0.00     0.167 HD
ATOM     59  C   UNL A   1      45.742  26.603  29.490  1.00  0.00     0.074 A 
ATOM     60  C   UNL A   1      46.161  25.259  29.152  1.00  0.00     0.031 C 
ATOM     61  C   UNL A   1      46.561  27.549  30.014  1.00  0.00     0.037 A 
BRANCH  48  62
ATOM     62  C   UNL A   1      43.823  32.995  31.039  1.00  0.00     0.058 A 
ATOM     63  C   UNL A   1      43.659  33.372  32.381  1.00  0.00     0.135 A 
ATOM     64  C   UNL A   1      44.152  33.995  30.110  1.00  0.00     0.135 A 
ATOM     65  F   UNL A   1      43.324  32.456  33.304  1.00  0.00    -0.206 F 
ATOM     66  C   UNL A   1      43.787  34.697  32.784  1.00  0.00     0.059 A 
ATOM     67  C   UNL A   1      44.311  35.323  30.496  1.00  0.00     0.059 A 
ATOM     68  F   UNL A   1      44.317  33.688  28.815  1.00  0.00    -0.206 F 
ATOM     69  C   UNL A   1      44.112  35.666  31.834  1.00  0.00     0.060 A 
BRANCH  69  70
ATOM     70  S   UNL A   1      44.282  37.380  32.372  1.00  0.00     0.124 S 
ATOM     71  O   UNL A   1      43.985  38.101  31.138  1.00  0.00    -0.237 OA
ATOM     72  O   UNL A   1      43.273  37.482  33.421  1.00  0.00    -0.237 OA
ATOM     73  O   UNL A   1      45.665  37.457  32.827  1.00  0.00    -0.744 OA
ENDBRANCH  69  70
ENDBRANCH  48  62
BRANCH  49  74
ATOM     74  C   UNL A   1      42.533  23.677  27.670  1.00  0.00     0.058 A 
ATOM     75  C   UNL A   1      42.567  23.436  26.289  1.00  0.00     0.135 A 
ATOM     76  C   UNL A   1      42.355  22.578  28.523  1.00  0.00     0.135 A 
ATOM     77  F   UNL A   1      42.730  24.457  25.435  1.00  0.00    -0.206 F 
ATOM     78  C   UNL A   1      42.423  22.154  25.769  1.00  0.00     0.059 A 
ATOM     79  C   UNL A   1      42.228  21.284  28.028  1.00  0.00     0.059 A 
ATOM     80  F   UNL A   1      42.333  22.756  29.853  1.00  0.00    -0.206 F 
ATOM     81  C   UNL A   1      42.258  21.083  26.648  1.00  0.00     0.060 A 
BRANCH  81  82
ATOM     82  S   UNL A   1      42.142  19.413  25.968  1.00  0.00     0.124 S 
ATOM     83  O   UNL A   1      42.709  18.616  27.048  1.00  0.00    -0.237 OA
ATOM     84  O   UNL A   1      40.705  19.268  25.752  1.00  0.00    -0.237 OA
ATOM     85  O   UNL A   1      42.944  19.493  24.750  1.00  0.00    -0.744 OA
ENDBRANCH  81  82
ENDBRANCH  49  74
BRANCH  61  86
ATOM     86  C   UNL A   1      47.985  27.158  30.280  1.00  0.00     0.058 A 
ATOM     87  C   UNL A   1      49.009  27.455  29.368  1.00  0.00     0.135 A 
ATOM     88  C   UNL A   1      48.337  26.538  31.489  1.00  0.00     0.135 A 
ATOM     89  F   UNL A   1      48.721  28.043  28.196  1.00  0.00    -0.206 F 
ATOM     90  C   UNL A   1      50.335  27.135  29.639  1.00  0.00     0.059 A 
ATOM     91  C   UNL A   1      49.660  26.229  31.791  1.00  0.00     0.059 A 
ATOM     92  F   UNL A   1      47.394  26.243  32.398  1.00  0.00    -0.206 F 
ATOM     93  C   UNL A   1      50.651  26.523  30.854  1.00  0.00     0.060 A 
BRANCH  93  94
ATOM     94  S   UNL A   1      52.381  26.150  31.215  1.00  0.00     0.124 S 
ATOM     95  O   UNL A   1      52.750  27.272  32.071  1.00  0.00    -0.237 OA
ATOM     96  O   UNL A   1      52.291  24.851  31.874  1.00  0.00    -0.237 OA
ATOM     97  O   UNL A   1      53.005  26.133  29.895  1.00  0.00    -0.744 OA
ENDBRANCH  93  94
ENDBRANCH  61  86
ENDBRANCH  35  36
ENDBRANCH  27  30
ENDBRANCH  25  26
ENDBRANCH  24  25
ENDBRANCH   1  24
TORSDOF 18
ENDMDL
MODEL 2
REMARK VINA RESULT:     -10.8      3.151      9.652
REMARK SMILES CCc1nc(COC)cc(N2CCCC[C@H]2C(=O)NCCCCNC(=O)c2ccc(-c3c4nc(c(-c5c(F)cc(S(=O)(=O)[O-])cc5F)c5ccc([nH]5)c(-c5c(F)cc(S(=O)(=O)[O-])cc5F)c5nc(c(-c6c(F)cc(S(=O)(=O)[O-])cc6F)c6ccc3[nH]6)C=C5)C=C4)cc2)n1
REMARK SMILES IDX 21 1 20 2 19 3 17 4 18 5 16 7 11 8 12 9 13 10 15 11 14 12
REMARK SMILES IDX 10 13 3 14 4 15 93 16 5 17 9 18 2 19 1 20 6 21 7 22 8 23
REMARK SMILES IDX 22 24 23 25 24 26 25 27 26 29 27 30 28 31 92 32 29 33 91 34
REMARK SMILES IDX 30 35 31 36 32 37 85 38 33 39 90 40 84 41 86 42 34 43 89 44
REMARK SMILES IDX 83 45 82 46 35 48 69 49 48 50 68 51 49 52 52 53 67 54 87 55
REMARK SMILES IDX 50 56 51 57 66 59 88 60 53 61 36 62 37 63 46 64 38 65 39 66
REMARK SMILES IDX 45 67 47 68 40 69 41 70 42 71 43 72 44 73 70 74 71 75 80 76
REMARK SMILES IDX 72 77 73 78 79 79 81 80 74 81 75 82 76 83 77 84 78 85 54 86
REMARK SMILES IDX 55 87 64 88 56 89 57 90 63 91 65 92 58 93 59 94 60 95 61 96
REMARK SMILES IDX 62 97
REMARK H PARENT 19 6 24 28 86 47 52 58
REMARK Flexibility Score: inf
ROOT
ATOM      1  C   UNL A   1      34.613  23.365  25.995  1.00  0.00     0.023 C 
ENDROOT
BRANCH   1   2
ATOM      2  C   UNL A   1      34.124  24.757  25.604  1.00  0.00     0.116 C 
BRANCH   2   3
ATOM      3  N   UNL A   1      33.013  25.195  26.410  1.00  0.00    -0.354 N 
ATOM      4  C   UNL A   1      32.510  26.441  26.620  1.00  0.00     0.242 C 
ATOM      5  O   UNL A   1      31.569  26.517  27.421  1.00  0.00    -0.273 OA
ATOM      6  H   UNL A   1      32.541  24.475  26.888  1.00  0.00     0.163 HD
BRANCH   4   7
ATOM      7  C   UNL A   1      33.017  27.724  25.913  1.00  0.00     0.173 C 
ATOM      8  N   UNL A   1      31.969  28.696  25.552  1.00  0.00    -0.344 N 
ATOM      9  C   UNL A   1      31.810  29.969  26.246  1.00  0.00     0.119 C 
ATOM     10  C   UNL A   1      33.130  30.593  26.664  1.00  0.00     0.022 C 
ATOM     11  C   UNL A   1      34.265  28.350  26.552  1.00  0.00     0.035 C 
ATOM     12  C   UNL A   1      34.057  29.617  27.369  1.00  0.00     0.004 C 
BRANCH   8  13
ATOM     13  C   UNL A   1      31.349  28.581  24.313  1.00  0.00     0.133 A 
ATOM     14  C   UNL A   1      31.110  27.424  22.327  1.00  0.00     0.130 A 
ATOM     15  N   UNL A   1      30.256  28.315  21.805  1.00  0.00    -0.235 NA
ATOM     16  N   UNL A   1      31.681  27.535  23.539  1.00  0.00    -0.216 NA
ATOM     17  C   UNL A   1      29.959  29.384  22.573  1.00  0.00     0.072 A 
ATOM     18  C   UNL A   1      30.456  29.532  23.857  1.00  0.00     0.073 A 
BRANCH  14  19
ATOM     19  C   UNL A   1      31.545  26.278  21.456  1.00  0.00     0.074 C 
ATOM     20  C   UNL A   1      32.623  25.425  22.109  1.00  0.00     0.012 C 
ENDBRANCH  14  19
BRANCH  17  21
ATOM     21  C   UNL A   1      29.144  30.492  21.939  1.00  0.00     0.216 C 
BRANCH  21  22
ATOM     22  O   UNL A   1      27.799  30.547  22.434  1.00  0.00    -0.378 OA
ATOM     23  C   UNL A   1      27.614  31.522  23.453  1.00  0.00     0.195 C 
ENDBRANCH  21  22
ENDBRANCH  17  21
ENDBRANCH   8  13
ENDBRANCH   4   7
ENDBRANCH   2   3
ENDBRANCH   1   2
BRANCH   1  24
ATOM     24  C   UNL A   1      35.731  22.820  25.110  1.00  0.00     0.023 C 
BRANCH  24  25
ATOM     25  C   UNL A   1      37.066  23.554  25.223  1.00  0.00     0.116 C 
BRANCH  25  26
ATOM     26  N   UNL A   1      38.214  22.682  25.440  1.00  0.00    -0.352 N 
ATOM     27  C   UNL A   1      39.368  22.957  26.146  1.00  0.00     0.251 C 
ATOM     28  H   UNL A   1      38.159  21.787  25.033  1.00  0.00     0.163 HD
ATOM     29  O   UNL A   1      40.276  22.154  26.198  1.00  0.00    -0.269 OA
BRANCH  27  30
ATOM     30  C   UNL A   1      39.483  24.282  26.795  1.00  0.00     0.039 A 
ATOM     31  C   UNL A   1      38.954  24.452  28.076  1.00  0.00     0.014 A 
ATOM     32  C   UNL A   1      40.210  25.304  26.180  1.00  0.00     0.014 A 
ATOM     33  C   UNL A   1      39.235  25.622  28.781  1.00  0.00     0.010 A 
ATOM     34  C   UNL A   1      40.551  26.434  26.913  1.00  0.00     0.010 A 
ATOM     35  C   UNL A   1      40.079  26.599  28.225  1.00  0.00    -0.014 A 
BRANCH  35  36
ATOM     36  C   UNL A   1      40.504  27.790  29.003  1.00  0.00     0.031 A 
ATOM     37  C   UNL A   1      41.833  27.792  29.706  1.00  0.00     0.074 A 
ATOM     38  C   UNL A   1      39.655  28.826  29.153  1.00  0.00     0.049 A 
ATOM     39  N   UNL A   1      42.335  28.686  30.515  1.00  0.00    -0.248 NA
ATOM     40  C   UNL A   1      42.692  26.615  29.502  1.00  0.00     0.031 C 
ATOM     41  C   UNL A   1      38.309  28.912  28.579  1.00  0.00     0.029 A 
ATOM     42  N   UNL A   1      39.792  30.002  29.848  1.00  0.00    -0.354 N 
ATOM     43  C   UNL A   1      43.553  28.170  30.940  1.00  0.00     0.074 A 
ATOM     44  C   UNL A   1      43.693  26.864  30.333  1.00  0.00     0.031 C 
ATOM     45  C   UNL A   1      37.756  30.086  28.927  1.00  0.00     0.029 A 
ATOM     46  C   UNL A   1      38.691  30.822  29.771  1.00  0.00     0.049 A 
ATOM     47  H   UNL A   1      40.602  30.236  30.355  1.00  0.00     0.167 HD
ATOM     48  C   UNL A   1      44.480  28.741  31.743  1.00  0.00     0.037 A 
ATOM     49  C   UNL A   1      38.460  32.032  30.319  1.00  0.00     0.037 A 
ATOM     50  C   UNL A   1      44.360  30.062  32.299  1.00  0.00     0.049 A 
ATOM     51  C   UNL A   1      39.530  32.673  31.158  1.00  0.00     0.074 A 
ATOM     52  C   UNL A   1      45.281  30.763  33.057  1.00  0.00     0.029 A 
ATOM     53  N   UNL A   1      43.255  30.886  32.149  1.00  0.00    -0.354 N 
ATOM     54  N   UNL A   1      40.704  32.194  31.498  1.00  0.00    -0.248 NA
ATOM     55  C   UNL A   1      39.252  34.016  31.681  1.00  0.00     0.031 C 
ATOM     56  C   UNL A   1      44.722  32.003  33.388  1.00  0.00     0.029 A 
ATOM     57  C   UNL A   1      43.467  32.086  32.806  1.00  0.00     0.049 A 
ATOM     58  H   UNL A   1      42.439  30.652  31.649  1.00  0.00     0.167 HD
ATOM     59  C   UNL A   1      41.312  33.188  32.257  1.00  0.00     0.074 A 
ATOM     60  C   UNL A   1      40.382  34.296  32.318  1.00  0.00     0.031 C 
ATOM     61  C   UNL A   1      42.532  33.182  32.849  1.00  0.00     0.037 A 
BRANCH  48  62
ATOM     62  C   UNL A   1      45.714  27.943  32.057  1.00  0.00     0.058 A 
ATOM     63  C   UNL A   1      45.776  27.095  33.174  1.00  0.00     0.135 A 
ATOM     64  C   UNL A   1      46.837  28.005  31.216  1.00  0.00     0.135 A 
ATOM     65  F   UNL A   1      44.737  27.015  34.021  1.00  0.00    -0.206 F 
ATOM     66  C   UNL A   1      46.919  26.358  33.464  1.00  0.00     0.059 A 
ATOM     67  C   UNL A   1      47.981  27.255  31.473  1.00  0.00     0.059 A 
ATOM     68  F   UNL A   1      46.830  28.802  30.137  1.00  0.00    -0.206 F 
ATOM     69  C   UNL A   1      48.018  26.446  32.608  1.00  0.00     0.060 A 
BRANCH  69  70
ATOM     70  S   UNL A   1      49.492  25.478  32.992  1.00  0.00     0.124 S 
ATOM     71  O   UNL A   1      49.930  25.078  31.659  1.00  0.00    -0.237 OA
ATOM     72  O   UNL A   1      50.339  26.453  33.671  1.00  0.00    -0.237 OA
ATOM     73  O   UNL A   1      48.981  24.402  33.835  1.00  0.00    -0.744 OA
ENDBRANCH  69  70
ENDBRANCH  48  62
BRANCH  49  74
ATOM     74  C   UNL A   1      37.176  32.730  30.054  1.00  0.00     0.058 A 
ATOM     75  C   UNL A   1      36.069  32.538  30.894  1.00  0.00     0.135 A 
ATOM     76  C   UNL A   1      37.037  33.622  28.980  1.00  0.00     0.135 A 
ATOM     77  F   UNL A   1      36.153  31.691  31.930  1.00  0.00    -0.206 F 
ATOM     78  C   UNL A   1      34.866  33.201  30.676  1.00  0.00     0.059 A 
ATOM     79  C   UNL A   1      35.850  34.311  28.753  1.00  0.00     0.059 A 
ATOM     80  F   UNL A   1      38.074  33.851  28.159  1.00  0.00    -0.206 F 
ATOM     81  C   UNL A   1      34.767  34.089  29.604  1.00  0.00     0.060 A 
BRANCH  81  82
ATOM     82  S   UNL A   1      33.223  34.999  29.370  1.00  0.00     0.124 S 
ATOM     83  O   UNL A   1      32.642  34.938  30.705  1.00  0.00    -0.237 OA
ATOM     84  O   UNL A   1      33.701  36.309  28.939  1.00  0.00    -0.237 OA
ATOM     85  O   UNL A   1      32.534  34.225  28.342  1.00  0.00    -0.744 OA
ENDBRANCH  81  82
ENDBRANCH  49  74
BRANCH  61  86
ATOM     86  C   UNL A   1      42.945  34.418  33.592  1.00  0.00     0.058 A 
ATOM     87  C   UNL A   1      42.638  34.595  34.950  1.00  0.00     0.135 A 
ATOM     88  C   UNL A   1      43.712  35.407  32.955  1.00  0.00     0.135 A 
ATOM     89  F   UNL A   1      41.902  33.680  35.601  1.00  0.00    -0.206 F 
ATOM     90  C   UNL A   1      43.063  35.720  35.648  1.00  0.00     0.059 A 
ATOM     91  C   UNL A   1      44.167  36.530  33.640  1.00  0.00     0.059 A 
ATOM     92  F   UNL A   1      44.039  35.278  31.659  1.00  0.00    -0.206 F 
ATOM     93  C   UNL A   1      43.829  36.681  34.984  1.00  0.00     0.060 A 
BRANCH  93  94
ATOM     94  S   UNL A   1      44.413  38.117  35.910  1.00  0.00     0.124 S 
ATOM     95  O   UNL A   1      45.855  37.900  35.908  1.00  0.00    -0.237 OA
ATOM     96  O   UNL A   1      43.938  39.231  35.096  1.00  0.00    -0.237 OA
ATOM     97  O   UNL A   1      43.757  37.973  37.207  1.00  0.00    -0.744 OA
ENDBRANCH  93  94
ENDBRANCH  61  86
ENDBRANCH  35  36
ENDBRANCH  27  30
ENDBRANCH  25  26
ENDBRANCH  24  25
ENDBRANCH   1  24
TORSDOF 18
ENDMDL
MODEL 3
REMARK VINA RESULT:     -10.6      2.992      9.576
REMARK SMILES CCc1nc(COC)cc(N2CCCC[C@H]2C(=O)NCCCCNC(=O)c2ccc(-c3c4nc(c(-c5c(F)cc(S(=O)(=O)[O-])cc5F)c5ccc([nH]5)c(-c5c(F)cc(S(=O)(=O)[O-])cc5F)c5nc(c(-c6c(F)cc(S(=O)(=O)[O-])cc6F)c6ccc3[nH]6)C=C5)C=C4)cc2)n1
REMARK SMILES IDX 21 1 20 2 19 3 17 4 18 5 16 7 11 8 12 9 13 10 15 11 14 12
REMARK SMILES IDX 10 13 3 14 4 15 93 16 5 17 9 18 2 19 1 20 6 21 7 22 8 23
REMARK SMILES IDX 22 24 23 25 24 26 25 27 26 29 27 30 28 31 92 32 29 33 91 34
REMARK SMILES IDX 30 35 31 36 32 37 85 38 33 39 90 40 84 41 86 42 34 43 89 44
REMARK SMILES IDX 83 45 82 46 35 48 69 49 48 50 68 51 49 52 52 53 67 54 87 55
REMARK SMILES IDX 50 56 51 57 66 59 88 60 53 61 36 62 37 63 46 64 38 65 39 66
REMARK SMILES IDX 45 67 47 68 40 69 41 70 42 71 43 72 44 73 70 74 71 75 80 76
REMARK SMILES IDX 72 77 73 78 79 79 81 80 74 81 75 82 76 83 77 84 78 85 54 86
REMARK SMILES IDX 55 87 64 88 56 89 57 90 63 91 65 92 58 93 59 94 60 95 61 96
REMARK SMILES IDX 62 97
REMARK H PARENT 19 6 24 28 86 47 52 58
REMARK Flexibility Score: inf
ROOT
ATOM      1  C   UNL A   1      34.753  22.735  26.186  1.00  0.00     0.023 C 
ENDROOT
BRANCH   1   2
ATOM      2  C   UNL A   1      33.382  22.143  25.863  1.00  0.00     0.116 C 
BRANCH   2   3
ATOM      3  N   UNL A   1      32.331  22.734  26.651  1.00  0.00    -0.354 N 
ATOM      4  C   UNL A   1      31.427  23.700  26.337  1.00  0.00     0.242 C 
ATOM      5  O   UNL A   1      30.668  24.050  27.251  1.00  0.00    -0.273 OA
ATOM      6  H   UNL A   1      32.254  22.382  27.567  1.00  0.00     0.163 HD
BRANCH   4   7
ATOM      7  C   UNL A   1      31.283  24.346  24.935  1.00  0.00     0.173 C 
ATOM      8  N   UNL A   1      32.269  25.398  24.626  1.00  0.00    -0.344 N 
ATOM      9  C   UNL A   1      33.348  25.202  23.665  1.00  0.00     0.119 C 
ATOM     10  C   UNL A   1      32.944  24.348  22.476  1.00  0.00     0.022 C 
ATOM     11  C   UNL A   1      31.051  23.345  23.794  1.00  0.00     0.035 C 
ATOM     12  C   UNL A   1      32.229  23.068  22.872  1.00  0.00     0.004 C 
BRANCH   8  13
ATOM     13  C   UNL A   1      31.972  26.713  24.968  1.00  0.00     0.133 A 
ATOM     14  C   UNL A   1      30.890  28.689  24.452  1.00  0.00     0.130 A 
ATOM     15  N   UNL A   1      31.404  29.349  25.498  1.00  0.00    -0.235 NA
ATOM     16  N   UNL A   1      31.165  27.408  24.150  1.00  0.00    -0.216 NA
ATOM     17  C   UNL A   1      32.246  28.656  26.292  1.00  0.00     0.072 A 
ATOM     18  C   UNL A   1      32.524  27.316  26.082  1.00  0.00     0.073 A 
BRANCH  14  19
ATOM     19  C   UNL A   1      30.034  29.463  23.488  1.00  0.00     0.074 C 
ATOM     20  C   UNL A   1      29.075  28.571  22.714  1.00  0.00     0.012 C 
ENDBRANCH  14  19
BRANCH  17  21
ATOM     21  C   UNL A   1      32.980  29.425  27.371  1.00  0.00     0.216 C 
BRANCH  21  22
ATOM     22  O   UNL A   1      33.494  30.681  26.907  1.00  0.00    -0.378 OA
ATOM     23  C   UNL A   1      34.646  31.115  27.620  1.00  0.00     0.195 C 
ENDBRANCH  21  22
ENDBRANCH  17  21
ENDBRANCH   8  13
ENDBRANCH   4   7
ENDBRANCH   2   3
ENDBRANCH   1   2
BRANCH   1  24
ATOM     24  C   UNL A   1      35.699  22.814  24.991  1.00  0.00     0.023 C 
BRANCH  24  25
ATOM     25  C   UNL A   1      37.012  23.548  25.249  1.00  0.00     0.116 C 
BRANCH  25  26
ATOM     26  N   UNL A   1      38.163  22.674  25.438  1.00  0.00    -0.352 N 
ATOM     27  C   UNL A   1      39.330  22.941  26.125  1.00  0.00     0.251 C 
ATOM     28  H   UNL A   1      38.100  21.782  25.025  1.00  0.00     0.163 HD
ATOM     29  O   UNL A   1      40.239  22.137  26.154  1.00  0.00    -0.269 OA
BRANCH  27  30
ATOM     30  C   UNL A   1      39.458  24.261  26.784  1.00  0.00     0.039 A 
ATOM     31  C   UNL A   1      38.903  24.436  28.053  1.00  0.00     0.014 A 
ATOM     32  C   UNL A   1      40.221  25.269  26.192  1.00  0.00     0.014 A 
ATOM     33  C   UNL A   1      39.193  25.597  28.770  1.00  0.00     0.010 A 
ATOM     34  C   UNL A   1      40.570  26.388  26.938  1.00  0.00     0.010 A 
ATOM     35  C   UNL A   1      40.070  26.557  28.239  1.00  0.00    -0.014 A 
BRANCH  35  36
ATOM     36  C   UNL A   1      40.502  27.735  29.033  1.00  0.00     0.031 A 
ATOM     37  C   UNL A   1      41.831  27.719  29.738  1.00  0.00     0.074 A 
ATOM     38  C   UNL A   1      39.661  28.775  29.196  1.00  0.00     0.049 A 
ATOM     39  N   UNL A   1      42.338  28.600  30.559  1.00  0.00    -0.248 NA
ATOM     40  C   UNL A   1      42.682  26.539  29.519  1.00  0.00     0.031 C 
ATOM     41  C   UNL A   1      38.315  28.877  28.623  1.00  0.00     0.029 A 
ATOM     42  N   UNL A   1      39.804  29.941  29.907  1.00  0.00    -0.354 N 
ATOM     43  C   UNL A   1      43.552  28.069  30.978  1.00  0.00     0.074 A 
ATOM     44  C   UNL A   1      43.684  26.771  30.354  1.00  0.00     0.031 C 
ATOM     45  C   UNL A   1      37.770  30.050  28.985  1.00  0.00     0.029 A 
ATOM     46  C   UNL A   1      38.709  30.769  29.840  1.00  0.00     0.049 A 
ATOM     47  H   UNL A   1      40.615  30.162  30.417  1.00  0.00     0.167 HD
ATOM     48  C   UNL A   1      44.482  28.623  31.789  1.00  0.00     0.037 A 
ATOM     49  C   UNL A   1      38.485  31.973  30.403  1.00  0.00     0.037 A 
ATOM     50  C   UNL A   1      44.371  29.938  32.362  1.00  0.00     0.049 A 
ATOM     51  C   UNL A   1      39.559  32.595  31.251  1.00  0.00     0.074 A 
ATOM     52  C   UNL A   1      45.296  30.623  33.130  1.00  0.00     0.029 A 
ATOM     53  N   UNL A   1      43.271  30.771  32.222  1.00  0.00    -0.354 N 
ATOM     54  N   UNL A   1      40.729  32.105  31.586  1.00  0.00    -0.248 NA
ATOM     55  C   UNL A   1      39.289  33.934  31.792  1.00  0.00     0.031 C 
ATOM     56  C   UNL A   1      44.744  31.862  33.477  1.00  0.00     0.029 A 
ATOM     57  C   UNL A   1      43.490  31.961  32.895  1.00  0.00     0.049 A 
ATOM     58  H   UNL A   1      42.454  30.549  31.719  1.00  0.00     0.167 HD
ATOM     59  C   UNL A   1      41.343  33.085  32.358  1.00  0.00     0.074 A 
ATOM     60  C   UNL A   1      40.420  34.198  32.433  1.00  0.00     0.031 C 
ATOM     61  C   UNL A   1      42.562  33.063  32.952  1.00  0.00     0.037 A 
BRANCH  48  62
ATOM     62  C   UNL A   1      45.710  27.813  32.094  1.00  0.00     0.058 A 
ATOM     63  C   UNL A   1      46.858  27.889  31.288  1.00  0.00     0.135 A 
ATOM     64  C   UNL A   1      45.751  26.974  33.218  1.00  0.00     0.135 A 
ATOM     65  F   UNL A   1      46.863  28.662  30.190  1.00  0.00    -0.206 F 
ATOM     66  C   UNL A   1      47.994  27.138  31.570  1.00  0.00     0.059 A 
ATOM     67  C   UNL A   1      46.887  26.233  33.534  1.00  0.00     0.059 A 
ATOM     68  F   UNL A   1      44.680  26.863  34.019  1.00  0.00    -0.206 F 
ATOM     69  C   UNL A   1      47.998  26.311  32.694  1.00  0.00     0.060 A 
BRANCH  69  70
ATOM     70  S   UNL A   1      49.482  25.347  33.052  1.00  0.00     0.124 S 
ATOM     71  O   UNL A   1      50.250  26.289  33.860  1.00  0.00    -0.237 OA
ATOM     72  O   UNL A   1      48.942  24.194  33.765  1.00  0.00    -0.237 OA
ATOM     73  O   UNL A   1      50.028  25.063  31.729  1.00  0.00    -0.744 OA
ENDBRANCH  69  70
ENDBRANCH  48  62
BRANCH  49  74
ATOM     74  C   UNL A   1      37.206  32.683  30.146  1.00  0.00     0.058 A 
ATOM     75  C   UNL A   1      36.079  32.441  30.945  1.00  0.00     0.135 A 
ATOM     76  C   UNL A   1      37.092  33.635  29.122  1.00  0.00     0.135 A 
ATOM     77  F   UNL A   1      36.140  31.536  31.933  1.00  0.00    -0.206 F 
ATOM     78  C   UNL A   1      34.880  33.113  30.735  1.00  0.00     0.059 A 
ATOM     79  C   UNL A   1      35.908  34.334  28.905  1.00  0.00     0.059 A 
ATOM     80  F   UNL A   1      38.148  33.913  28.342  1.00  0.00    -0.206 F 
ATOM     81  C   UNL A   1      34.805  34.062  29.714  1.00  0.00     0.060 A 
BRANCH  81  82
ATOM     82  S   UNL A   1      33.265  34.980  29.493  1.00  0.00     0.124 S 
ATOM     83  O   UNL A   1      33.756  36.265  29.013  1.00  0.00    -0.237 OA
ATOM     84  O   UNL A   1      32.556  34.160  28.516  1.00  0.00    -0.237 OA
ATOM     85  O   UNL A   1      32.685  34.984  30.833  1.00  0.00    -0.744 OA
ENDBRANCH  81  82
ENDBRANCH  49  74
BRANCH  61  86
ATOM     86  C   UNL A   1      42.983  34.287  33.711  1.00  0.00     0.058 A 
ATOM     87  C   UNL A   1      42.648  34.462  35.063  1.00  0.00     0.135 A 
ATOM     88  C   UNL A   1      43.783  35.263  33.097  1.00  0.00     0.135 A 
ATOM     89  F   UNL A   1      41.881  33.558  35.692  1.00  0.00    -0.206 F 
ATOM     90  C   UNL A   1      43.080  35.574  35.777  1.00  0.00     0.059 A 
ATOM     91  C   UNL A   1      44.245  36.373  33.799  1.00  0.00     0.059 A 
ATOM     92  F   UNL A   1      44.138  35.134  31.809  1.00  0.00    -0.206 F 
ATOM     93  C   UNL A   1      43.880  36.523  35.136  1.00  0.00     0.060 A 
BRANCH  93  94
ATOM     94  S   UNL A   1      44.471  37.943  36.084  1.00  0.00     0.124 S 
ATOM     95  O   UNL A   1      43.845  39.051  35.372  1.00  0.00    -0.237 OA
ATOM     96  O   UNL A   1      43.948  37.670  37.419  1.00  0.00    -0.237 OA
ATOM     97  O   UNL A   1      45.923  37.853  35.957  1.00  0.00    -0.744 OA
ENDBRANCH  93  94
ENDBRANCH  61  86
ENDBRANCH  35  36
ENDBRANCH  27  30
ENDBRANCH  25  26
ENDBRANCH  24  25
ENDBRANCH   1  24
TORSDOF 18
ENDMDL
