MODEL 1
REMARK VINA RESULT:     -11.8      0.000      0.000
REMARK SMILES CC(=C/C(=O)NCCCCNC(=O)c1ccc(-c2c3nc(c(-c4c(F)cc(S(=O)(=O)[O-])cc4F)c4ccc([nH]4)c(-c4c(F)cc(S(=O)(=O)[O-])cc4F)c4nc(c(-c5c(F)cc(S(=O)(=O)[O-])cc5F)c5ccc2[nH]5)C=C4)C=C3)cc1)/C=C/c1ccc2ccccc2c1
REMARK SMILES IDX 9 1 8 2 7 3 6 4 4 5 5 6 3 8 1 9 2 10 80 11 81 12 82 13 83 14
REMARK SMILES IDX 91 15 84 16 90 17 85 18 89 19 86 20 88 21 87 22 10 23 11 24
REMARK SMILES IDX 12 25 13 27 14 28 15 29 79 30 16 31 78 32 17 33 18 34 19 35
REMARK SMILES IDX 72 36 20 37 77 38 71 39 73 40 21 41 76 42 70 43 69 44 22 46
REMARK SMILES IDX 56 47 35 48 55 49 36 50 39 51 54 52 74 53 37 54 38 55 53 57
REMARK SMILES IDX 75 58 40 59 23 60 24 61 33 62 25 63 26 64 32 65 34 66 27 67
REMARK SMILES IDX 28 68 29 69 30 70 31 71 57 72 58 73 67 74 59 75 60 76 66 77
REMARK SMILES IDX 68 78 61 79 62 80 63 81 64 82 65 83 41 84 42 85 51 86 43 87
REMARK SMILES IDX 44 88 50 89 52 90 45 91 46 92 47 93 48 94 49 95
REMARK H PARENT 6 7 11 26 73 45 39 56
REMARK Flexibility Score: inf
ROOT
ATOM      1  C   UNL A   1      33.573  28.554  26.408  1.00  0.00     0.023 C 
ENDROOT
BRANCH   1   2
ATOM      2  C   UNL A   1      33.252  29.349  25.142  1.00  0.00     0.023 C 
BRANCH   2   3
ATOM      3  C   UNL A   1      31.779  29.646  24.903  1.00  0.00     0.116 C 
BRANCH   3   4
ATOM      4  N   UNL A   1      31.400  29.763  23.511  1.00  0.00    -0.353 N 
ATOM      5  C   UNL A   1      30.400  29.144  22.826  1.00  0.00     0.244 C 
ATOM      6  O   UNL A   1      30.254  29.383  21.627  1.00  0.00    -0.270 OA
ATOM      7  H   UNL A   1      31.949  30.383  22.979  1.00  0.00     0.163 HD
BRANCH   5   8
ATOM      8  C   UNL A   1      29.557  28.080  23.436  1.00  0.00     0.074 C 
ATOM      9  C   UNL A   1      28.645  25.952  24.279  1.00  0.00     0.044 C 
ATOM     10  C   UNL A   1      29.760  26.767  23.668  1.00  0.00    -0.046 C 
BRANCH  10  11
ATOM     11  C   UNL A   1      30.991  26.065  23.326  1.00  0.00     0.004 C 
ATOM     12  C   UNL A   1      32.097  26.143  24.086  1.00  0.00     0.008 C 
BRANCH  12  13
ATOM     13  C   UNL A   1      33.205  25.174  24.079  1.00  0.00    -0.025 A 
ATOM     14  C   UNL A   1      33.246  24.293  22.988  1.00  0.00     0.009 A 
ATOM     15  C   UNL A   1      34.211  25.096  25.046  1.00  0.00     0.016 A 
ATOM     16  C   UNL A   1      34.265  23.352  22.863  1.00  0.00     0.009 A 
ATOM     17  C   UNL A   1      35.255  24.150  24.932  1.00  0.00    -0.018 A 
ATOM     18  C   UNL A   1      35.269  23.264  23.831  1.00  0.00    -0.018 A 
ATOM     19  C   UNL A   1      36.305  24.073  25.866  1.00  0.00     0.009 A 
ATOM     20  C   UNL A   1      36.305  22.326  23.697  1.00  0.00     0.009 A 
ATOM     21  C   UNL A   1      37.342  23.147  25.709  1.00  0.00     0.001 A 
ATOM     22  C   UNL A   1      37.341  22.274  24.627  1.00  0.00     0.001 A 
ENDBRANCH  12  13
ENDBRANCH  10  11
ENDBRANCH   5   8
ENDBRANCH   3   4
ENDBRANCH   2   3
ENDBRANCH   1   2
BRANCH   1  23
ATOM     23  C   UNL A   1      33.133  29.180  27.733  1.00  0.00     0.116 C 
BRANCH  23  24
ATOM     24  N   UNL A   1      33.646  30.530  27.917  1.00  0.00    -0.352 N 
ATOM     25  C   UNL A   1      34.833  30.964  28.457  1.00  0.00     0.251 C 
ATOM     26  H   UNL A   1      33.047  31.245  27.607  1.00  0.00     0.163 HD
ATOM     27  O   UNL A   1      34.887  32.097  28.929  1.00  0.00    -0.269 OA
BRANCH  25  28
ATOM     28  C   UNL A   1      36.018  30.077  28.555  1.00  0.00     0.039 A 
ATOM     29  C   UNL A   1      36.799  29.907  27.406  1.00  0.00     0.014 A 
ATOM     30  C   UNL A   1      36.409  29.466  29.746  1.00  0.00     0.014 A 
ATOM     31  C   UNL A   1      38.050  29.301  27.497  1.00  0.00     0.010 A 
ATOM     32  C   UNL A   1      37.699  28.956  29.864  1.00  0.00     0.010 A 
ATOM     33  C   UNL A   1      38.552  28.935  28.754  1.00  0.00    -0.014 A 
BRANCH  33  34
ATOM     34  C   UNL A   1      40.006  28.704  28.948  1.00  0.00     0.031 A 
ATOM     35  C   UNL A   1      40.914  29.809  29.398  1.00  0.00     0.074 A 
ATOM     36  C   UNL A   1      40.509  27.503  28.593  1.00  0.00     0.049 A 
ATOM     37  N   UNL A   1      42.213  29.801  29.528  1.00  0.00    -0.248 NA
ATOM     38  C   UNL A   1      40.284  31.101  29.712  1.00  0.00     0.031 C 
ATOM     39  C   UNL A   1      39.726  26.383  28.055  1.00  0.00     0.029 A 
ATOM     40  N   UNL A   1      41.792  27.018  28.612  1.00  0.00    -0.354 N 
ATOM     41  C   UNL A   1      42.564  31.086  29.921  1.00  0.00     0.074 A 
ATOM     42  C   UNL A   1      41.341  31.860  29.966  1.00  0.00     0.031 C 
ATOM     43  C   UNL A   1      40.536  25.338  27.831  1.00  0.00     0.029 A 
ATOM     44  C   UNL A   1      41.901  25.723  28.160  1.00  0.00     0.049 A 
ATOM     45  H   UNL A   1      42.563  27.548  28.920  1.00  0.00     0.167 HD
ATOM     46  C   UNL A   1      43.792  31.567  30.231  1.00  0.00     0.037 A 
ATOM     47  C   UNL A   1      42.982  24.933  28.015  1.00  0.00     0.037 A 
ATOM     48  C   UNL A   1      44.994  30.775  30.197  1.00  0.00     0.049 A 
ATOM     49  C   UNL A   1      44.327  25.480  28.398  1.00  0.00     0.074 A 
ATOM     50  C   UNL A   1      46.279  31.143  30.549  1.00  0.00     0.029 A 
ATOM     51  N   UNL A   1      45.057  29.450  29.783  1.00  0.00    -0.354 N 
ATOM     52  N   UNL A   1      44.629  26.677  28.843  1.00  0.00    -0.248 NA
ATOM     53  C   UNL A   1      45.477  24.576  28.266  1.00  0.00     0.031 C 
ATOM     54  C   UNL A   1      47.125  30.054  30.318  1.00  0.00     0.029 A 
ATOM     55  C   UNL A   1      46.361  28.992  29.860  1.00  0.00     0.049 A 
ATOM     56  H   UNL A   1      44.288  28.915  29.480  1.00  0.00     0.167 HD
ATOM     57  C   UNL A   1      45.999  26.664  29.066  1.00  0.00     0.074 A 
ATOM     58  C   UNL A   1      46.465  25.337  28.716  1.00  0.00     0.031 C 
ATOM     59  C   UNL A   1      46.798  27.660  29.518  1.00  0.00     0.037 A 
BRANCH  46  60
ATOM     60  C   UNL A   1      43.889  33.010  30.640  1.00  0.00     0.058 A 
ATOM     61  C   UNL A   1      44.165  34.021  29.705  1.00  0.00     0.135 A 
ATOM     62  C   UNL A   1      43.684  33.393  31.976  1.00  0.00     0.135 A 
ATOM     63  F   UNL A   1      44.382  33.710  28.418  1.00  0.00    -0.206 F 
ATOM     64  C   UNL A   1      44.271  35.355  30.085  1.00  0.00     0.059 A 
ATOM     65  C   UNL A   1      43.761  34.726  32.374  1.00  0.00     0.059 A 
ATOM     66  F   UNL A   1      43.416  32.470  32.911  1.00  0.00    -0.206 F 
ATOM     67  C   UNL A   1      44.072  35.698  31.424  1.00  0.00     0.060 A 
BRANCH  67  68
ATOM     68  S   UNL A   1      44.227  37.431  31.901  1.00  0.00     0.124 S 
ATOM     69  O   UNL A   1      43.665  38.105  30.734  1.00  0.00    -0.237 OA
ATOM     70  O   UNL A   1      43.424  37.496  33.116  1.00  0.00    -0.237 OA
ATOM     71  O   UNL A   1      45.665  37.603  32.092  1.00  0.00    -0.744 OA
ENDBRANCH  67  68
ENDBRANCH  46  60
BRANCH  47  72
ATOM     72  C   UNL A   1      42.825  23.542  27.514  1.00  0.00     0.058 A 
ATOM     73  C   UNL A   1      42.528  22.492  28.395  1.00  0.00     0.135 A 
ATOM     74  C   UNL A   1      42.930  23.239  26.148  1.00  0.00     0.135 A 
ATOM     75  F   UNL A   1      42.415  22.731  29.710  1.00  0.00    -0.206 F 
ATOM     76  C   UNL A   1      42.359  21.187  27.943  1.00  0.00     0.059 A 
ATOM     77  C   UNL A   1      42.742  21.945  25.668  1.00  0.00     0.059 A 
ATOM     78  F   UNL A   1      43.189  24.212  25.261  1.00  0.00    -0.206 F 
ATOM     79  C   UNL A   1      42.467  20.924  26.576  1.00  0.00     0.060 A 
BRANCH  79  80
ATOM     80  S   UNL A   1      42.198  19.234  25.995  1.00  0.00     0.124 S 
ATOM     81  O   UNL A   1      40.759  19.232  25.758  1.00  0.00    -0.237 OA
ATOM     82  O   UNL A   1      43.041  19.179  24.805  1.00  0.00    -0.237 OA
ATOM     83  O   UNL A   1      42.656  18.418  27.116  1.00  0.00    -0.744 OA
ENDBRANCH  79  80
ENDBRANCH  47  72
BRANCH  59  84
ATOM     84  C   UNL A   1      48.255  27.346  29.692  1.00  0.00     0.058 A 
ATOM     85  C   UNL A   1      49.204  27.703  28.722  1.00  0.00     0.135 A 
ATOM     86  C   UNL A   1      48.712  26.745  30.875  1.00  0.00     0.135 A 
ATOM     87  F   UNL A   1      48.812  28.268  27.569  1.00  0.00    -0.206 F 
ATOM     88  C   UNL A   1      50.560  27.469  28.918  1.00  0.00     0.059 A 
ATOM     89  C   UNL A   1      50.067  26.523  31.101  1.00  0.00     0.059 A 
ATOM     90  F   UNL A   1      47.842  26.390  31.834  1.00  0.00    -0.206 F 
ATOM     91  C   UNL A   1      50.982  26.884  30.114  1.00  0.00     0.060 A 
BRANCH  91  92
ATOM     92  S   UNL A   1      52.751  26.645  30.383  1.00  0.00     0.124 S 
ATOM     93  O   UNL A   1      53.202  26.264  29.049  1.00  0.00    -0.237 OA
ATOM     94  O   UNL A   1      53.178  27.961  30.846  1.00  0.00    -0.237 OA
ATOM     95  O   UNL A   1      52.800  25.587  31.389  1.00  0.00    -0.744 OA
ENDBRANCH  91  92
ENDBRANCH  59  84
ENDBRANCH  33  34
ENDBRANCH  25  28
ENDBRANCH  23  24
ENDBRANCH   1  23
TORSDOF 16
ENDMDL
MODEL 2
REMARK VINA RESULT:     -11.6      4.541      6.831
REMARK SMILES CC(=C/C(=O)NCCCCNC(=O)c1ccc(-c2c3nc(c(-c4c(F)cc(S(=O)(=O)[O-])cc4F)c4ccc([nH]4)c(-c4c(F)cc(S(=O)(=O)[O-])cc4F)c4nc(c(-c5c(F)cc(S(=O)(=O)[O-])cc5F)c5ccc2[nH]5)C=C4)C=C3)cc1)/C=C/c1ccc2ccccc2c1
REMARK SMILES IDX 9 1 8 2 7 3 6 4 4 5 5 6 3 8 1 9 2 10 80 11 81 12 82 13 83 14
REMARK SMILES IDX 91 15 84 16 90 17 85 18 89 19 86 20 88 21 87 22 10 23 11 24
REMARK SMILES IDX 12 25 13 27 14 28 15 29 79 30 16 31 78 32 17 33 18 34 19 35
REMARK SMILES IDX 72 36 20 37 77 38 71 39 73 40 21 41 76 42 70 43 69 44 22 46
REMARK SMILES IDX 56 47 35 48 55 49 36 50 39 51 54 52 74 53 37 54 38 55 53 57
REMARK SMILES IDX 75 58 40 59 23 60 24 61 33 62 25 63 26 64 32 65 34 66 27 67
REMARK SMILES IDX 28 68 29 69 30 70 31 71 57 72 58 73 67 74 59 75 60 76 66 77
REMARK SMILES IDX 68 78 61 79 62 80 63 81 64 82 65 83 41 84 42 85 51 86 43 87
REMARK SMILES IDX 44 88 50 89 52 90 45 91 46 92 47 93 48 94 49 95
REMARK H PARENT 6 7 11 26 73 45 39 56
REMARK Flexibility Score: inf
ROOT
ATOM      1  C   UNL A   1      36.878  32.740  33.080  1.00  0.00     0.023 C 
ENDROOT
BRANCH   1   2
ATOM      2  C   UNL A   1      35.511  33.209  33.577  1.00  0.00     0.023 C 
BRANCH   2   3
ATOM      3  C   UNL A   1      34.365  33.078  32.585  1.00  0.00     0.116 C 
BRANCH   3   4
ATOM      4  N   UNL A   1      34.003  34.304  31.908  1.00  0.00    -0.353 N 
ATOM      5  C   UNL A   1      34.019  34.603  30.580  1.00  0.00     0.244 C 
ATOM      6  O   UNL A   1      33.674  35.726  30.212  1.00  0.00    -0.270 OA
ATOM      7  H   UNL A   1      33.700  35.033  32.496  1.00  0.00     0.163 HD
BRANCH   5   8
ATOM      8  C   UNL A   1      34.570  33.670  29.560  1.00  0.00     0.074 C 
ATOM      9  C   UNL A   1      36.017  32.433  27.996  1.00  0.00     0.044 C 
ATOM     10  C   UNL A   1      35.816  33.450  29.094  1.00  0.00    -0.046 C 
BRANCH  10  11
ATOM     11  C   UNL A   1      36.995  34.170  29.562  1.00  0.00     0.004 C 
ATOM     12  C   UNL A   1      38.109  33.536  29.966  1.00  0.00     0.008 C 
BRANCH  12  13
ATOM     13  C   UNL A   1      39.451  34.137  30.037  1.00  0.00    -0.025 A 
ATOM     14  C   UNL A   1      40.102  34.049  31.276  1.00  0.00     0.009 A 
ATOM     15  C   UNL A   1      40.117  34.747  28.968  1.00  0.00     0.016 A 
ATOM     16  C   UNL A   1      41.386  34.558  31.451  1.00  0.00     0.009 A 
ATOM     17  C   UNL A   1      41.422  35.264  29.127  1.00  0.00    -0.018 A 
ATOM     18  C   UNL A   1      42.053  35.175  30.390  1.00  0.00    -0.018 A 
ATOM     19  C   UNL A   1      42.135  35.846  28.063  1.00  0.00     0.009 A 
ATOM     20  C   UNL A   1      43.354  35.675  30.562  1.00  0.00     0.009 A 
ATOM     21  C   UNL A   1      43.439  36.321  28.244  1.00  0.00     0.001 A 
ATOM     22  C   UNL A   1      44.046  36.236  29.491  1.00  0.00     0.001 A 
ENDBRANCH  12  13
ENDBRANCH  10  11
ENDBRANCH   5   8
ENDBRANCH   3   4
ENDBRANCH   2   3
ENDBRANCH   1   2
BRANCH   1  23
ATOM     23  C   UNL A   1      37.302  31.328  33.489  1.00  0.00     0.116 C 
BRANCH  23  24
ATOM     24  N   UNL A   1      36.665  30.292  32.689  1.00  0.00    -0.352 N 
ATOM     25  C   UNL A   1      36.930  29.869  31.408  1.00  0.00     0.251 C 
ATOM     26  H   UNL A   1      35.926  29.821  33.136  1.00  0.00     0.163 HD
ATOM     27  O   UNL A   1      36.031  29.328  30.768  1.00  0.00    -0.269 OA
BRANCH  25  28
ATOM     28  C   UNL A   1      38.240  30.117  30.759  1.00  0.00     0.039 A 
ATOM     29  C   UNL A   1      39.349  30.320  31.589  1.00  0.00     0.014 A 
ATOM     30  C   UNL A   1      38.414  30.093  29.375  1.00  0.00     0.014 A 
ATOM     31  C   UNL A   1      40.634  30.303  31.051  1.00  0.00     0.010 A 
ATOM     32  C   UNL A   1      39.697  29.969  28.848  1.00  0.00     0.010 A 
ATOM     33  C   UNL A   1      40.813  30.004  29.693  1.00  0.00    -0.014 A 
BRANCH  33  34
ATOM     34  C   UNL A   1      42.133  29.550  29.187  1.00  0.00     0.031 A 
ATOM     35  C   UNL A   1      43.268  30.512  29.007  1.00  0.00     0.074 A 
ATOM     36  C   UNL A   1      42.247  28.268  28.781  1.00  0.00     0.049 A 
ATOM     37  N   UNL A   1      44.450  30.299  28.492  1.00  0.00    -0.248 NA
ATOM     38  C   UNL A   1      43.035  31.902  29.428  1.00  0.00     0.031 C 
ATOM     39  C   UNL A   1      41.174  27.267  28.826  1.00  0.00     0.029 A 
ATOM     40  N   UNL A   1      43.304  27.583  28.235  1.00  0.00    -0.354 N 
ATOM     41  C   UNL A   1      45.099  31.527  28.511  1.00  0.00     0.074 A 
ATOM     42  C   UNL A   1      44.161  32.491  29.047  1.00  0.00     0.031 C 
ATOM     43  C   UNL A   1      41.636  26.095  28.365  1.00  0.00     0.029 A 
ATOM     44  C   UNL A   1      43.019  26.268  27.945  1.00  0.00     0.049 A 
ATOM     45  H   UNL A   1      44.182  27.994  28.066  1.00  0.00     0.167 HD
ATOM     46  C   UNL A   1      46.366  31.815  28.129  1.00  0.00     0.037 A 
ATOM     47  C   UNL A   1      43.784  25.307  27.392  1.00  0.00     0.037 A 
ATOM     48  C   UNL A   1      47.289  30.838  27.613  1.00  0.00     0.049 A 
ATOM     49  C   UNL A   1      45.196  25.645  27.009  1.00  0.00     0.074 A 
ATOM     50  C   UNL A   1      48.613  31.009  27.253  1.00  0.00     0.029 A 
ATOM     51  N   UNL A   1      46.982  29.503  27.382  1.00  0.00    -0.354 N 
ATOM     52  N   UNL A   1      45.818  26.796  27.106  1.00  0.00    -0.248 NA
ATOM     53  C   UNL A   1      46.012  24.562  26.448  1.00  0.00     0.031 C 
ATOM     54  C   UNL A   1      49.098  29.787  26.775  1.00  0.00     0.029 A 
ATOM     55  C   UNL A   1      48.087  28.844  26.874  1.00  0.00     0.049 A 
ATOM     56  H   UNL A   1      46.106  29.087  27.556  1.00  0.00     0.167 HD
ATOM     57  C   UNL A   1      47.106  26.572  26.639  1.00  0.00     0.074 A 
ATOM     58  C   UNL A   1      47.176  25.171  26.269  1.00  0.00     0.031 C 
ATOM     59  C   UNL A   1      48.135  27.445  26.526  1.00  0.00     0.037 A 
BRANCH  46  60
ATOM     60  C   UNL A   1      46.824  33.241  28.264  1.00  0.00     0.058 A 
ATOM     61  C   UNL A   1      46.603  34.183  27.246  1.00  0.00     0.135 A 
ATOM     62  C   UNL A   1      47.472  33.680  29.430  1.00  0.00     0.135 A 
ATOM     63  F   UNL A   1      46.000  33.815  26.105  1.00  0.00    -0.206 F 
ATOM     64  C   UNL A   1      47.040  35.498  27.362  1.00  0.00     0.059 A 
ATOM     65  C   UNL A   1      47.896  34.998  29.579  1.00  0.00     0.059 A 
ATOM     66  F   UNL A   1      47.708  32.824  30.436  1.00  0.00    -0.206 F 
ATOM     67  C   UNL A   1      47.690  35.896  28.532  1.00  0.00     0.060 A 
BRANCH  67  68
ATOM     68  S   UNL A   1      48.263  37.603  28.661  1.00  0.00     0.124 S 
ATOM     69  O   UNL A   1      48.216  38.030  27.266  1.00  0.00    -0.237 OA
ATOM     70  O   UNL A   1      47.267  38.203  29.541  1.00  0.00    -0.237 OA
ATOM     71  O   UNL A   1      49.601  37.469  29.231  1.00  0.00    -0.744 OA
ENDBRANCH  67  68
ENDBRANCH  46  60
BRANCH  47  72
ATOM     72  C   UNL A   1      43.234  23.939  27.200  1.00  0.00     0.058 A 
ATOM     73  C   UNL A   1      42.792  23.514  25.939  1.00  0.00     0.135 A 
ATOM     74  C   UNL A   1      43.174  23.019  28.258  1.00  0.00     0.135 A 
ATOM     75  F   UNL A   1      42.831  24.356  24.895  1.00  0.00    -0.206 F 
ATOM     76  C   UNL A   1      42.292  22.232  25.735  1.00  0.00     0.059 A 
ATOM     77  C   UNL A   1      42.699  21.722  28.074  1.00  0.00     0.059 A 
ATOM     78  F   UNL A   1      43.607  23.367  29.479  1.00  0.00    -0.206 F 
ATOM     79  C   UNL A   1      42.251  21.342  26.810  1.00  0.00     0.060 A 
BRANCH  79  80
ATOM     80  S   UNL A   1      41.644  19.664  26.524  1.00  0.00     0.124 S 
ATOM     81  O   UNL A   1      40.212  19.894  26.368  1.00  0.00    -0.237 OA
ATOM     82  O   UNL A   1      42.364  19.277  25.316  1.00  0.00    -0.237 OA
ATOM     83  O   UNL A   1      42.042  18.954  27.737  1.00  0.00    -0.744 OA
ENDBRANCH  79  80
ENDBRANCH  47  72
BRANCH  59  84
ATOM     84  C   UNL A   1      49.438  26.906  26.010  1.00  0.00     0.058 A 
ATOM     85  C   UNL A   1      49.779  26.985  24.653  1.00  0.00     0.135 A 
ATOM     86  C   UNL A   1      50.382  26.370  26.900  1.00  0.00     0.135 A 
ATOM     87  F   UNL A   1      48.903  27.478  23.763  1.00  0.00    -0.206 F 
ATOM     88  C   UNL A   1      51.014  26.545  24.190  1.00  0.00     0.059 A 
ATOM     89  C   UNL A   1      51.633  25.945  26.463  1.00  0.00     0.059 A 
ATOM     90  F   UNL A   1      50.103  26.278  28.210  1.00  0.00    -0.206 F 
ATOM     91  C   UNL A   1      51.937  26.033  25.105  1.00  0.00     0.060 A 
BRANCH  91  92
ATOM     92  S   UNL A   1      53.561  25.525  24.503  1.00  0.00     0.124 S 
ATOM     93  O   UNL A   1      53.541  26.037  23.137  1.00  0.00    -0.237 OA
ATOM     94  O   UNL A   1      54.464  26.208  25.423  1.00  0.00    -0.237 OA
ATOM     95  O   UNL A   1      53.529  24.070  24.629  1.00  0.00    -0.744 OA
ENDBRANCH  91  92
ENDBRANCH  59  84
ENDBRANCH  33  34
ENDBRANCH  25  28
ENDBRANCH  23  24
ENDBRANCH   1  23
TORSDOF 16
ENDMDL
MODEL 3
REMARK VINA RESULT:     -11.5      5.327     10.791
REMARK SMILES CC(=C/C(=O)NCCCCNC(=O)c1ccc(-c2c3nc(c(-c4c(F)cc(S(=O)(=O)[O-])cc4F)c4ccc([nH]4)c(-c4c(F)cc(S(=O)(=O)[O-])cc4F)c4nc(c(-c5c(F)cc(S(=O)(=O)[O-])cc5F)c5ccc2[nH]5)C=C4)C=C3)cc1)/C=C/c1ccc2ccccc2c1
REMARK SMILES IDX 9 1 8 2 7 3 6 4 4 5 5 6 3 8 1 9 2 10 80 11 81 12 82 13 83 14
REMARK SMILES IDX 91 15 84 16 90 17 85 18 89 19 86 20 88 21 87 22 10 23 11 24
REMARK SMILES IDX 12 25 13 27 14 28 15 29 79 30 16 31 78 32 17 33 18 34 19 35
REMARK SMILES IDX 72 36 20 37 77 38 71 39 73 40 21 41 76 42 70 43 69 44 22 46
REMARK SMILES IDX 56 47 35 48 55 49 36 50 39 51 54 52 74 53 37 54 38 55 53 57
REMARK SMILES IDX 75 58 40 59 23 60 24 61 33 62 25 63 26 64 32 65 34 66 27 67
REMARK SMILES IDX 28 68 29 69 30 70 31 71 57 72 58 73 67 74 59 75 60 76 66 77
REMARK SMILES IDX 68 78 61 79 62 80 63 81 64 82 65 83 41 84 42 85 51 86 43 87
REMARK SMILES IDX 44 88 50 89 52 90 45 91 46 92 47 93 48 94 49 95
REMARK H PARENT 6 7 11 26 73 45 39 56
REMARK Flexibility Score: inf
ROOT
ATOM      1  C   UNL A   1      40.326  22.679  27.110  1.00  0.00     0.023 C 
ENDROOT
BRANCH   1   2
ATOM      2  C   UNL A   1      39.477  21.799  26.192  1.00  0.00     0.023 C 
BRANCH   2   3
ATOM      3  C   UNL A   1      38.065  22.296  25.920  1.00  0.00     0.116 C 
BRANCH   3   4
ATOM      4  N   UNL A   1      37.820  22.719  24.558  1.00  0.00    -0.353 N 
ATOM      5  C   UNL A   1      36.698  22.597  23.797  1.00  0.00     0.244 C 
ATOM      6  O   UNL A   1      36.705  23.023  22.642  1.00  0.00    -0.270 OA
ATOM      7  H   UNL A   1      38.580  23.160  24.114  1.00  0.00     0.163 HD
BRANCH   5   8
ATOM      8  C   UNL A   1      35.501  21.843  24.258  1.00  0.00     0.074 C 
ATOM      9  C   UNL A   1      33.282  21.173  25.094  1.00  0.00     0.044 C 
ATOM     10  C   UNL A   1      34.260  22.224  24.625  1.00  0.00    -0.046 C 
BRANCH  10  11
ATOM     11  C   UNL A   1      33.809  23.610  24.637  1.00  0.00     0.004 C 
ATOM     12  C   UNL A   1      32.911  24.066  25.528  1.00  0.00     0.008 C 
BRANCH  12  13
ATOM     13  C   UNL A   1      32.722  25.477  25.899  1.00  0.00    -0.025 A 
ATOM     14  C   UNL A   1      31.400  25.881  26.133  1.00  0.00     0.009 A 
ATOM     15  C   UNL A   1      33.750  26.411  26.061  1.00  0.00     0.016 A 
ATOM     16  C   UNL A   1      31.104  27.187  26.517  1.00  0.00     0.009 A 
ATOM     17  C   UNL A   1      33.469  27.739  26.455  1.00  0.00    -0.018 A 
ATOM     18  C   UNL A   1      32.126  28.127  26.673  1.00  0.00    -0.018 A 
ATOM     19  C   UNL A   1      34.482  28.692  26.667  1.00  0.00     0.009 A 
ATOM     20  C   UNL A   1      31.831  29.439  27.075  1.00  0.00     0.009 A 
ATOM     21  C   UNL A   1      34.175  29.990  27.088  1.00  0.00     0.001 A 
ATOM     22  C   UNL A   1      32.851  30.363  27.290  1.00  0.00     0.001 A 
ENDBRANCH  12  13
ENDBRANCH  10  11
ENDBRANCH   5   8
ENDBRANCH   3   4
ENDBRANCH   2   3
ENDBRANCH   1   2
BRANCH   1  23
ATOM     23  C   UNL A   1      41.705  23.078  26.582  1.00  0.00     0.116 C 
BRANCH  23  24
ATOM     24  N   UNL A   1      41.678  24.307  25.802  1.00  0.00    -0.352 N 
ATOM     25  C   UNL A   1      41.339  25.587  26.172  1.00  0.00     0.251 C 
ATOM     26  H   UNL A   1      41.944  24.206  24.860  1.00  0.00     0.163 HD
ATOM     27  O   UNL A   1      40.950  26.368  25.306  1.00  0.00    -0.269 OA
BRANCH  25  28
ATOM     28  C   UNL A   1      41.356  26.021  27.590  1.00  0.00     0.039 A 
ATOM     29  C   UNL A   1      42.541  26.579  28.085  1.00  0.00     0.014 A 
ATOM     30  C   UNL A   1      40.234  25.951  28.415  1.00  0.00     0.014 A 
ATOM     31  C   UNL A   1      42.543  27.231  29.315  1.00  0.00     0.010 A 
ATOM     32  C   UNL A   1      40.202  26.692  29.594  1.00  0.00     0.010 A 
ATOM     33  C   UNL A   1      41.339  27.394  30.016  1.00  0.00    -0.014 A 
BRANCH  33  34
ATOM     34  C   UNL A   1      41.213  28.429  31.072  1.00  0.00     0.031 A 
ATOM     35  C   UNL A   1      42.051  28.377  32.314  1.00  0.00     0.074 A 
ATOM     36  C   UNL A   1      40.239  29.354  30.938  1.00  0.00     0.049 A 
ATOM     37  N   UNL A   1      42.001  29.145  33.369  1.00  0.00    -0.248 NA
ATOM     38  C   UNL A   1      43.052  27.302  32.396  1.00  0.00     0.031 C 
ATOM     39  C   UNL A   1      39.303  29.441  29.809  1.00  0.00     0.029 A 
ATOM     40  N   UNL A   1      39.854  30.387  31.755  1.00  0.00    -0.354 N 
ATOM     41  C   UNL A   1      42.949  28.641  34.250  1.00  0.00     0.074 A 
ATOM     42  C   UNL A   1      43.528  27.473  33.623  1.00  0.00     0.031 C 
ATOM     43  C   UNL A   1      38.483  30.486  29.988  1.00  0.00     0.029 A 
ATOM     44  C   UNL A   1      38.796  31.116  31.263  1.00  0.00     0.049 A 
ATOM     45  H   UNL A   1      40.294  30.588  32.613  1.00  0.00     0.167 HD
ATOM     46  C   UNL A   1      43.311  29.123  35.464  1.00  0.00     0.037 A 
ATOM     47  C   UNL A   1      38.140  32.171  31.784  1.00  0.00     0.037 A 
ATOM     48  C   UNL A   1      42.735  30.298  36.064  1.00  0.00     0.049 A 
ATOM     49  C   UNL A   1      38.585  32.706  33.115  1.00  0.00     0.074 A 
ATOM     50  C   UNL A   1      43.068  30.908  37.259  1.00  0.00     0.029 A 
ATOM     51  N   UNL A   1      41.700  31.042  35.511  1.00  0.00    -0.354 N 
ATOM     52  N   UNL A   1      39.537  32.261  33.900  1.00  0.00    -0.248 NA
ATOM     53  C   UNL A   1      37.874  33.882  33.632  1.00  0.00     0.031 C 
ATOM     54  C   UNL A   1      42.215  32.000  37.446  1.00  0.00     0.029 A 
ATOM     55  C   UNL A   1      41.376  32.096  36.347  1.00  0.00     0.049 A 
ATOM     56  H   UNL A   1      41.261  30.848  34.651  1.00  0.00     0.167 HD
ATOM     57  C   UNL A   1      39.556  33.116  34.994  1.00  0.00     0.074 A 
ATOM     58  C   UNL A   1      38.526  34.110  34.763  1.00  0.00     0.031 C 
ATOM     59  C   UNL A   1      40.354  33.081  36.089  1.00  0.00     0.037 A 
BRANCH  46  60
ATOM     60  C   UNL A   1      44.383  28.382  36.213  1.00  0.00     0.058 A 
ATOM     61  C   UNL A   1      45.739  28.724  36.083  1.00  0.00     0.135 A 
ATOM     62  C   UNL A   1      44.055  27.333  37.088  1.00  0.00     0.135 A 
ATOM     63  F   UNL A   1      46.111  29.710  35.251  1.00  0.00    -0.206 F 
ATOM     64  C   UNL A   1      46.734  28.029  36.763  1.00  0.00     0.059 A 
ATOM     65  C   UNL A   1      45.032  26.641  37.798  1.00  0.00     0.059 A 
ATOM     66  F   UNL A   1      42.775  26.965  37.252  1.00  0.00    -0.206 F 
ATOM     67  C   UNL A   1      46.371  26.985  37.616  1.00  0.00     0.060 A 
BRANCH  67  68
ATOM     68  S   UNL A   1      47.676  26.086  38.480  1.00  0.00     0.124 S 
ATOM     69  O   UNL A   1      47.809  24.896  37.646  1.00  0.00    -0.237 OA
ATOM     70  O   UNL A   1      48.792  27.024  38.429  1.00  0.00    -0.237 OA
ATOM     71  O   UNL A   1      47.110  25.860  39.808  1.00  0.00    -0.744 OA
ENDBRANCH  67  68
ENDBRANCH  46  60
BRANCH  47  72
ATOM     72  C   UNL A   1      37.023  32.799  31.029  1.00  0.00     0.058 A 
ATOM     73  C   UNL A   1      35.692  32.596  31.419  1.00  0.00     0.135 A 
ATOM     74  C   UNL A   1      37.263  33.640  29.931  1.00  0.00     0.135 A 
ATOM     75  F   UNL A   1      35.411  31.803  32.463  1.00  0.00    -0.206 F 
ATOM     76  C   UNL A   1      34.634  33.190  30.737  1.00  0.00     0.059 A 
ATOM     77  C   UNL A   1      36.223  34.264  29.247  1.00  0.00     0.059 A 
ATOM     78  F   UNL A   1      38.520  33.886  29.533  1.00  0.00    -0.206 F 
ATOM     79  C   UNL A   1      34.911  34.024  29.652  1.00  0.00     0.060 A 
BRANCH  79  80
ATOM     80  S   UNL A   1      33.533  34.827  28.803  1.00  0.00     0.124 S 
ATOM     81  O   UNL A   1      34.155  36.062  28.338  1.00  0.00    -0.237 OA
ATOM     82  O   UNL A   1      33.197  33.854  27.769  1.00  0.00    -0.237 OA
ATOM     83  O   UNL A   1      32.534  34.981  29.857  1.00  0.00    -0.744 OA
ENDBRANCH  79  80
ENDBRANCH  47  72
BRANCH  59  84
ATOM     84  C   UNL A   1      40.166  34.167  37.109  1.00  0.00     0.058 A 
ATOM     85  C   UNL A   1      40.807  35.408  36.985  1.00  0.00     0.135 A 
ATOM     86  C   UNL A   1      39.279  33.983  38.180  1.00  0.00     0.135 A 
ATOM     87  F   UNL A   1      41.674  35.625  35.984  1.00  0.00    -0.206 F 
ATOM     88  C   UNL A   1      40.578  36.433  37.896  1.00  0.00     0.059 A 
ATOM     89  C   UNL A   1      39.018  35.003  39.089  1.00  0.00     0.059 A 
ATOM     90  F   UNL A   1      38.638  32.814  38.337  1.00  0.00    -0.206 F 
ATOM     91  C   UNL A   1      39.677  36.223  38.941  1.00  0.00     0.060 A 
BRANCH  91  92
ATOM     92  S   UNL A   1      39.339  37.582  40.079  1.00  0.00     0.124 S 
ATOM     93  O   UNL A   1      40.638  38.244  40.141  1.00  0.00    -0.237 OA
ATOM     94  O   UNL A   1      38.285  38.316  39.386  1.00  0.00    -0.237 OA
ATOM     95  O   UNL A   1      38.921  36.904  41.303  1.00  0.00    -0.744 OA
ENDBRANCH  91  92
ENDBRANCH  59  84
ENDBRANCH  33  34
ENDBRANCH  25  28
ENDBRANCH  23  24
ENDBRANCH   1  23
TORSDOF 16
ENDMDL
