MODEL 1
REMARK VINA RESULT:     -11.1      0.000      0.000
REMARK SMILES CC(C)[NH2+][C@@]1(C(=O)NCCCCNC(=O)c2ccc(-c3c4nc(c(-c5c(F)cc(S(=O)(=O)[O-])cc5F)c5ccc([nH]5)c(-c5c(F)cc(S(=O)(=O)[O-])cc5F)c5nc(c(-c6c(F)cc(S(=O)(=O)[O-])cc6F)c6ccc3[nH]6)C=C5)C=C4)cc2)CC[C@@H](Sc2ccncc2)C1
REMARK SMILES IDX 11 1 10 2 9 3 8 4 6 5 7 6 5 8 82 9 92 10 83 11 84 12 4 13
REMARK SMILES IDX 2 16 1 17 3 18 85 19 86 20 87 21 91 22 88 23 90 24 89 25
REMARK SMILES IDX 12 26 13 27 14 28 15 30 16 31 17 32 81 33 18 34 80 35 19 36
REMARK SMILES IDX 20 37 21 38 74 39 22 40 79 41 73 42 75 43 23 44 78 45 72 46
REMARK SMILES IDX 71 47 24 49 58 50 37 51 57 52 38 53 41 54 56 55 76 56 39 57
REMARK SMILES IDX 40 58 55 60 77 61 42 62 25 63 26 64 35 65 27 66 28 67 34 68
REMARK SMILES IDX 36 69 29 70 30 71 31 72 32 73 33 74 59 75 60 76 69 77 61 78
REMARK SMILES IDX 62 79 68 80 70 81 63 82 64 83 65 84 66 85 67 86 43 87 44 88
REMARK SMILES IDX 53 89 45 90 46 91 52 92 54 93 47 94 48 95 49 96 50 97 51 98
REMARK H PARENT 8 7 4 14 4 15 13 29 75 48 41 59
REMARK Flexibility Score: inf
ROOT
ATOM      1  C   UNL A   1      39.449  21.611  26.046  1.00  0.00     0.023 C 
ENDROOT
BRANCH   1   2
ATOM      2  C   UNL A   1      39.406  23.057  26.538  1.00  0.00     0.023 C 
BRANCH   2   3
ATOM      3  C   UNL A   1      38.107  23.795  26.209  1.00  0.00     0.116 C 
BRANCH   3   4
ATOM      4  N   UNL A   1      37.753  23.612  24.822  1.00  0.00    -0.351 N 
ATOM      5  C   UNL A   1      36.602  23.276  24.191  1.00  0.00     0.281 C 
ATOM      6  O   UNL A   1      36.746  22.983  22.993  1.00  0.00    -0.268 OA
ATOM      7  H   UNL A   1      38.506  23.763  24.204  1.00  0.00     0.163 HD
BRANCH   5   8
ATOM      8  C   UNL A   1      35.158  23.190  24.870  1.00  0.00     0.176 C 
ATOM      9  C   UNL A   1      35.208  22.500  26.244  1.00  0.00     0.080 C 
ATOM     10  C   UNL A   1      34.205  22.354  23.984  1.00  0.00     0.094 C 
ATOM     11  C   UNL A   1      34.297  21.273  26.173  1.00  0.00     0.022 C 
ATOM     12  C   UNL A   1      34.015  21.016  24.698  1.00  0.00     0.058 C 
BRANCH   8  13
ATOM     13  N   UNL A   1      34.759  24.612  24.958  1.00  0.00    -0.332 N 
ATOM     14  H   UNL A   1      34.905  24.869  25.934  1.00  0.00     0.347 HD
ATOM     15  H   UNL A   1      35.317  24.992  24.194  1.00  0.00     0.347 HD
BRANCH  13  16
ATOM     16  C   UNL A   1      33.465  25.164  24.610  1.00  0.00     0.176 C 
ATOM     17  C   UNL A   1      32.845  25.705  25.907  1.00  0.00     0.075 C 
ATOM     18  C   UNL A   1      33.514  26.294  23.595  1.00  0.00     0.075 C 
ENDBRANCH  13  16
ENDBRANCH   8  13
BRANCH  12  19
ATOM     19  S   UNL A   1      32.472  20.112  24.248  1.00  0.00    -0.122 SA
BRANCH  19  20
ATOM     20  C   UNL A   1      32.941  18.402  24.387  1.00  0.00     0.011 A 
ATOM     21  C   UNL A   1      32.717  17.705  25.569  1.00  0.00     0.035 A 
ATOM     22  C   UNL A   1      33.525  17.740  23.309  1.00  0.00     0.035 A 
ATOM     23  C   UNL A   1      33.169  16.399  25.655  1.00  0.00     0.112 A 
ATOM     24  C   UNL A   1      33.936  16.429  23.490  1.00  0.00     0.112 A 
ATOM     25  N   UNL A   1      33.784  15.748  24.646  1.00  0.00    -0.265 NA
ENDBRANCH  19  20
ENDBRANCH  12  19
ENDBRANCH   5   8
ENDBRANCH   3   4
ENDBRANCH   2   3
ENDBRANCH   1   2
BRANCH   1  26
ATOM     26  C   UNL A   1      40.159  20.639  26.983  1.00  0.00     0.116 C 
BRANCH  26  27
ATOM     27  N   UNL A   1      40.974  19.647  26.294  1.00  0.00    -0.352 N 
ATOM     28  C   UNL A   1      42.255  19.798  25.813  1.00  0.00     0.251 C 
ATOM     29  H   UNL A   1      40.559  18.765  26.156  1.00  0.00     0.163 HD
ATOM     30  O   UNL A   1      42.798  18.903  25.183  1.00  0.00    -0.269 OA
BRANCH  28  31
ATOM     31  C   UNL A   1      42.932  21.090  26.035  1.00  0.00     0.039 A 
ATOM     32  C   UNL A   1      43.057  21.977  24.965  1.00  0.00     0.014 A 
ATOM     33  C   UNL A   1      43.339  21.454  27.321  1.00  0.00     0.014 A 
ATOM     34  C   UNL A   1      43.524  23.270  25.203  1.00  0.00     0.010 A 
ATOM     35  C   UNL A   1      43.729  22.764  27.567  1.00  0.00     0.010 A 
ATOM     36  C   UNL A   1      43.820  23.685  26.512  1.00  0.00    -0.014 A 
BRANCH  36  37
ATOM     37  C   UNL A   1      44.223  25.082  26.805  1.00  0.00     0.031 A 
ATOM     38  C   UNL A   1      45.656  25.498  26.633  1.00  0.00     0.074 A 
ATOM     39  C   UNL A   1      43.318  25.947  27.303  1.00  0.00     0.049 A 
ATOM     40  N   UNL A   1      46.224  26.642  26.916  1.00  0.00    -0.248 NA
ATOM     41  C   UNL A   1      46.581  24.482  26.105  1.00  0.00     0.031 C 
ATOM     42  C   UNL A   1      41.912  25.639  27.578  1.00  0.00     0.029 A 
ATOM     43  N   UNL A   1      43.448  27.260  27.681  1.00  0.00    -0.354 N 
ATOM     44  C   UNL A   1      47.571  26.478  26.618  1.00  0.00     0.074 A 
ATOM     45  C   UNL A   1      47.745  25.106  26.190  1.00  0.00     0.031 C 
ATOM     46  C   UNL A   1      41.308  26.735  28.063  1.00  0.00     0.029 A 
ATOM     47  C   UNL A   1      42.286  27.814  28.162  1.00  0.00     0.049 A 
ATOM     48  H   UNL A   1      44.295  27.757  27.613  1.00  0.00     0.167 HD
ATOM     49  C   UNL A   1      48.567  27.393  26.668  1.00  0.00     0.037 A 
ATOM     50  C   UNL A   1      42.038  29.052  28.633  1.00  0.00     0.037 A 
ATOM     51  C   UNL A   1      48.379  28.762  27.067  1.00  0.00     0.049 A 
ATOM     52  C   UNL A   1      43.150  30.063  28.650  1.00  0.00     0.074 A 
ATOM     53  C   UNL A   1      49.310  29.786  27.101  1.00  0.00     0.029 A 
ATOM     54  N   UNL A   1      47.176  29.301  27.500  1.00  0.00    -0.354 N 
ATOM     55  N   UNL A   1      44.408  29.910  28.304  1.00  0.00    -0.248 NA
ATOM     56  C   UNL A   1      42.812  31.417  29.108  1.00  0.00     0.031 C 
ATOM     57  C   UNL A   1      48.675  30.937  27.582  1.00  0.00     0.029 A 
ATOM     58  C   UNL A   1      47.341  30.640  27.811  1.00  0.00     0.049 A 
ATOM     59  H   UNL A   1      46.329  28.805  27.575  1.00  0.00     0.167 HD
ATOM     60  C   UNL A   1      45.005  31.152  28.485  1.00  0.00     0.074 A 
ATOM     61  C   UNL A   1      43.970  32.048  28.958  1.00  0.00     0.031 C 
ATOM     62  C   UNL A   1      46.295  31.517  28.278  1.00  0.00     0.037 A 
BRANCH  49  63
ATOM     63  C   UNL A   1      49.941  26.934  26.268  1.00  0.00     0.058 A 
ATOM     64  C   UNL A   1      50.394  27.042  24.942  1.00  0.00     0.135 A 
ATOM     65  C   UNL A   1      50.813  26.371  27.213  1.00  0.00     0.135 A 
ATOM     66  F   UNL A   1      49.594  27.557  23.995  1.00  0.00    -0.206 F 
ATOM     67  C   UNL A   1      51.644  26.568  24.559  1.00  0.00     0.059 A 
ATOM     68  C   UNL A   1      52.080  25.916  26.857  1.00  0.00     0.059 A 
ATOM     69  F   UNL A   1      50.433  26.244  28.494  1.00  0.00    -0.206 F 
ATOM     70  C   UNL A   1      52.476  25.999  25.523  1.00  0.00     0.060 A 
BRANCH  70  71
ATOM     71  S   UNL A   1      54.084  25.363  25.005  1.00  0.00     0.124 S 
ATOM     72  O   UNL A   1      54.328  26.141  23.795  1.00  0.00    -0.237 OA
ATOM     73  O   UNL A   1      54.934  25.686  26.148  1.00  0.00    -0.237 OA
ATOM     74  O   UNL A   1      53.834  23.940  24.798  1.00  0.00    -0.744 OA
ENDBRANCH  70  71
ENDBRANCH  49  63
BRANCH  50  75
ATOM     75  C   UNL A   1      40.669  29.405  29.091  1.00  0.00     0.058 A 
ATOM     76  C   UNL A   1      40.384  29.563  30.454  1.00  0.00     0.135 A 
ATOM     77  C   UNL A   1      39.631  29.632  28.175  1.00  0.00     0.135 A 
ATOM     78  F   UNL A   1      41.344  29.353  31.368  1.00  0.00    -0.206 F 
ATOM     79  C   UNL A   1      39.117  29.928  30.897  1.00  0.00     0.059 A 
ATOM     80  C   UNL A   1      38.360  30.017  28.590  1.00  0.00     0.059 A 
ATOM     81  F   UNL A   1      39.858  29.511  26.857  1.00  0.00    -0.206 F 
ATOM     82  C   UNL A   1      38.112  30.158  29.956  1.00  0.00     0.060 A 
BRANCH  82  83
ATOM     83  S   UNL A   1      36.490  30.703  30.535  1.00  0.00     0.124 S 
ATOM     84  O   UNL A   1      36.194  29.706  31.558  1.00  0.00    -0.237 OA
ATOM     85  O   UNL A   1      36.774  32.050  31.020  1.00  0.00    -0.237 OA
ATOM     86  O   UNL A   1      35.667  30.638  29.332  1.00  0.00    -0.744 OA
ENDBRANCH  82  83
ENDBRANCH  50  75
BRANCH  62  87
ATOM     87  C   UNL A   1      46.656  32.951  28.539  1.00  0.00     0.058 A 
ATOM     88  C   UNL A   1      46.549  33.929  27.539  1.00  0.00     0.135 A 
ATOM     89  C   UNL A   1      47.059  33.360  29.821  1.00  0.00     0.135 A 
ATOM     90  F   UNL A   1      46.174  33.587  26.296  1.00  0.00    -0.206 F 
ATOM     91  C   UNL A   1      46.847  35.264  27.795  1.00  0.00     0.059 A 
ATOM     92  C   UNL A   1      47.339  34.693  30.105  1.00  0.00     0.059 A 
ATOM     93  F   UNL A   1      47.167  32.464  30.813  1.00  0.00    -0.206 F 
ATOM     94  C   UNL A   1      47.240  35.636  29.083  1.00  0.00     0.060 A 
BRANCH  94  95
ATOM     95  S   UNL A   1      47.586  37.376  29.414  1.00  0.00     0.124 S 
ATOM     96  O   UNL A   1      48.842  37.568  28.696  1.00  0.00    -0.237 OA
ATOM     97  O   UNL A   1      46.420  38.043  28.844  1.00  0.00    -0.237 OA
ATOM     98  O   UNL A   1      47.681  37.432  30.871  1.00  0.00    -0.744 OA
ENDBRANCH  94  95
ENDBRANCH  62  87
ENDBRANCH  36  37
ENDBRANCH  28  31
ENDBRANCH  26  27
ENDBRANCH   1  26
TORSDOF 18
ENDMDL
MODEL 2
REMARK VINA RESULT:     -10.8      0.416      1.666
REMARK SMILES CC(C)[NH2+][C@@]1(C(=O)NCCCCNC(=O)c2ccc(-c3c4nc(c(-c5c(F)cc(S(=O)(=O)[O-])cc5F)c5ccc([nH]5)c(-c5c(F)cc(S(=O)(=O)[O-])cc5F)c5nc(c(-c6c(F)cc(S(=O)(=O)[O-])cc6F)c6ccc3[nH]6)C=C5)C=C4)cc2)CC[C@@H](Sc2ccncc2)C1
REMARK SMILES IDX 11 1 10 2 9 3 8 4 6 5 7 6 5 8 82 9 92 10 83 11 84 12 4 13
REMARK SMILES IDX 2 16 1 17 3 18 85 19 86 20 87 21 91 22 88 23 90 24 89 25
REMARK SMILES IDX 12 26 13 27 14 28 15 30 16 31 17 32 81 33 18 34 80 35 19 36
REMARK SMILES IDX 20 37 21 38 74 39 22 40 79 41 73 42 75 43 23 44 78 45 72 46
REMARK SMILES IDX 71 47 24 49 58 50 37 51 57 52 38 53 41 54 56 55 76 56 39 57
REMARK SMILES IDX 40 58 55 60 77 61 42 62 25 63 26 64 35 65 27 66 28 67 34 68
REMARK SMILES IDX 36 69 29 70 30 71 31 72 32 73 33 74 59 75 60 76 69 77 61 78
REMARK SMILES IDX 62 79 68 80 70 81 63 82 64 83 65 84 66 85 67 86 43 87 44 88
REMARK SMILES IDX 53 89 45 90 46 91 52 92 54 93 47 94 48 95 49 96 50 97 51 98
REMARK H PARENT 8 7 4 14 4 15 13 29 75 48 41 59
REMARK Flexibility Score: inf
ROOT
ATOM      1  C   UNL A   1      39.426  21.468  26.142  1.00  0.00     0.023 C 
ENDROOT
BRANCH   1   2
ATOM      2  C   UNL A   1      39.410  22.935  26.569  1.00  0.00     0.023 C 
BRANCH   2   3
ATOM      3  C   UNL A   1      38.143  23.693  26.170  1.00  0.00     0.116 C 
BRANCH   3   4
ATOM      4  N   UNL A   1      37.767  23.379  24.812  1.00  0.00    -0.351 N 
ATOM      5  C   UNL A   1      36.608  22.975  24.236  1.00  0.00     0.281 C 
ATOM      6  O   UNL A   1      36.735  22.575  23.068  1.00  0.00    -0.268 OA
ATOM      7  H   UNL A   1      38.506  23.481  24.169  1.00  0.00     0.163 HD
BRANCH   5   8
ATOM      8  C   UNL A   1      35.178  22.938  24.947  1.00  0.00     0.176 C 
ATOM      9  C   UNL A   1      35.248  22.314  26.351  1.00  0.00     0.080 C 
ATOM     10  C   UNL A   1      34.199  22.072  24.120  1.00  0.00     0.094 C 
ATOM     11  C   UNL A   1      34.322  21.095  26.357  1.00  0.00     0.022 C 
ATOM     12  C   UNL A   1      34.008  20.772  24.901  1.00  0.00     0.058 C 
BRANCH   8  13
ATOM     13  N   UNL A   1      34.795  24.367  24.975  1.00  0.00    -0.332 N 
ATOM     14  H   UNL A   1      34.992  24.677  25.926  1.00  0.00     0.347 HD
ATOM     15  H   UNL A   1      35.317  24.698  24.163  1.00  0.00     0.347 HD
BRANCH  13  16
ATOM     16  C   UNL A   1      33.490  24.914  24.661  1.00  0.00     0.176 C 
ATOM     17  C   UNL A   1      33.105  25.846  25.819  1.00  0.00     0.075 C 
ATOM     18  C   UNL A   1      33.433  25.708  23.367  1.00  0.00     0.075 C 
ENDBRANCH  13  16
ENDBRANCH   8  13
BRANCH  12  19
ATOM     19  S   UNL A   1      32.447  19.866  24.525  1.00  0.00    -0.122 SA
BRANCH  19  20
ATOM     20  C   UNL A   1      32.932  18.157  24.609  1.00  0.00     0.011 A 
ATOM     21  C   UNL A   1      32.523  17.361  25.673  1.00  0.00     0.035 A 
ATOM     22  C   UNL A   1      33.717  17.594  23.604  1.00  0.00     0.035 A 
ATOM     23  C   UNL A   1      32.989  16.058  25.735  1.00  0.00     0.112 A 
ATOM     24  C   UNL A   1      34.126  16.279  23.751  1.00  0.00     0.112 A 
ATOM     25  N   UNL A   1      33.792  15.502  24.804  1.00  0.00    -0.265 NA
ENDBRANCH  19  20
ENDBRANCH  12  19
ENDBRANCH   5   8
ENDBRANCH   3   4
ENDBRANCH   2   3
ENDBRANCH   1   2
BRANCH   1  26
ATOM     26  C   UNL A   1      40.265  20.555  27.030  1.00  0.00     0.116 C 
BRANCH  26  27
ATOM     27  N   UNL A   1      41.064  19.587  26.291  1.00  0.00    -0.352 N 
ATOM     28  C   UNL A   1      42.317  19.767  25.751  1.00  0.00     0.251 C 
ATOM     29  H   UNL A   1      40.659  18.699  26.162  1.00  0.00     0.163 HD
ATOM     30  O   UNL A   1      42.845  18.890  25.084  1.00  0.00    -0.269 OA
BRANCH  28  31
ATOM     31  C   UNL A   1      42.981  21.069  25.956  1.00  0.00     0.039 A 
ATOM     32  C   UNL A   1      43.096  21.944  24.876  1.00  0.00     0.014 A 
ATOM     33  C   UNL A   1      43.384  21.453  27.237  1.00  0.00     0.014 A 
ATOM     34  C   UNL A   1      43.548  23.245  25.098  1.00  0.00     0.010 A 
ATOM     35  C   UNL A   1      43.761  22.770  27.467  1.00  0.00     0.010 A 
ATOM     36  C   UNL A   1      43.841  23.679  26.402  1.00  0.00    -0.014 A 
BRANCH  36  37
ATOM     37  C   UNL A   1      44.229  25.084  26.677  1.00  0.00     0.031 A 
ATOM     38  C   UNL A   1      45.667  25.500  26.552  1.00  0.00     0.074 A 
ATOM     39  C   UNL A   1      43.303  25.957  27.119  1.00  0.00     0.049 A 
ATOM     40  N   UNL A   1      46.221  26.651  26.830  1.00  0.00    -0.248 NA
ATOM     41  C   UNL A   1      46.614  24.474  26.085  1.00  0.00     0.031 C 
ATOM     42  C   UNL A   1      41.888  25.651  27.346  1.00  0.00     0.029 A 
ATOM     43  N   UNL A   1      43.416  27.279  27.471  1.00  0.00    -0.354 N 
ATOM     44  C   UNL A   1      47.579  26.485  26.589  1.00  0.00     0.074 A 
ATOM     45  C   UNL A   1      47.773  25.104  26.200  1.00  0.00     0.031 C 
ATOM     46  C   UNL A   1      41.263  26.757  27.782  1.00  0.00     0.029 A 
ATOM     47  C   UNL A   1      42.235  27.841  27.894  1.00  0.00     0.049 A 
ATOM     48  H   UNL A   1      44.264  27.777  27.425  1.00  0.00     0.167 HD
ATOM     49  C   UNL A   1      48.570  27.404  26.657  1.00  0.00     0.037 A 
ATOM     50  C   UNL A   1      41.966  29.088  28.326  1.00  0.00     0.037 A 
ATOM     51  C   UNL A   1      48.364  28.781  27.016  1.00  0.00     0.049 A 
ATOM     52  C   UNL A   1      43.075  30.102  28.363  1.00  0.00     0.074 A 
ATOM     53  C   UNL A   1      49.290  29.809  27.062  1.00  0.00     0.029 A 
ATOM     54  N   UNL A   1      47.144  29.326  27.389  1.00  0.00    -0.354 N 
ATOM     55  N   UNL A   1      44.345  29.946  28.070  1.00  0.00    -0.248 NA
ATOM     56  C   UNL A   1      42.716  31.466  28.775  1.00  0.00     0.031 C 
ATOM     57  C   UNL A   1      48.635  30.968  27.491  1.00  0.00     0.029 A 
ATOM     58  C   UNL A   1      47.294  30.672  27.675  1.00  0.00     0.049 A 
ATOM     59  H   UNL A   1      46.296  28.829  27.442  1.00  0.00     0.167 HD
ATOM     60  C   UNL A   1      44.933  31.193  28.245  1.00  0.00     0.074 A 
ATOM     61  C   UNL A   1      43.877  32.097  28.656  1.00  0.00     0.031 C 
ATOM     62  C   UNL A   1      46.228  31.557  28.080  1.00  0.00     0.037 A 
BRANCH  49  63
ATOM     63  C   UNL A   1      49.960  26.939  26.322  1.00  0.00     0.058 A 
ATOM     64  C   UNL A   1      50.863  26.546  27.325  1.00  0.00     0.135 A 
ATOM     65  C   UNL A   1      50.402  26.895  24.991  1.00  0.00     0.135 A 
ATOM     66  F   UNL A   1      50.499  26.586  28.616  1.00  0.00    -0.206 F 
ATOM     67  C   UNL A   1      52.167  26.168  27.023  1.00  0.00     0.059 A 
ATOM     68  C   UNL A   1      51.693  26.493  24.663  1.00  0.00     0.059 A 
ATOM     69  F   UNL A   1      49.580  27.259  23.993  1.00  0.00    -0.206 F 
ATOM     70  C   UNL A   1      52.575  26.153  25.688  1.00  0.00     0.060 A 
BRANCH  70  71
ATOM     71  S   UNL A   1      54.278  25.688  25.313  1.00  0.00     0.124 S 
ATOM     72  O   UNL A   1      54.703  26.801  24.471  1.00  0.00    -0.237 OA
ATOM     73  O   UNL A   1      54.888  25.628  26.638  1.00  0.00    -0.237 OA
ATOM     74  O   UNL A   1      54.136  24.404  24.634  1.00  0.00    -0.744 OA
ENDBRANCH  70  71
ENDBRANCH  49  63
BRANCH  50  75
ATOM     75  C   UNL A   1      40.580  29.448  28.721  1.00  0.00     0.058 A 
ATOM     76  C   UNL A   1      39.567  29.575  27.761  1.00  0.00     0.135 A 
ATOM     77  C   UNL A   1      40.231  29.630  30.068  1.00  0.00     0.135 A 
ATOM     78  F   UNL A   1      39.853  29.414  26.460  1.00  0.00    -0.206 F 
ATOM     79  C   UNL A   1      38.256  29.876  28.119  1.00  0.00     0.059 A 
ATOM     80  C   UNL A   1      38.924  29.911  30.454  1.00  0.00     0.059 A 
ATOM     81  F   UNL A   1      41.162  29.500  31.027  1.00  0.00    -0.206 F 
ATOM     82  C   UNL A   1      37.944  30.038  29.469  1.00  0.00     0.060 A 
BRANCH  82  83
ATOM     83  S   UNL A   1      36.226  30.356  29.930  1.00  0.00     0.124 S 
ATOM     84  O   UNL A   1      35.507  29.753  28.813  1.00  0.00    -0.237 OA
ATOM     85  O   UNL A   1      36.118  29.661  31.208  1.00  0.00    -0.237 OA
ATOM     86  O   UNL A   1      36.165  31.812  30.009  1.00  0.00    -0.744 OA
ENDBRANCH  82  83
ENDBRANCH  50  75
BRANCH  62  87
ATOM     87  C   UNL A   1      46.575  32.998  28.321  1.00  0.00     0.058 A 
ATOM     88  C   UNL A   1      47.012  33.448  29.576  1.00  0.00     0.135 A 
ATOM     89  C   UNL A   1      46.524  33.926  27.269  1.00  0.00     0.135 A 
ATOM     90  F   UNL A   1      47.072  32.601  30.615  1.00  0.00    -0.206 F 
ATOM     91  C   UNL A   1      47.370  34.777  29.785  1.00  0.00     0.059 A 
ATOM     92  C   UNL A   1      46.900  35.254  27.449  1.00  0.00     0.059 A 
ATOM     93  F   UNL A   1      46.122  33.542  26.047  1.00  0.00    -0.206 F 
ATOM     94  C   UNL A   1      47.312  35.672  28.714  1.00  0.00     0.060 A 
BRANCH  94  95
ATOM     95  S   UNL A   1      47.817  37.383  28.987  1.00  0.00     0.124 S 
ATOM     96  O   UNL A   1      46.718  37.886  29.805  1.00  0.00    -0.237 OA
ATOM     97  O   UNL A   1      49.097  37.228  29.671  1.00  0.00    -0.237 OA
ATOM     98  O   UNL A   1      47.898  37.932  27.636  1.00  0.00    -0.744 OA
ENDBRANCH  94  95
ENDBRANCH  62  87
ENDBRANCH  36  37
ENDBRANCH  28  31
ENDBRANCH  26  27
ENDBRANCH   1  26
TORSDOF 18
ENDMDL
MODEL 3
REMARK VINA RESULT:     -10.7      6.234      8.364
REMARK SMILES CC(C)[NH2+][C@@]1(C(=O)NCCCCNC(=O)c2ccc(-c3c4nc(c(-c5c(F)cc(S(=O)(=O)[O-])cc5F)c5ccc([nH]5)c(-c5c(F)cc(S(=O)(=O)[O-])cc5F)c5nc(c(-c6c(F)cc(S(=O)(=O)[O-])cc6F)c6ccc3[nH]6)C=C5)C=C4)cc2)CC[C@@H](Sc2ccncc2)C1
REMARK SMILES IDX 11 1 10 2 9 3 8 4 6 5 7 6 5 8 82 9 92 10 83 11 84 12 4 13
REMARK SMILES IDX 2 16 1 17 3 18 85 19 86 20 87 21 91 22 88 23 90 24 89 25
REMARK SMILES IDX 12 26 13 27 14 28 15 30 16 31 17 32 81 33 18 34 80 35 19 36
REMARK SMILES IDX 20 37 21 38 74 39 22 40 79 41 73 42 75 43 23 44 78 45 72 46
REMARK SMILES IDX 71 47 24 49 58 50 37 51 57 52 38 53 41 54 56 55 76 56 39 57
REMARK SMILES IDX 40 58 55 60 77 61 42 62 25 63 26 64 35 65 27 66 28 67 34 68
REMARK SMILES IDX 36 69 29 70 30 71 31 72 32 73 33 74 59 75 60 76 69 77 61 78
REMARK SMILES IDX 62 79 68 80 70 81 63 82 64 83 65 84 66 85 67 86 43 87 44 88
REMARK SMILES IDX 53 89 45 90 46 91 52 92 54 93 47 94 48 95 49 96 50 97 51 98
REMARK H PARENT 8 7 4 14 4 15 13 29 75 48 41 59
REMARK Flexibility Score: inf
ROOT
ATOM      1  C   UNL A   1      39.173  22.162  26.632  1.00  0.00     0.023 C 
ENDROOT
BRANCH   1   2
ATOM      2  C   UNL A   1      38.227  22.166  25.432  1.00  0.00     0.023 C 
BRANCH   2   3
ATOM      3  C   UNL A   1      37.108  23.205  25.515  1.00  0.00     0.116 C 
BRANCH   3   4
ATOM      4  N   UNL A   1      36.197  22.890  26.590  1.00  0.00    -0.351 N 
ATOM      5  C   UNL A   1      34.846  22.841  26.682  1.00  0.00     0.281 C 
ATOM      6  O   UNL A   1      34.419  22.759  27.845  1.00  0.00    -0.268 OA
ATOM      7  H   UNL A   1      36.653  22.662  27.433  1.00  0.00     0.163 HD
BRANCH   5   8
ATOM      8  C   UNL A   1      33.825  22.926  25.456  1.00  0.00     0.176 C 
ATOM      9  C   UNL A   1      32.360  22.934  25.926  1.00  0.00     0.080 C 
ATOM     10  C   UNL A   1      33.994  21.691  24.540  1.00  0.00     0.094 C 
ATOM     11  C   UNL A   1      31.671  21.721  25.296  1.00  0.00     0.022 C 
ATOM     12  C   UNL A   1      32.773  20.803  24.781  1.00  0.00     0.058 C 
BRANCH   8  13
ATOM     13  N   UNL A   1      34.220  24.188  24.795  1.00  0.00    -0.332 N 
ATOM     14  H   UNL A   1      35.055  24.499  25.292  1.00  0.00     0.347 HD
ATOM     15  H   UNL A   1      34.236  23.873  23.824  1.00  0.00     0.347 HD
BRANCH  13  16
ATOM     16  C   UNL A   1      33.402  25.375  24.649  1.00  0.00     0.176 C 
ATOM     17  C   UNL A   1      33.813  26.343  25.770  1.00  0.00     0.075 C 
ATOM     18  C   UNL A   1      33.558  26.091  23.318  1.00  0.00     0.075 C 
ENDBRANCH  13  16
ENDBRANCH   8  13
BRANCH  12  19
ATOM     19  S   UNL A   1      32.374  19.646  23.403  1.00  0.00    -0.122 SA
BRANCH  19  20
ATOM     20  C   UNL A   1      32.919  18.069  24.019  1.00  0.00     0.011 A 
ATOM     21  C   UNL A   1      32.440  17.584  25.231  1.00  0.00     0.035 A 
ATOM     22  C   UNL A   1      33.820  17.298  23.288  1.00  0.00     0.035 A 
ATOM     23  C   UNL A   1      32.952  16.388  25.706  1.00  0.00     0.112 A 
ATOM     24  C   UNL A   1      34.267  16.110  23.843  1.00  0.00     0.112 A 
ATOM     25  N   UNL A   1      33.864  15.645  25.044  1.00  0.00    -0.265 NA
ENDBRANCH  19  20
ENDBRANCH  12  19
ENDBRANCH   5   8
ENDBRANCH   3   4
ENDBRANCH   2   3
ENDBRANCH   1   2
BRANCH   1  26
ATOM     26  C   UNL A   1      39.717  23.534  27.020  1.00  0.00     0.116 C 
BRANCH  26  27
ATOM     27  N   UNL A   1      40.561  24.142  26.002  1.00  0.00    -0.352 N 
ATOM     28  C   UNL A   1      41.266  25.322  26.088  1.00  0.00     0.251 C 
ATOM     29  H   UNL A   1      40.636  23.652  25.151  1.00  0.00     0.163 HD
ATOM     30  O   UNL A   1      41.877  25.758  25.124  1.00  0.00    -0.269 OA
BRANCH  28  31
ATOM     31  C   UNL A   1      41.217  26.068  27.359  1.00  0.00     0.039 A 
ATOM     32  C   UNL A   1      42.316  26.845  27.727  1.00  0.00     0.014 A 
ATOM     33  C   UNL A   1      40.045  26.077  28.119  1.00  0.00     0.014 A 
ATOM     34  C   UNL A   1      42.210  27.699  28.825  1.00  0.00     0.010 A 
ATOM     35  C   UNL A   1      39.917  26.983  29.164  1.00  0.00     0.010 A 
ATOM     36  C   UNL A   1      40.996  27.806  29.523  1.00  0.00    -0.014 A 
BRANCH  36  37
ATOM     37  C   UNL A   1      40.828  28.777  30.631  1.00  0.00     0.031 A 
ATOM     38  C   UNL A   1      41.674  28.655  31.867  1.00  0.00     0.074 A 
ATOM     39  C   UNL A   1      39.860  29.711  30.558  1.00  0.00     0.049 A 
ATOM     40  N   UNL A   1      41.621  29.346  32.975  1.00  0.00    -0.248 NA
ATOM     41  C   UNL A   1      42.691  27.591  31.869  1.00  0.00     0.031 C 
ATOM     42  C   UNL A   1      38.930  29.884  29.439  1.00  0.00     0.029 A 
ATOM     43  N   UNL A   1      39.486  30.684  31.451  1.00  0.00    -0.354 N 
ATOM     44  C   UNL A   1      42.583  28.792  33.811  1.00  0.00     0.074 A 
ATOM     45  C   UNL A   1      43.161  27.669  33.104  1.00  0.00     0.031 C 
ATOM     46  C   UNL A   1      38.107  30.911  29.705  1.00  0.00     0.029 A 
ATOM     47  C   UNL A   1      38.429  31.450  31.023  1.00  0.00     0.049 A 
ATOM     48  H   UNL A   1      39.935  30.820  32.317  1.00  0.00     0.167 HD
ATOM     49  C   UNL A   1      42.970  29.197  35.043  1.00  0.00     0.037 A 
ATOM     50  C   UNL A   1      37.788  32.471  31.626  1.00  0.00     0.037 A 
ATOM     51  C   UNL A   1      42.410  30.333  35.727  1.00  0.00     0.049 A 
ATOM     52  C   UNL A   1      38.254  32.927  32.980  1.00  0.00     0.074 A 
ATOM     53  C   UNL A   1      42.767  30.863  36.954  1.00  0.00     0.029 A 
ATOM     54  N   UNL A   1      41.373  31.116  35.239  1.00  0.00    -0.354 N 
ATOM     55  N   UNL A   1      39.209  32.431  33.733  1.00  0.00    -0.248 NA
ATOM     56  C   UNL A   1      37.568  34.086  33.565  1.00  0.00     0.031 C 
ATOM     57  C   UNL A   1      41.927  31.950  37.221  1.00  0.00     0.029 A 
ATOM     58  C   UNL A   1      41.073  32.120  36.144  1.00  0.00     0.049 A 
ATOM     59  H   UNL A   1      40.919  30.979  34.377  1.00  0.00     0.167 HD
ATOM     60  C   UNL A   1      39.251  33.229  34.870  1.00  0.00     0.074 A 
ATOM     61  C   UNL A   1      38.234  34.248  34.701  1.00  0.00     0.031 C 
ATOM     62  C   UNL A   1      40.057  33.128  35.955  1.00  0.00     0.037 A 
BRANCH  49  63
ATOM     63  C   UNL A   1      44.058  28.408  35.715  1.00  0.00     0.058 A 
ATOM     64  C   UNL A   1      45.416  28.694  35.491  1.00  0.00     0.135 A 
ATOM     65  C   UNL A   1      43.747  27.350  36.582  1.00  0.00     0.135 A 
ATOM     66  F   UNL A   1      45.769  29.685  34.657  1.00  0.00    -0.206 F 
ATOM     67  C   UNL A   1      46.425  27.931  36.068  1.00  0.00     0.059 A 
ATOM     68  C   UNL A   1      44.741  26.590  37.194  1.00  0.00     0.059 A 
ATOM     69  F   UNL A   1      42.467  27.034  36.832  1.00  0.00    -0.206 F 
ATOM     70  C   UNL A   1      46.077  26.876  36.912  1.00  0.00     0.060 A 
BRANCH  70  71
ATOM     71  S   UNL A   1      47.396  25.877  37.632  1.00  0.00     0.124 S 
ATOM     72  O   UNL A   1      47.534  26.486  38.951  1.00  0.00    -0.237 OA
ATOM     73  O   UNL A   1      46.823  24.534  37.611  1.00  0.00    -0.237 OA
ATOM     74  O   UNL A   1      48.517  26.089  36.720  1.00  0.00    -0.744 OA
ENDBRANCH  70  71
ENDBRANCH  49  63
BRANCH  50  75
ATOM     75  C   UNL A   1      36.662  33.147  30.931  1.00  0.00     0.058 A 
ATOM     76  C   UNL A   1      35.336  32.929  31.328  1.00  0.00     0.135 A 
ATOM     77  C   UNL A   1      36.892  34.056  29.887  1.00  0.00     0.135 A 
ATOM     78  F   UNL A   1      35.066  32.065  32.319  1.00  0.00    -0.206 F 
ATOM     79  C   UNL A   1      34.273  33.581  30.711  1.00  0.00     0.059 A 
ATOM     80  C   UNL A   1      35.848  34.736  29.267  1.00  0.00     0.059 A 
ATOM     81  F   UNL A   1      38.146  34.313  29.483  1.00  0.00    -0.206 F 
ATOM     82  C   UNL A   1      34.540  34.487  29.684  1.00  0.00     0.060 A 
BRANCH  82  83
ATOM     83  S   UNL A   1      33.161  35.385  28.938  1.00  0.00     0.124 S 
ATOM     84  O   UNL A   1      32.390  35.768  30.116  1.00  0.00    -0.237 OA
ATOM     85  O   UNL A   1      33.843  36.470  28.241  1.00  0.00    -0.237 OA
ATOM     86  O   UNL A   1      32.541  34.386  28.074  1.00  0.00    -0.744 OA
ENDBRANCH  82  83
ENDBRANCH  50  75
BRANCH  62  87
ATOM     87  C   UNL A   1      39.891  34.158  37.036  1.00  0.00     0.058 A 
ATOM     88  C   UNL A   1      39.062  33.932  38.144  1.00  0.00     0.135 A 
ATOM     89  C   UNL A   1      40.616  35.360  36.988  1.00  0.00     0.135 A 
ATOM     90  F   UNL A   1      38.344  32.801  38.232  1.00  0.00    -0.206 F 
ATOM     91  C   UNL A   1      38.941  34.872  39.163  1.00  0.00     0.059 A 
ATOM     92  C   UNL A   1      40.529  36.303  38.007  1.00  0.00     0.059 A 
ATOM     93  F   UNL A   1      41.430  35.618  35.954  1.00  0.00    -0.206 F 
ATOM     94  C   UNL A   1      39.681  36.054  39.086  1.00  0.00     0.060 A 
BRANCH  94  95
ATOM     95  S   UNL A   1      39.547  37.249  40.432  1.00  0.00     0.124 S 
ATOM     96  O   UNL A   1      39.644  36.384  41.603  1.00  0.00    -0.237 OA
ATOM     97  O   UNL A   1      40.691  38.123  40.192  1.00  0.00    -0.237 OA
ATOM     98  O   UNL A   1      38.241  37.864  40.211  1.00  0.00    -0.744 OA
ENDBRANCH  94  95
ENDBRANCH  62  87
ENDBRANCH  36  37
ENDBRANCH  28  31
ENDBRANCH  26  27
ENDBRANCH   1  26
TORSDOF 18
ENDMDL
