MODEL 1
REMARK VINA RESULT:     -11.8      0.000      0.000
REMARK SMILES COc1cc(OC)cc(-c2cnc(Cl)c(C(=O)NCCCCNC(=O)c3ccc(-c4c5nc(c(-c6c(F)cc(S(=O)(=O)[O-])cc6F)c6ccc([nH]6)c(-c6c(F)cc(S(=O)(=O)[O-])cc6F)c6nc(c(-c7c(F)cc(S(=O)(=O)[O-])cc7F)c7ccc4[nH]7)C=C6)C=C5)cc3)c2)c1
REMARK SMILES IDX 21 1 20 2 19 3 18 4 16 5 17 6 15 8 10 9 11 10 92 11 12 12
REMARK SMILES IDX 13 13 14 14 9 15 3 16 4 17 93 18 5 19 8 20 2 21 1 22 6 23
REMARK SMILES IDX 7 24 22 25 23 26 24 27 25 29 26 30 27 31 91 32 28 33 90 34
REMARK SMILES IDX 29 35 30 36 31 37 84 38 32 39 89 40 83 41 85 42 33 43 88 44
REMARK SMILES IDX 82 45 81 46 34 48 68 49 47 50 67 51 48 52 51 53 66 54 86 55
REMARK SMILES IDX 49 56 50 57 65 59 87 60 52 61 35 62 36 63 45 64 37 65 38 66
REMARK SMILES IDX 44 67 46 68 39 69 40 70 41 71 42 72 43 73 69 74 70 75 79 76
REMARK SMILES IDX 71 77 72 78 78 79 80 80 73 81 74 82 75 83 76 84 77 85 53 86
REMARK SMILES IDX 54 87 63 88 55 89 56 90 62 91 64 92 57 93 58 94 59 95 60 96
REMARK SMILES IDX 61 97
REMARK H PARENT 18 7 23 28 85 47 51 58
REMARK Flexibility Score: inf
ROOT
ATOM      1  C   UNL A   1      32.930  28.201  25.908  1.00  0.00     0.023 C 
ENDROOT
BRANCH   1   2
ATOM      2  C   UNL A   1      33.758  28.619  24.697  1.00  0.00     0.023 C 
BRANCH   2   3
ATOM      3  C   UNL A   1      32.953  29.003  23.450  1.00  0.00     0.116 C 
BRANCH   3   4
ATOM      4  N   UNL A   1      33.272  28.094  22.372  1.00  0.00    -0.352 N 
ATOM      5  C   UNL A   1      33.052  26.769  22.134  1.00  0.00     0.254 C 
ATOM      6  O   UNL A   1      33.622  26.329  21.128  1.00  0.00    -0.269 OA
ATOM      7  H   UNL A   1      33.762  28.534  21.640  1.00  0.00     0.163 HD
BRANCH   5   8
ATOM      8  C   UNL A   1      32.156  25.830  22.872  1.00  0.00     0.077 A 
ATOM      9  C   UNL A   1      32.113  23.560  23.844  1.00  0.00     0.001 A 
ATOM     10  C   UNL A   1      30.840  23.842  24.305  1.00  0.00     0.121 A 
ATOM     11  C   UNL A   1      32.741  24.560  23.091  1.00  0.00     0.027 A 
ATOM     12  N   UNL A   1      30.229  25.024  24.124  1.00  0.00    -0.243 NA
ATOM     13  C   UNL A   1      30.911  26.002  23.461  1.00  0.00     0.141 A 
ATOM     14  Cl  UNL A   1      30.045  27.458  23.693  1.00  0.00    -0.061 Cl
BRANCH   9  15
ATOM     15  C   UNL A   1      32.783  22.308  24.184  1.00  0.00    -0.009 A 
ATOM     16  C   UNL A   1      34.820  21.105  24.751  1.00  0.00     0.123 A 
ATOM     17  C   UNL A   1      34.068  19.940  24.915  1.00  0.00     0.092 A 
ATOM     18  C   UNL A   1      34.178  22.281  24.367  1.00  0.00     0.055 A 
ATOM     19  C   UNL A   1      32.684  19.944  24.731  1.00  0.00     0.123 A 
ATOM     20  C   UNL A   1      32.046  21.131  24.375  1.00  0.00     0.055 A 
BRANCH  16  21
ATOM     21  O   UNL A   1      36.164  20.970  24.974  1.00  0.00    -0.497 OA
ATOM     22  C   UNL A   1      37.006  21.926  24.339  1.00  0.00     0.278 C 
ENDBRANCH  16  21
BRANCH  19  23
ATOM     23  O   UNL A   1      32.068  18.741  24.943  1.00  0.00    -0.497 OA
ATOM     24  C   UNL A   1      32.784  17.783  25.712  1.00  0.00     0.278 C 
ENDBRANCH  19  23
ENDBRANCH   9  15
ENDBRANCH   5   8
ENDBRANCH   3   4
ENDBRANCH   2   3
ENDBRANCH   1   2
BRANCH   1  25
ATOM     25  C   UNL A   1      33.558  28.529  27.256  1.00  0.00     0.116 C 
BRANCH  25  26
ATOM     26  N   UNL A   1      33.552  29.950  27.579  1.00  0.00    -0.352 N 
ATOM     27  C   UNL A   1      34.582  30.710  28.078  1.00  0.00     0.251 C 
ATOM     28  H   UNL A   1      32.705  30.424  27.419  1.00  0.00     0.163 HD
ATOM     29  O   UNL A   1      34.407  31.889  28.369  1.00  0.00    -0.269 OA
BRANCH  27  30
ATOM     30  C   UNL A   1      35.886  30.063  28.305  1.00  0.00     0.039 A 
ATOM     31  C   UNL A   1      36.836  30.092  27.283  1.00  0.00     0.014 A 
ATOM     32  C   UNL A   1      36.194  29.519  29.555  1.00  0.00     0.014 A 
ATOM     33  C   UNL A   1      38.132  29.648  27.544  1.00  0.00     0.010 A 
ATOM     34  C   UNL A   1      37.502  29.141  29.832  1.00  0.00     0.010 A 
ATOM     35  C   UNL A   1      38.485  29.215  28.832  1.00  0.00    -0.014 A 
BRANCH  35  36
ATOM     36  C   UNL A   1      39.887  28.867  29.166  1.00  0.00     0.031 A 
ATOM     37  C   UNL A   1      40.777  29.885  29.823  1.00  0.00     0.074 A 
ATOM     38  C   UNL A   1      40.376  27.667  28.796  1.00  0.00     0.049 A 
ATOM     39  N   UNL A   1      42.047  29.798  30.117  1.00  0.00    -0.248 NA
ATOM     40  C   UNL A   1      40.168  31.179  30.171  1.00  0.00     0.031 C 
ATOM     41  C   UNL A   1      39.624  26.624  28.092  1.00  0.00     0.029 A 
ATOM     42  N   UNL A   1      41.627  27.124  28.945  1.00  0.00    -0.354 N 
ATOM     43  C   UNL A   1      42.395  31.028  30.659  1.00  0.00     0.074 A 
ATOM     44  C   UNL A   1      41.213  31.859  30.622  1.00  0.00     0.031 C 
ATOM     45  C   UNL A   1      40.423  25.565  27.886  1.00  0.00     0.029 A 
ATOM     46  C   UNL A   1      41.751  25.862  28.411  1.00  0.00     0.049 A 
ATOM     47  H   UNL A   1      42.368  27.595  29.392  1.00  0.00     0.167 HD
ATOM     48  C   UNL A   1      43.589  31.419  31.161  1.00  0.00     0.037 A 
ATOM     49  C   UNL A   1      42.819  25.044  28.345  1.00  0.00     0.037 A 
ATOM     50  C   UNL A   1      44.747  30.567  31.243  1.00  0.00     0.049 A 
ATOM     51  C   UNL A   1      44.126  25.498  28.935  1.00  0.00     0.074 A 
ATOM     52  C   UNL A   1      45.970  30.838  31.831  1.00  0.00     0.029 A 
ATOM     53  N   UNL A   1      44.824  29.284  30.725  1.00  0.00    -0.354 N 
ATOM     54  N   UNL A   1      44.410  26.633  29.529  1.00  0.00    -0.248 NA
ATOM     55  C   UNL A   1      45.256  24.563  28.850  1.00  0.00     0.031 C 
ATOM     56  C   UNL A   1      46.801  29.730  31.635  1.00  0.00     0.029 A 
ATOM     57  C   UNL A   1      46.084  28.758  30.956  1.00  0.00     0.049 A 
ATOM     58  H   UNL A   1      44.093  28.817  30.261  1.00  0.00     0.167 HD
ATOM     59  C   UNL A   1      45.745  26.537  29.908  1.00  0.00     0.074 A 
ATOM     60  C   UNL A   1      46.207  25.230  29.490  1.00  0.00     0.031 C 
ATOM     61  C   UNL A   1      46.520  27.450  30.543  1.00  0.00     0.037 A 
BRANCH  48  62
ATOM     62  C   UNL A   1      43.711  32.822  31.681  1.00  0.00     0.058 A 
ATOM     63  C   UNL A   1      44.014  33.896  30.832  1.00  0.00     0.135 A 
ATOM     64  C   UNL A   1      43.444  33.106  33.031  1.00  0.00     0.135 A 
ATOM     65  F   UNL A   1      44.295  33.676  29.538  1.00  0.00    -0.206 F 
ATOM     66  C   UNL A   1      44.054  35.205  31.302  1.00  0.00     0.059 A 
ATOM     67  C   UNL A   1      43.458  34.408  33.518  1.00  0.00     0.059 A 
ATOM     68  F   UNL A   1      43.156  32.112  33.886  1.00  0.00    -0.206 F 
ATOM     69  C   UNL A   1      43.769  35.451  32.646  1.00  0.00     0.060 A 
BRANCH  69  70
ATOM     70  S   UNL A   1      43.778  37.160  33.229  1.00  0.00     0.124 S 
ATOM     71  O   UNL A   1      45.034  37.208  33.969  1.00  0.00    -0.237 OA
ATOM     72  O   UNL A   1      43.748  37.916  31.980  1.00  0.00    -0.237 OA
ATOM     73  O   UNL A   1      42.568  37.248  34.040  1.00  0.00    -0.744 OA
ENDBRANCH  69  70
ENDBRANCH  48  62
BRANCH  49  74
ATOM     74  C   UNL A   1      42.705  23.706  27.704  1.00  0.00     0.058 A 
ATOM     75  C   UNL A   1      42.436  22.562  28.470  1.00  0.00     0.135 A 
ATOM     76  C   UNL A   1      42.895  23.540  26.324  1.00  0.00     0.135 A 
ATOM     77  F   UNL A   1      42.251  22.671  29.795  1.00  0.00    -0.206 F 
ATOM     78  C   UNL A   1      42.391  21.295  27.897  1.00  0.00     0.059 A 
ATOM     79  C   UNL A   1      42.832  22.286  25.724  1.00  0.00     0.059 A 
ATOM     80  F   UNL A   1      43.136  24.606  25.544  1.00  0.00    -0.206 F 
ATOM     81  C   UNL A   1      42.598  21.168  26.523  1.00  0.00     0.060 A 
BRANCH  81  82
ATOM     82  S   UNL A   1      42.533  19.521  25.783  1.00  0.00     0.124 S 
ATOM     83  O   UNL A   1      41.128  19.427  25.406  1.00  0.00    -0.237 OA
ATOM     84  O   UNL A   1      43.484  19.637  24.683  1.00  0.00    -0.237 OA
ATOM     85  O   UNL A   1      42.954  18.649  26.876  1.00  0.00    -0.744 OA
ENDBRANCH  81  82
ENDBRANCH  49  74
BRANCH  61  86
ATOM     86  C   UNL A   1      47.937  27.058  30.848  1.00  0.00     0.058 A 
ATOM     87  C   UNL A   1      48.261  26.319  31.996  1.00  0.00     0.135 A 
ATOM     88  C   UNL A   1      48.972  27.378  29.956  1.00  0.00     0.135 A 
ATOM     89  F   UNL A   1      47.307  25.995  32.883  1.00  0.00    -0.206 F 
ATOM     90  C   UNL A   1      49.568  25.927  32.259  1.00  0.00     0.059 A 
ATOM     91  C   UNL A   1      50.283  26.976  30.187  1.00  0.00     0.059 A 
ATOM     92  F   UNL A   1      48.710  28.074  28.839  1.00  0.00    -0.206 F 
ATOM     93  C   UNL A   1      50.573  26.259  31.348  1.00  0.00     0.060 A 
BRANCH  93  94
ATOM     94  S   UNL A   1      52.261  25.712  31.679  1.00  0.00     0.124 S 
ATOM     95  O   UNL A   1      52.904  25.950  30.391  1.00  0.00    -0.237 OA
ATOM     96  O   UNL A   1      52.671  26.598  32.765  1.00  0.00    -0.237 OA
ATOM     97  O   UNL A   1      52.096  24.310  32.051  1.00  0.00    -0.744 OA
ENDBRANCH  93  94
ENDBRANCH  61  86
ENDBRANCH  35  36
ENDBRANCH  27  30
ENDBRANCH  25  26
ENDBRANCH   1  25
TORSDOF 17
ENDMDL
MODEL 2
REMARK VINA RESULT:     -11.6      0.631      2.087
REMARK SMILES COc1cc(OC)cc(-c2cnc(Cl)c(C(=O)NCCCCNC(=O)c3ccc(-c4c5nc(c(-c6c(F)cc(S(=O)(=O)[O-])cc6F)c6ccc([nH]6)c(-c6c(F)cc(S(=O)(=O)[O-])cc6F)c6nc(c(-c7c(F)cc(S(=O)(=O)[O-])cc7F)c7ccc4[nH]7)C=C6)C=C5)cc3)c2)c1
REMARK SMILES IDX 21 1 20 2 19 3 18 4 16 5 17 6 15 8 10 9 11 10 92 11 12 12
REMARK SMILES IDX 13 13 14 14 9 15 3 16 4 17 93 18 5 19 8 20 2 21 1 22 6 23
REMARK SMILES IDX 7 24 22 25 23 26 24 27 25 29 26 30 27 31 91 32 28 33 90 34
REMARK SMILES IDX 29 35 30 36 31 37 84 38 32 39 89 40 83 41 85 42 33 43 88 44
REMARK SMILES IDX 82 45 81 46 34 48 68 49 47 50 67 51 48 52 51 53 66 54 86 55
REMARK SMILES IDX 49 56 50 57 65 59 87 60 52 61 35 62 36 63 45 64 37 65 38 66
REMARK SMILES IDX 44 67 46 68 39 69 40 70 41 71 42 72 43 73 69 74 70 75 79 76
REMARK SMILES IDX 71 77 72 78 78 79 80 80 73 81 74 82 75 83 76 84 77 85 53 86
REMARK SMILES IDX 54 87 63 88 55 89 56 90 62 91 64 92 57 93 58 94 59 95 60 96
REMARK SMILES IDX 61 97
REMARK H PARENT 18 7 23 28 85 47 51 58
REMARK Flexibility Score: inf
ROOT
ATOM      1  C   UNL A   1      33.547  28.029  25.762  1.00  0.00     0.023 C 
ENDROOT
BRANCH   1   2
ATOM      2  C   UNL A   1      33.303  29.231  24.853  1.00  0.00     0.023 C 
BRANCH   2   3
ATOM      3  C   UNL A   1      32.288  29.007  23.727  1.00  0.00     0.116 C 
BRANCH   3   4
ATOM      4  N   UNL A   1      32.913  28.270  22.653  1.00  0.00    -0.352 N 
ATOM      5  C   UNL A   1      33.037  26.948  22.338  1.00  0.00     0.254 C 
ATOM      6  O   UNL A   1      33.788  26.719  21.382  1.00  0.00    -0.269 OA
ATOM      7  H   UNL A   1      33.352  28.858  21.995  1.00  0.00     0.163 HD
BRANCH   5   8
ATOM      8  C   UNL A   1      32.324  25.781  22.936  1.00  0.00     0.077 A 
ATOM      9  C   UNL A   1      32.742  23.547  23.902  1.00  0.00     0.001 A 
ATOM     10  C   UNL A   1      31.387  23.468  24.164  1.00  0.00     0.121 A 
ATOM     11  C   UNL A   1      33.187  24.703  23.248  1.00  0.00     0.027 A 
ATOM     12  N   UNL A   1      30.517  24.453  23.885  1.00  0.00    -0.243 NA
ATOM     13  C   UNL A   1      31.005  25.599  23.329  1.00  0.00     0.141 A 
ATOM     14  Cl  UNL A   1      29.759  26.766  23.419  1.00  0.00    -0.061 Cl
BRANCH   9  15
ATOM     15  C   UNL A   1      33.663  22.504  24.346  1.00  0.00    -0.009 A 
ATOM     16  C   UNL A   1      34.170  20.146  24.658  1.00  0.00     0.123 A 
ATOM     17  C   UNL A   1      35.443  20.495  25.116  1.00  0.00     0.092 A 
ATOM     18  C   UNL A   1      33.278  21.152  24.293  1.00  0.00     0.055 A 
ATOM     19  C   UNL A   1      35.842  21.831  25.182  1.00  0.00     0.123 A 
ATOM     20  C   UNL A   1      34.953  22.831  24.789  1.00  0.00     0.055 A 
BRANCH  16  21
ATOM     21  O   UNL A   1      33.909  18.803  24.629  1.00  0.00    -0.497 OA
ATOM     22  C   UNL A   1      32.778  18.366  25.375  1.00  0.00     0.278 C 
ENDBRANCH  16  21
BRANCH  19  23
ATOM     23  O   UNL A   1      37.120  22.034  25.629  1.00  0.00    -0.497 OA
ATOM     24  C   UNL A   1      37.522  23.385  25.821  1.00  0.00     0.278 C 
ENDBRANCH  19  23
ENDBRANCH   9  15
ENDBRANCH   5   8
ENDBRANCH   3   4
ENDBRANCH   2   3
ENDBRANCH   1   2
BRANCH   1  25
ATOM     25  C   UNL A   1      33.483  28.332  27.253  1.00  0.00     0.116 C 
BRANCH  25  26
ATOM     26  N   UNL A   1      33.444  29.756  27.563  1.00  0.00    -0.352 N 
ATOM     27  C   UNL A   1      34.461  30.547  28.041  1.00  0.00     0.251 C 
ATOM     28  H   UNL A   1      32.583  30.207  27.410  1.00  0.00     0.163 HD
ATOM     29  O   UNL A   1      34.259  31.724  28.324  1.00  0.00    -0.269 OA
BRANCH  27  30
ATOM     30  C   UNL A   1      35.785  29.936  28.256  1.00  0.00     0.039 A 
ATOM     31  C   UNL A   1      36.689  29.905  27.193  1.00  0.00     0.014 A 
ATOM     32  C   UNL A   1      36.154  29.487  29.527  1.00  0.00     0.014 A 
ATOM     33  C   UNL A   1      38.003  29.500  27.428  1.00  0.00     0.010 A 
ATOM     34  C   UNL A   1      37.479  29.147  29.772  1.00  0.00     0.010 A 
ATOM     35  C   UNL A   1      38.417  29.164  28.728  1.00  0.00    -0.014 A 
BRANCH  35  36
ATOM     36  C   UNL A   1      39.838  28.861  29.024  1.00  0.00     0.031 A 
ATOM     37  C   UNL A   1      40.734  29.930  29.584  1.00  0.00     0.074 A 
ATOM     38  C   UNL A   1      40.335  27.649  28.704  1.00  0.00     0.049 A 
ATOM     39  N   UNL A   1      42.016  29.882  29.831  1.00  0.00    -0.248 NA
ATOM     40  C   UNL A   1      40.114  31.232  29.881  1.00  0.00     0.031 C 
ATOM     41  C   UNL A   1      39.576  26.554  28.092  1.00  0.00     0.029 A 
ATOM     42  N   UNL A   1      41.602  27.138  28.832  1.00  0.00    -0.354 N 
ATOM     43  C   UNL A   1      42.361  31.147  30.286  1.00  0.00     0.074 A 
ATOM     44  C   UNL A   1      41.162  31.954  30.249  1.00  0.00     0.031 C 
ATOM     45  C   UNL A   1      40.387  25.499  27.915  1.00  0.00     0.029 A 
ATOM     46  C   UNL A   1      41.729  25.849  28.367  1.00  0.00     0.049 A 
ATOM     47  H   UNL A   1      42.350  27.646  29.221  1.00  0.00     0.167 HD
ATOM     48  C   UNL A   1      43.566  31.587  30.716  1.00  0.00     0.037 A 
ATOM     49  C   UNL A   1      42.809  25.047  28.306  1.00  0.00     0.037 A 
ATOM     50  C   UNL A   1      44.742  30.762  30.800  1.00  0.00     0.049 A 
ATOM     51  C   UNL A   1      44.129  25.557  28.815  1.00  0.00     0.074 A 
ATOM     52  C   UNL A   1      45.983  31.087  31.321  1.00  0.00     0.029 A 
ATOM     53  N   UNL A   1      44.824  29.452  30.353  1.00  0.00    -0.354 N 
ATOM     54  N   UNL A   1      44.415  26.729  29.330  1.00  0.00    -0.248 NA
ATOM     55  C   UNL A   1      45.273  24.638  28.737  1.00  0.00     0.031 C 
ATOM     56  C   UNL A   1      46.827  29.984  31.155  1.00  0.00     0.029 A 
ATOM     57  C   UNL A   1      46.102  28.962  30.564  1.00  0.00     0.049 A 
ATOM     58  H   UNL A   1      44.085  28.946  29.948  1.00  0.00     0.167 HD
ATOM     59  C   UNL A   1      45.765  26.678  29.660  1.00  0.00     0.074 A 
ATOM     60  C   UNL A   1      46.236  25.357  29.299  1.00  0.00     0.031 C 
ATOM     61  C   UNL A   1      46.546  27.640  30.209  1.00  0.00     0.037 A 
BRANCH  48  62
ATOM     62  C   UNL A   1      43.681  33.020  31.149  1.00  0.00     0.058 A 
ATOM     63  C   UNL A   1      43.548  33.393  32.495  1.00  0.00     0.135 A 
ATOM     64  C   UNL A   1      44.006  34.021  30.219  1.00  0.00     0.135 A 
ATOM     65  F   UNL A   1      43.219  32.478  33.421  1.00  0.00    -0.206 F 
ATOM     66  C   UNL A   1      43.727  34.710  32.905  1.00  0.00     0.059 A 
ATOM     67  C   UNL A   1      44.212  35.340  30.609  1.00  0.00     0.059 A 
ATOM     68  F   UNL A   1      44.138  33.716  28.918  1.00  0.00    -0.206 F 
ATOM     69  C   UNL A   1      44.065  35.675  31.954  1.00  0.00     0.060 A 
BRANCH  69  70
ATOM     70  S   UNL A   1      44.342  37.371  32.510  1.00  0.00     0.124 S 
ATOM     71  O   UNL A   1      45.671  37.268  33.103  1.00  0.00    -0.237 OA
ATOM     72  O   UNL A   1      44.259  38.126  31.264  1.00  0.00    -0.237 OA
ATOM     73  O   UNL A   1      43.251  37.602  33.453  1.00  0.00    -0.744 OA
ENDBRANCH  69  70
ENDBRANCH  48  62
BRANCH  49  74
ATOM     74  C   UNL A   1      42.696  23.672  27.748  1.00  0.00     0.058 A 
ATOM     75  C   UNL A   1      42.786  23.448  26.365  1.00  0.00     0.135 A 
ATOM     76  C   UNL A   1      42.465  22.565  28.577  1.00  0.00     0.135 A 
ATOM     77  F   UNL A   1      43.002  24.477  25.532  1.00  0.00    -0.206 F 
ATOM     78  C   UNL A   1      42.618  22.179  25.821  1.00  0.00     0.059 A 
ATOM     79  C   UNL A   1      42.317  21.282  28.058  1.00  0.00     0.059 A 
ATOM     80  F   UNL A   1      42.390  22.724  29.908  1.00  0.00    -0.206 F 
ATOM     81  C   UNL A   1      42.376  21.103  26.677  1.00  0.00     0.060 A 
BRANCH  81  82
ATOM     82  S   UNL A   1      42.165  19.456  25.965  1.00  0.00     0.124 S 
ATOM     83  O   UNL A   1      40.720  19.403  25.777  1.00  0.00    -0.237 OA
ATOM     84  O   UNL A   1      42.964  19.539  24.747  1.00  0.00    -0.237 OA
ATOM     85  O   UNL A   1      42.702  18.576  26.999  1.00  0.00    -0.744 OA
ENDBRANCH  81  82
ENDBRANCH  49  74
BRANCH  61  86
ATOM     86  C   UNL A   1      47.982  27.290  30.478  1.00  0.00     0.058 A 
ATOM     87  C   UNL A   1      48.997  27.611  29.566  1.00  0.00     0.135 A 
ATOM     88  C   UNL A   1      48.350  26.677  31.686  1.00  0.00     0.135 A 
ATOM     89  F   UNL A   1      48.694  28.191  28.393  1.00  0.00    -0.206 F 
ATOM     90  C   UNL A   1      50.330  27.319  29.832  1.00  0.00     0.059 A 
ATOM     91  C   UNL A   1      49.679  26.397  31.984  1.00  0.00     0.059 A 
ATOM     92  F   UNL A   1      47.416  26.360  32.596  1.00  0.00    -0.206 F 
ATOM     93  C   UNL A   1      50.661  26.712  31.046  1.00  0.00     0.060 A 
BRANCH  93  94
ATOM     94  S   UNL A   1      52.399  26.371  31.400  1.00  0.00     0.124 S 
ATOM     95  O   UNL A   1      52.758  27.514  32.232  1.00  0.00    -0.237 OA
ATOM     96  O   UNL A   1      52.333  25.084  32.085  1.00  0.00    -0.237 OA
ATOM     97  O   UNL A   1      53.014  26.339  30.076  1.00  0.00    -0.744 OA
ENDBRANCH  93  94
ENDBRANCH  61  86
ENDBRANCH  35  36
ENDBRANCH  27  30
ENDBRANCH  25  26
ENDBRANCH   1  25
TORSDOF 17
ENDMDL
MODEL 3
REMARK VINA RESULT:     -11.5      0.693      8.236
REMARK SMILES COc1cc(OC)cc(-c2cnc(Cl)c(C(=O)NCCCCNC(=O)c3ccc(-c4c5nc(c(-c6c(F)cc(S(=O)(=O)[O-])cc6F)c6ccc([nH]6)c(-c6c(F)cc(S(=O)(=O)[O-])cc6F)c6nc(c(-c7c(F)cc(S(=O)(=O)[O-])cc7F)c7ccc4[nH]7)C=C6)C=C5)cc3)c2)c1
REMARK SMILES IDX 21 1 20 2 19 3 18 4 16 5 17 6 15 8 10 9 11 10 92 11 12 12
REMARK SMILES IDX 13 13 14 14 9 15 3 16 4 17 93 18 5 19 8 20 2 21 1 22 6 23
REMARK SMILES IDX 7 24 22 25 23 26 24 27 25 29 26 30 27 31 91 32 28 33 90 34
REMARK SMILES IDX 29 35 30 36 31 37 84 38 32 39 89 40 83 41 85 42 33 43 88 44
REMARK SMILES IDX 82 45 81 46 34 48 68 49 47 50 67 51 48 52 51 53 66 54 86 55
REMARK SMILES IDX 49 56 50 57 65 59 87 60 52 61 35 62 36 63 45 64 37 65 38 66
REMARK SMILES IDX 44 67 46 68 39 69 40 70 41 71 42 72 43 73 69 74 70 75 79 76
REMARK SMILES IDX 71 77 72 78 78 79 80 80 73 81 74 82 75 83 76 84 77 85 53 86
REMARK SMILES IDX 54 87 63 88 55 89 56 90 62 91 64 92 57 93 58 94 59 95 60 96
REMARK SMILES IDX 61 97
REMARK H PARENT 18 7 23 28 85 47 51 58
REMARK Flexibility Score: inf
ROOT
ATOM      1  C   UNL A   1      32.904  28.361  25.700  1.00  0.00     0.023 C 
ENDROOT
BRANCH   1   2
ATOM      2  C   UNL A   1      33.549  28.048  24.352  1.00  0.00     0.023 C 
BRANCH   2   3
ATOM      3  C   UNL A   1      32.788  28.562  23.125  1.00  0.00     0.116 C 
BRANCH   3   4
ATOM      4  N   UNL A   1      32.987  27.652  22.019  1.00  0.00    -0.352 N 
ATOM      5  C   UNL A   1      32.878  26.302  21.852  1.00  0.00     0.254 C 
ATOM      6  O   UNL A   1      33.281  25.889  20.759  1.00  0.00    -0.269 OA
ATOM      7  H   UNL A   1      33.265  28.114  21.195  1.00  0.00     0.163 HD
BRANCH   5   8
ATOM      8  C   UNL A   1      32.263  25.301  22.772  1.00  0.00     0.077 A 
ATOM      9  C   UNL A   1      32.777  23.204  23.971  1.00  0.00     0.001 A 
ATOM     10  C   UNL A   1      31.515  23.280  24.532  1.00  0.00     0.121 A 
ATOM     11  C   UNL A   1      33.118  24.209  23.058  1.00  0.00     0.027 A 
ATOM     12  N   UNL A   1      30.656  24.285  24.295  1.00  0.00    -0.243 NA
ATOM     13  C   UNL A   1      31.061  25.291  23.468  1.00  0.00     0.141 A 
ATOM     14  Cl  UNL A   1      29.930  26.562  23.638  1.00  0.00    -0.061 Cl
BRANCH   9  15
ATOM     15  C   UNL A   1      33.722  22.162  24.366  1.00  0.00    -0.009 A 
ATOM     16  C   UNL A   1      34.242  19.805  24.666  1.00  0.00     0.123 A 
ATOM     17  C   UNL A   1      35.541  20.155  25.040  1.00  0.00     0.092 A 
ATOM     18  C   UNL A   1      33.331  20.811  24.349  1.00  0.00     0.055 A 
ATOM     19  C   UNL A   1      35.947  21.490  25.071  1.00  0.00     0.123 A 
ATOM     20  C   UNL A   1      35.037  22.489  24.725  1.00  0.00     0.055 A 
BRANCH  16  21
ATOM     21  O   UNL A   1      33.976  18.463  24.664  1.00  0.00    -0.497 OA
ATOM     22  C   UNL A   1      32.706  18.072  25.175  1.00  0.00     0.278 C 
ENDBRANCH  16  21
BRANCH  19  23
ATOM     23  O   UNL A   1      37.250  21.692  25.435  1.00  0.00    -0.497 OA
ATOM     24  C   UNL A   1      37.621  23.026  25.765  1.00  0.00     0.278 C 
ENDBRANCH  19  23
ENDBRANCH   9  15
ENDBRANCH   5   8
ENDBRANCH   3   4
ENDBRANCH   2   3
ENDBRANCH   1   2
BRANCH   1  25
ATOM     25  C   UNL A   1      33.886  28.564  26.846  1.00  0.00     0.116 C 
BRANCH  25  26
ATOM     26  N   UNL A   1      33.745  29.847  27.522  1.00  0.00    -0.352 N 
ATOM     27  C   UNL A   1      34.691  30.533  28.245  1.00  0.00     0.251 C 
ATOM     28  H   UNL A   1      32.862  30.275  27.453  1.00  0.00     0.163 HD
ATOM     29  O   UNL A   1      34.403  31.577  28.821  1.00  0.00    -0.269 OA
BRANCH  27  30
ATOM     30  C   UNL A   1      36.043  29.958  28.356  1.00  0.00     0.039 A 
ATOM     31  C   UNL A   1      36.916  30.086  27.274  1.00  0.00     0.014 A 
ATOM     32  C   UNL A   1      36.468  29.385  29.557  1.00  0.00     0.014 A 
ATOM     33  C   UNL A   1      38.251  29.713  27.428  1.00  0.00     0.010 A 
ATOM     34  C   UNL A   1      37.812  29.076  29.728  1.00  0.00     0.010 A 
ATOM     35  C   UNL A   1      38.717  29.251  28.670  1.00  0.00    -0.014 A 
BRANCH  35  36
ATOM     36  C   UNL A   1      40.157  28.976  28.893  1.00  0.00     0.031 A 
ATOM     37  C   UNL A   1      40.734  27.639  28.522  1.00  0.00     0.074 A 
ATOM     38  C   UNL A   1      40.917  29.903  29.511  1.00  0.00     0.049 A 
ATOM     39  N   UNL A   1      41.943  27.184  28.714  1.00  0.00    -0.248 NA
ATOM     40  C   UNL A   1      39.826  26.677  27.875  1.00  0.00     0.031 C 
ATOM     41  C   UNL A   1      40.450  31.211  29.978  1.00  0.00     0.029 A 
ATOM     42  N   UNL A   1      42.242  29.881  29.868  1.00  0.00    -0.354 N 
ATOM     43  C   UNL A   1      41.936  25.880  28.236  1.00  0.00     0.074 A 
ATOM     44  C   UNL A   1      40.594  25.602  27.778  1.00  0.00     0.031 C 
ATOM     45  C   UNL A   1      41.474  31.870  30.544  1.00  0.00     0.029 A 
ATOM     46  C   UNL A   1      42.661  31.023  30.511  1.00  0.00     0.049 A 
ATOM     47  H   UNL A   1      42.837  29.119  29.682  1.00  0.00     0.167 HD
ATOM     48  C   UNL A   1      42.965  25.003  28.169  1.00  0.00     0.037 A 
ATOM     49  C   UNL A   1      43.865  31.344  31.023  1.00  0.00     0.037 A 
ATOM     50  C   UNL A   1      44.311  25.306  28.579  1.00  0.00     0.049 A 
ATOM     51  C   UNL A   1      44.994  30.357  30.910  1.00  0.00     0.074 A 
ATOM     52  C   UNL A   1      45.443  24.521  28.453  1.00  0.00     0.029 A 
ATOM     53  N   UNL A   1      44.705  26.485  29.193  1.00  0.00    -0.354 N 
ATOM     54  N   UNL A   1      44.991  29.162  30.369  1.00  0.00    -0.248 NA
ATOM     55  C   UNL A   1      46.290  30.761  31.473  1.00  0.00     0.031 C 
ATOM     56  C   UNL A   1      46.517  25.211  29.025  1.00  0.00     0.029 A 
ATOM     57  C   UNL A   1      46.059  26.439  29.474  1.00  0.00     0.049 A 
ATOM     58  H   UNL A   1      44.110  27.242  29.398  1.00  0.00     0.167 HD
ATOM     59  C   UNL A   1      46.290  28.682  30.506  1.00  0.00     0.074 A 
ATOM     60  C   UNL A   1      47.053  29.720  31.166  1.00  0.00     0.031 C 
ATOM     61  C   UNL A   1      46.803  27.488  30.122  1.00  0.00     0.037 A 
BRANCH  48  62
ATOM     62  C   UNL A   1      42.691  23.635  27.616  1.00  0.00     0.058 A 
ATOM     63  C   UNL A   1      42.775  23.367  26.242  1.00  0.00     0.135 A 
ATOM     64  C   UNL A   1      42.418  22.560  28.479  1.00  0.00     0.135 A 
ATOM     65  F   UNL A   1      43.014  24.363  25.373  1.00  0.00    -0.206 F 
ATOM     66  C   UNL A   1      42.593  22.084  25.739  1.00  0.00     0.059 A 
ATOM     67  C   UNL A   1      42.253  21.265  28.001  1.00  0.00     0.059 A 
ATOM     68  F   UNL A   1      42.320  22.764  29.802  1.00  0.00    -0.206 F 
ATOM     69  C   UNL A   1      42.338  21.038  26.627  1.00  0.00     0.060 A 
BRANCH  69  70
ATOM     70  S   UNL A   1      42.152  19.369  25.962  1.00  0.00     0.124 S 
ATOM     71  O   UNL A   1      43.023  19.424  24.793  1.00  0.00    -0.237 OA
ATOM     72  O   UNL A   1      42.623  18.539  27.066  1.00  0.00    -0.237 OA
ATOM     73  O   UNL A   1      40.724  19.275  25.676  1.00  0.00    -0.744 OA
ENDBRANCH  69  70
ENDBRANCH  48  62
BRANCH  49  74
ATOM     74  C   UNL A   1      44.076  32.659  31.686  1.00  0.00     0.058 A 
ATOM     75  C   UNL A   1      43.865  32.811  33.065  1.00  0.00     0.135 A 
ATOM     76  C   UNL A   1      44.460  33.792  30.954  1.00  0.00     0.135 A 
ATOM     77  F   UNL A   1      43.493  31.756  33.806  1.00  0.00    -0.206 F 
ATOM     78  C   UNL A   1      43.993  34.047  33.690  1.00  0.00     0.059 A 
ATOM     79  C   UNL A   1      44.618  35.034  31.561  1.00  0.00     0.059 A 
ATOM     80  F   UNL A   1      44.692  33.695  29.636  1.00  0.00    -0.206 F 
ATOM     81  C   UNL A   1      44.364  35.155  32.926  1.00  0.00     0.060 A 
BRANCH  81  82
ATOM     82  S   UNL A   1      44.536  36.756  33.744  1.00  0.00     0.124 S 
ATOM     83  O   UNL A   1      44.023  36.460  35.076  1.00  0.00    -0.237 OA
ATOM     84  O   UNL A   1      45.972  36.999  33.652  1.00  0.00    -0.237 OA
ATOM     85  O   UNL A   1      43.706  37.637  32.927  1.00  0.00    -0.744 OA
ENDBRANCH  81  82
ENDBRANCH  49  74
BRANCH  61  86
ATOM     86  C   UNL A   1      48.263  27.251  30.381  1.00  0.00     0.058 A 
ATOM     87  C   UNL A   1      48.714  26.722  31.599  1.00  0.00     0.135 A 
ATOM     88  C   UNL A   1      49.214  27.504  29.380  1.00  0.00     0.135 A 
ATOM     89  F   UNL A   1      47.844  26.470  32.590  1.00  0.00    -0.206 F 
ATOM     90  C   UNL A   1      50.062  26.470  31.825  1.00  0.00     0.059 A 
ATOM     91  C   UNL A   1      50.565  27.238  29.575  1.00  0.00     0.059 A 
ATOM     92  F   UNL A   1      48.830  28.001  28.193  1.00  0.00    -0.206 F 
ATOM     93  C   UNL A   1      50.981  26.730  30.805  1.00  0.00     0.060 A 
BRANCH  93  94
ATOM     94  S   UNL A   1      52.725  26.363  31.094  1.00  0.00     0.124 S 
ATOM     95  O   UNL A   1      53.243  26.315  29.731  1.00  0.00    -0.237 OA
ATOM     96  O   UNL A   1      53.157  27.504  31.896  1.00  0.00    -0.237 OA
ATOM     97  O   UNL A   1      52.690  25.086  31.800  1.00  0.00    -0.744 OA
ENDBRANCH  93  94
ENDBRANCH  61  86
ENDBRANCH  35  36
ENDBRANCH  27  30
ENDBRANCH  25  26
ENDBRANCH   1  25
TORSDOF 17
ENDMDL
