MODEL 1
REMARK VINA RESULT:     -13.2      0.000      0.000
REMARK SMILES Cc1noc2c1-c1c(c(C(=O)NCCCCNC(=O)c3ccc(-c4c5nc(c(-c6c(F)cc(S(=O)(=O)[O-])cc6F)c6ccc([nH]6)c(-c6c(F)cc(S(=O)(=O)[O-])cc6F)c6nc(c(-c7c(F)cc(S(=O)(=O)[O-])cc7F)c7ccc4[nH]7)C=C6)C=C5)cc3)nn1C)CC2
REMARK SMILES IDX 16 1 15 2 14 3 13 4 12 5 10 6 11 7 9 9 1 10 2 11 3 12 6 13
REMARK SMILES IDX 4 14 5 15 7 16 90 17 8 18 87 19 89 20 86 21 88 22 17 23
REMARK SMILES IDX 18 24 19 26 20 27 21 28 85 29 22 30 84 31 23 32 24 33 25 34
REMARK SMILES IDX 78 35 26 36 83 37 77 38 79 39 27 40 82 41 76 42 75 43 28 45
REMARK SMILES IDX 62 46 41 47 61 48 42 49 45 50 60 51 80 52 43 53 44 54 59 56
REMARK SMILES IDX 81 57 46 58 29 59 30 60 39 61 31 62 32 63 38 64 40 65 33 66
REMARK SMILES IDX 34 67 35 68 36 69 37 70 63 71 64 72 73 73 65 74 66 75 72 76
REMARK SMILES IDX 74 77 67 78 68 79 69 80 70 81 71 82 47 83 48 84 57 85 49 86
REMARK SMILES IDX 50 87 56 88 58 89 51 90 52 91 53 92 54 93 55 94
REMARK H PARENT 12 8 17 25 79 44 45 55
REMARK Flexibility Score: inf
ROOT
ATOM      1  C   UNL A   1      37.679  23.093  25.376  1.00  0.00     0.116 C 
ENDROOT
BRANCH   1   2
ATOM      2  C   UNL A   1      36.172  23.137  25.580  1.00  0.00     0.023 C 
BRANCH   2   3
ATOM      3  C   UNL A   1      35.505  21.815  25.954  1.00  0.00     0.023 C 
BRANCH   3   4
ATOM      4  C   UNL A   1      34.441  21.804  27.050  1.00  0.00     0.116 C 
BRANCH   4   5
ATOM      5  N   UNL A   1      33.118  21.366  26.698  1.00  0.00    -0.351 N 
ATOM      6  C   UNL A   1      32.128  22.051  26.009  1.00  0.00     0.272 C 
ATOM      7  O   UNL A   1      31.066  21.439  25.860  1.00  0.00    -0.267 OA
ATOM      8  H   UNL A   1      32.882  20.455  26.985  1.00  0.00     0.163 HD
BRANCH   6   9
ATOM      9  C   UNL A   1      32.292  23.462  25.542  1.00  0.00     0.154 A 
ATOM     10  C   UNL A   1      33.580  28.805  24.308  1.00  0.00     0.071 C 
ATOM     11  C   UNL A   1      33.552  27.698  23.330  1.00  0.00     0.090 A 
ATOM     12  N   UNL A   1      33.974  27.938  22.074  1.00  0.00    -0.084 NA
ATOM     13  C   UNL A   1      33.170  26.351  23.476  1.00  0.00     0.066 A 
ATOM     14  O   UNL A   1      33.821  26.747  21.377  1.00  0.00    -0.360 OA
ATOM     15  C   UNL A   1      33.330  25.819  22.223  1.00  0.00     0.146 A 
ATOM     16  C   UNL A   1      32.700  25.424  24.527  1.00  0.00     0.077 A 
ATOM     17  C   UNL A   1      32.985  24.462  21.746  1.00  0.00     0.084 C 
ATOM     18  C   UNL A   1      32.646  24.056  24.276  1.00  0.00     0.012 A 
ATOM     19  N   UNL A   1      32.268  25.603  25.799  1.00  0.00    -0.267 N 
ATOM     20  C   UNL A   1      32.997  23.464  22.928  1.00  0.00     0.048 C 
ATOM     21  N   UNL A   1      32.071  24.446  26.446  1.00  0.00    -0.167 NA
ATOM     22  C   UNL A   1      31.952  26.833  26.478  1.00  0.00     0.174 C 
ENDBRANCH   6   9
ENDBRANCH   4   5
ENDBRANCH   3   4
ENDBRANCH   2   3
ENDBRANCH   1   2
BRANCH   1  23
ATOM     23  N   UNL A   1      38.386  22.109  26.198  1.00  0.00    -0.352 N 
ATOM     24  C   UNL A   1      39.547  22.325  26.938  1.00  0.00     0.251 C 
ATOM     25  H   UNL A   1      38.002  21.201  26.229  1.00  0.00     0.163 HD
ATOM     26  O   UNL A   1      40.236  21.409  27.327  1.00  0.00    -0.269 OA
BRANCH  24  27
ATOM     27  C   UNL A   1      39.905  23.732  27.228  1.00  0.00     0.039 A 
ATOM     28  C   UNL A   1      38.957  24.760  27.200  1.00  0.00     0.014 A 
ATOM     29  C   UNL A   1      41.200  23.965  27.670  1.00  0.00     0.014 A 
ATOM     30  C   UNL A   1      39.301  26.006  27.732  1.00  0.00     0.010 A 
ATOM     31  C   UNL A   1      41.472  25.127  28.347  1.00  0.00     0.010 A 
ATOM     32  C   UNL A   1      40.554  26.178  28.339  1.00  0.00    -0.014 A 
BRANCH  32  33
ATOM     33  C   UNL A   1      40.907  27.420  29.034  1.00  0.00     0.031 A 
ATOM     34  C   UNL A   1      42.016  28.236  28.448  1.00  0.00     0.074 A 
ATOM     35  C   UNL A   1      40.110  27.960  29.983  1.00  0.00     0.049 A 
ATOM     36  N   UNL A   1      43.139  28.580  28.991  1.00  0.00    -0.248 NA
ATOM     37  C   UNL A   1      41.880  28.679  27.051  1.00  0.00     0.031 C 
ATOM     38  C   UNL A   1      38.798  27.486  30.451  1.00  0.00     0.029 A 
ATOM     39  N   UNL A   1      40.247  29.143  30.640  1.00  0.00    -0.354 N 
ATOM     40  C   UNL A   1      43.767  29.443  28.090  1.00  0.00     0.074 A 
ATOM     41  C   UNL A   1      43.021  29.345  26.861  1.00  0.00     0.031 C 
ATOM     42  C   UNL A   1      38.159  28.485  31.095  1.00  0.00     0.029 A 
ATOM     43  C   UNL A   1      39.092  29.580  31.270  1.00  0.00     0.049 A 
ATOM     44  H   UNL A   1      41.093  29.646  30.665  1.00  0.00     0.167 HD
ATOM     45  C   UNL A   1      44.732  30.328  28.477  1.00  0.00     0.037 A 
ATOM     46  C   UNL A   1      38.892  30.767  31.889  1.00  0.00     0.037 A 
ATOM     47  C   UNL A   1      45.243  30.011  29.786  1.00  0.00     0.049 A 
ATOM     48  C   UNL A   1      40.229  31.317  32.219  1.00  0.00     0.074 A 
ATOM     49  C   UNL A   1      45.877  28.920  30.348  1.00  0.00     0.029 A 
ATOM     50  N   UNL A   1      44.810  30.771  30.845  1.00  0.00    -0.354 N 
ATOM     51  N   UNL A   1      41.059  30.760  33.061  1.00  0.00    -0.248 NA
ATOM     52  C   UNL A   1      40.827  32.260  31.289  1.00  0.00     0.031 C 
ATOM     53  C   UNL A   1      45.350  28.831  31.671  1.00  0.00     0.029 A 
ATOM     54  C   UNL A   1      44.470  29.901  31.850  1.00  0.00     0.049 A 
ATOM     55  H   UNL A   1      44.754  31.754  30.878  1.00  0.00     0.167 HD
ATOM     56  C   UNL A   1      42.317  30.958  32.508  1.00  0.00     0.074 A 
ATOM     57  C   UNL A   1      42.118  31.980  31.482  1.00  0.00     0.031 C 
ATOM     58  C   UNL A   1      43.344  30.088  32.742  1.00  0.00     0.037 A 
BRANCH  45  59
ATOM     59  C   UNL A   1      44.999  31.670  27.827  1.00  0.00     0.058 A 
ATOM     60  C   UNL A   1      46.238  31.907  27.190  1.00  0.00     0.135 A 
ATOM     61  C   UNL A   1      44.206  32.817  28.048  1.00  0.00     0.135 A 
ATOM     62  F   UNL A   1      47.080  30.894  26.934  1.00  0.00    -0.206 F 
ATOM     63  C   UNL A   1      46.683  33.192  26.867  1.00  0.00     0.059 A 
ATOM     64  C   UNL A   1      44.606  34.100  27.684  1.00  0.00     0.059 A 
ATOM     65  F   UNL A   1      43.048  32.761  28.719  1.00  0.00    -0.206 F 
ATOM     66  C   UNL A   1      45.866  34.284  27.139  1.00  0.00     0.060 A 
BRANCH  66  67
ATOM     67  S   UNL A   1      46.486  35.952  26.850  1.00  0.00     0.124 S 
ATOM     68  O   UNL A   1      47.263  36.184  28.063  1.00  0.00    -0.237 OA
ATOM     69  O   UNL A   1      47.254  35.786  25.620  1.00  0.00    -0.237 OA
ATOM     70  O   UNL A   1      45.268  36.744  26.719  1.00  0.00    -0.744 OA
ENDBRANCH  66  67
ENDBRANCH  45  59
BRANCH  46  71
ATOM     71  C   UNL A   1      37.638  31.553  31.930  1.00  0.00     0.058 A 
ATOM     72  C   UNL A   1      36.978  31.825  33.136  1.00  0.00     0.135 A 
ATOM     73  C   UNL A   1      37.193  32.266  30.795  1.00  0.00     0.135 A 
ATOM     74  F   UNL A   1      37.358  31.208  34.265  1.00  0.00    -0.206 F 
ATOM     75  C   UNL A   1      35.950  32.770  33.222  1.00  0.00     0.059 A 
ATOM     76  C   UNL A   1      36.167  33.207  30.854  1.00  0.00     0.059 A 
ATOM     77  F   UNL A   1      37.804  32.123  29.608  1.00  0.00    -0.206 F 
ATOM     78  C   UNL A   1      35.562  33.468  32.077  1.00  0.00     0.060 A 
BRANCH  78  79
ATOM     79  S   UNL A   1      34.337  34.790  32.222  1.00  0.00     0.124 S 
ATOM     80  O   UNL A   1      35.068  35.795  32.985  1.00  0.00    -0.237 OA
ATOM     81  O   UNL A   1      34.074  35.118  30.825  1.00  0.00    -0.237 OA
ATOM     82  O   UNL A   1      33.230  34.152  32.929  1.00  0.00    -0.744 OA
ENDBRANCH  78  79
ENDBRANCH  46  71
BRANCH  58  83
ATOM     83  C   UNL A   1      43.192  29.072  33.848  1.00  0.00     0.058 A 
ATOM     84  C   UNL A   1      43.460  29.332  35.204  1.00  0.00     0.135 A 
ATOM     85  C   UNL A   1      42.577  27.847  33.546  1.00  0.00     0.135 A 
ATOM     86  F   UNL A   1      43.949  30.514  35.596  1.00  0.00    -0.206 F 
ATOM     87  C   UNL A   1      43.163  28.406  36.207  1.00  0.00     0.059 A 
ATOM     88  C   UNL A   1      42.243  26.922  34.533  1.00  0.00     0.059 A 
ATOM     89  F   UNL A   1      42.235  27.563  32.279  1.00  0.00    -0.206 F 
ATOM     90  C   UNL A   1      42.547  27.205  35.862  1.00  0.00     0.060 A 
BRANCH  90  91
ATOM     91  S   UNL A   1      42.070  26.057  37.172  1.00  0.00     0.124 S 
ATOM     92  O   UNL A   1      42.984  26.420  38.249  1.00  0.00    -0.237 OA
ATOM     93  O   UNL A   1      40.665  26.391  37.394  1.00  0.00    -0.237 OA
ATOM     94  O   UNL A   1      42.299  24.742  36.576  1.00  0.00    -0.744 OA
ENDBRANCH  90  91
ENDBRANCH  58  83
ENDBRANCH  32  33
ENDBRANCH  24  27
ENDBRANCH   1  23
TORSDOF 14
ENDMDL
MODEL 2
REMARK VINA RESULT:     -13.1      1.815      3.053
REMARK SMILES Cc1noc2c1-c1c(c(C(=O)NCCCCNC(=O)c3ccc(-c4c5nc(c(-c6c(F)cc(S(=O)(=O)[O-])cc6F)c6ccc([nH]6)c(-c6c(F)cc(S(=O)(=O)[O-])cc6F)c6nc(c(-c7c(F)cc(S(=O)(=O)[O-])cc7F)c7ccc4[nH]7)C=C6)C=C5)cc3)nn1C)CC2
REMARK SMILES IDX 16 1 15 2 14 3 13 4 12 5 10 6 11 7 9 9 1 10 2 11 3 12 6 13
REMARK SMILES IDX 4 14 5 15 7 16 90 17 8 18 87 19 89 20 86 21 88 22 17 23
REMARK SMILES IDX 18 24 19 26 20 27 21 28 85 29 22 30 84 31 23 32 24 33 25 34
REMARK SMILES IDX 78 35 26 36 83 37 77 38 79 39 27 40 82 41 76 42 75 43 28 45
REMARK SMILES IDX 62 46 41 47 61 48 42 49 45 50 60 51 80 52 43 53 44 54 59 56
REMARK SMILES IDX 81 57 46 58 29 59 30 60 39 61 31 62 32 63 38 64 40 65 33 66
REMARK SMILES IDX 34 67 35 68 36 69 37 70 63 71 64 72 73 73 65 74 66 75 72 76
REMARK SMILES IDX 74 77 67 78 68 79 69 80 70 81 71 82 47 83 48 84 57 85 49 86
REMARK SMILES IDX 50 87 56 88 58 89 51 90 52 91 53 92 54 93 55 94
REMARK H PARENT 12 8 17 25 79 44 45 55
REMARK Flexibility Score: inf
ROOT
ATOM      1  C   UNL A   1      40.410  21.037  26.561  1.00  0.00     0.116 C 
ENDROOT
BRANCH   1   2
ATOM      2  C   UNL A   1      39.133  21.510  25.881  1.00  0.00     0.023 C 
BRANCH   2   3
ATOM      3  C   UNL A   1      38.406  22.673  26.553  1.00  0.00     0.023 C 
BRANCH   3   4
ATOM      4  C   UNL A   1      37.508  23.575  25.708  1.00  0.00     0.116 C 
BRANCH   4   5
ATOM      5  N   UNL A   1      37.440  23.323  24.295  1.00  0.00    -0.351 N 
ATOM      6  C   UNL A   1      36.323  23.120  23.499  1.00  0.00     0.272 C 
ATOM      7  O   UNL A   1      36.555  22.903  22.306  1.00  0.00    -0.267 OA
ATOM      8  H   UNL A   1      38.306  23.290  23.827  1.00  0.00     0.163 HD
BRANCH   6   9
ATOM      9  C   UNL A   1      34.932  23.084  24.046  1.00  0.00     0.154 A 
ATOM     10  C   UNL A   1      30.041  22.587  26.796  1.00  0.00     0.071 C 
ATOM     11  C   UNL A   1      30.632  23.867  26.353  1.00  0.00     0.090 A 
ATOM     12  N   UNL A   1      30.034  25.015  26.725  1.00  0.00    -0.084 NA
ATOM     13  C   UNL A   1      31.787  24.133  25.592  1.00  0.00     0.066 A 
ATOM     14  O   UNL A   1      30.778  26.042  26.161  1.00  0.00    -0.360 OA
ATOM     15  C   UNL A   1      31.808  25.499  25.481  1.00  0.00     0.146 A 
ATOM     16  C   UNL A   1      32.899  23.405  24.949  1.00  0.00     0.077 A 
ATOM     17  C   UNL A   1      32.737  26.346  24.703  1.00  0.00     0.084 C 
ATOM     18  C   UNL A   1      33.999  24.105  24.461  1.00  0.00     0.012 A 
ATOM     19  N   UNL A   1      33.130  22.094  24.696  1.00  0.00    -0.267 N 
ATOM     20  C   UNL A   1      34.085  25.615  24.505  1.00  0.00     0.048 C 
ATOM     21  N   UNL A   1      34.359  21.868  24.209  1.00  0.00    -0.167 NA
ATOM     22  C   UNL A   1      32.227  20.979  24.826  1.00  0.00     0.174 C 
ENDBRANCH   6   9
ENDBRANCH   4   5
ENDBRANCH   3   4
ENDBRANCH   2   3
ENDBRANCH   1   2
BRANCH   1  23
ATOM     23  N   UNL A   1      41.633  21.225  25.778  1.00  0.00    -0.352 N 
ATOM     24  C   UNL A   1      42.330  22.420  25.601  1.00  0.00     0.251 C 
ATOM     25  H   UNL A   1      42.001  20.427  25.331  1.00  0.00     0.163 HD
ATOM     26  O   UNL A   1      43.132  22.565  24.706  1.00  0.00    -0.269 OA
BRANCH  24  27
ATOM     27  C   UNL A   1      42.042  23.512  26.558  1.00  0.00     0.039 A 
ATOM     28  C   UNL A   1      42.562  23.517  27.856  1.00  0.00     0.014 A 
ATOM     29  C   UNL A   1      41.346  24.606  26.062  1.00  0.00     0.014 A 
ATOM     30  C   UNL A   1      42.470  24.689  28.613  1.00  0.00     0.010 A 
ATOM     31  C   UNL A   1      41.415  25.799  26.737  1.00  0.00     0.010 A 
ATOM     32  C   UNL A   1      41.923  25.844  28.036  1.00  0.00    -0.014 A 
BRANCH  32  33
ATOM     33  C   UNL A   1      41.931  27.132  28.737  1.00  0.00     0.031 A 
ATOM     34  C   UNL A   1      43.098  28.035  28.488  1.00  0.00     0.074 A 
ATOM     35  C   UNL A   1      40.831  27.618  29.354  1.00  0.00     0.049 A 
ATOM     36  N   UNL A   1      43.956  28.499  29.339  1.00  0.00    -0.248 NA
ATOM     37  C   UNL A   1      43.381  28.426  27.098  1.00  0.00     0.031 C 
ATOM     38  C   UNL A   1      39.481  27.034  29.407  1.00  0.00     0.029 A 
ATOM     39  N   UNL A   1      40.652  28.826  29.953  1.00  0.00    -0.354 N 
ATOM     40  C   UNL A   1      44.766  29.394  28.637  1.00  0.00     0.074 A 
ATOM     41  C   UNL A   1      44.464  29.193  27.243  1.00  0.00     0.031 C 
ATOM     42  C   UNL A   1      38.590  27.983  29.760  1.00  0.00     0.029 A 
ATOM     43  C   UNL A   1      39.324  29.167  30.161  1.00  0.00     0.049 A 
ATOM     44  H   UNL A   1      41.401  29.408  30.218  1.00  0.00     0.167 HD
ATOM     45  C   UNL A   1      45.480  30.377  29.260  1.00  0.00     0.037 A 
ATOM     46  C   UNL A   1      38.840  30.345  30.618  1.00  0.00     0.037 A 
ATOM     47  C   UNL A   1      45.569  30.144  30.679  1.00  0.00     0.049 A 
ATOM     48  C   UNL A   1      39.951  31.029  31.324  1.00  0.00     0.074 A 
ATOM     49  C   UNL A   1      46.077  29.134  31.473  1.00  0.00     0.029 A 
ATOM     50  N   UNL A   1      44.758  30.887  31.502  1.00  0.00    -0.354 N 
ATOM     51  N   UNL A   1      40.510  30.576  32.414  1.00  0.00    -0.248 NA
ATOM     52  C   UNL A   1      40.735  32.000  30.580  1.00  0.00     0.031 C 
ATOM     53  C   UNL A   1      45.163  29.030  32.563  1.00  0.00     0.029 A 
ATOM     54  C   UNL A   1      44.187  30.015  32.395  1.00  0.00     0.049 A 
ATOM     55  H   UNL A   1      44.615  31.860  31.462  1.00  0.00     0.167 HD
ATOM     56  C   UNL A   1      41.858  30.879  32.277  1.00  0.00     0.074 A 
ATOM     57  C   UNL A   1      41.915  31.849  31.187  1.00  0.00     0.031 C 
ATOM     58  C   UNL A   1      42.823  30.117  32.872  1.00  0.00     0.037 A 
BRANCH  45  59
ATOM     59  C   UNL A   1      45.830  31.721  28.655  1.00  0.00     0.058 A 
ATOM     60  C   UNL A   1      44.805  32.543  28.132  1.00  0.00     0.135 A 
ATOM     61  C   UNL A   1      47.144  32.106  28.314  1.00  0.00     0.135 A 
ATOM     62  F   UNL A   1      43.516  32.270  28.384  1.00  0.00    -0.206 F 
ATOM     63  C   UNL A   1      45.067  33.616  27.277  1.00  0.00     0.059 A 
ATOM     64  C   UNL A   1      47.429  33.206  27.508  1.00  0.00     0.059 A 
ATOM     65  F   UNL A   1      48.211  31.375  28.661  1.00  0.00    -0.206 F 
ATOM     66  C   UNL A   1      46.383  33.926  26.955  1.00  0.00     0.060 A 
BRANCH  66  67
ATOM     67  S   UNL A   1      46.723  35.222  25.750  1.00  0.00     0.124 S 
ATOM     68  O   UNL A   1      45.915  34.781  24.618  1.00  0.00    -0.237 OA
ATOM     69  O   UNL A   1      46.254  36.418  26.443  1.00  0.00    -0.237 OA
ATOM     70  O   UNL A   1      48.168  35.139  25.566  1.00  0.00    -0.744 OA
ENDBRANCH  66  67
ENDBRANCH  45  59
BRANCH  46  71
ATOM     71  C   UNL A   1      37.579  31.008  30.216  1.00  0.00     0.058 A 
ATOM     72  C   UNL A   1      36.726  31.602  31.157  1.00  0.00     0.135 A 
ATOM     73  C   UNL A   1      37.307  31.287  28.858  1.00  0.00     0.135 A 
ATOM     74  F   UNL A   1      36.932  31.409  32.468  1.00  0.00    -0.206 F 
ATOM     75  C   UNL A   1      35.678  32.447  30.779  1.00  0.00     0.059 A 
ATOM     76  C   UNL A   1      36.264  32.119  28.456  1.00  0.00     0.059 A 
ATOM     77  F   UNL A   1      38.106  30.817  27.886  1.00  0.00    -0.206 F 
ATOM     78  C   UNL A   1      35.465  32.712  29.424  1.00  0.00     0.060 A 
BRANCH  78  79
ATOM     79  S   UNL A   1      34.203  33.917  28.948  1.00  0.00     0.124 S 
ATOM     80  O   UNL A   1      33.577  34.220  30.230  1.00  0.00    -0.237 OA
ATOM     81  O   UNL A   1      35.005  34.986  28.362  1.00  0.00    -0.237 OA
ATOM     82  O   UNL A   1      33.368  33.180  28.004  1.00  0.00    -0.744 OA
ENDBRANCH  78  79
ENDBRANCH  46  71
BRANCH  58  83
ATOM     83  C   UNL A   1      42.409  29.121  33.928  1.00  0.00     0.058 A 
ATOM     84  C   UNL A   1      41.930  27.828  33.653  1.00  0.00     0.135 A 
ATOM     85  C   UNL A   1      42.680  29.426  35.272  1.00  0.00     0.135 A 
ATOM     86  F   UNL A   1      41.742  27.416  32.394  1.00  0.00    -0.206 F 
ATOM     87  C   UNL A   1      41.701  26.893  34.666  1.00  0.00     0.059 A 
ATOM     88  C   UNL A   1      42.489  28.498  36.295  1.00  0.00     0.059 A 
ATOM     89  F   UNL A   1      43.199  30.620  35.598  1.00  0.00    -0.206 F 
ATOM     90  C   UNL A   1      41.990  27.236  35.985  1.00  0.00     0.060 A 
BRANCH  90  91
ATOM     91  S   UNL A   1      41.792  25.990  37.278  1.00  0.00     0.124 S 
ATOM     92  O   UNL A   1      42.037  24.750  36.551  1.00  0.00    -0.237 OA
ATOM     93  O   UNL A   1      42.816  26.369  38.248  1.00  0.00    -0.237 OA
ATOM     94  O   UNL A   1      40.417  26.185  37.733  1.00  0.00    -0.744 OA
ENDBRANCH  90  91
ENDBRANCH  58  83
ENDBRANCH  32  33
ENDBRANCH  24  27
ENDBRANCH   1  23
TORSDOF 14
ENDMDL
MODEL 3
REMARK VINA RESULT:     -13.0      2.344      3.386
REMARK SMILES Cc1noc2c1-c1c(c(C(=O)NCCCCNC(=O)c3ccc(-c4c5nc(c(-c6c(F)cc(S(=O)(=O)[O-])cc6F)c6ccc([nH]6)c(-c6c(F)cc(S(=O)(=O)[O-])cc6F)c6nc(c(-c7c(F)cc(S(=O)(=O)[O-])cc7F)c7ccc4[nH]7)C=C6)C=C5)cc3)nn1C)CC2
REMARK SMILES IDX 16 1 15 2 14 3 13 4 12 5 10 6 11 7 9 9 1 10 2 11 3 12 6 13
REMARK SMILES IDX 4 14 5 15 7 16 90 17 8 18 87 19 89 20 86 21 88 22 17 23
REMARK SMILES IDX 18 24 19 26 20 27 21 28 85 29 22 30 84 31 23 32 24 33 25 34
REMARK SMILES IDX 78 35 26 36 83 37 77 38 79 39 27 40 82 41 76 42 75 43 28 45
REMARK SMILES IDX 62 46 41 47 61 48 42 49 45 50 60 51 80 52 43 53 44 54 59 56
REMARK SMILES IDX 81 57 46 58 29 59 30 60 39 61 31 62 32 63 38 64 40 65 33 66
REMARK SMILES IDX 34 67 35 68 36 69 37 70 63 71 64 72 73 73 65 74 66 75 72 76
REMARK SMILES IDX 74 77 67 78 68 79 69 80 70 81 71 82 47 83 48 84 57 85 49 86
REMARK SMILES IDX 50 87 56 88 58 89 51 90 52 91 53 92 54 93 55 94
REMARK H PARENT 12 8 17 25 79 44 45 55
REMARK Flexibility Score: inf
ROOT
ATOM      1  C   UNL A   1      40.531  20.557  26.918  1.00  0.00     0.116 C 
ENDROOT
BRANCH   1   2
ATOM      2  C   UNL A   1      39.595  21.260  25.946  1.00  0.00     0.023 C 
BRANCH   2   3
ATOM      3  C   UNL A   1      38.904  22.518  26.469  1.00  0.00     0.023 C 
BRANCH   3   4
ATOM      4  C   UNL A   1      37.585  22.959  25.837  1.00  0.00     0.116 C 
BRANCH   4   5
ATOM      5  N   UNL A   1      37.501  22.983  24.403  1.00  0.00    -0.351 N 
ATOM      6  C   UNL A   1      36.374  23.050  23.597  1.00  0.00     0.272 C 
ATOM      7  O   UNL A   1      36.590  23.035  22.381  1.00  0.00    -0.267 OA
ATOM      8  H   UNL A   1      38.362  22.947  23.926  1.00  0.00     0.163 HD
BRANCH   6   9
ATOM      9  C   UNL A   1      34.984  23.059  24.146  1.00  0.00     0.154 A 
ATOM     10  C   UNL A   1      30.095  22.806  26.933  1.00  0.00     0.071 C 
ATOM     11  C   UNL A   1      30.678  24.039  26.364  1.00  0.00     0.090 A 
ATOM     12  N   UNL A   1      30.072  25.214  26.620  1.00  0.00    -0.084 NA
ATOM     13  C   UNL A   1      31.830  24.235  25.580  1.00  0.00     0.066 A 
ATOM     14  O   UNL A   1      30.808  26.185  25.955  1.00  0.00    -0.360 OA
ATOM     15  C   UNL A   1      31.842  25.584  25.333  1.00  0.00     0.146 A 
ATOM     16  C   UNL A   1      32.949  23.454  25.013  1.00  0.00     0.077 A 
ATOM     17  C   UNL A   1      32.765  26.355  24.473  1.00  0.00     0.084 C 
ATOM     18  C   UNL A   1      34.044  24.110  24.456  1.00  0.00     0.012 A 
ATOM     19  N   UNL A   1      33.189  22.126  24.892  1.00  0.00    -0.267 N 
ATOM     20  C   UNL A   1      34.119  25.617  24.349  1.00  0.00     0.048 C 
ATOM     21  N   UNL A   1      34.419  21.862  24.430  1.00  0.00    -0.167 NA
ATOM     22  C   UNL A   1      32.293  21.024  25.133  1.00  0.00     0.174 C 
ENDBRANCH   6   9
ENDBRANCH   4   5
ENDBRANCH   3   4
ENDBRANCH   2   3
ENDBRANCH   1   2
BRANCH   1  23
ATOM     23  N   UNL A   1      41.660  19.862  26.297  1.00  0.00    -0.352 N 
ATOM     24  C   UNL A   1      42.789  20.453  25.730  1.00  0.00     0.251 C 
ATOM     25  H   UNL A   1      41.617  18.878  26.277  1.00  0.00     0.163 HD
ATOM     26  O   UNL A   1      43.512  19.848  24.971  1.00  0.00    -0.269 OA
BRANCH  24  27
ATOM     27  C   UNL A   1      43.065  21.859  26.098  1.00  0.00     0.039 A 
ATOM     28  C   UNL A   1      42.685  22.928  25.281  1.00  0.00     0.014 A 
ATOM     29  C   UNL A   1      43.594  22.079  27.362  1.00  0.00     0.014 A 
ATOM     30  C   UNL A   1      42.740  24.225  25.800  1.00  0.00     0.010 A 
ATOM     31  C   UNL A   1      43.478  23.326  27.924  1.00  0.00     0.010 A 
ATOM     32  C   UNL A   1      43.107  24.419  27.140  1.00  0.00    -0.014 A 
BRANCH  32  33
ATOM     33  C   UNL A   1      43.044  25.741  27.771  1.00  0.00     0.031 A 
ATOM     34  C   UNL A   1      44.108  26.724  27.397  1.00  0.00     0.074 A 
ATOM     35  C   UNL A   1      41.945  26.166  28.433  1.00  0.00     0.049 A 
ATOM     36  N   UNL A   1      44.972  27.309  28.163  1.00  0.00    -0.248 NA
ATOM     37  C   UNL A   1      44.269  27.056  25.972  1.00  0.00     0.031 C 
ATOM     38  C   UNL A   1      40.659  25.473  28.606  1.00  0.00     0.029 A 
ATOM     39  N   UNL A   1      41.696  27.387  28.978  1.00  0.00    -0.354 N 
ATOM     40  C   UNL A   1      45.654  28.228  27.362  1.00  0.00     0.074 A 
ATOM     41  C   UNL A   1      45.287  27.920  26.004  1.00  0.00     0.031 C 
ATOM     42  C   UNL A   1      39.710  26.362  28.967  1.00  0.00     0.029 A 
ATOM     43  C   UNL A   1      40.359  27.625  29.255  1.00  0.00     0.049 A 
ATOM     44  H   UNL A   1      42.406  28.046  29.161  1.00  0.00     0.167 HD
ATOM     45  C   UNL A   1      46.316  29.303  27.885  1.00  0.00     0.037 A 
ATOM     46  C   UNL A   1      39.801  28.782  29.680  1.00  0.00     0.037 A 
ATOM     47  C   UNL A   1      46.512  29.161  29.304  1.00  0.00     0.049 A 
ATOM     48  C   UNL A   1      40.888  29.598  30.274  1.00  0.00     0.074 A 
ATOM     49  C   UNL A   1      47.156  28.246  30.115  1.00  0.00     0.029 A 
ATOM     50  N   UNL A   1      45.691  29.879  30.140  1.00  0.00    -0.354 N 
ATOM     51  N   UNL A   1      41.551  29.260  31.347  1.00  0.00    -0.248 NA
ATOM     52  C   UNL A   1      41.535  30.588  29.429  1.00  0.00     0.031 C 
ATOM     53  C   UNL A   1      46.324  28.128  31.268  1.00  0.00     0.029 A 
ATOM     54  C   UNL A   1      45.255  29.015  31.113  1.00  0.00     0.049 A 
ATOM     55  H   UNL A   1      45.459  30.832  30.057  1.00  0.00     0.167 HD
ATOM     56  C   UNL A   1      42.856  29.668  31.105  1.00  0.00     0.074 A 
ATOM     57  C   UNL A   1      42.759  30.575  29.964  1.00  0.00     0.031 C 
ATOM     58  C   UNL A   1      43.920  29.027  31.674  1.00  0.00     0.037 A 
BRANCH  45  59
ATOM     59  C   UNL A   1      46.506  30.634  27.187  1.00  0.00     0.058 A 
ATOM     60  C   UNL A   1      47.797  31.204  27.105  1.00  0.00     0.135 A 
ATOM     61  C   UNL A   1      45.442  31.498  26.849  1.00  0.00     0.135 A 
ATOM     62  F   UNL A   1      48.885  30.480  27.409  1.00  0.00    -0.206 F 
ATOM     63  C   UNL A   1      48.005  32.548  26.784  1.00  0.00     0.059 A 
ATOM     64  C   UNL A   1      45.632  32.825  26.473  1.00  0.00     0.059 A 
ATOM     65  F   UNL A   1      44.161  31.126  26.966  1.00  0.00    -0.206 F 
ATOM     66  C   UNL A   1      46.911  33.355  26.491  1.00  0.00     0.060 A 
BRANCH  66  67
ATOM     67  S   UNL A   1      47.158  35.119  26.208  1.00  0.00     0.124 S 
ATOM     68  O   UNL A   1      45.903  35.485  25.562  1.00  0.00    -0.237 OA
ATOM     69  O   UNL A   1      47.351  35.623  27.564  1.00  0.00    -0.237 OA
ATOM     70  O   UNL A   1      48.344  35.159  25.358  1.00  0.00    -0.744 OA
ENDBRANCH  66  67
ENDBRANCH  45  59
BRANCH  46  71
ATOM     71  C   UNL A   1      38.463  29.311  29.329  1.00  0.00     0.058 A 
ATOM     72  C   UNL A   1      37.502  29.595  30.309  1.00  0.00     0.135 A 
ATOM     73  C   UNL A   1      38.190  29.781  28.026  1.00  0.00     0.135 A 
ATOM     74  F   UNL A   1      37.699  29.205  31.578  1.00  0.00    -0.206 F 
ATOM     75  C   UNL A   1      36.346  30.327  30.024  1.00  0.00     0.059 A 
ATOM     76  C   UNL A   1      37.041  30.507  27.715  1.00  0.00     0.059 A 
ATOM     77  F   UNL A   1      39.078  29.616  27.033  1.00  0.00    -0.206 F 
ATOM     78  C   UNL A   1      36.132  30.794  28.725  1.00  0.00     0.060 A 
BRANCH  78  79
ATOM     79  S   UNL A   1      34.711  31.862  28.392  1.00  0.00     0.124 S 
ATOM     80  O   UNL A   1      35.278  32.837  27.467  1.00  0.00    -0.237 OA
ATOM     81  O   UNL A   1      33.750  30.926  27.821  1.00  0.00    -0.237 OA
ATOM     82  O   UNL A   1      34.362  32.383  29.711  1.00  0.00    -0.744 OA
ENDBRANCH  78  79
ENDBRANCH  46  71
BRANCH  58  83
ATOM     83  C   UNL A   1      43.662  28.063  32.806  1.00  0.00     0.058 A 
ATOM     84  C   UNL A   1      43.389  28.450  34.130  1.00  0.00     0.135 A 
ATOM     85  C   UNL A   1      43.506  26.702  32.497  1.00  0.00     0.135 A 
ATOM     86  F   UNL A   1      43.412  29.738  34.491  1.00  0.00    -0.206 F 
ATOM     87  C   UNL A   1      43.011  27.526  35.108  1.00  0.00     0.059 A 
ATOM     88  C   UNL A   1      43.100  25.768  33.449  1.00  0.00     0.059 A 
ATOM     89  F   UNL A   1      43.688  26.275  31.237  1.00  0.00    -0.206 F 
ATOM     90  C   UNL A   1      42.862  26.187  34.756  1.00  0.00     0.060 A 
BRANCH  90  91
ATOM     91  S   UNL A   1      42.272  25.014  35.996  1.00  0.00     0.124 S 
ATOM     92  O   UNL A   1      43.011  25.425  37.185  1.00  0.00    -0.237 OA
ATOM     93  O   UNL A   1      40.835  25.272  36.023  1.00  0.00    -0.237 OA
ATOM     94  O   UNL A   1      42.650  23.714  35.445  1.00  0.00    -0.744 OA
ENDBRANCH  90  91
ENDBRANCH  58  83
ENDBRANCH  32  33
ENDBRANCH  24  27
ENDBRANCH   1  23
TORSDOF 14
ENDMDL
