MODEL 1
REMARK VINA RESULT:     -11.9      0.000      0.000
REMARK SMILES COc1ccc(F)cc1[C@H](C)NC(=O)[C@H]1CC=CC[C@@H]1C(=O)NCCCCNC(=O)c1ccc(-c2c3nc(c(-c4c(F)cc(S(=O)(=O)[O-])cc4F)c4ccc([nH]4)c(-c4c(F)cc(S(=O)(=O)[O-])cc4F)c4nc(c(-c5c(F)cc(S(=O)(=O)[O-])cc5F)c5ccc2[nH]5)C=C4)C=C3)cc1
REMARK SMILES IDX 25 1 24 2 23 3 21 4 22 5 20 7 15 8 16 9 17 10 19 11 18 12
REMARK SMILES IDX 13 13 12 14 14 16 10 17 11 18 9 19 3 20 4 21 5 22 8 23 6 24
REMARK SMILES IDX 7 25 2 26 1 27 26 28 27 29 28 30 29 31 30 33 31 34 32 35
REMARK SMILES IDX 96 36 33 37 95 38 34 39 35 40 36 41 89 42 37 43 94 44 88 45
REMARK SMILES IDX 90 46 38 47 93 48 87 49 86 50 39 52 73 53 52 54 72 55 53 56
REMARK SMILES IDX 56 57 71 58 91 59 54 60 55 61 70 63 92 64 57 65 40 66 41 67
REMARK SMILES IDX 50 68 42 69 43 70 49 71 51 72 44 73 45 74 46 75 47 76 48 77
REMARK SMILES IDX 74 78 75 79 84 80 76 81 77 82 83 83 85 84 78 85 79 86 80 87
REMARK SMILES IDX 81 88 82 89 58 90 59 91 68 92 60 93 61 94 67 95 69 96 62 97
REMARK SMILES IDX 63 98 64 99 65 100 66 101
REMARK H PARENT 23 6 12 15 28 32 90 51 56 62
REMARK Flexibility Score: inf
ROOT
ATOM      1  C   UNL A   1      36.967  23.219  24.426  1.00  0.00     0.023 C 
ENDROOT
BRANCH   1   2
ATOM      2  C   UNL A   1      35.856  22.257  24.003  1.00  0.00     0.116 C 
BRANCH   2   3
ATOM      3  N   UNL A   1      35.216  21.640  25.148  1.00  0.00    -0.356 N 
ATOM      4  C   UNL A   1      33.906  21.585  25.515  1.00  0.00     0.224 C 
ATOM      5  O   UNL A   1      33.643  20.929  26.524  1.00  0.00    -0.275 OA
ATOM      6  H   UNL A   1      35.833  21.185  25.765  1.00  0.00     0.163 HD
BRANCH   4   7
ATOM      7  C   UNL A   1      32.840  22.316  24.698  1.00  0.00     0.095 C 
ATOM      8  C   UNL A   1      33.086  23.841  24.733  1.00  0.00     0.095 C 
ATOM      9  C   UNL A   1      32.794  24.434  26.124  1.00  0.00     0.041 C 
ATOM     10  C   UNL A   1      31.545  23.898  26.757  1.00  0.00    -0.030 C 
ATOM     11  C   UNL A   1      31.430  21.936  25.204  1.00  0.00     0.041 C 
ATOM     12  C   UNL A   1      30.922  22.791  26.330  1.00  0.00    -0.030 C 
BRANCH   8  13
ATOM     13  C   UNL A   1      32.255  24.571  23.678  1.00  0.00     0.224 C 
ATOM     14  N   UNL A   1      32.394  25.912  23.516  1.00  0.00    -0.349 N 
ATOM     15  H   UNL A   1      31.644  26.341  23.044  1.00  0.00     0.164 HD
ATOM     16  O   UNL A   1      31.423  24.003  22.970  1.00  0.00    -0.275 OA
BRANCH  14  17
ATOM     17  C   UNL A   1      33.449  26.830  23.913  1.00  0.00     0.113 C 
ATOM     18  C   UNL A   1      33.787  27.729  22.719  1.00  0.00     0.036 C 
BRANCH  17  19
ATOM     19  C   UNL A   1      33.112  27.686  25.126  1.00  0.00     0.019 A 
ATOM     20  C   UNL A   1      31.862  28.309  25.342  1.00  0.00     0.124 A 
ATOM     21  C   UNL A   1      31.667  29.107  26.480  1.00  0.00     0.050 A 
ATOM     22  C   UNL A   1      32.711  29.331  27.379  1.00  0.00     0.043 A 
ATOM     23  C   UNL A   1      34.153  27.935  26.044  1.00  0.00     0.049 A 
ATOM     24  C   UNL A   1      33.946  28.750  27.149  1.00  0.00     0.123 A 
ATOM     25  F   UNL A   1      34.956  28.984  27.997  1.00  0.00    -0.207 F 
BRANCH  20  26
ATOM     26  O   UNL A   1      30.879  28.064  24.420  1.00  0.00    -0.496 OA
ATOM     27  C   UNL A   1      30.398  29.170  23.666  1.00  0.00     0.278 C 
ENDBRANCH  20  26
ENDBRANCH  17  19
ENDBRANCH  14  17
ENDBRANCH   8  13
ENDBRANCH   4   7
ENDBRANCH   2   3
ENDBRANCH   1   2
BRANCH   1  28
ATOM     28  C   UNL A   1      37.634  22.898  25.769  1.00  0.00     0.023 C 
BRANCH  28  29
ATOM     29  C   UNL A   1      38.495  24.010  26.361  1.00  0.00     0.116 C 
BRANCH  29  30
ATOM     30  N   UNL A   1      39.909  23.841  26.070  1.00  0.00    -0.352 N 
ATOM     31  C   UNL A   1      40.982  24.596  26.481  1.00  0.00     0.251 C 
ATOM     32  H   UNL A   1      40.131  23.073  25.495  1.00  0.00     0.163 HD
ATOM     33  O   UNL A   1      42.093  24.380  26.002  1.00  0.00    -0.269 OA
BRANCH  31  34
ATOM     34  C   UNL A   1      40.800  25.683  27.471  1.00  0.00     0.039 A 
ATOM     35  C   UNL A   1      39.783  25.565  28.422  1.00  0.00     0.014 A 
ATOM     36  C   UNL A   1      41.622  26.813  27.466  1.00  0.00     0.014 A 
ATOM     37  C   UNL A   1      39.639  26.543  29.410  1.00  0.00     0.010 A 
ATOM     38  C   UNL A   1      41.522  27.752  28.493  1.00  0.00     0.010 A 
ATOM     39  C   UNL A   1      40.533  27.625  29.481  1.00  0.00    -0.014 A 
BRANCH  39  40
ATOM     40  C   UNL A   1      40.458  28.619  30.585  1.00  0.00     0.031 A 
ATOM     41  C   UNL A   1      41.366  28.498  31.781  1.00  0.00     0.074 A 
ATOM     42  C   UNL A   1      39.538  29.605  30.535  1.00  0.00     0.049 A 
ATOM     43  N   UNL A   1      41.393  29.220  32.872  1.00  0.00    -0.248 NA
ATOM     44  C   UNL A   1      42.364  27.414  31.758  1.00  0.00     0.031 C 
ATOM     45  C   UNL A   1      38.581  29.815  29.446  1.00  0.00     0.029 A 
ATOM     46  N   UNL A   1      39.251  30.616  31.421  1.00  0.00    -0.354 N 
ATOM     47  C   UNL A   1      42.402  28.682  33.661  1.00  0.00     0.074 A 
ATOM     48  C   UNL A   1      42.930  27.538  32.950  1.00  0.00     0.031 C 
ATOM     49  C   UNL A   1      37.837  30.901  29.713  1.00  0.00     0.029 A 
ATOM     50  C   UNL A   1      38.226  31.439  31.012  1.00  0.00     0.049 A 
ATOM     51  H   UNL A   1      39.733  30.739  32.271  1.00  0.00     0.167 HD
ATOM     52  C   UNL A   1      42.866  29.119  34.855  1.00  0.00     0.037 A 
ATOM     53  C   UNL A   1      37.658  32.502  31.617  1.00  0.00     0.037 A 
ATOM     54  C   UNL A   1      42.358  30.276  35.546  1.00  0.00     0.049 A 
ATOM     55  C   UNL A   1      38.168  32.939  32.965  1.00  0.00     0.074 A 
ATOM     56  C   UNL A   1      42.791  30.814  36.746  1.00  0.00     0.029 A 
ATOM     57  N   UNL A   1      41.317  31.076  35.102  1.00  0.00    -0.354 N 
ATOM     58  N   UNL A   1      39.151  32.438  33.675  1.00  0.00    -0.248 NA
ATOM     59  C   UNL A   1      37.494  34.083  33.596  1.00  0.00     0.031 C 
ATOM     60  C   UNL A   1      41.983  31.912  37.050  1.00  0.00     0.029 A 
ATOM     61  C   UNL A   1      41.082  32.093  36.013  1.00  0.00     0.049 A 
ATOM     62  H   UNL A   1      40.818  30.941  34.264  1.00  0.00     0.167 HD
ATOM     63  C   UNL A   1      39.233  33.227  34.818  1.00  0.00     0.074 A 
ATOM     64  C   UNL A   1      38.211  34.245  34.700  1.00  0.00     0.031 C 
ATOM     65  C   UNL A   1      40.077  33.115  35.873  1.00  0.00     0.037 A 
BRANCH  52  66
ATOM     66  C   UNL A   1      44.007  28.377  35.495  1.00  0.00     0.058 A 
ATOM     67  C   UNL A   1      43.766  27.365  36.438  1.00  0.00     0.135 A 
ATOM     68  C   UNL A   1      45.339  28.756  35.267  1.00  0.00     0.135 A 
ATOM     69  F   UNL A   1      42.511  26.958  36.688  1.00  0.00    -0.206 F 
ATOM     70  C   UNL A   1      44.802  26.784  37.162  1.00  0.00     0.059 A 
ATOM     71  C   UNL A   1      46.393  28.171  35.961  1.00  0.00     0.059 A 
ATOM     72  F   UNL A   1      45.626  29.703  34.359  1.00  0.00    -0.206 F 
ATOM     73  C   UNL A   1      46.112  27.201  36.924  1.00  0.00     0.060 A 
BRANCH  73  74
ATOM     74  S   UNL A   1      47.442  26.458  37.893  1.00  0.00     0.124 S 
ATOM     75  O   UNL A   1      48.386  27.564  38.004  1.00  0.00    -0.237 OA
ATOM     76  O   UNL A   1      46.750  26.084  39.122  1.00  0.00    -0.237 OA
ATOM     77  O   UNL A   1      47.880  25.339  37.064  1.00  0.00    -0.744 OA
ENDBRANCH  73  74
ENDBRANCH  52  66
BRANCH  53  78
ATOM     78  C   UNL A   1      36.549  33.242  30.953  1.00  0.00     0.058 A 
ATOM     79  C   UNL A   1      36.784  34.092  29.861  1.00  0.00     0.135 A 
ATOM     80  C   UNL A   1      35.223  33.095  31.389  1.00  0.00     0.135 A 
ATOM     81  F   UNL A   1      38.033  34.278  29.408  1.00  0.00    -0.206 F 
ATOM     82  C   UNL A   1      35.748  34.773  29.231  1.00  0.00     0.059 A 
ATOM     83  C   UNL A   1      34.165  33.742  30.756  1.00  0.00     0.059 A 
ATOM     84  F   UNL A   1      34.944  32.285  32.422  1.00  0.00    -0.206 F 
ATOM     85  C   UNL A   1      34.440  34.587  29.682  1.00  0.00     0.060 A 
BRANCH  85  86
ATOM     86  S   UNL A   1      33.106  35.449  28.823  1.00  0.00     0.124 S 
ATOM     87  O   UNL A   1      33.853  36.382  27.987  1.00  0.00    -0.237 OA
ATOM     88  O   UNL A   1      32.440  34.358  28.120  1.00  0.00    -0.237 OA
ATOM     89  O   UNL A   1      32.340  36.053  29.909  1.00  0.00    -0.744 OA
ENDBRANCH  85  86
ENDBRANCH  53  78
BRANCH  65  90
ATOM     90  C   UNL A   1      39.972  34.136  36.972  1.00  0.00     0.058 A 
ATOM     91  C   UNL A   1      39.199  33.872  38.114  1.00  0.00     0.135 A 
ATOM     92  C   UNL A   1      40.557  35.406  36.857  1.00  0.00     0.135 A 
ATOM     93  F   UNL A   1      38.611  32.675  38.272  1.00  0.00    -0.206 F 
ATOM     94  C   UNL A   1      38.991  34.838  39.092  1.00  0.00     0.059 A 
ATOM     95  C   UNL A   1      40.388  36.378  37.838  1.00  0.00     0.059 A 
ATOM     96  F   UNL A   1      41.315  35.706  35.789  1.00  0.00    -0.206 F 
ATOM     97  C   UNL A   1      39.587  36.090  38.944  1.00  0.00     0.060 A 
BRANCH  97  98
ATOM     98  S   UNL A   1      39.308  37.332  40.224  1.00  0.00     0.124 S 
ATOM     99  O   UNL A   1      38.593  36.563  41.236  1.00  0.00    -0.237 OA
ATOM    100  O   UNL A   1      40.670  37.727  40.570  1.00  0.00    -0.237 OA
ATOM    101  O   UNL A   1      38.521  38.354  39.540  1.00  0.00    -0.744 OA
ENDBRANCH  97  98
ENDBRANCH  65  90
ENDBRANCH  39  40
ENDBRANCH  31  34
ENDBRANCH  29  30
ENDBRANCH  28  29
ENDBRANCH   1  28
TORSDOF 18
ENDMDL
MODEL 2
REMARK VINA RESULT:     -11.9      0.455      8.046
REMARK SMILES COc1ccc(F)cc1[C@H](C)NC(=O)[C@H]1CC=CC[C@@H]1C(=O)NCCCCNC(=O)c1ccc(-c2c3nc(c(-c4c(F)cc(S(=O)(=O)[O-])cc4F)c4ccc([nH]4)c(-c4c(F)cc(S(=O)(=O)[O-])cc4F)c4nc(c(-c5c(F)cc(S(=O)(=O)[O-])cc5F)c5ccc2[nH]5)C=C4)C=C3)cc1
REMARK SMILES IDX 25 1 24 2 23 3 21 4 22 5 20 7 15 8 16 9 17 10 19 11 18 12
REMARK SMILES IDX 13 13 12 14 14 16 10 17 11 18 9 19 3 20 4 21 5 22 8 23 6 24
REMARK SMILES IDX 7 25 2 26 1 27 26 28 27 29 28 30 29 31 30 33 31 34 32 35
REMARK SMILES IDX 96 36 33 37 95 38 34 39 35 40 36 41 89 42 37 43 94 44 88 45
REMARK SMILES IDX 90 46 38 47 93 48 87 49 86 50 39 52 73 53 52 54 72 55 53 56
REMARK SMILES IDX 56 57 71 58 91 59 54 60 55 61 70 63 92 64 57 65 40 66 41 67
REMARK SMILES IDX 50 68 42 69 43 70 49 71 51 72 44 73 45 74 46 75 47 76 48 77
REMARK SMILES IDX 74 78 75 79 84 80 76 81 77 82 83 83 85 84 78 85 79 86 80 87
REMARK SMILES IDX 81 88 82 89 58 90 59 91 68 92 60 93 61 94 67 95 69 96 62 97
REMARK SMILES IDX 63 98 64 99 65 100 66 101
REMARK H PARENT 23 6 12 15 28 32 90 51 56 62
REMARK Flexibility Score: inf
ROOT
ATOM      1  C   UNL A   1      37.356  22.465  24.813  1.00  0.00     0.023 C 
ENDROOT
BRANCH   1   2
ATOM      2  C   UNL A   1      36.206  21.463  24.702  1.00  0.00     0.116 C 
BRANCH   2   3
ATOM      3  N   UNL A   1      35.484  21.335  25.953  1.00  0.00    -0.356 N 
ATOM      4  C   UNL A   1      34.169  21.532  26.247  1.00  0.00     0.224 C 
ATOM      5  O   UNL A   1      33.820  21.287  27.403  1.00  0.00    -0.275 OA
ATOM      6  H   UNL A   1      36.037  21.061  26.719  1.00  0.00     0.163 HD
BRANCH   4   7
ATOM      7  C   UNL A   1      33.202  22.041  25.177  1.00  0.00     0.095 C 
ATOM      8  C   UNL A   1      33.264  23.581  25.081  1.00  0.00     0.095 C 
ATOM      9  C   UNL A   1      32.650  24.254  26.322  1.00  0.00     0.041 C 
ATOM     10  C   UNL A   1      31.371  23.619  26.781  1.00  0.00    -0.030 C 
ATOM     11  C   UNL A   1      31.773  21.526  25.465  1.00  0.00     0.041 C 
ATOM     12  C   UNL A   1      30.969  22.406  26.379  1.00  0.00    -0.030 C 
BRANCH   8  13
ATOM     13  C   UNL A   1      32.572  24.097  23.820  1.00  0.00     0.224 C 
ATOM     14  N   UNL A   1      32.658  25.411  23.491  1.00  0.00    -0.349 N 
ATOM     15  H   UNL A   1      31.970  25.714  22.855  1.00  0.00     0.164 HD
ATOM     16  O   UNL A   1      31.898  23.376  23.084  1.00  0.00    -0.275 OA
BRANCH  14  17
ATOM     17  C   UNL A   1      33.582  26.454  23.906  1.00  0.00     0.113 C 
ATOM     18  C   UNL A   1      33.848  27.373  22.709  1.00  0.00     0.036 C 
BRANCH  17  19
ATOM     19  C   UNL A   1      33.105  27.277  25.094  1.00  0.00     0.019 A 
ATOM     20  C   UNL A   1      31.771  27.694  25.295  1.00  0.00     0.124 A 
ATOM     21  C   UNL A   1      31.443  28.481  26.410  1.00  0.00     0.050 A 
ATOM     22  C   UNL A   1      32.434  28.897  27.301  1.00  0.00     0.043 A 
ATOM     23  C   UNL A   1      34.090  27.718  26.004  1.00  0.00     0.049 A 
ATOM     24  C   UNL A   1      33.748  28.519  27.085  1.00  0.00     0.123 A 
ATOM     25  F   UNL A   1      34.704  28.938  27.925  1.00  0.00    -0.207 F 
BRANCH  20  26
ATOM     26  O   UNL A   1      30.844  27.266  24.381  1.00  0.00    -0.496 OA
ATOM     27  C   UNL A   1      30.244  28.249  23.548  1.00  0.00     0.278 C 
ENDBRANCH  20  26
ENDBRANCH  17  19
ENDBRANCH  14  17
ENDBRANCH   8  13
ENDBRANCH   4   7
ENDBRANCH   2   3
ENDBRANCH   1   2
BRANCH   1  28
ATOM     28  C   UNL A   1      37.366  23.310  26.092  1.00  0.00     0.023 C 
BRANCH  28  29
ATOM     29  C   UNL A   1      38.354  24.474  26.108  1.00  0.00     0.116 C 
BRANCH  29  30
ATOM     30  N   UNL A   1      39.740  24.033  26.098  1.00  0.00    -0.352 N 
ATOM     31  C   UNL A   1      40.825  24.552  26.763  1.00  0.00     0.251 C 
ATOM     32  H   UNL A   1      39.928  23.249  25.534  1.00  0.00     0.163 HD
ATOM     33  O   UNL A   1      41.951  24.130  26.506  1.00  0.00    -0.269 OA
BRANCH  31  34
ATOM     34  C   UNL A   1      40.648  25.633  27.762  1.00  0.00     0.039 A 
ATOM     35  C   UNL A   1      39.546  25.585  28.619  1.00  0.00     0.014 A 
ATOM     36  C   UNL A   1      41.559  26.689  27.855  1.00  0.00     0.014 A 
ATOM     37  C   UNL A   1      39.397  26.554  29.615  1.00  0.00     0.010 A 
ATOM     38  C   UNL A   1      41.448  27.614  28.894  1.00  0.00     0.010 A 
ATOM     39  C   UNL A   1      40.370  27.554  29.790  1.00  0.00    -0.014 A 
BRANCH  39  40
ATOM     40  C   UNL A   1      40.281  28.530  30.908  1.00  0.00     0.031 A 
ATOM     41  C   UNL A   1      39.297  29.670  30.848  1.00  0.00     0.074 A 
ATOM     42  C   UNL A   1      41.121  28.420  31.959  1.00  0.00     0.049 A 
ATOM     43  N   UNL A   1      39.131  30.659  31.687  1.00  0.00    -0.248 NA
ATOM     44  C   UNL A   1      38.394  29.715  29.685  1.00  0.00     0.031 C 
ATOM     45  C   UNL A   1      42.138  27.379  32.124  1.00  0.00     0.029 A 
ATOM     46  N   UNL A   1      41.258  29.193  33.088  1.00  0.00    -0.354 N 
ATOM     47  C   UNL A   1      38.110  31.440  31.158  1.00  0.00     0.074 A 
ATOM     48  C   UNL A   1      37.730  30.843  29.896  1.00  0.00     0.031 C 
ATOM     49  C   UNL A   1      42.770  27.559  33.295  1.00  0.00     0.029 A 
ATOM     50  C   UNL A   1      42.242  28.754  33.945  1.00  0.00     0.049 A 
ATOM     51  H   UNL A   1      40.705  29.987  33.266  1.00  0.00     0.167 HD
ATOM     52  C   UNL A   1      37.523  32.538  31.689  1.00  0.00     0.037 A 
ATOM     53  C   UNL A   1      42.676  29.260  35.117  1.00  0.00     0.037 A 
ATOM     54  C   UNL A   1      37.883  33.114  32.959  1.00  0.00     0.049 A 
ATOM     55  C   UNL A   1      42.032  30.508  35.662  1.00  0.00     0.074 A 
ATOM     56  C   UNL A   1      37.319  34.208  33.593  1.00  0.00     0.029 A 
ATOM     57  N   UNL A   1      38.888  32.645  33.790  1.00  0.00    -0.354 N 
ATOM     58  N   UNL A   1      41.041  31.208  35.162  1.00  0.00    -0.248 NA
ATOM     59  C   UNL A   1      42.563  31.037  36.927  1.00  0.00     0.031 C 
ATOM     60  C   UNL A   1      38.011  34.427  34.786  1.00  0.00     0.029 A 
ATOM     61  C   UNL A   1      38.971  33.438  34.923  1.00  0.00     0.049 A 
ATOM     62  H   UNL A   1      39.459  31.865  33.603  1.00  0.00     0.167 HD
ATOM     63  C   UNL A   1      40.810  32.238  36.069  1.00  0.00     0.074 A 
ATOM     64  C   UNL A   1      41.753  32.063  37.152  1.00  0.00     0.031 C 
ATOM     65  C   UNL A   1      39.900  33.240  36.007  1.00  0.00     0.037 A 
BRANCH  52  66
ATOM     66  C   UNL A   1      36.400  33.188  30.928  1.00  0.00     0.058 A 
ATOM     67  C   UNL A   1      36.664  34.020  29.829  1.00  0.00     0.135 A 
ATOM     68  C   UNL A   1      35.071  33.087  31.369  1.00  0.00     0.135 A 
ATOM     69  F   UNL A   1      37.916  34.147  29.362  1.00  0.00    -0.206 F 
ATOM     70  C   UNL A   1      35.657  34.760  29.219  1.00  0.00     0.059 A 
ATOM     71  C   UNL A   1      34.043  33.798  30.757  1.00  0.00     0.059 A 
ATOM     72  F   UNL A   1      34.760  32.287  32.402  1.00  0.00    -0.206 F 
ATOM     73  C   UNL A   1      34.351  34.650  29.697  1.00  0.00     0.060 A 
BRANCH  73  74
ATOM     74  S   UNL A   1      33.060  35.639  28.912  1.00  0.00     0.124 S 
ATOM     75  O   UNL A   1      32.321  36.138  30.066  1.00  0.00    -0.237 OA
ATOM     76  O   UNL A   1      33.841  36.631  28.178  1.00  0.00    -0.237 OA
ATOM     77  O   UNL A   1      32.350  34.672  28.080  1.00  0.00    -0.744 OA
ENDBRANCH  73  74
ENDBRANCH  52  66
BRANCH  53  78
ATOM     78  C   UNL A   1      43.770  28.585  35.870  1.00  0.00     0.058 A 
ATOM     79  C   UNL A   1      45.110  28.979  35.730  1.00  0.00     0.135 A 
ATOM     80  C   UNL A   1      43.489  27.541  36.766  1.00  0.00     0.135 A 
ATOM     81  F   UNL A   1      45.437  29.964  34.880  1.00  0.00    -0.206 F 
ATOM     82  C   UNL A   1      46.130  28.358  36.442  1.00  0.00     0.059 A 
ATOM     83  C   UNL A   1      44.489  26.925  37.513  1.00  0.00     0.059 A 
ATOM     84  F   UNL A   1      42.222  27.135  36.944  1.00  0.00    -0.206 F 
ATOM     85  C   UNL A   1      45.809  27.336  37.337  1.00  0.00     0.060 A 
BRANCH  85  86
ATOM     86  S   UNL A   1      47.145  26.574  38.282  1.00  0.00     0.124 S 
ATOM     87  O   UNL A   1      48.178  27.601  38.209  1.00  0.00    -0.237 OA
ATOM     88  O   UNL A   1      46.526  26.386  39.590  1.00  0.00    -0.237 OA
ATOM     89  O   UNL A   1      47.425  25.347  37.541  1.00  0.00    -0.744 OA
ENDBRANCH  85  86
ENDBRANCH  53  78
BRANCH  65  90
ATOM     90  C   UNL A   1      39.839  34.210  37.154  1.00  0.00     0.058 A 
ATOM     91  C   UNL A   1      39.043  33.934  38.277  1.00  0.00     0.135 A 
ATOM     92  C   UNL A   1      40.494  35.451  37.105  1.00  0.00     0.135 A 
ATOM     93  F   UNL A   1      38.390  32.764  38.373  1.00  0.00    -0.206 F 
ATOM     94  C   UNL A   1      38.878  34.861  39.299  1.00  0.00     0.059 A 
ATOM     95  C   UNL A   1      40.367  36.382  38.131  1.00  0.00     0.059 A 
ATOM     96  F   UNL A   1      41.276  35.760  36.058  1.00  0.00    -0.206 F 
ATOM     97  C   UNL A   1      39.542  36.085  39.216  1.00  0.00     0.060 A 
BRANCH  97  98
ATOM     98  S   UNL A   1      39.319  37.277  40.553  1.00  0.00     0.124 S 
ATOM     99  O   UNL A   1      38.882  36.419  41.649  1.00  0.00    -0.237 OA
ATOM    100  O   UNL A   1      40.657  37.845  40.685  1.00  0.00    -0.237 OA
ATOM    101  O   UNL A   1      38.307  38.190  40.029  1.00  0.00    -0.744 OA
ENDBRANCH  97  98
ENDBRANCH  65  90
ENDBRANCH  39  40
ENDBRANCH  31  34
ENDBRANCH  29  30
ENDBRANCH  28  29
ENDBRANCH   1  28
TORSDOF 18
ENDMDL
MODEL 3
REMARK VINA RESULT:     -11.8      0.863      8.164
REMARK SMILES COc1ccc(F)cc1[C@H](C)NC(=O)[C@H]1CC=CC[C@@H]1C(=O)NCCCCNC(=O)c1ccc(-c2c3nc(c(-c4c(F)cc(S(=O)(=O)[O-])cc4F)c4ccc([nH]4)c(-c4c(F)cc(S(=O)(=O)[O-])cc4F)c4nc(c(-c5c(F)cc(S(=O)(=O)[O-])cc5F)c5ccc2[nH]5)C=C4)C=C3)cc1
REMARK SMILES IDX 25 1 24 2 23 3 21 4 22 5 20 7 15 8 16 9 17 10 19 11 18 12
REMARK SMILES IDX 13 13 12 14 14 16 10 17 11 18 9 19 3 20 4 21 5 22 8 23 6 24
REMARK SMILES IDX 7 25 2 26 1 27 26 28 27 29 28 30 29 31 30 33 31 34 32 35
REMARK SMILES IDX 96 36 33 37 95 38 34 39 35 40 36 41 89 42 37 43 94 44 88 45
REMARK SMILES IDX 90 46 38 47 93 48 87 49 86 50 39 52 73 53 52 54 72 55 53 56
REMARK SMILES IDX 56 57 71 58 91 59 54 60 55 61 70 63 92 64 57 65 40 66 41 67
REMARK SMILES IDX 50 68 42 69 43 70 49 71 51 72 44 73 45 74 46 75 47 76 48 77
REMARK SMILES IDX 74 78 75 79 84 80 76 81 77 82 83 83 85 84 78 85 79 86 80 87
REMARK SMILES IDX 81 88 82 89 58 90 59 91 68 92 60 93 61 94 67 95 69 96 62 97
REMARK SMILES IDX 63 98 64 99 65 100 66 101
REMARK H PARENT 23 6 12 15 28 32 90 51 56 62
REMARK Flexibility Score: inf
ROOT
ATOM      1  C   UNL A   1      38.363  23.945  26.268  1.00  0.00     0.023 C 
ENDROOT
BRANCH   1   2
ATOM      2  C   UNL A   1      37.086  23.458  25.582  1.00  0.00     0.116 C 
BRANCH   2   3
ATOM      3  N   UNL A   1      36.207  22.772  26.510  1.00  0.00    -0.356 N 
ATOM      4  C   UNL A   1      34.951  22.275  26.346  1.00  0.00     0.224 C 
ATOM      5  O   UNL A   1      34.464  21.678  27.307  1.00  0.00    -0.275 OA
ATOM      6  H   UNL A   1      36.583  22.645  27.410  1.00  0.00     0.163 HD
BRANCH   4   7
ATOM      7  C   UNL A   1      34.205  22.471  25.025  1.00  0.00     0.095 C 
ATOM      8  C   UNL A   1      33.483  23.836  25.011  1.00  0.00     0.095 C 
ATOM      9  C   UNL A   1      32.290  23.861  25.984  1.00  0.00     0.041 C 
ATOM     10  C   UNL A   1      31.458  22.614  25.949  1.00  0.00    -0.030 C 
ATOM     11  C   UNL A   1      33.237  21.291  24.782  1.00  0.00     0.041 C 
ATOM     12  C   UNL A   1      31.875  21.469  25.390  1.00  0.00    -0.030 C 
BRANCH   8  13
ATOM     13  C   UNL A   1      33.009  24.210  23.607  1.00  0.00     0.224 C 
ATOM     14  N   UNL A   1      33.014  25.509  23.214  1.00  0.00    -0.349 N 
ATOM     15  H   UNL A   1      32.440  25.698  22.436  1.00  0.00     0.164 HD
ATOM     16  O   UNL A   1      32.582  23.381  22.802  1.00  0.00    -0.275 OA
BRANCH  14  17
ATOM     17  C   UNL A   1      33.713  26.674  23.732  1.00  0.00     0.113 C 
ATOM     18  C   UNL A   1      33.775  27.735  22.630  1.00  0.00     0.036 C 
BRANCH  17  19
ATOM     19  C   UNL A   1      33.093  27.269  24.989  1.00  0.00     0.019 A 
ATOM     20  C   UNL A   1      31.706  27.443  25.191  1.00  0.00     0.124 A 
ATOM     21  C   UNL A   1      31.241  28.034  26.375  1.00  0.00     0.050 A 
ATOM     22  C   UNL A   1      32.139  28.497  27.340  1.00  0.00     0.043 A 
ATOM     23  C   UNL A   1      33.980  27.752  25.974  1.00  0.00     0.049 A 
ATOM     24  C   UNL A   1      33.499  28.359  27.126  1.00  0.00     0.123 A 
ATOM     25  F   UNL A   1      34.363  28.824  28.038  1.00  0.00    -0.207 F 
BRANCH  20  26
ATOM     26  O   UNL A   1      30.873  26.981  24.206  1.00  0.00    -0.496 OA
ATOM     27  C   UNL A   1      29.816  26.114  24.597  1.00  0.00     0.278 C 
ENDBRANCH  20  26
ENDBRANCH  17  19
ENDBRANCH  14  17
ENDBRANCH   8  13
ENDBRANCH   4   7
ENDBRANCH   2   3
ENDBRANCH   1   2
BRANCH   1  28
ATOM     28  C   UNL A   1      39.460  22.887  26.437  1.00  0.00     0.023 C 
BRANCH  28  29
ATOM     29  C   UNL A   1      40.822  23.412  26.882  1.00  0.00     0.116 C 
BRANCH  29  30
ATOM     30  N   UNL A   1      41.449  24.263  25.884  1.00  0.00    -0.352 N 
ATOM     31  C   UNL A   1      41.768  25.598  25.951  1.00  0.00     0.251 C 
ATOM     32  H   UNL A   1      41.680  23.817  25.037  1.00  0.00     0.163 HD
ATOM     33  O   UNL A   1      42.158  26.178  24.939  1.00  0.00    -0.269 OA
BRANCH  31  34
ATOM     34  C   UNL A   1      41.615  26.344  27.221  1.00  0.00     0.039 A 
ATOM     35  C   UNL A   1      42.497  27.392  27.498  1.00  0.00     0.014 A 
ATOM     36  C   UNL A   1      40.612  26.017  28.138  1.00  0.00     0.014 A 
ATOM     37  C   UNL A   1      42.328  28.156  28.656  1.00  0.00     0.010 A 
ATOM     38  C   UNL A   1      40.401  26.824  29.257  1.00  0.00     0.010 A 
ATOM     39  C   UNL A   1      41.252  27.906  29.526  1.00  0.00    -0.014 A 
BRANCH  39  40
ATOM     40  C   UNL A   1      40.996  28.774  30.707  1.00  0.00     0.031 A 
ATOM     41  C   UNL A   1      39.910  29.817  30.664  1.00  0.00     0.074 A 
ATOM     42  C   UNL A   1      41.775  28.656  31.803  1.00  0.00     0.049 A 
ATOM     43  N   UNL A   1      39.593  30.713  31.563  1.00  0.00    -0.248 NA
ATOM     44  C   UNL A   1      39.082  29.873  29.447  1.00  0.00     0.031 C 
ATOM     45  C   UNL A   1      42.878  27.705  31.960  1.00  0.00     0.029 A 
ATOM     46  N   UNL A   1      41.763  29.341  32.995  1.00  0.00    -0.354 N 
ATOM     47  C   UNL A   1      38.535  31.436  31.024  1.00  0.00     0.074 A 
ATOM     48  C   UNL A   1      38.298  30.912  29.697  1.00  0.00     0.031 C 
ATOM     49  C   UNL A   1      43.413  27.845  33.183  1.00  0.00     0.029 A 
ATOM     50  C   UNL A   1      42.729  28.927  33.883  1.00  0.00     0.049 A 
ATOM     51  H   UNL A   1      41.123  30.062  33.193  1.00  0.00     0.167 HD
ATOM     52  C   UNL A   1      37.810  32.426  31.594  1.00  0.00     0.037 A 
ATOM     53  C   UNL A   1      43.035  29.372  35.118  1.00  0.00     0.037 A 
ATOM     54  C   UNL A   1      38.030  32.926  32.927  1.00  0.00     0.049 A 
ATOM     55  C   UNL A   1      42.237  30.505  35.710  1.00  0.00     0.074 A 
ATOM     56  C   UNL A   1      37.320  33.905  33.602  1.00  0.00     0.029 A 
ATOM     57  N   UNL A   1      39.022  32.485  33.789  1.00  0.00    -0.354 N 
ATOM     58  N   UNL A   1      41.215  31.147  35.197  1.00  0.00    -0.248 NA
ATOM     59  C   UNL A   1      42.631  30.973  37.047  1.00  0.00     0.031 C 
ATOM     60  C   UNL A   1      37.910  34.088  34.855  1.00  0.00     0.029 A 
ATOM     61  C   UNL A   1      38.953  33.185  34.983  1.00  0.00     0.049 A 
ATOM     62  H   UNL A   1      39.678  31.780  33.584  1.00  0.00     0.167 HD
ATOM     63  C   UNL A   1      40.826  32.072  36.161  1.00  0.00     0.074 A 
ATOM     64  C   UNL A   1      41.712  31.896  37.292  1.00  0.00     0.031 C 
ATOM     65  C   UNL A   1      39.826  32.985  36.112  1.00  0.00     0.037 A 
BRANCH  52  66
ATOM     66  C   UNL A   1      36.678  33.028  30.808  1.00  0.00     0.058 A 
ATOM     67  C   UNL A   1      36.917  34.042  29.868  1.00  0.00     0.135 A 
ATOM     68  C   UNL A   1      35.343  32.688  31.080  1.00  0.00     0.135 A 
ATOM     69  F   UNL A   1      38.175  34.401  29.564  1.00  0.00    -0.206 F 
ATOM     70  C   UNL A   1      35.873  34.726  29.254  1.00  0.00     0.059 A 
ATOM     71  C   UNL A   1      34.283  33.341  30.459  1.00  0.00     0.059 A 
ATOM     72  F   UNL A   1      35.060  31.709  31.955  1.00  0.00    -0.206 F 
ATOM     73  C   UNL A   1      34.559  34.375  29.564  1.00  0.00     0.060 A 
BRANCH  73  74
ATOM     74  S   UNL A   1      33.214  35.292  28.781  1.00  0.00     0.124 S 
ATOM     75  O   UNL A   1      33.944  36.265  27.977  1.00  0.00    -0.237 OA
ATOM     76  O   UNL A   1      32.522  34.242  28.040  1.00  0.00    -0.237 OA
ATOM     77  O   UNL A   1      32.474  35.841  29.913  1.00  0.00    -0.744 OA
ENDBRANCH  73  74
ENDBRANCH  52  66
BRANCH  53  78
ATOM     78  C   UNL A   1      44.141  28.742  35.893  1.00  0.00     0.058 A 
ATOM     79  C   UNL A   1      45.464  29.198  35.787  1.00  0.00     0.135 A 
ATOM     80  C   UNL A   1      43.887  27.681  36.777  1.00  0.00     0.135 A 
ATOM     81  F   UNL A   1      45.767  30.202  34.951  1.00  0.00    -0.206 F 
ATOM     82  C   UNL A   1      46.495  28.619  36.520  1.00  0.00     0.059 A 
ATOM     83  C   UNL A   1      44.897  27.106  37.544  1.00  0.00     0.059 A 
ATOM     84  F   UNL A   1      42.636  27.217  36.923  1.00  0.00    -0.206 F 
ATOM     85  C   UNL A   1      46.200  27.578  37.402  1.00  0.00     0.060 A 
BRANCH  85  86
ATOM     86  S   UNL A   1      47.547  26.871  38.374  1.00  0.00     0.124 S 
ATOM     87  O   UNL A   1      48.029  28.041  39.099  1.00  0.00    -0.237 OA
ATOM     88  O   UNL A   1      46.852  25.868  39.173  1.00  0.00    -0.237 OA
ATOM     89  O   UNL A   1      48.455  26.342  37.359  1.00  0.00    -0.744 OA
ENDBRANCH  85  86
ENDBRANCH  53  78
BRANCH  65  90
ATOM     90  C   UNL A   1      39.597  33.847  37.323  1.00  0.00     0.058 A 
ATOM     91  C   UNL A   1      40.254  35.081  37.451  1.00  0.00     0.135 A 
ATOM     92  C   UNL A   1      38.802  33.414  38.396  1.00  0.00     0.135 A 
ATOM     93  F   UNL A   1      41.032  35.540  36.457  1.00  0.00    -0.206 F 
ATOM     94  C   UNL A   1      40.151  35.845  38.608  1.00  0.00     0.059 A 
ATOM     95  C   UNL A   1      38.660  34.176  39.551  1.00  0.00     0.059 A 
ATOM     96  F   UNL A   1      38.144  32.245  38.320  1.00  0.00    -0.206 F 
ATOM     97  C   UNL A   1      39.353  35.382  39.655  1.00  0.00     0.060 A 
BRANCH  97  98
ATOM     98  S   UNL A   1      39.229  36.387  41.149  1.00  0.00     0.124 S 
ATOM     99  O   UNL A   1      38.852  37.687  40.605  1.00  0.00    -0.237 OA
ATOM    100  O   UNL A   1      38.193  35.689  41.904  1.00  0.00    -0.237 OA
ATOM    101  O   UNL A   1      40.570  36.312  41.722  1.00  0.00    -0.744 OA
ENDBRANCH  97  98
ENDBRANCH  65  90
ENDBRANCH  39  40
ENDBRANCH  31  34
ENDBRANCH  29  30
ENDBRANCH  28  29
ENDBRANCH   1  28
TORSDOF 18
ENDMDL
