MODEL 1
REMARK VINA RESULT:     -10.5      0.000      0.000
REMARK SMILES C=Cc1cccc(-c2ccc([C@@H](C)C(=O)NCCCCNC(=O)c3ccc(-c4c5nc(c(-c6c(F)cc(S(=O)(=O)[O-])cc6F)c6ccc([nH]6)c(-c6c(F)cc(S(=O)(=O)[O-])cc6F)c6nc(c(-c7c(F)cc(S(=O)(=O)[O-])cc7F)c7ccc4[nH]7)C=C6)C=C5)cc3)cc2)c1
REMARK SMILES IDX 18 1 17 2 16 3 14 4 15 5 12 7 13 8 11 9 8 10 9 11 91 12
REMARK SMILES IDX 10 13 90 14 7 15 3 16 4 17 92 18 5 19 6 20 2 21 1 22 19 23
REMARK SMILES IDX 20 24 21 25 22 26 23 28 24 29 25 30 89 31 26 32 88 33 27 34
REMARK SMILES IDX 28 35 29 36 82 37 30 38 87 39 81 40 83 41 31 42 86 43 80 44
REMARK SMILES IDX 79 45 32 47 66 48 45 49 65 50 46 51 49 52 64 53 84 54 47 55
REMARK SMILES IDX 48 56 63 58 85 59 50 60 33 61 34 62 43 63 35 64 36 65 42 66
REMARK SMILES IDX 44 67 37 68 38 69 39 70 40 71 41 72 67 73 68 74 77 75 69 76
REMARK SMILES IDX 70 77 76 78 78 79 71 80 72 81 73 82 74 83 75 84 51 85 52 86
REMARK SMILES IDX 61 87 53 88 54 89 60 90 62 91 55 92 56 93 57 94 58 95 59 96
REMARK H PARENT 16 6 21 27 83 46 49 57
REMARK Flexibility Score: inf
ROOT
ATOM      1  C   UNL A   1      34.825  31.858  27.624  1.00  0.00     0.023 C 
ENDROOT
BRANCH   1   2
ATOM      2  C   UNL A   1      33.488  32.430  28.092  1.00  0.00     0.116 C 
BRANCH   2   3
ATOM      3  N   UNL A   1      33.593  33.820  28.488  1.00  0.00    -0.356 N 
ATOM      4  C   UNL A   1      34.176  34.405  29.570  1.00  0.00     0.227 C 
ATOM      5  O   UNL A   1      34.052  35.632  29.672  1.00  0.00    -0.274 OA
ATOM      6  H   UNL A   1      33.168  34.452  27.864  1.00  0.00     0.163 HD
BRANCH   4   7
ATOM      7  C   UNL A   1      34.972  33.629  30.633  1.00  0.00     0.105 C 
ATOM      8  C   UNL A   1      34.390  33.738  32.042  1.00  0.00     0.023 C 
BRANCH   7   9
ATOM      9  C   UNL A   1      36.476  33.803  30.502  1.00  0.00    -0.036 A 
ATOM     10  C   UNL A   1      39.260  34.363  30.132  1.00  0.00    -0.018 A 
ATOM     11  C   UNL A   1      38.679  34.308  31.409  1.00  0.00     0.009 A 
ATOM     12  C   UNL A   1      38.418  34.075  29.045  1.00  0.00     0.009 A 
ATOM     13  C   UNL A   1      37.323  34.001  31.595  1.00  0.00     0.005 A 
ATOM     14  C   UNL A   1      37.051  33.822  29.224  1.00  0.00     0.005 A 
BRANCH  10  15
ATOM     15  C   UNL A   1      40.685  34.733  29.942  1.00  0.00    -0.018 A 
ATOM     16  C   UNL A   1      42.510  35.567  28.512  1.00  0.00    -0.026 A 
ATOM     17  C   UNL A   1      43.395  35.473  29.589  1.00  0.00     0.008 A 
ATOM     18  C   UNL A   1      41.167  35.196  28.700  1.00  0.00     0.016 A 
ATOM     19  C   UNL A   1      42.946  35.028  30.829  1.00  0.00     0.001 A 
ATOM     20  C   UNL A   1      41.610  34.657  30.999  1.00  0.00     0.009 A 
BRANCH  16  21
ATOM     21  C   UNL A   1      43.028  35.998  27.207  1.00  0.00     0.000 C 
ATOM     22  C   UNL A   1      42.947  35.270  26.086  1.00  0.00     0.009 C 
ENDBRANCH  16  21
ENDBRANCH  10  15
ENDBRANCH   7   9
ENDBRANCH   4   7
ENDBRANCH   2   3
ENDBRANCH   1   2
BRANCH   1  23
ATOM     23  C   UNL A   1      34.872  30.335  27.506  1.00  0.00     0.023 C 
BRANCH  23  24
ATOM     24  C   UNL A   1      35.782  29.630  28.506  1.00  0.00     0.116 C 
BRANCH  24  25
ATOM     25  N   UNL A   1      35.625  30.087  29.879  1.00  0.00    -0.352 N 
ATOM     26  C   UNL A   1      36.610  30.303  30.819  1.00  0.00     0.251 C 
ATOM     27  H   UNL A   1      34.702  30.263  30.172  1.00  0.00     0.163 HD
ATOM     28  O   UNL A   1      36.319  30.617  31.964  1.00  0.00    -0.269 OA
BRANCH  26  29
ATOM     29  C   UNL A   1      38.023  30.099  30.429  1.00  0.00     0.039 A 
ATOM     30  C   UNL A   1      38.903  29.527  31.351  1.00  0.00     0.014 A 
ATOM     31  C   UNL A   1      38.453  30.408  29.137  1.00  0.00     0.014 A 
ATOM     32  C   UNL A   1      40.197  29.189  30.949  1.00  0.00     0.010 A 
ATOM     33  C   UNL A   1      39.715  30.005  28.719  1.00  0.00     0.010 A 
ATOM     34  C   UNL A   1      40.599  29.388  29.618  1.00  0.00    -0.014 A 
BRANCH  34  35
ATOM     35  C   UNL A   1      41.937  28.965  29.135  1.00  0.00     0.031 A 
ATOM     36  C   UNL A   1      43.044  29.978  29.029  1.00  0.00     0.074 A 
ATOM     37  C   UNL A   1      42.130  27.702  28.704  1.00  0.00     0.049 A 
ATOM     38  N   UNL A   1      44.235  29.851  28.506  1.00  0.00    -0.248 NA
ATOM     39  C   UNL A   1      42.756  31.326  29.549  1.00  0.00     0.031 C 
ATOM     40  C   UNL A   1      41.120  26.641  28.708  1.00  0.00     0.029 A 
ATOM     41  N   UNL A   1      43.237  27.101  28.161  1.00  0.00    -0.354 N 
ATOM     42  C   UNL A   1      44.827  31.104  28.608  1.00  0.00     0.074 A 
ATOM     43  C   UNL A   1      43.848  31.989  29.201  1.00  0.00     0.031 C 
ATOM     44  C   UNL A   1      41.659  25.518  28.206  1.00  0.00     0.029 A 
ATOM     45  C   UNL A   1      43.039  25.786  27.813  1.00  0.00     0.049 A 
ATOM     46  H   UNL A   1      44.095  27.569  28.033  1.00  0.00     0.167 HD
ATOM     47  C   UNL A   1      46.080  31.478  28.257  1.00  0.00     0.037 A 
ATOM     48  C   UNL A   1      43.873  24.899  27.235  1.00  0.00     0.037 A 
ATOM     49  C   UNL A   1      47.064  30.583  27.708  1.00  0.00     0.049 A 
ATOM     50  C   UNL A   1      45.273  25.329  26.888  1.00  0.00     0.074 A 
ATOM     51  C   UNL A   1      48.380  30.849  27.374  1.00  0.00     0.029 A 
ATOM     52  N   UNL A   1      46.842  29.243  27.426  1.00  0.00    -0.354 N 
ATOM     53  N   UNL A   1      45.832  26.507  27.032  1.00  0.00    -0.248 NA
ATOM     54  C   UNL A   1      46.157  24.310  26.306  1.00  0.00     0.031 C 
ATOM     55  C   UNL A   1      48.947  29.675  26.865  1.00  0.00     0.029 A 
ATOM     56  C   UNL A   1      47.994  28.671  26.917  1.00  0.00     0.049 A 
ATOM     57  H   UNL A   1      45.990  28.770  27.565  1.00  0.00     0.167 HD
ATOM     58  C   UNL A   1      47.142  26.362  26.588  1.00  0.00     0.074 A 
ATOM     59  C   UNL A   1      47.293  24.982  26.174  1.00  0.00     0.031 C 
ATOM     60  C   UNL A   1      48.130  27.289  26.531  1.00  0.00     0.037 A 
BRANCH  47  61
ATOM     61  C   UNL A   1      46.457  32.918  28.467  1.00  0.00     0.058 A 
ATOM     62  C   UNL A   1      46.311  33.872  27.447  1.00  0.00     0.135 A 
ATOM     63  C   UNL A   1      46.956  33.353  29.705  1.00  0.00     0.135 A 
ATOM     64  F   UNL A   1      45.855  33.504  26.239  1.00  0.00    -0.206 F 
ATOM     65  C   UNL A   1      46.680  35.199  27.635  1.00  0.00     0.059 A 
ATOM     66  C   UNL A   1      47.306  34.683  29.924  1.00  0.00     0.059 A 
ATOM     67  F   UNL A   1      47.116  32.483  30.714  1.00  0.00    -0.206 F 
ATOM     68  C   UNL A   1      47.181  35.594  28.876  1.00  0.00     0.060 A 
BRANCH  68  69
ATOM     69  S   UNL A   1      47.664  37.319  29.104  1.00  0.00     0.124 S 
ATOM     70  O   UNL A   1      46.682  38.006  28.272  1.00  0.00    -0.237 OA
ATOM     71  O   UNL A   1      47.511  37.501  30.544  1.00  0.00    -0.237 OA
ATOM     72  O   UNL A   1      49.038  37.352  28.615  1.00  0.00    -0.744 OA
ENDBRANCH  68  69
ENDBRANCH  47  61
BRANCH  48  73
ATOM     73  C   UNL A   1      43.416  23.509  26.976  1.00  0.00     0.058 A 
ATOM     74  C   UNL A   1      43.109  23.086  25.674  1.00  0.00     0.135 A 
ATOM     75  C   UNL A   1      43.291  22.574  28.014  1.00  0.00     0.135 A 
ATOM     76  F   UNL A   1      43.208  23.947  24.649  1.00  0.00    -0.206 F 
ATOM     77  C   UNL A   1      42.678  21.791  25.411  1.00  0.00     0.059 A 
ATOM     78  C   UNL A   1      42.882  21.266  27.773  1.00  0.00     0.059 A 
ATOM     79  F   UNL A   1      43.590  22.925  29.275  1.00  0.00    -0.206 F 
ATOM     80  C   UNL A   1      42.568  20.887  26.469  1.00  0.00     0.060 A 
BRANCH  80  81
ATOM     81  S   UNL A   1      42.055  19.191  26.110  1.00  0.00     0.124 S 
ATOM     82  O   UNL A   1      42.849  18.889  24.926  1.00  0.00    -0.237 OA
ATOM     83  O   UNL A   1      42.436  18.489  27.331  1.00  0.00    -0.237 OA
ATOM     84  O   UNL A   1      40.617  19.317  25.894  1.00  0.00    -0.744 OA
ENDBRANCH  80  81
ENDBRANCH  48  73
BRANCH  60  85
ATOM     85  C   UNL A   1      49.477  26.834  26.045  1.00  0.00     0.058 A 
ATOM     86  C   UNL A   1      49.879  27.014  24.714  1.00  0.00     0.135 A 
ATOM     87  C   UNL A   1      50.399  26.275  26.944  1.00  0.00     0.135 A 
ATOM     88  F   UNL A   1      49.031  27.538  23.816  1.00  0.00    -0.206 F 
ATOM     89  C   UNL A   1      51.149  26.642  24.286  1.00  0.00     0.059 A 
ATOM     90  C   UNL A   1      51.682  25.916  26.543  1.00  0.00     0.059 A 
ATOM     91  F   UNL A   1      50.064  26.092  28.231  1.00  0.00    -0.206 F 
ATOM     92  C   UNL A   1      52.045  26.097  25.208  1.00  0.00     0.060 A 
BRANCH  92  93
ATOM     93  S   UNL A   1      53.707  25.664  24.653  1.00  0.00     0.124 S 
ATOM     94  O   UNL A   1      54.533  26.306  25.670  1.00  0.00    -0.237 OA
ATOM     95  O   UNL A   1      53.680  24.205  24.685  1.00  0.00    -0.237 OA
ATOM     96  O   UNL A   1      53.782  26.253  23.318  1.00  0.00    -0.744 OA
ENDBRANCH  92  93
ENDBRANCH  60  85
ENDBRANCH  34  35
ENDBRANCH  26  29
ENDBRANCH  24  25
ENDBRANCH  23  24
ENDBRANCH   1  23
TORSDOF 17
ENDMDL
MODEL 2
REMARK VINA RESULT:     -10.4      3.401     11.062
REMARK SMILES C=Cc1cccc(-c2ccc([C@@H](C)C(=O)NCCCCNC(=O)c3ccc(-c4c5nc(c(-c6c(F)cc(S(=O)(=O)[O-])cc6F)c6ccc([nH]6)c(-c6c(F)cc(S(=O)(=O)[O-])cc6F)c6nc(c(-c7c(F)cc(S(=O)(=O)[O-])cc7F)c7ccc4[nH]7)C=C6)C=C5)cc3)cc2)c1
REMARK SMILES IDX 18 1 17 2 16 3 14 4 15 5 12 7 13 8 11 9 8 10 9 11 91 12
REMARK SMILES IDX 10 13 90 14 7 15 3 16 4 17 92 18 5 19 6 20 2 21 1 22 19 23
REMARK SMILES IDX 20 24 21 25 22 26 23 28 24 29 25 30 89 31 26 32 88 33 27 34
REMARK SMILES IDX 28 35 29 36 82 37 30 38 87 39 81 40 83 41 31 42 86 43 80 44
REMARK SMILES IDX 79 45 32 47 66 48 45 49 65 50 46 51 49 52 64 53 84 54 47 55
REMARK SMILES IDX 48 56 63 58 85 59 50 60 33 61 34 62 43 63 35 64 36 65 42 66
REMARK SMILES IDX 44 67 37 68 38 69 39 70 40 71 41 72 67 73 68 74 77 75 69 76
REMARK SMILES IDX 70 77 76 78 78 79 71 80 72 81 73 82 74 83 75 84 51 85 52 86
REMARK SMILES IDX 61 87 53 88 54 89 60 90 62 91 55 92 56 93 57 94 58 95 59 96
REMARK H PARENT 16 6 21 27 83 46 49 57
REMARK Flexibility Score: inf
ROOT
ATOM      1  C   UNL A   1      42.144  19.678  27.075  1.00  0.00     0.023 C 
ENDROOT
BRANCH   1   2
ATOM      2  C   UNL A   1      42.707  19.529  25.663  1.00  0.00     0.116 C 
BRANCH   2   3
ATOM      3  N   UNL A   1      44.115  19.865  25.594  1.00  0.00    -0.356 N 
ATOM      4  C   UNL A   1      44.752  21.068  25.579  1.00  0.00     0.227 C 
ATOM      5  O   UNL A   1      45.983  21.042  25.453  1.00  0.00    -0.274 OA
ATOM      6  H   UNL A   1      44.715  19.086  25.551  1.00  0.00     0.163 HD
BRANCH   4   7
ATOM      7  C   UNL A   1      44.029  22.417  25.722  1.00  0.00     0.105 C 
ATOM      8  C   UNL A   1      44.332  23.404  24.595  1.00  0.00     0.023 C 
BRANCH   7   9
ATOM      9  C   UNL A   1      44.065  22.970  27.138  1.00  0.00    -0.036 A 
ATOM     10  C   UNL A   1      44.218  24.243  29.698  1.00  0.00    -0.018 A 
ATOM     11  C   UNL A   1      42.994  23.823  29.151  1.00  0.00     0.009 A 
ATOM     12  C   UNL A   1      45.371  23.957  28.951  1.00  0.00     0.009 A 
ATOM     13  C   UNL A   1      42.921  23.170  27.912  1.00  0.00     0.005 A 
ATOM     14  C   UNL A   1      45.297  23.354  27.688  1.00  0.00     0.005 A 
BRANCH  10  15
ATOM     15  C   UNL A   1      44.281  24.974  30.990  1.00  0.00    -0.018 A 
ATOM     16  C   UNL A   1      44.038  27.054  32.287  1.00  0.00    -0.026 A 
ATOM     17  C   UNL A   1      44.365  26.362  33.455  1.00  0.00     0.008 A 
ATOM     18  C   UNL A   1      44.001  26.354  31.069  1.00  0.00     0.016 A 
ATOM     19  C   UNL A   1      44.636  24.997  33.410  1.00  0.00     0.001 A 
ATOM     20  C   UNL A   1      44.601  24.316  32.191  1.00  0.00     0.009 A 
BRANCH  16  21
ATOM     21  C   UNL A   1      43.802  28.501  32.366  1.00  0.00     0.000 C 
ATOM     22  C   UNL A   1      42.674  29.105  31.971  1.00  0.00     0.009 C 
ENDBRANCH  16  21
ENDBRANCH  10  15
ENDBRANCH   7   9
ENDBRANCH   4   7
ENDBRANCH   2   3
ENDBRANCH   1   2
BRANCH   1  23
ATOM     23  C   UNL A   1      40.781  20.363  27.160  1.00  0.00     0.023 C 
BRANCH  23  24
ATOM     24  C   UNL A   1      40.540  21.469  26.138  1.00  0.00     0.116 C 
BRANCH  24  25
ATOM     25  N   UNL A   1      39.137  21.807  25.946  1.00  0.00    -0.352 N 
ATOM     26  C   UNL A   1      38.511  23.008  26.202  1.00  0.00     0.251 C 
ATOM     27  H   UNL A   1      38.566  21.089  25.590  1.00  0.00     0.163 HD
ATOM     28  O   UNL A   1      37.302  23.121  26.062  1.00  0.00    -0.269 OA
BRANCH  26  29
ATOM     29  C   UNL A   1      39.323  24.142  26.697  1.00  0.00     0.039 A 
ATOM     30  C   UNL A   1      40.043  24.910  25.779  1.00  0.00     0.014 A 
ATOM     31  C   UNL A   1      39.312  24.483  28.051  1.00  0.00     0.014 A 
ATOM     32  C   UNL A   1      40.689  26.071  26.209  1.00  0.00     0.010 A 
ATOM     33  C   UNL A   1      39.894  25.675  28.463  1.00  0.00     0.010 A 
ATOM     34  C   UNL A   1      40.585  26.484  27.547  1.00  0.00    -0.014 A 
BRANCH  34  35
ATOM     35  C   UNL A   1      41.190  27.754  28.021  1.00  0.00     0.031 A 
ATOM     36  C   UNL A   1      42.684  27.923  27.992  1.00  0.00     0.074 A 
ATOM     37  C   UNL A   1      40.409  28.710  28.564  1.00  0.00     0.049 A 
ATOM     38  N   UNL A   1      43.417  28.887  28.483  1.00  0.00    -0.248 NA
ATOM     39  C   UNL A   1      43.457  26.843  27.357  1.00  0.00     0.031 C 
ATOM     40  C   UNL A   1      38.951  28.641  28.695  1.00  0.00     0.029 A 
ATOM     41  N   UNL A   1      40.734  29.920  29.123  1.00  0.00    -0.354 N 
ATOM     42  C   UNL A   1      44.735  28.518  28.242  1.00  0.00     0.074 A 
ATOM     43  C   UNL A   1      44.702  27.222  27.602  1.00  0.00     0.031 C 
ATOM     44  C   UNL A   1      38.509  29.766  29.282  1.00  0.00     0.029 A 
ATOM     45  C   UNL A   1      39.650  30.619  29.600  1.00  0.00     0.049 A 
ATOM     46  H   UNL A   1      41.658  30.257  29.176  1.00  0.00     0.167 HD
ATOM     47  C   UNL A   1      45.869  29.208  28.512  1.00  0.00     0.037 A 
ATOM     48  C   UNL A   1      39.585  31.807  30.231  1.00  0.00     0.037 A 
ATOM     49  C   UNL A   1      45.893  30.516  29.109  1.00  0.00     0.049 A 
ATOM     50  C   UNL A   1      40.856  32.571  30.487  1.00  0.00     0.074 A 
ATOM     51  C   UNL A   1      46.985  31.325  29.371  1.00  0.00     0.029 A 
ATOM     52  N   UNL A   1      44.769  31.215  29.525  1.00  0.00    -0.354 N 
ATOM     53  N   UNL A   1      42.092  32.228  30.212  1.00  0.00    -0.248 NA
ATOM     54  C   UNL A   1      40.725  33.885  31.133  1.00  0.00     0.031 C 
ATOM     55  C   UNL A   1      46.523  32.502  29.969  1.00  0.00     0.029 A 
ATOM     56  C   UNL A   1      45.141  32.441  30.046  1.00  0.00     0.049 A 
ATOM     57  H   UNL A   1      43.843  30.886  29.461  1.00  0.00     0.167 HD
ATOM     58  C   UNL A   1      42.883  33.296  30.622  1.00  0.00     0.074 A 
ATOM     59  C   UNL A   1      41.985  34.298  31.161  1.00  0.00     0.031 C 
ATOM     60  C   UNL A   1      44.230  33.434  30.557  1.00  0.00     0.037 A 
BRANCH  47  61
ATOM     61  C   UNL A   1      47.176  28.557  28.153  1.00  0.00     0.058 A 
ATOM     62  C   UNL A   1      47.833  27.691  29.041  1.00  0.00     0.135 A 
ATOM     63  C   UNL A   1      47.771  28.792  26.903  1.00  0.00     0.135 A 
ATOM     64  F   UNL A   1      47.315  27.448  30.256  1.00  0.00    -0.206 F 
ATOM     65  C   UNL A   1      49.053  27.107  28.717  1.00  0.00     0.059 A 
ATOM     66  C   UNL A   1      48.978  28.197  26.547  1.00  0.00     0.059 A 
ATOM     67  F   UNL A   1      47.185  29.612  26.018  1.00  0.00    -0.206 F 
ATOM     68  C   UNL A   1      49.620  27.370  27.469  1.00  0.00     0.060 A 
BRANCH  68  69
ATOM     69  S   UNL A   1      51.208  26.612  27.065  1.00  0.00     0.124 S 
ATOM     70  O   UNL A   1      52.024  27.787  26.774  1.00  0.00    -0.237 OA
ATOM     71  O   UNL A   1      51.540  25.901  28.296  1.00  0.00    -0.237 OA
ATOM     72  O   UNL A   1      50.896  25.763  25.920  1.00  0.00    -0.744 OA
ENDBRANCH  68  69
ENDBRANCH  47  61
BRANCH  48  73
ATOM     73  C   UNL A   1      38.268  32.363  30.636  1.00  0.00     0.058 A 
ATOM     74  C   UNL A   1      37.701  32.031  31.877  1.00  0.00     0.135 A 
ATOM     75  C   UNL A   1      37.556  33.241  29.806  1.00  0.00     0.135 A 
ATOM     76  F   UNL A   1      38.342  31.190  32.703  1.00  0.00    -0.206 F 
ATOM     77  C   UNL A   1      36.469  32.538  32.274  1.00  0.00     0.059 A 
ATOM     78  C   UNL A   1      36.331  33.778  30.191  1.00  0.00     0.059 A 
ATOM     79  F   UNL A   1      38.064  33.602  28.618  1.00  0.00    -0.206 F 
ATOM     80  C   UNL A   1      35.791  33.412  31.423  1.00  0.00     0.060 A 
BRANCH  80  81
ATOM     81  S   UNL A   1      34.213  34.105  31.969  1.00  0.00     0.124 S 
ATOM     82  O   UNL A   1      33.686  33.021  32.788  1.00  0.00    -0.237 OA
ATOM     83  O   UNL A   1      34.635  35.302  32.688  1.00  0.00    -0.237 OA
ATOM     84  O   UNL A   1      33.507  34.353  30.716  1.00  0.00    -0.744 OA
ENDBRANCH  80  81
ENDBRANCH  48  73
BRANCH  60  85
ATOM     85  C   UNL A   1      44.816  34.732  31.037  1.00  0.00     0.058 A 
ATOM     86  C   UNL A   1      44.958  35.836  30.184  1.00  0.00     0.135 A 
ATOM     87  C   UNL A   1      45.175  34.888  32.385  1.00  0.00     0.135 A 
ATOM     88  F   UNL A   1      44.635  35.732  28.885  1.00  0.00    -0.206 F 
ATOM     89  C   UNL A   1      45.450  37.050  30.649  1.00  0.00     0.059 A 
ATOM     90  C   UNL A   1      45.648  36.100  32.876  1.00  0.00     0.059 A 
ATOM     91  F   UNL A   1      45.049  33.863  33.242  1.00  0.00    -0.206 F 
ATOM     92  C   UNL A   1      45.789  37.175  31.998  1.00  0.00     0.060 A 
BRANCH  92  93
ATOM     93  S   UNL A   1      46.378  38.771  32.602  1.00  0.00     0.124 S 
ATOM     94  O   UNL A   1      47.666  38.407  33.183  1.00  0.00    -0.237 OA
ATOM     95  O   UNL A   1      46.435  39.568  31.381  1.00  0.00    -0.237 OA
ATOM     96  O   UNL A   1      45.348  39.172  33.556  1.00  0.00    -0.744 OA
ENDBRANCH  92  93
ENDBRANCH  60  85
ENDBRANCH  34  35
ENDBRANCH  26  29
ENDBRANCH  24  25
ENDBRANCH  23  24
ENDBRANCH   1  23
TORSDOF 17
ENDMDL
MODEL 3
REMARK VINA RESULT:     -10.3      6.386     13.057
REMARK SMILES C=Cc1cccc(-c2ccc([C@@H](C)C(=O)NCCCCNC(=O)c3ccc(-c4c5nc(c(-c6c(F)cc(S(=O)(=O)[O-])cc6F)c6ccc([nH]6)c(-c6c(F)cc(S(=O)(=O)[O-])cc6F)c6nc(c(-c7c(F)cc(S(=O)(=O)[O-])cc7F)c7ccc4[nH]7)C=C6)C=C5)cc3)cc2)c1
REMARK SMILES IDX 18 1 17 2 16 3 14 4 15 5 12 7 13 8 11 9 8 10 9 11 91 12
REMARK SMILES IDX 10 13 90 14 7 15 3 16 4 17 92 18 5 19 6 20 2 21 1 22 19 23
REMARK SMILES IDX 20 24 21 25 22 26 23 28 24 29 25 30 89 31 26 32 88 33 27 34
REMARK SMILES IDX 28 35 29 36 82 37 30 38 87 39 81 40 83 41 31 42 86 43 80 44
REMARK SMILES IDX 79 45 32 47 66 48 45 49 65 50 46 51 49 52 64 53 84 54 47 55
REMARK SMILES IDX 48 56 63 58 85 59 50 60 33 61 34 62 43 63 35 64 36 65 42 66
REMARK SMILES IDX 44 67 37 68 38 69 39 70 40 71 41 72 67 73 68 74 77 75 69 76
REMARK SMILES IDX 70 77 76 78 78 79 71 80 72 81 73 82 74 83 75 84 51 85 52 86
REMARK SMILES IDX 61 87 53 88 54 89 60 90 62 91 55 92 56 93 57 94 58 95 59 96
REMARK H PARENT 16 6 21 27 83 46 49 57
REMARK Flexibility Score: inf
ROOT
ATOM      1  C   UNL A   1      41.212  21.443  26.123  1.00  0.00     0.023 C 
ENDROOT
BRANCH   1   2
ATOM      2  C   UNL A   1      42.235  20.501  26.756  1.00  0.00     0.116 C 
BRANCH   2   3
ATOM      3  N   UNL A   1      43.558  20.663  26.188  1.00  0.00    -0.356 N 
ATOM      4  C   UNL A   1      44.253  21.779  25.832  1.00  0.00     0.227 C 
ATOM      5  O   UNL A   1      45.359  21.600  25.308  1.00  0.00    -0.274 OA
ATOM      6  H   UNL A   1      44.039  19.819  26.032  1.00  0.00     0.163 HD
BRANCH   4   7
ATOM      7  C   UNL A   1      43.741  23.211  26.061  1.00  0.00     0.105 C 
ATOM      8  C   UNL A   1      43.995  24.154  24.885  1.00  0.00     0.023 C 
BRANCH   7   9
ATOM      9  C   UNL A   1      44.063  23.749  27.447  1.00  0.00    -0.036 A 
ATOM     10  C   UNL A   1      44.696  24.507  30.134  1.00  0.00    -0.018 A 
ATOM     11  C   UNL A   1      45.537  24.829  29.055  1.00  0.00     0.009 A 
ATOM     12  C   UNL A   1      43.500  23.842  29.822  1.00  0.00     0.009 A 
ATOM     13  C   UNL A   1      45.212  24.487  27.734  1.00  0.00     0.005 A 
ATOM     14  C   UNL A   1      43.199  23.451  28.510  1.00  0.00     0.005 A 
BRANCH  10  15
ATOM     15  C   UNL A   1      45.071  24.833  31.533  1.00  0.00    -0.018 A 
ATOM     16  C   UNL A   1      44.851  24.440  33.956  1.00  0.00    -0.026 A 
ATOM     17  C   UNL A   1      45.808  25.426  34.201  1.00  0.00     0.008 A 
ATOM     18  C   UNL A   1      44.493  24.154  32.627  1.00  0.00     0.016 A 
ATOM     19  C   UNL A   1      46.403  26.106  33.141  1.00  0.00     0.001 A 
ATOM     20  C   UNL A   1      46.032  25.816  31.827  1.00  0.00     0.009 A 
BRANCH  16  21
ATOM     21  C   UNL A   1      44.212  23.775  35.099  1.00  0.00     0.000 C 
ATOM     22  C   UNL A   1      44.856  23.410  36.216  1.00  0.00     0.009 C 
ENDBRANCH  16  21
ENDBRANCH  10  15
ENDBRANCH   7   9
ENDBRANCH   4   7
ENDBRANCH   2   3
ENDBRANCH   1   2
BRANCH   1  23
ATOM     23  C   UNL A   1      40.038  21.824  27.024  1.00  0.00     0.023 C 
BRANCH  23  24
ATOM     24  C   UNL A   1      39.809  23.321  27.201  1.00  0.00     0.116 C 
BRANCH  24  25
ATOM     25  N   UNL A   1      40.360  24.138  26.129  1.00  0.00    -0.352 N 
ATOM     26  C   UNL A   1      40.808  25.441  26.199  1.00  0.00     0.251 C 
ATOM     27  H   UNL A   1      40.418  23.708  25.246  1.00  0.00     0.163 HD
ATOM     28  O   UNL A   1      41.176  26.026  25.192  1.00  0.00    -0.269 OA
BRANCH  26  29
ATOM     29  C   UNL A   1      40.788  26.130  27.509  1.00  0.00     0.039 A 
ATOM     30  C   UNL A   1      41.876  26.930  27.868  1.00  0.00     0.014 A 
ATOM     31  C   UNL A   1      39.670  26.040  28.340  1.00  0.00     0.014 A 
ATOM     32  C   UNL A   1      41.807  27.705  29.027  1.00  0.00     0.010 A 
ATOM     33  C   UNL A   1      39.575  26.866  29.453  1.00  0.00     0.010 A 
ATOM     34  C   UNL A   1      40.639  27.710  29.807  1.00  0.00    -0.014 A 
BRANCH  34  35
ATOM     35  C   UNL A   1      40.499  28.583  30.999  1.00  0.00     0.031 A 
ATOM     36  C   UNL A   1      39.478  29.687  30.997  1.00  0.00     0.074 A 
ATOM     37  C   UNL A   1      41.348  28.445  32.038  1.00  0.00     0.049 A 
ATOM     38  N   UNL A   1      39.289  30.640  31.871  1.00  0.00    -0.248 NA
ATOM     39  C   UNL A   1      38.574  29.747  29.836  1.00  0.00     0.031 C 
ATOM     40  C   UNL A   1      42.413  27.445  32.136  1.00  0.00     0.029 A 
ATOM     41  N   UNL A   1      41.460  29.162  33.202  1.00  0.00    -0.354 N 
ATOM     42  C   UNL A   1      38.267  31.428  31.354  1.00  0.00     0.074 A 
ATOM     43  C   UNL A   1      37.907  30.867  30.070  1.00  0.00     0.031 C 
ATOM     44  C   UNL A   1      43.059  27.603  33.303  1.00  0.00     0.029 A 
ATOM     45  C   UNL A   1      42.479  28.734  34.020  1.00  0.00     0.049 A 
ATOM     46  H   UNL A   1      40.864  29.912  33.432  1.00  0.00     0.167 HD
ATOM     47  C   UNL A   1      37.668  32.508  31.909  1.00  0.00     0.037 A 
ATOM     48  C   UNL A   1      42.904  29.207  35.208  1.00  0.00     0.037 A 
ATOM     49  C   UNL A   1      38.000  33.035  33.206  1.00  0.00     0.049 A 
ATOM     50  C   UNL A   1      42.199  30.386  35.822  1.00  0.00     0.074 A 
ATOM     51  C   UNL A   1      37.414  34.089  33.884  1.00  0.00     0.029 A 
ATOM     52  N   UNL A   1      39.000  32.537  34.028  1.00  0.00    -0.354 N 
ATOM     53  N   UNL A   1      41.203  31.092  35.340  1.00  0.00    -0.248 NA
ATOM     54  C   UNL A   1      42.669  30.831  37.141  1.00  0.00     0.031 C 
ATOM     55  C   UNL A   1      38.077  34.244  35.106  1.00  0.00     0.029 A 
ATOM     56  C   UNL A   1      39.051  33.264  35.204  1.00  0.00     0.049 A 
ATOM     57  H   UNL A   1      39.588  31.778  33.807  1.00  0.00     0.167 HD
ATOM     58  C   UNL A   1      40.908  32.043  36.310  1.00  0.00     0.074 A 
ATOM     59  C   UNL A   1      41.827  31.820  37.408  1.00  0.00     0.031 C 
ATOM     60  C   UNL A   1      39.960  33.012  36.293  1.00  0.00     0.037 A 
BRANCH  47  61
ATOM     61  C   UNL A   1      36.586  33.184  31.114  1.00  0.00     0.058 A 
ATOM     62  C   UNL A   1      36.882  33.960  29.982  1.00  0.00     0.135 A 
ATOM     63  C   UNL A   1      35.238  33.044  31.479  1.00  0.00     0.135 A 
ATOM     64  F   UNL A   1      38.158  34.140  29.601  1.00  0.00    -0.206 F 
ATOM     65  C   UNL A   1      35.883  34.603  29.260  1.00  0.00     0.059 A 
ATOM     66  C   UNL A   1      34.219  33.657  30.754  1.00  0.00     0.059 A 
ATOM     67  F   UNL A   1      34.899  32.315  32.552  1.00  0.00    -0.206 F 
ATOM     68  C   UNL A   1      34.554  34.449  29.657  1.00  0.00     0.060 A 
BRANCH  68  69
ATOM     69  S   UNL A   1      33.268  35.297  28.715  1.00  0.00     0.124 S 
ATOM     70  O   UNL A   1      34.062  36.202  27.891  1.00  0.00    -0.237 OA
ATOM     71  O   UNL A   1      32.621  34.197  28.005  1.00  0.00    -0.237 OA
ATOM     72  O   UNL A   1      32.457  35.933  29.748  1.00  0.00    -0.744 OA
ENDBRANCH  68  69
ENDBRANCH  47  61
BRANCH  48  73
ATOM     73  C   UNL A   1      44.034  28.546  35.910  1.00  0.00     0.058 A 
ATOM     74  C   UNL A   1      45.353  28.988  35.721  1.00  0.00     0.135 A 
ATOM     75  C   UNL A   1      43.824  27.473  36.789  1.00  0.00     0.135 A 
ATOM     76  F   UNL A   1      45.604  30.007  34.884  1.00  0.00    -0.206 F 
ATOM     77  C   UNL A   1      46.425  28.382  36.366  1.00  0.00     0.059 A 
ATOM     78  C   UNL A   1      44.879  26.864  37.463  1.00  0.00     0.059 A 
ATOM     79  F   UNL A   1      42.580  27.025  37.017  1.00  0.00    -0.206 F 
ATOM     80  C   UNL A   1      46.177  27.319  37.237  1.00  0.00     0.060 A 
BRANCH  80  81
ATOM     81  S   UNL A   1      47.571  26.569  38.109  1.00  0.00     0.124 S 
ATOM     82  O   UNL A   1      48.315  25.968  37.009  1.00  0.00    -0.237 OA
ATOM     83  O   UNL A   1      48.194  27.726  38.745  1.00  0.00    -0.237 OA
ATOM     84  O   UNL A   1      46.927  25.633  39.025  1.00  0.00    -0.744 OA
ENDBRANCH  80  81
ENDBRANCH  48  73
BRANCH  60  85
ATOM     85  C   UNL A   1      39.833  33.877  37.515  1.00  0.00     0.058 A 
ATOM     86  C   UNL A   1      40.482  35.117  37.610  1.00  0.00     0.135 A 
ATOM     87  C   UNL A   1      38.995  33.488  38.572  1.00  0.00     0.135 A 
ATOM     88  F   UNL A   1      41.299  35.529  36.629  1.00  0.00    -0.206 F 
ATOM     89  C   UNL A   1      40.315  35.937  38.721  1.00  0.00     0.059 A 
ATOM     90  C   UNL A   1      38.796  34.302  39.682  1.00  0.00     0.059 A 
ATOM     91  F   UNL A   1      38.344  32.315  38.523  1.00  0.00    -0.206 F 
ATOM     92  C   UNL A   1      39.467  35.523  39.750  1.00  0.00     0.060 A 
BRANCH  92  93
ATOM     93  S   UNL A   1      39.218  36.618  41.164  1.00  0.00     0.124 S 
ATOM     94  O   UNL A   1      38.159  35.925  41.889  1.00  0.00    -0.237 OA
ATOM     95  O   UNL A   1      40.531  36.614  41.801  1.00  0.00    -0.237 OA
ATOM     96  O   UNL A   1      38.833  37.885  40.546  1.00  0.00    -0.744 OA
ENDBRANCH  92  93
ENDBRANCH  60  85
ENDBRANCH  34  35
ENDBRANCH  26  29
ENDBRANCH  24  25
ENDBRANCH  23  24
ENDBRANCH   1  23
TORSDOF 17
ENDMDL
