MODEL 1
REMARK VINA RESULT:     -13.0      0.000      0.000
REMARK SMILES CS(=O)(=O)c1ccc(/C=C(/C(=O)NCCCCNC(=O)c2ccc(-c3c4nc(c(-c5c(F)cc(S(=O)(=O)[O-])cc5F)c5ccc([nH]5)c(-c5c(F)cc(S(=O)(=O)[O-])cc5F)c5nc(c(-c6c(F)cc(S(=O)(=O)[O-])cc6F)c6ccc3[nH]6)C=C5)C=C4)cc2)c2ccc(-c3ccc(F)cc3F)cc2)cc1
REMARK SMILES IDX 16 1 15 2 14 3 13 4 11 5 12 6 10 8 9 9 8 10 5 11 6 12 102 13
REMARK SMILES IDX 7 14 101 15 2 16 1 17 3 18 4 19 87 20 88 21 100 22 89 23
REMARK SMILES IDX 99 24 90 25 91 26 92 27 97 28 93 29 96 30 98 31 94 32 95 33
REMARK SMILES IDX 17 34 18 35 19 36 20 38 21 39 22 40 86 41 23 42 85 43 24 44
REMARK SMILES IDX 25 45 26 46 79 47 27 48 84 49 78 50 80 51 28 52 83 53 77 54
REMARK SMILES IDX 76 55 29 57 63 58 42 59 62 60 43 61 46 62 61 63 81 64 44 65
REMARK SMILES IDX 45 66 60 68 82 69 47 70 30 71 31 72 40 73 32 74 33 75 39 76
REMARK SMILES IDX 41 77 34 78 35 79 36 80 37 81 38 82 64 83 65 84 74 85 66 86
REMARK SMILES IDX 67 87 73 88 75 89 68 90 69 91 70 92 71 93 72 94 48 95 49 96
REMARK SMILES IDX 58 97 50 98 51 99 57 100 59 101 52 102 53 103 54 104 55 105
REMARK SMILES IDX 56 106
REMARK H PARENT 13 7 18 37 80 56 46 67
REMARK Flexibility Score: inf
ROOT
ATOM      1  C   UNL A   1      33.394  28.202  25.023  1.00  0.00     0.023 C 
ENDROOT
BRANCH   1   2
ATOM      2  C   UNL A   1      31.925  27.821  25.240  1.00  0.00     0.023 C 
BRANCH   2   3
ATOM      3  C   UNL A   1      31.470  26.622  24.405  1.00  0.00     0.116 C 
BRANCH   3   4
ATOM      4  N   UNL A   1      32.159  26.620  23.133  1.00  0.00    -0.352 N 
ATOM      5  C   UNL A   1      32.984  25.739  22.512  1.00  0.00     0.251 C 
ATOM      6  O   UNL A   1      33.461  26.113  21.438  1.00  0.00    -0.269 OA
ATOM      7  H   UNL A   1      31.993  27.434  22.603  1.00  0.00     0.163 HD
BRANCH   5   8
ATOM      8  C   UNL A   1      33.257  24.339  23.023  1.00  0.00     0.047 C 
ATOM      9  C   UNL A   1      32.288  23.404  23.152  1.00  0.00     0.022 C 
BRANCH   9  10
ATOM     10  C   UNL A   1      32.385  21.961  23.478  1.00  0.00    -0.025 A 
ATOM     11  C   UNL A   1      32.731  19.200  23.848  1.00  0.00     0.067 A 
ATOM     12  C   UNL A   1      32.969  20.078  24.905  1.00  0.00     0.021 A 
ATOM     13  C   UNL A   1      32.288  19.677  22.616  1.00  0.00     0.021 A 
ATOM     14  C   UNL A   1      32.754  21.448  24.727  1.00  0.00     0.009 A 
ATOM     15  C   UNL A   1      32.117  21.053  22.438  1.00  0.00     0.009 A 
BRANCH  11  16
ATOM     16  S   UNL A   1      33.028  17.464  24.070  1.00  0.00     0.175 S 
ATOM     17  C   UNL A   1      34.729  17.418  24.564  1.00  0.00     0.163 C 
ATOM     18  O   UNL A   1      32.914  16.827  22.774  1.00  0.00    -0.224 OA
ATOM     19  O   UNL A   1      32.222  17.016  25.192  1.00  0.00    -0.224 OA
ENDBRANCH  11  16
ENDBRANCH   9  10
BRANCH   8  20
ATOM     20  C   UNL A   1      34.609  24.097  23.587  1.00  0.00    -0.013 A 
ATOM     21  C   UNL A   1      34.844  24.517  24.902  1.00  0.00     0.009 A 
ATOM     22  C   UNL A   1      35.604  23.373  22.924  1.00  0.00     0.009 A 
ATOM     23  C   UNL A   1      36.011  24.158  25.570  1.00  0.00     0.009 A 
ATOM     24  C   UNL A   1      36.765  22.985  23.612  1.00  0.00     0.009 A 
ATOM     25  C   UNL A   1      36.973  23.340  24.958  1.00  0.00    -0.015 A 
BRANCH  25  26
ATOM     26  C   UNL A   1      38.124  22.848  25.739  1.00  0.00     0.018 A 
ATOM     27  C   UNL A   1      38.811  23.719  26.613  1.00  0.00     0.015 A 
ATOM     28  C   UNL A   1      38.590  21.527  25.650  1.00  0.00     0.133 A 
ATOM     29  C   UNL A   1      39.923  23.290  27.341  1.00  0.00     0.040 A 
ATOM     30  C   UNL A   1      39.696  21.089  26.375  1.00  0.00     0.079 A 
ATOM     31  F   UNL A   1      37.982  20.644  24.844  1.00  0.00    -0.206 F 
ATOM     32  C   UNL A   1      40.356  21.978  27.211  1.00  0.00     0.126 A 
ATOM     33  F   UNL A   1      41.425  21.567  27.903  1.00  0.00    -0.207 F 
ENDBRANCH  25  26
ENDBRANCH   8  20
ENDBRANCH   5   8
ENDBRANCH   3   4
ENDBRANCH   2   3
ENDBRANCH   1   2
BRANCH   1  34
ATOM     34  C   UNL A   1      34.136  28.611  26.289  1.00  0.00     0.116 C 
BRANCH  34  35
ATOM     35  N   UNL A   1      33.913  30.003  26.654  1.00  0.00    -0.352 N 
ATOM     36  C   UNL A   1      34.662  30.777  27.510  1.00  0.00     0.251 C 
ATOM     37  H   UNL A   1      33.136  30.442  26.239  1.00  0.00     0.163 HD
ATOM     38  O   UNL A   1      34.291  31.900  27.830  1.00  0.00    -0.269 OA
BRANCH  36  39
ATOM     39  C   UNL A   1      35.903  30.198  28.057  1.00  0.00     0.039 A 
ATOM     40  C   UNL A   1      37.101  30.365  27.359  1.00  0.00     0.014 A 
ATOM     41  C   UNL A   1      35.882  29.589  29.314  1.00  0.00     0.014 A 
ATOM     42  C   UNL A   1      38.300  29.982  27.961  1.00  0.00     0.010 A 
ATOM     43  C   UNL A   1      37.082  29.283  29.940  1.00  0.00     0.010 A 
ATOM     44  C   UNL A   1      38.302  29.476  29.271  1.00  0.00    -0.014 A 
BRANCH  44  45
ATOM     45  C   UNL A   1      39.557  29.117  29.980  1.00  0.00     0.031 A 
ATOM     46  C   UNL A   1      39.942  29.886  31.214  1.00  0.00     0.074 A 
ATOM     47  C   UNL A   1      40.391  28.194  29.462  1.00  0.00     0.049 A 
ATOM     48  N   UNL A   1      41.069  29.878  31.875  1.00  0.00    -0.248 NA
ATOM     49  C   UNL A   1      38.934  30.816  31.752  1.00  0.00     0.031 C 
ATOM     50  C   UNL A   1      40.137  27.401  28.257  1.00  0.00     0.029 A 
ATOM     51  N   UNL A   1      41.638  27.787  29.868  1.00  0.00    -0.354 N 
ATOM     52  C   UNL A   1      40.917  30.819  32.887  1.00  0.00     0.074 A 
ATOM     53  C   UNL A   1      39.609  31.414  32.721  1.00  0.00     0.031 C 
ATOM     54  C   UNL A   1      41.191  26.600  28.027  1.00  0.00     0.029 A 
ATOM     55  C   UNL A   1      42.217  26.860  29.033  1.00  0.00     0.049 A 
ATOM     56  H   UNL A   1      42.076  28.127  30.681  1.00  0.00     0.167 HD
ATOM     57  C   UNL A   1      41.783  31.142  33.874  1.00  0.00     0.037 A 
ATOM     58  C   UNL A   1      43.445  26.305  29.059  1.00  0.00     0.037 A 
ATOM     59  C   UNL A   1      43.070  30.522  34.043  1.00  0.00     0.049 A 
ATOM     60  C   UNL A   1      44.404  26.697  30.154  1.00  0.00     0.074 A 
ATOM     61  C   UNL A   1      44.004  30.742  35.040  1.00  0.00     0.029 A 
ATOM     62  N   UNL A   1      43.605  29.564  33.194  1.00  0.00    -0.354 N 
ATOM     63  N   UNL A   1      44.229  27.556  31.130  1.00  0.00    -0.248 NA
ATOM     64  C   UNL A   1      45.723  26.049  30.155  1.00  0.00     0.031 C 
ATOM     65  C   UNL A   1      45.125  29.956  34.764  1.00  0.00     0.029 A 
ATOM     66  C   UNL A   1      44.864  29.196  33.635  1.00  0.00     0.049 A 
ATOM     67  H   UNL A   1      43.156  29.200  32.398  1.00  0.00     0.167 HD
ATOM     68  C   UNL A   1      45.397  27.518  31.886  1.00  0.00     0.074 A 
ATOM     69  C   UNL A   1      46.274  26.557  31.250  1.00  0.00     0.031 C 
ATOM     70  C   UNL A   1      45.709  28.209  33.008  1.00  0.00     0.037 A 
BRANCH  57  71
ATOM     71  C   UNL A   1      41.371  32.214  34.845  1.00  0.00     0.058 A 
ATOM     72  C   UNL A   1      41.693  33.564  34.636  1.00  0.00     0.135 A 
ATOM     73  C   UNL A   1      40.614  31.890  35.983  1.00  0.00     0.135 A 
ATOM     74  F   UNL A   1      42.430  33.929  33.574  1.00  0.00    -0.206 F 
ATOM     75  C   UNL A   1      41.306  34.552  35.536  1.00  0.00     0.059 A 
ATOM     76  C   UNL A   1      40.187  32.866  36.878  1.00  0.00     0.059 A 
ATOM     77  F   UNL A   1      40.278  30.615  36.233  1.00  0.00    -0.206 F 
ATOM     78  C   UNL A   1      40.552  34.193  36.654  1.00  0.00     0.060 A 
BRANCH  78  79
ATOM     79  S   UNL A   1      40.053  35.489  37.806  1.00  0.00     0.124 S 
ATOM     80  O   UNL A   1      39.915  36.635  36.913  1.00  0.00    -0.237 OA
ATOM     81  O   UNL A   1      38.809  34.957  38.352  1.00  0.00    -0.237 OA
ATOM     82  O   UNL A   1      41.168  35.557  38.745  1.00  0.00    -0.744 OA
ENDBRANCH  78  79
ENDBRANCH  57  71
BRANCH  58  83
ATOM     83  C   UNL A   1      43.839  25.311  28.021  1.00  0.00     0.058 A 
ATOM     84  C   UNL A   1      44.361  25.726  26.787  1.00  0.00     0.135 A 
ATOM     85  C   UNL A   1      43.709  23.930  28.243  1.00  0.00     0.135 A 
ATOM     86  F   UNL A   1      44.498  27.035  26.524  1.00  0.00    -0.206 F 
ATOM     87  C   UNL A   1      44.724  24.813  25.803  1.00  0.00     0.059 A 
ATOM     88  C   UNL A   1      44.093  22.996  27.284  1.00  0.00     0.059 A 
ATOM     89  F   UNL A   1      43.231  23.478  29.412  1.00  0.00    -0.206 F 
ATOM     90  C   UNL A   1      44.588  23.448  26.062  1.00  0.00     0.060 A 
BRANCH  90  91
ATOM     91  S   UNL A   1      45.104  22.272  24.792  1.00  0.00     0.124 S 
ATOM     92  O   UNL A   1      45.408  23.158  23.676  1.00  0.00    -0.237 OA
ATOM     93  O   UNL A   1      46.249  21.624  25.424  1.00  0.00    -0.237 OA
ATOM     94  O   UNL A   1      43.928  21.423  24.624  1.00  0.00    -0.744 OA
ENDBRANCH  90  91
ENDBRANCH  58  83
BRANCH  70  95
ATOM     95  C   UNL A   1      47.022  27.915  33.682  1.00  0.00     0.058 A 
ATOM     96  C   UNL A   1      48.179  28.658  33.411  1.00  0.00     0.135 A 
ATOM     97  C   UNL A   1      47.080  26.956  34.708  1.00  0.00     0.135 A 
ATOM     98  F   UNL A   1      48.180  29.579  32.436  1.00  0.00    -0.206 F 
ATOM     99  C   UNL A   1      49.349  28.465  34.141  1.00  0.00     0.059 A 
ATOM    100  C   UNL A   1      48.228  26.767  35.467  1.00  0.00     0.059 A 
ATOM    101  F   UNL A   1      45.994  26.224  35.010  1.00  0.00    -0.206 F 
ATOM    102  C   UNL A   1      49.359  27.529  35.177  1.00  0.00     0.060 A 
BRANCH 102 103
ATOM    103  S   UNL A   1      50.853  27.360  36.177  1.00  0.00     0.124 S 
ATOM    104  O   UNL A   1      50.357  26.603  37.321  1.00  0.00    -0.237 OA
ATOM    105  O   UNL A   1      51.748  26.638  35.277  1.00  0.00    -0.237 OA
ATOM    106  O   UNL A   1      51.235  28.742  36.455  1.00  0.00    -0.744 OA
ENDBRANCH 102 103
ENDBRANCH  70  95
ENDBRANCH  44  45
ENDBRANCH  36  39
ENDBRANCH  34  35
ENDBRANCH   1  34
TORSDOF 18
ENDMDL
MODEL 2
REMARK VINA RESULT:     -11.9      1.203      7.978
REMARK SMILES CS(=O)(=O)c1ccc(/C=C(/C(=O)NCCCCNC(=O)c2ccc(-c3c4nc(c(-c5c(F)cc(S(=O)(=O)[O-])cc5F)c5ccc([nH]5)c(-c5c(F)cc(S(=O)(=O)[O-])cc5F)c5nc(c(-c6c(F)cc(S(=O)(=O)[O-])cc6F)c6ccc3[nH]6)C=C5)C=C4)cc2)c2ccc(-c3ccc(F)cc3F)cc2)cc1
REMARK SMILES IDX 16 1 15 2 14 3 13 4 11 5 12 6 10 8 9 9 8 10 5 11 6 12 102 13
REMARK SMILES IDX 7 14 101 15 2 16 1 17 3 18 4 19 87 20 88 21 100 22 89 23
REMARK SMILES IDX 99 24 90 25 91 26 92 27 97 28 93 29 96 30 98 31 94 32 95 33
REMARK SMILES IDX 17 34 18 35 19 36 20 38 21 39 22 40 86 41 23 42 85 43 24 44
REMARK SMILES IDX 25 45 26 46 79 47 27 48 84 49 78 50 80 51 28 52 83 53 77 54
REMARK SMILES IDX 76 55 29 57 63 58 42 59 62 60 43 61 46 62 61 63 81 64 44 65
REMARK SMILES IDX 45 66 60 68 82 69 47 70 30 71 31 72 40 73 32 74 33 75 39 76
REMARK SMILES IDX 41 77 34 78 35 79 36 80 37 81 38 82 64 83 65 84 74 85 66 86
REMARK SMILES IDX 67 87 73 88 75 89 68 90 69 91 70 92 71 93 72 94 48 95 49 96
REMARK SMILES IDX 58 97 50 98 51 99 57 100 59 101 52 102 53 103 54 104 55 105
REMARK SMILES IDX 56 106
REMARK H PARENT 13 7 18 37 80 56 46 67
REMARK Flexibility Score: inf
ROOT
ATOM      1  C   UNL A   1      33.980  27.390  26.080  1.00  0.00     0.023 C 
ENDROOT
BRANCH   1   2
ATOM      2  C   UNL A   1      32.551  27.398  26.633  1.00  0.00     0.023 C 
BRANCH   2   3
ATOM      3  C   UNL A   1      31.694  26.228  26.143  1.00  0.00     0.116 C 
BRANCH   3   4
ATOM      4  N   UNL A   1      31.634  26.236  24.697  1.00  0.00    -0.352 N 
ATOM      5  C   UNL A   1      32.055  25.376  23.734  1.00  0.00     0.251 C 
ATOM      6  O   UNL A   1      31.903  25.754  22.570  1.00  0.00    -0.269 OA
ATOM      7  H   UNL A   1      31.194  27.038  24.333  1.00  0.00     0.163 HD
BRANCH   5   8
ATOM      8  C   UNL A   1      32.599  23.991  24.023  1.00  0.00     0.047 C 
ATOM      9  C   UNL A   1      31.809  22.896  24.108  1.00  0.00     0.022 C 
BRANCH   9  10
ATOM     10  C   UNL A   1      32.167  21.463  24.223  1.00  0.00    -0.025 A 
ATOM     11  C   UNL A   1      33.030  18.791  24.213  1.00  0.00     0.067 A 
ATOM     12  C   UNL A   1      32.994  19.505  25.411  1.00  0.00     0.021 A 
ATOM     13  C   UNL A   1      32.607  19.380  23.023  1.00  0.00     0.021 A 
ATOM     14  C   UNL A   1      32.524  20.822  25.416  1.00  0.00     0.009 A 
ATOM     15  C   UNL A   1      32.177  20.711  23.034  1.00  0.00     0.009 A 
BRANCH  11  16
ATOM     16  S   UNL A   1      33.649  17.128  24.207  1.00  0.00     0.175 S 
ATOM     17  C   UNL A   1      32.648  16.332  25.433  1.00  0.00     0.163 C 
ATOM     18  O   UNL A   1      35.015  17.165  24.691  1.00  0.00    -0.224 OA
ATOM     19  O   UNL A   1      33.332  16.541  22.917  1.00  0.00    -0.224 OA
ENDBRANCH  11  16
ENDBRANCH   9  10
BRANCH   8  20
ATOM     20  C   UNL A   1      34.026  23.917  24.427  1.00  0.00    -0.013 A 
ATOM     21  C   UNL A   1      34.308  23.900  25.799  1.00  0.00     0.009 A 
ATOM     22  C   UNL A   1      35.077  23.741  23.522  1.00  0.00     0.009 A 
ATOM     23  C   UNL A   1      35.594  23.637  26.261  1.00  0.00     0.009 A 
ATOM     24  C   UNL A   1      36.366  23.444  23.993  1.00  0.00     0.009 A 
ATOM     25  C   UNL A   1      36.639  23.351  25.371  1.00  0.00    -0.015 A 
BRANCH  25  26
ATOM     26  C   UNL A   1      37.953  22.924  25.891  1.00  0.00     0.018 A 
ATOM     27  C   UNL A   1      38.414  21.610  25.657  1.00  0.00     0.015 A 
ATOM     28  C   UNL A   1      38.787  23.775  26.632  1.00  0.00     0.133 A 
ATOM     29  C   UNL A   1      39.638  21.168  26.164  1.00  0.00     0.040 A 
ATOM     30  C   UNL A   1      40.011  23.345  27.138  1.00  0.00     0.079 A 
ATOM     31  F   UNL A   1      38.414  25.039  26.887  1.00  0.00    -0.206 F 
ATOM     32  C   UNL A   1      40.423  22.042  26.903  1.00  0.00     0.126 A 
ATOM     33  F   UNL A   1      41.593  21.618  27.395  1.00  0.00    -0.207 F 
ENDBRANCH  25  26
ENDBRANCH   8  20
ENDBRANCH   5   8
ENDBRANCH   3   4
ENDBRANCH   2   3
ENDBRANCH   1   2
BRANCH   1  34
ATOM     34  C   UNL A   1      34.841  28.562  26.532  1.00  0.00     0.116 C 
BRANCH  34  35
ATOM     35  N   UNL A   1      34.104  29.817  26.592  1.00  0.00    -0.352 N 
ATOM     36  C   UNL A   1      34.331  30.886  27.429  1.00  0.00     0.251 C 
ATOM     37  H   UNL A   1      33.355  29.913  25.960  1.00  0.00     0.163 HD
ATOM     38  O   UNL A   1      33.556  31.833  27.464  1.00  0.00    -0.269 OA
BRANCH  36  39
ATOM     39  C   UNL A   1      35.516  30.836  28.305  1.00  0.00     0.039 A 
ATOM     40  C   UNL A   1      35.736  29.707  29.096  1.00  0.00     0.014 A 
ATOM     41  C   UNL A   1      36.455  31.869  28.250  1.00  0.00     0.014 A 
ATOM     42  C   UNL A   1      36.945  29.579  29.782  1.00  0.00     0.010 A 
ATOM     43  C   UNL A   1      37.686  31.701  28.868  1.00  0.00     0.010 A 
ATOM     44  C   UNL A   1      37.944  30.555  29.639  1.00  0.00    -0.014 A 
BRANCH  44  45
ATOM     45  C   UNL A   1      39.271  30.432  30.293  1.00  0.00     0.031 A 
ATOM     46  C   UNL A   1      40.263  29.442  29.749  1.00  0.00     0.074 A 
ATOM     47  C   UNL A   1      39.538  31.116  31.423  1.00  0.00     0.049 A 
ATOM     48  N   UNL A   1      41.390  29.031  30.266  1.00  0.00    -0.248 NA
ATOM     49  C   UNL A   1      39.919  28.801  28.468  1.00  0.00     0.031 C 
ATOM     50  C   UNL A   1      38.646  32.088  32.060  1.00  0.00     0.029 A 
ATOM     51  N   UNL A   1      40.630  31.077  32.255  1.00  0.00    -0.354 N 
ATOM     52  C   UNL A   1      41.874  28.066  29.391  1.00  0.00     0.074 A 
ATOM     53  C   UNL A   1      40.895  27.916  28.338  1.00  0.00     0.031 C 
ATOM     54  C   UNL A   1      39.228  32.556  33.177  1.00  0.00     0.029 A 
ATOM     55  C   UNL A   1      40.509  31.880  33.366  1.00  0.00     0.049 A 
ATOM     56  H   UNL A   1      41.426  30.527  32.074  1.00  0.00     0.167 HD
ATOM     57  C   UNL A   1      43.039  27.381  29.453  1.00  0.00     0.037 A 
ATOM     58  C   UNL A   1      41.324  32.033  34.429  1.00  0.00     0.037 A 
ATOM     59  C   UNL A   1      44.018  27.560  30.491  1.00  0.00     0.049 A 
ATOM     60  C   UNL A   1      42.606  31.241  34.490  1.00  0.00     0.074 A 
ATOM     61  C   UNL A   1      45.254  26.952  30.621  1.00  0.00     0.029 A 
ATOM     62  N   UNL A   1      43.871  28.407  31.581  1.00  0.00    -0.354 N 
ATOM     63  N   UNL A   1      43.072  30.365  33.632  1.00  0.00    -0.248 NA
ATOM     64  C   UNL A   1      43.473  31.457  35.657  1.00  0.00     0.031 C 
ATOM     65  C   UNL A   1      45.831  27.390  31.814  1.00  0.00     0.029 A 
ATOM     66  C   UNL A   1      44.986  28.323  32.395  1.00  0.00     0.049 A 
ATOM     67  H   UNL A   1      43.089  28.981  31.748  1.00  0.00     0.167 HD
ATOM     68  C   UNL A   1      44.305  29.959  34.133  1.00  0.00     0.074 A 
ATOM     69  C   UNL A   1      44.509  30.680  35.372  1.00  0.00     0.031 C 
ATOM     70  C   UNL A   1      45.189  29.077  33.608  1.00  0.00     0.037 A 
BRANCH  57  71
ATOM     71  C   UNL A   1      43.319  26.375  28.371  1.00  0.00     0.058 A 
ATOM     72  C   UNL A   1      43.767  26.764  27.097  1.00  0.00     0.135 A 
ATOM     73  C   UNL A   1      43.170  25.001  28.620  1.00  0.00     0.135 A 
ATOM     74  F   UNL A   1      43.910  28.065  26.798  1.00  0.00    -0.206 F 
ATOM     75  C   UNL A   1      44.027  25.829  26.102  1.00  0.00     0.059 A 
ATOM     76  C   UNL A   1      43.458  24.047  27.649  1.00  0.00     0.059 A 
ATOM     77  F   UNL A   1      42.744  24.573  29.819  1.00  0.00    -0.206 F 
ATOM     78  C   UNL A   1      43.871  24.472  26.387  1.00  0.00     0.060 A 
BRANCH  78  79
ATOM     79  S   UNL A   1      44.221  23.273  25.085  1.00  0.00     0.124 S 
ATOM     80  O   UNL A   1      42.877  22.959  24.610  1.00  0.00    -0.237 OA
ATOM     81  O   UNL A   1      45.053  24.046  24.168  1.00  0.00    -0.237 OA
ATOM     82  O   UNL A   1      44.905  22.194  25.789  1.00  0.00    -0.744 OA
ENDBRANCH  78  79
ENDBRANCH  57  71
BRANCH  58  83
ATOM     83  C   UNL A   1      40.959  32.978  35.521  1.00  0.00     0.058 A 
ATOM     84  C   UNL A   1      40.124  32.576  36.574  1.00  0.00     0.135 A 
ATOM     85  C   UNL A   1      41.443  34.296  35.540  1.00  0.00     0.135 A 
ATOM     86  F   UNL A   1      39.631  31.329  36.599  1.00  0.00    -0.206 F 
ATOM     87  C   UNL A   1      39.765  33.449  37.597  1.00  0.00     0.059 A 
ATOM     88  C   UNL A   1      41.121  35.179  36.567  1.00  0.00     0.059 A 
ATOM     89  F   UNL A   1      42.258  34.729  34.566  1.00  0.00    -0.206 F 
ATOM     90  C   UNL A   1      40.271  34.749  37.585  1.00  0.00     0.060 A 
BRANCH  90  91
ATOM     91  S   UNL A   1      39.833  35.859  38.941  1.00  0.00     0.124 S 
ATOM     92  O   UNL A   1      38.790  35.098  39.619  1.00  0.00    -0.237 OA
ATOM     93  O   UNL A   1      41.100  35.983  39.656  1.00  0.00    -0.237 OA
ATOM     94  O   UNL A   1      39.388  37.068  38.255  1.00  0.00    -0.744 OA
ENDBRANCH  90  91
ENDBRANCH  58  83
BRANCH  70  95
ATOM     95  C   UNL A   1      46.501  28.879  34.318  1.00  0.00     0.058 A 
ATOM     96  C   UNL A   1      46.683  27.874  35.278  1.00  0.00     0.135 A 
ATOM     97  C   UNL A   1      47.623  29.631  33.930  1.00  0.00     0.135 A 
ATOM     98  F   UNL A   1      45.642  27.134  35.689  1.00  0.00    -0.206 F 
ATOM     99  C   UNL A   1      47.937  27.615  35.823  1.00  0.00     0.059 A 
ATOM    100  C   UNL A   1      48.889  29.370  34.441  1.00  0.00     0.059 A 
ATOM    101  F   UNL A   1      47.501  30.601  33.008  1.00  0.00    -0.206 F 
ATOM    102  C   UNL A   1      49.036  28.358  35.388  1.00  0.00     0.060 A 
BRANCH 102 103
ATOM    103  S   UNL A   1      50.671  27.944  36.033  1.00  0.00     0.124 S 
ATOM    104  O   UNL A   1      50.860  26.594  35.514  1.00  0.00    -0.237 OA
ATOM    105  O   UNL A   1      51.511  28.978  35.434  1.00  0.00    -0.237 OA
ATOM    106  O   UNL A   1      50.502  28.043  37.480  1.00  0.00    -0.744 OA
ENDBRANCH 102 103
ENDBRANCH  70  95
ENDBRANCH  44  45
ENDBRANCH  36  39
ENDBRANCH  34  35
ENDBRANCH   1  34
TORSDOF 18
ENDMDL
MODEL 3
REMARK VINA RESULT:     -11.1      5.139     11.544
REMARK SMILES CS(=O)(=O)c1ccc(/C=C(/C(=O)NCCCCNC(=O)c2ccc(-c3c4nc(c(-c5c(F)cc(S(=O)(=O)[O-])cc5F)c5ccc([nH]5)c(-c5c(F)cc(S(=O)(=O)[O-])cc5F)c5nc(c(-c6c(F)cc(S(=O)(=O)[O-])cc6F)c6ccc3[nH]6)C=C5)C=C4)cc2)c2ccc(-c3ccc(F)cc3F)cc2)cc1
REMARK SMILES IDX 16 1 15 2 14 3 13 4 11 5 12 6 10 8 9 9 8 10 5 11 6 12 102 13
REMARK SMILES IDX 7 14 101 15 2 16 1 17 3 18 4 19 87 20 88 21 100 22 89 23
REMARK SMILES IDX 99 24 90 25 91 26 92 27 97 28 93 29 96 30 98 31 94 32 95 33
REMARK SMILES IDX 17 34 18 35 19 36 20 38 21 39 22 40 86 41 23 42 85 43 24 44
REMARK SMILES IDX 25 45 26 46 79 47 27 48 84 49 78 50 80 51 28 52 83 53 77 54
REMARK SMILES IDX 76 55 29 57 63 58 42 59 62 60 43 61 46 62 61 63 81 64 44 65
REMARK SMILES IDX 45 66 60 68 82 69 47 70 30 71 31 72 40 73 32 74 33 75 39 76
REMARK SMILES IDX 41 77 34 78 35 79 36 80 37 81 38 82 64 83 65 84 74 85 66 86
REMARK SMILES IDX 67 87 73 88 75 89 68 90 69 91 70 92 71 93 72 94 48 95 49 96
REMARK SMILES IDX 58 97 50 98 51 99 57 100 59 101 52 102 53 103 54 104 55 105
REMARK SMILES IDX 56 106
REMARK H PARENT 13 7 18 37 80 56 46 67
REMARK Flexibility Score: inf
ROOT
ATOM      1  C   UNL A   1      43.341  24.112  25.635  1.00  0.00     0.023 C 
ENDROOT
BRANCH   1   2
ATOM      2  C   UNL A   1      44.500  25.024  26.049  1.00  0.00     0.023 C 
BRANCH   2   3
ATOM      3  C   UNL A   1      44.674  26.249  25.147  1.00  0.00     0.116 C 
BRANCH   3   4
ATOM      4  N   UNL A   1      46.059  26.669  25.151  1.00  0.00    -0.352 N 
ATOM      5  C   UNL A   1      46.746  27.634  25.812  1.00  0.00     0.251 C 
ATOM      6  O   UNL A   1      47.933  27.760  25.499  1.00  0.00    -0.269 OA
ATOM      7  H   UNL A   1      46.623  26.139  24.541  1.00  0.00     0.163 HD
BRANCH   5   8
ATOM      8  C   UNL A   1      46.160  28.467  26.933  1.00  0.00     0.047 C 
ATOM      9  C   UNL A   1      45.960  29.801  26.828  1.00  0.00     0.022 C 
BRANCH   9  10
ATOM     10  C   UNL A   1      45.265  30.741  27.740  1.00  0.00    -0.025 A 
ATOM     11  C   UNL A   1      43.788  32.289  29.558  1.00  0.00     0.067 A 
ATOM     12  C   UNL A   1      45.179  32.384  29.534  1.00  0.00     0.021 A 
ATOM     13  C   UNL A   1      43.119  31.458  28.662  1.00  0.00     0.021 A 
ATOM     14  C   UNL A   1      45.907  31.642  28.598  1.00  0.00     0.009 A 
ATOM     15  C   UNL A   1      43.860  30.690  27.758  1.00  0.00     0.009 A 
BRANCH  11  16
ATOM     16  S   UNL A   1      42.870  33.214  30.762  1.00  0.00     0.175 S 
ATOM     17  C   UNL A   1      42.061  34.445  29.777  1.00  0.00     0.163 C 
ATOM     18  O   UNL A   1      43.823  33.880  31.627  1.00  0.00    -0.224 OA
ATOM     19  O   UNL A   1      41.851  32.338  31.313  1.00  0.00    -0.224 OA
ENDBRANCH  11  16
ENDBRANCH   9  10
BRANCH   8  20
ATOM     20  C   UNL A   1      46.009  27.789  28.246  1.00  0.00    -0.013 A 
ATOM     21  C   UNL A   1      44.710  27.632  28.745  1.00  0.00     0.009 A 
ATOM     22  C   UNL A   1      47.071  27.201  28.938  1.00  0.00     0.009 A 
ATOM     23  C   UNL A   1      44.465  26.841  29.864  1.00  0.00     0.009 A 
ATOM     24  C   UNL A   1      46.817  26.378  30.046  1.00  0.00     0.009 A 
ATOM     25  C   UNL A   1      45.506  26.155  30.507  1.00  0.00    -0.015 A 
BRANCH  25  26
ATOM     26  C   UNL A   1      45.199  25.204  31.593  1.00  0.00     0.018 A 
ATOM     27  C   UNL A   1      45.741  25.403  32.883  1.00  0.00     0.015 A 
ATOM     28  C   UNL A   1      44.382  24.078  31.406  1.00  0.00     0.133 A 
ATOM     29  C   UNL A   1      45.493  24.503  33.922  1.00  0.00     0.040 A 
ATOM     30  C   UNL A   1      44.127  23.177  32.437  1.00  0.00     0.079 A 
ATOM     31  F   UNL A   1      43.830  23.831  30.209  1.00  0.00    -0.206 F 
ATOM     32  C   UNL A   1      44.690  23.396  33.685  1.00  0.00     0.126 A 
ATOM     33  F   UNL A   1      44.458  22.530  34.679  1.00  0.00    -0.207 F 
ENDBRANCH  25  26
ENDBRANCH   8  20
ENDBRANCH   5   8
ENDBRANCH   3   4
ENDBRANCH   2   3
ENDBRANCH   1   2
BRANCH   1  34
ATOM     34  C   UNL A   1      42.258  23.944  26.692  1.00  0.00     0.116 C 
BRANCH  34  35
ATOM     35  N   UNL A   1      40.911  24.002  26.140  1.00  0.00    -0.352 N 
ATOM     36  C   UNL A   1      39.848  24.747  26.596  1.00  0.00     0.251 C 
ATOM     37  H   UNL A   1      40.741  23.442  25.348  1.00  0.00     0.163 HD
ATOM     38  O   UNL A   1      38.730  24.607  26.116  1.00  0.00    -0.269 OA
BRANCH  36  39
ATOM     39  C   UNL A   1      40.091  25.691  27.702  1.00  0.00     0.039 A 
ATOM     40  C   UNL A   1      41.023  26.717  27.534  1.00  0.00     0.014 A 
ATOM     41  C   UNL A   1      39.309  25.613  28.857  1.00  0.00     0.014 A 
ATOM     42  C   UNL A   1      41.120  27.717  28.503  1.00  0.00     0.010 A 
ATOM     43  C   UNL A   1      39.353  26.649  29.778  1.00  0.00     0.010 A 
ATOM     44  C   UNL A   1      40.257  27.711  29.611  1.00  0.00    -0.014 A 
BRANCH  44  45
ATOM     45  C   UNL A   1      40.275  28.787  30.634  1.00  0.00     0.031 A 
ATOM     46  C   UNL A   1      41.191  28.651  31.819  1.00  0.00     0.074 A 
ATOM     47  C   UNL A   1      39.403  29.812  30.560  1.00  0.00     0.049 A 
ATOM     48  N   UNL A   1      41.234  29.358  32.916  1.00  0.00    -0.248 NA
ATOM     49  C   UNL A   1      42.164  27.545  31.775  1.00  0.00     0.031 C 
ATOM     50  C   UNL A   1      38.449  30.038  29.471  1.00  0.00     0.029 A 
ATOM     51  N   UNL A   1      39.157  30.842  31.433  1.00  0.00    -0.354 N 
ATOM     52  C   UNL A   1      42.216  28.767  33.704  1.00  0.00     0.074 A 
ATOM     53  C   UNL A   1      42.706  27.615  32.982  1.00  0.00     0.031 C 
ATOM     54  C   UNL A   1      37.728  31.139  29.740  1.00  0.00     0.029 A 
ATOM     55  C   UNL A   1      38.127  31.667  31.041  1.00  0.00     0.049 A 
ATOM     56  H   UNL A   1      39.669  30.979  32.262  1.00  0.00     0.167 HD
ATOM     57  C   UNL A   1      42.677  29.163  34.913  1.00  0.00     0.037 A 
ATOM     58  C   UNL A   1      37.554  32.711  31.672  1.00  0.00     0.037 A 
ATOM     59  C   UNL A   1      42.199  30.327  35.609  1.00  0.00     0.049 A 
ATOM     60  C   UNL A   1      38.067  33.120  33.029  1.00  0.00     0.074 A 
ATOM     61  C   UNL A   1      42.634  30.844  36.816  1.00  0.00     0.029 A 
ATOM     62  N   UNL A   1      41.178  31.154  35.162  1.00  0.00    -0.354 N 
ATOM     63  N   UNL A   1      39.026  32.579  33.742  1.00  0.00    -0.248 NA
ATOM     64  C   UNL A   1      37.425  34.278  33.668  1.00  0.00     0.031 C 
ATOM     65  C   UNL A   1      41.842  31.952  37.125  1.00  0.00     0.029 A 
ATOM     66  C   UNL A   1      40.958  32.167  36.079  1.00  0.00     0.049 A 
ATOM     67  H   UNL A   1      40.685  31.037  34.318  1.00  0.00     0.167 HD
ATOM     68  C   UNL A   1      39.132  33.356  34.891  1.00  0.00     0.074 A 
ATOM     69  C   UNL A   1      38.135  34.401  34.782  1.00  0.00     0.031 C 
ATOM     70  C   UNL A   1      39.984  33.221  35.936  1.00  0.00     0.037 A 
BRANCH  57  71
ATOM     71  C   UNL A   1      43.749  28.330  35.561  1.00  0.00     0.058 A 
ATOM     72  C   UNL A   1      45.111  28.531  35.283  1.00  0.00     0.135 A 
ATOM     73  C   UNL A   1      43.412  27.341  36.498  1.00  0.00     0.135 A 
ATOM     74  F   UNL A   1      45.489  29.453  34.381  1.00  0.00    -0.206 F 
ATOM     75  C   UNL A   1      46.098  27.761  35.887  1.00  0.00     0.059 A 
ATOM     76  C   UNL A   1      44.386  26.582  37.141  1.00  0.00     0.059 A 
ATOM     77  F   UNL A   1      42.126  27.105  36.801  1.00  0.00    -0.206 F 
ATOM     78  C   UNL A   1      45.725  26.789  36.817  1.00  0.00     0.060 A 
BRANCH  78  79
ATOM     79  S   UNL A   1      47.021  25.804  37.596  1.00  0.00     0.124 S 
ATOM     80  O   UNL A   1      47.946  25.608  36.484  1.00  0.00    -0.237 OA
ATOM     81  O   UNL A   1      47.485  26.688  38.660  1.00  0.00    -0.237 OA
ATOM     82  O   UNL A   1      46.316  24.607  38.043  1.00  0.00    -0.744 OA
ENDBRANCH  78  79
ENDBRANCH  57  71
BRANCH  58  83
ATOM     83  C   UNL A   1      36.434  33.451  31.026  1.00  0.00     0.058 A 
ATOM     84  C   UNL A   1      36.654  34.242  29.888  1.00  0.00     0.135 A 
ATOM     85  C   UNL A   1      35.123  33.376  31.524  1.00  0.00     0.135 A 
ATOM     86  F   UNL A   1      37.889  34.352  29.377  1.00  0.00    -0.206 F 
ATOM     87  C   UNL A   1      35.621  34.948  29.278  1.00  0.00     0.059 A 
ATOM     88  C   UNL A   1      34.068  34.050  30.914  1.00  0.00     0.059 A 
ATOM     89  F   UNL A   1      34.854  32.621  32.600  1.00  0.00    -0.206 F 
ATOM     90  C   UNL A   1      34.330  34.843  29.798  1.00  0.00     0.060 A 
BRANCH  90  91
ATOM     91  S   UNL A   1      32.991  35.730  28.971  1.00  0.00     0.124 S 
ATOM     92  O   UNL A   1      32.199  36.190  30.104  1.00  0.00    -0.237 OA
ATOM     93  O   UNL A   1      33.717  36.762  28.237  1.00  0.00    -0.237 OA
ATOM     94  O   UNL A   1      32.370  34.701  28.141  1.00  0.00    -0.744 OA
ENDBRANCH  90  91
ENDBRANCH  58  83
BRANCH  70  95
ATOM     95  C   UNL A   1      39.945  34.259  37.024  1.00  0.00     0.058 A 
ATOM     96  C   UNL A   1      40.655  35.464  36.928  1.00  0.00     0.135 A 
ATOM     97  C   UNL A   1      39.077  34.091  38.117  1.00  0.00     0.135 A 
ATOM     98  F   UNL A   1      41.503  35.670  35.909  1.00  0.00    -0.206 F 
ATOM     99  C   UNL A   1      40.501  36.471  37.876  1.00  0.00     0.059 A 
ATOM    100  C   UNL A   1      38.887  35.095  39.059  1.00  0.00     0.059 A 
ATOM    101  F   UNL A   1      38.369  32.957  38.249  1.00  0.00    -0.206 F 
ATOM    102  C   UNL A   1      39.603  36.283  38.929  1.00  0.00     0.060 A 
BRANCH 102 103
ATOM    103  S   UNL A   1      39.342  37.637  40.096  1.00  0.00     0.124 S 
ATOM    104  O   UNL A   1      39.096  36.912  41.338  1.00  0.00    -0.237 OA
ATOM    105  O   UNL A   1      40.609  38.359  40.021  1.00  0.00    -0.237 OA
ATOM    106  O   UNL A   1      38.190  38.345  39.543  1.00  0.00    -0.744 OA
ENDBRANCH 102 103
ENDBRANCH  70  95
ENDBRANCH  44  45
ENDBRANCH  36  39
ENDBRANCH  34  35
ENDBRANCH   1  34
TORSDOF 18
ENDMDL
