MODEL 1
REMARK VINA RESULT:     -13.7      0.000      0.000
REMARK SMILES C[NH+]1CCC(C(=O)N2C[C@@H](C(=O)NCCCCNC(=O)c3ccc(-c4c5nc(c(-c6c(F)cc(S(=O)(=O)[O-])cc6F)c6ccc([nH]6)c(-c6c(F)cc(S(=O)(=O)[O-])cc6F)c6nc(c(-c7c(F)cc(S(=O)(=O)[O-])cc7F)c7ccc4[nH]7)C=C6)C=C5)cc3)[C@H](c3ccc4c(c3)OCO4)C2)CC1
REMARK SMILES IDX 16 1 15 2 14 3 13 4 11 5 12 6 10 8 8 9 9 10 97 11 87 12 6 13
REMARK SMILES IDX 7 14 5 15 1 16 2 17 3 18 99 19 4 21 98 22 88 23 89 24 93 25
REMARK SMILES IDX 90 26 92 27 91 28 94 29 96 30 95 31 17 32 18 33 19 34 20 36
REMARK SMILES IDX 21 37 22 38 86 39 23 40 85 41 24 42 25 43 26 44 79 45 27 46
REMARK SMILES IDX 84 47 78 48 80 49 28 50 83 51 77 52 76 53 29 55 63 56 42 57
REMARK SMILES IDX 62 58 43 59 46 60 61 61 81 62 44 63 45 64 60 66 82 67 47 68
REMARK SMILES IDX 30 69 31 70 40 71 32 72 33 73 39 74 41 75 34 76 35 77 36 78
REMARK SMILES IDX 37 79 38 80 64 81 65 82 74 83 66 84 67 85 73 86 75 87 68 88
REMARK SMILES IDX 69 89 70 90 71 91 72 92 48 93 49 94 58 95 50 96 51 97 57 98
REMARK SMILES IDX 59 99 52 100 53 101 54 102 55 103 56 104
REMARK H PARENT 13 7 2 20 18 35 80 54 46 65
REMARK Flexibility Score: inf
ROOT
ATOM      1  C   UNL A   1      39.642  22.186  26.685  1.00  0.00     0.023 C 
ENDROOT
BRANCH   1   2
ATOM      2  C   UNL A   1      38.489  22.807  25.894  1.00  0.00     0.023 C 
BRANCH   2   3
ATOM      3  C   UNL A   1      37.361  21.852  25.519  1.00  0.00     0.116 C 
BRANCH   3   4
ATOM      4  N   UNL A   1      36.304  21.782  26.514  1.00  0.00    -0.356 N 
ATOM      5  C   UNL A   1      34.960  21.607  26.345  1.00  0.00     0.225 C 
ATOM      6  O   UNL A   1      34.261  21.421  27.342  1.00  0.00    -0.275 OA
ATOM      7  H   UNL A   1      36.600  21.873  27.448  1.00  0.00     0.163 HD
BRANCH   5   8
ATOM      8  C   UNL A   1      34.362  21.651  24.955  1.00  0.00     0.107 C 
ATOM      9  N   UNL A   1      33.042  22.816  23.462  1.00  0.00    -0.341 N 
ATOM     10  C   UNL A   1      33.856  23.044  24.638  1.00  0.00     0.133 C 
ATOM     11  C   UNL A   1      32.338  21.544  23.619  1.00  0.00     0.128 C 
ATOM     12  C   UNL A   1      33.074  20.812  24.772  1.00  0.00     0.053 C 
BRANCH   9  13
ATOM     13  C   UNL A   1      32.861  23.582  22.340  1.00  0.00     0.226 C 
ATOM     14  O   UNL A   1      33.496  23.320  21.310  1.00  0.00    -0.275 OA
BRANCH  13  15
ATOM     15  C   UNL A   1      32.130  24.931  22.413  1.00  0.00     0.090 C 
ATOM     16  C   UNL A   1      31.057  28.944  23.525  1.00  0.00     0.332 C 
ATOM     17  N   UNL A   1      31.568  27.577  23.488  1.00  0.00    -0.337 N 
ATOM     18  C   UNL A   1      32.576  27.425  22.434  1.00  0.00     0.262 C 
ATOM     19  C   UNL A   1      30.477  26.607  23.317  1.00  0.00     0.262 C 
ATOM     20  H   UNL A   1      32.016  27.387  24.384  1.00  0.00     0.347 HD
ATOM     21  C   UNL A   1      33.199  26.032  22.489  1.00  0.00     0.075 C 
ATOM     22  C   UNL A   1      31.032  25.183  23.442  1.00  0.00     0.075 C 
ENDBRANCH  13  15
ENDBRANCH   9  13
BRANCH  12  23
ATOM     23  C   UNL A   1      33.421  19.346  24.598  1.00  0.00    -0.038 A 
ATOM     24  C   UNL A   1      34.743  18.895  24.374  1.00  0.00     0.008 A 
ATOM     25  C   UNL A   1      32.412  18.399  24.864  1.00  0.00     0.054 A 
ATOM     26  C   UNL A   1      35.067  17.535  24.461  1.00  0.00     0.051 A 
ATOM     27  C   UNL A   1      32.770  17.074  24.990  1.00  0.00     0.166 A 
ATOM     28  C   UNL A   1      34.065  16.656  24.805  1.00  0.00     0.165 A 
ATOM     29  O   UNL A   1      31.954  16.069  25.407  1.00  0.00    -0.454 OA
ATOM     30  O   UNL A   1      34.221  15.331  25.069  1.00  0.00    -0.454 OA
ATOM     31  C   UNL A   1      32.916  15.008  25.596  1.00  0.00     0.468 C 
ENDBRANCH  12  23
ENDBRANCH   5   8
ENDBRANCH   3   4
ENDBRANCH   2   3
ENDBRANCH   1   2
BRANCH   1  32
ATOM     32  C   UNL A   1      40.805  23.113  27.037  1.00  0.00     0.116 C 
BRANCH  32  33
ATOM     33  N   UNL A   1      41.196  24.009  25.959  1.00  0.00    -0.352 N 
ATOM     34  C   UNL A   1      41.486  25.353  26.013  1.00  0.00     0.251 C 
ATOM     35  H   UNL A   1      41.259  23.597  25.068  1.00  0.00     0.163 HD
ATOM     36  O   UNL A   1      41.792  25.951  24.983  1.00  0.00    -0.269 OA
BRANCH  34  37
ATOM     37  C   UNL A   1      41.394  26.088  27.294  1.00  0.00     0.039 A 
ATOM     38  C   UNL A   1      42.504  26.826  27.719  1.00  0.00     0.014 A 
ATOM     39  C   UNL A   1      40.225  26.080  28.058  1.00  0.00     0.014 A 
ATOM     40  C   UNL A   1      42.411  27.628  28.858  1.00  0.00     0.010 A 
ATOM     41  C   UNL A   1      40.115  26.924  29.164  1.00  0.00     0.010 A 
ATOM     42  C   UNL A   1      41.199  27.721  29.563  1.00  0.00    -0.014 A 
BRANCH  42  43
ATOM     43  C   UNL A   1      41.035  28.695  30.674  1.00  0.00     0.031 A 
ATOM     44  C   UNL A   1      41.868  28.589  31.920  1.00  0.00     0.074 A 
ATOM     45  C   UNL A   1      40.070  29.632  30.588  1.00  0.00     0.049 A 
ATOM     46  N   UNL A   1      41.821  29.318  33.006  1.00  0.00    -0.248 NA
ATOM     47  C   UNL A   1      42.866  27.511  31.962  1.00  0.00     0.031 C 
ATOM     48  C   UNL A   1      39.151  29.795  29.458  1.00  0.00     0.029 A 
ATOM     49  N   UNL A   1      39.684  30.610  31.471  1.00  0.00    -0.354 N 
ATOM     50  C   UNL A   1      42.769  28.778  33.868  1.00  0.00     0.074 A 
ATOM     51  C   UNL A   1      43.347  27.636  33.190  1.00  0.00     0.031 C 
ATOM     52  C   UNL A   1      38.314  30.813  29.714  1.00  0.00     0.029 A 
ATOM     53  C   UNL A   1      38.615  31.357  31.036  1.00  0.00     0.049 A 
ATOM     54  H   UNL A   1      40.132  30.762  32.335  1.00  0.00     0.167 HD
ATOM     55  C   UNL A   1      43.133  29.204  35.101  1.00  0.00     0.037 A 
ATOM     56  C   UNL A   1      37.943  32.360  31.633  1.00  0.00     0.037 A 
ATOM     57  C   UNL A   1      42.567  30.352  35.762  1.00  0.00     0.049 A 
ATOM     58  C   UNL A   1      38.382  32.834  32.990  1.00  0.00     0.074 A 
ATOM     59  C   UNL A   1      42.926  30.910  36.977  1.00  0.00     0.029 A 
ATOM     60  N   UNL A   1      41.515  31.111  35.270  1.00  0.00    -0.354 N 
ATOM     61  N   UNL A   1      39.344  32.370  33.751  1.00  0.00    -0.248 NA
ATOM     62  C   UNL A   1      37.656  33.975  33.565  1.00  0.00     0.031 C 
ATOM     63  C   UNL A   1      42.063  31.981  37.239  1.00  0.00     0.029 A 
ATOM     64  C   UNL A   1      41.196  32.119  36.168  1.00  0.00     0.049 A 
ATOM     65  H   UNL A   1      41.061  30.958  34.410  1.00  0.00     0.167 HD
ATOM     66  C   UNL A   1      39.351  33.172  34.887  1.00  0.00     0.074 A 
ATOM     67  C   UNL A   1      38.306  34.159  34.707  1.00  0.00     0.031 C 
ATOM     68  C   UNL A   1      40.152  33.096  35.979  1.00  0.00     0.037 A 
BRANCH  55  69
ATOM     69  C   UNL A   1      44.194  28.417  35.820  1.00  0.00     0.058 A 
ATOM     70  C   UNL A   1      43.869  27.365  36.692  1.00  0.00     0.135 A 
ATOM     71  C   UNL A   1      45.554  28.705  35.621  1.00  0.00     0.135 A 
ATOM     72  F   UNL A   1      42.584  27.055  36.928  1.00  0.00    -0.206 F 
ATOM     73  C   UNL A   1      44.852  26.654  37.372  1.00  0.00     0.059 A 
ATOM     74  C   UNL A   1      46.556  27.988  36.270  1.00  0.00     0.059 A 
ATOM     75  F   UNL A   1      45.922  29.697  34.796  1.00  0.00    -0.206 F 
ATOM     76  C   UNL A   1      46.193  26.977  37.159  1.00  0.00     0.060 A 
BRANCH  76  77
ATOM     77  S   UNL A   1      47.458  26.059  38.063  1.00  0.00     0.124 S 
ATOM     78  O   UNL A   1      46.899  26.049  39.412  1.00  0.00    -0.237 OA
ATOM     79  O   UNL A   1      47.466  24.772  37.373  1.00  0.00    -0.237 OA
ATOM     80  O   UNL A   1      48.659  26.869  37.886  1.00  0.00    -0.744 OA
ENDBRANCH  76  77
ENDBRANCH  55  69
BRANCH  56  81
ATOM     81  C   UNL A   1      36.792  32.990  30.933  1.00  0.00     0.058 A 
ATOM     82  C   UNL A   1      35.475  32.756  31.353  1.00  0.00     0.135 A 
ATOM     83  C   UNL A   1      36.992  33.874  29.862  1.00  0.00     0.135 A 
ATOM     84  F   UNL A   1      35.234  31.914  32.370  1.00  0.00    -0.206 F 
ATOM     85  C   UNL A   1      34.393  33.373  30.733  1.00  0.00     0.059 A 
ATOM     86  C   UNL A   1      35.929  34.520  29.240  1.00  0.00     0.059 A 
ATOM     87  F   UNL A   1      38.236  34.143  29.435  1.00  0.00    -0.206 F 
ATOM     88  C   UNL A   1      34.631  34.259  29.680  1.00  0.00     0.060 A 
BRANCH  88  89
ATOM     89  S   UNL A   1      33.227  35.116  28.934  1.00  0.00     0.124 S 
ATOM     90  O   UNL A   1      33.878  36.267  28.319  1.00  0.00    -0.237 OA
ATOM     91  O   UNL A   1      32.706  34.109  28.014  1.00  0.00    -0.237 OA
ATOM     92  O   UNL A   1      32.369  35.411  30.078  1.00  0.00    -0.744 OA
ENDBRANCH  88  89
ENDBRANCH  56  81
BRANCH  68  93
ATOM     93  C   UNL A   1      39.947  34.120  37.059  1.00  0.00     0.058 A 
ATOM     94  C   UNL A   1      40.517  35.402  36.978  1.00  0.00     0.135 A 
ATOM     95  C   UNL A   1      39.129  33.836  38.165  1.00  0.00     0.135 A 
ATOM     96  F   UNL A   1      41.313  35.721  35.944  1.00  0.00    -0.206 F 
ATOM     97  C   UNL A   1      40.297  36.358  37.963  1.00  0.00     0.059 A 
ATOM     98  C   UNL A   1      38.876  34.785  39.150  1.00  0.00     0.059 A 
ATOM     99  F   UNL A   1      38.554  32.629  38.287  1.00  0.00    -0.206 F 
ATOM    100  C   UNL A   1      39.473  36.041  39.046  1.00  0.00     0.060 A 
BRANCH 100 101
ATOM    101  S   UNL A   1      39.166  37.303  40.301  1.00  0.00     0.124 S 
ATOM    102  O   UNL A   1      40.517  37.780  40.574  1.00  0.00    -0.237 OA
ATOM    103  O   UNL A   1      38.293  38.238  39.598  1.00  0.00    -0.237 OA
ATOM    104  O   UNL A   1      38.532  36.556  41.383  1.00  0.00    -0.744 OA
ENDBRANCH 100 101
ENDBRANCH  68  93
ENDBRANCH  42  43
ENDBRANCH  34  37
ENDBRANCH  32  33
ENDBRANCH   1  32
TORSDOF 17
ENDMDL
MODEL 2
REMARK VINA RESULT:     -13.5      6.436     12.287
REMARK SMILES C[NH+]1CCC(C(=O)N2C[C@@H](C(=O)NCCCCNC(=O)c3ccc(-c4c5nc(c(-c6c(F)cc(S(=O)(=O)[O-])cc6F)c6ccc([nH]6)c(-c6c(F)cc(S(=O)(=O)[O-])cc6F)c6nc(c(-c7c(F)cc(S(=O)(=O)[O-])cc7F)c7ccc4[nH]7)C=C6)C=C5)cc3)[C@H](c3ccc4c(c3)OCO4)C2)CC1
REMARK SMILES IDX 16 1 15 2 14 3 13 4 11 5 12 6 10 8 8 9 9 10 97 11 87 12 6 13
REMARK SMILES IDX 7 14 5 15 1 16 2 17 3 18 99 19 4 21 98 22 88 23 89 24 93 25
REMARK SMILES IDX 90 26 92 27 91 28 94 29 96 30 95 31 17 32 18 33 19 34 20 36
REMARK SMILES IDX 21 37 22 38 86 39 23 40 85 41 24 42 25 43 26 44 79 45 27 46
REMARK SMILES IDX 84 47 78 48 80 49 28 50 83 51 77 52 76 53 29 55 63 56 42 57
REMARK SMILES IDX 62 58 43 59 46 60 61 61 81 62 44 63 45 64 60 66 82 67 47 68
REMARK SMILES IDX 30 69 31 70 40 71 32 72 33 73 39 74 41 75 34 76 35 77 36 78
REMARK SMILES IDX 37 79 38 80 64 81 65 82 74 83 66 84 67 85 73 86 75 87 68 88
REMARK SMILES IDX 69 89 70 90 71 91 72 92 48 93 49 94 58 95 50 96 51 97 57 98
REMARK SMILES IDX 59 99 52 100 53 101 54 102 55 103 56 104
REMARK H PARENT 13 7 2 20 18 35 80 54 46 65
REMARK Flexibility Score: inf
ROOT
ATOM      1  C   UNL A   1      34.074  30.663  27.111  1.00  0.00     0.023 C 
ENDROOT
BRANCH   1   2
ATOM      2  C   UNL A   1      32.695  30.000  27.134  1.00  0.00     0.023 C 
BRANCH   2   3
ATOM      3  C   UNL A   1      32.124  29.627  25.771  1.00  0.00     0.116 C 
BRANCH   3   4
ATOM      4  N   UNL A   1      33.096  29.703  24.693  1.00  0.00    -0.356 N 
ATOM      5  C   UNL A   1      33.322  28.835  23.662  1.00  0.00     0.225 C 
ATOM      6  O   UNL A   1      34.097  29.175  22.768  1.00  0.00    -0.275 OA
ATOM      7  H   UNL A   1      33.678  30.496  24.708  1.00  0.00     0.163 HD
BRANCH   5   8
ATOM      8  C   UNL A   1      32.629  27.490  23.642  1.00  0.00     0.107 C 
ATOM      9  N   UNL A   1      32.819  25.232  23.205  1.00  0.00    -0.341 N 
ATOM     10  C   UNL A   1      33.644  26.370  23.551  1.00  0.00     0.133 C 
ATOM     11  C   UNL A   1      31.779  25.672  22.275  1.00  0.00     0.128 C 
ATOM     12  C   UNL A   1      31.767  27.220  22.384  1.00  0.00     0.053 C 
BRANCH   9  13
ATOM     13  C   UNL A   1      32.898  23.920  23.596  1.00  0.00     0.226 C 
ATOM     14  O   UNL A   1      31.868  23.236  23.657  1.00  0.00    -0.275 OA
BRANCH  13  15
ATOM     15  C   UNL A   1      34.172  23.365  24.249  1.00  0.00     0.090 C 
ATOM     16  C   UNL A   1      37.673  20.986  25.011  1.00  0.00     0.332 C 
ATOM     17  N   UNL A   1      36.374  21.488  24.573  1.00  0.00    -0.337 N 
ATOM     18  C   UNL A   1      36.533  22.643  23.683  1.00  0.00     0.262 C 
ATOM     19  C   UNL A   1      35.519  21.823  25.721  1.00  0.00     0.262 C 
ATOM     20  H   UNL A   1      35.912  20.745  24.047  1.00  0.00     0.347 HD
ATOM     21  C   UNL A   1      35.181  23.078  23.126  1.00  0.00     0.075 C 
ATOM     22  C   UNL A   1      34.117  22.194  25.226  1.00  0.00     0.075 C 
ENDBRANCH  13  15
ENDBRANCH   9  13
BRANCH  12  23
ATOM     23  C   UNL A   1      30.431  27.929  22.500  1.00  0.00    -0.038 A 
ATOM     24  C   UNL A   1      29.334  27.383  23.206  1.00  0.00     0.008 A 
ATOM     25  C   UNL A   1      30.357  29.262  22.047  1.00  0.00     0.054 A 
ATOM     26  C   UNL A   1      28.206  28.159  23.501  1.00  0.00     0.051 A 
ATOM     27  C   UNL A   1      29.255  30.014  22.393  1.00  0.00     0.166 A 
ATOM     28  C   UNL A   1      28.214  29.480  23.110  1.00  0.00     0.165 A 
ATOM     29  O   UNL A   1      29.110  31.349  22.182  1.00  0.00    -0.454 OA
ATOM     30  O   UNL A   1      27.275  30.411  23.428  1.00  0.00    -0.454 OA
ATOM     31  C   UNL A   1      27.929  31.615  22.970  1.00  0.00     0.468 C 
ENDBRANCH  12  23
ENDBRANCH   5   8
ENDBRANCH   3   4
ENDBRANCH   2   3
ENDBRANCH   1   2
BRANCH   1  32
ATOM     32  C   UNL A   1      35.121  30.090  28.065  1.00  0.00     0.116 C 
BRANCH  32  33
ATOM     33  N   UNL A   1      35.243  30.817  29.319  1.00  0.00    -0.352 N 
ATOM     34  C   UNL A   1      36.340  30.954  30.138  1.00  0.00     0.251 C 
ATOM     35  H   UNL A   1      34.427  31.274  29.625  1.00  0.00     0.163 HD
ATOM     36  O   UNL A   1      36.248  31.608  31.175  1.00  0.00    -0.269 OA
BRANCH  34  37
ATOM     37  C   UNL A   1      37.616  30.286  29.798  1.00  0.00     0.039 A 
ATOM     38  C   UNL A   1      38.003  30.235  28.455  1.00  0.00     0.014 A 
ATOM     39  C   UNL A   1      38.441  29.740  30.785  1.00  0.00     0.014 A 
ATOM     40  C   UNL A   1      39.256  29.721  28.112  1.00  0.00     0.010 A 
ATOM     41  C   UNL A   1      39.713  29.278  30.447  1.00  0.00     0.010 A 
ATOM     42  C   UNL A   1      40.141  29.283  29.110  1.00  0.00    -0.014 A 
BRANCH  42  43
ATOM     43  C   UNL A   1      41.536  28.892  28.777  1.00  0.00     0.031 A 
ATOM     44  C   UNL A   1      42.634  29.917  28.736  1.00  0.00     0.074 A 
ATOM     45  C   UNL A   1      41.795  27.616  28.429  1.00  0.00     0.049 A 
ATOM     46  N   UNL A   1      43.893  29.763  28.413  1.00  0.00    -0.248 NA
ATOM     47  C   UNL A   1      42.265  31.298  29.078  1.00  0.00     0.031 C 
ATOM     48  C   UNL A   1      40.800  26.541  28.365  1.00  0.00     0.029 A 
ATOM     49  N   UNL A   1      42.964  27.008  28.043  1.00  0.00    -0.354 N 
ATOM     50  C   UNL A   1      44.464  31.027  28.497  1.00  0.00     0.074 A 
ATOM     51  C   UNL A   1      43.403  31.942  28.863  1.00  0.00     0.031 C 
ATOM     52  C   UNL A   1      41.402  25.408  27.970  1.00  0.00     0.029 A 
ATOM     53  C   UNL A   1      42.816  25.678  27.725  1.00  0.00     0.049 A 
ATOM     54  H   UNL A   1      43.826  27.480  28.000  1.00  0.00     0.167 HD
ATOM     55  C   UNL A   1      45.756  31.388  28.301  1.00  0.00     0.037 A 
ATOM     56  C   UNL A   1      43.711  24.778  27.275  1.00  0.00     0.037 A 
ATOM     57  C   UNL A   1      46.810  30.470  27.955  1.00  0.00     0.049 A 
ATOM     58  C   UNL A   1      45.144  25.194  27.092  1.00  0.00     0.074 A 
ATOM     59  C   UNL A   1      48.163  30.726  27.815  1.00  0.00     0.029 A 
ATOM     60  N   UNL A   1      46.629  29.121  27.683  1.00  0.00    -0.354 N 
ATOM     61  N   UNL A   1      45.685  26.375  27.266  1.00  0.00    -0.248 NA
ATOM     62  C   UNL A   1      46.090  24.154  26.665  1.00  0.00     0.031 C 
ATOM     63  C   UNL A   1      48.794  29.542  27.417  1.00  0.00     0.029 A 
ATOM     64  C   UNL A   1      47.843  28.537  27.352  1.00  0.00     0.049 A 
ATOM     65  H   UNL A   1      45.767  28.648  27.719  1.00  0.00     0.167 HD
ATOM     66  C   UNL A   1      47.039  26.219  26.987  1.00  0.00     0.074 A 
ATOM     67  C   UNL A   1      47.236  24.825  26.646  1.00  0.00     0.031 C 
ATOM     68  C   UNL A   1      48.027  27.147  27.012  1.00  0.00     0.037 A 
BRANCH  55  69
ATOM     69  C   UNL A   1      46.098  32.845  28.452  1.00  0.00     0.058 A 
ATOM     70  C   UNL A   1      46.459  33.394  29.693  1.00  0.00     0.135 A 
ATOM     71  C   UNL A   1      46.082  33.700  27.338  1.00  0.00     0.135 A 
ATOM     72  F   UNL A   1      46.478  32.624  30.793  1.00  0.00    -0.206 F 
ATOM     73  C   UNL A   1      46.754  34.746  29.833  1.00  0.00     0.059 A 
ATOM     74  C   UNL A   1      46.401  35.051  27.449  1.00  0.00     0.059 A 
ATOM     75  F   UNL A   1      45.749  33.228  26.127  1.00  0.00    -0.206 F 
ATOM     76  C   UNL A   1      46.715  35.568  28.705  1.00  0.00     0.060 A 
BRANCH  76  77
ATOM     77  S   UNL A   1      47.081  37.325  28.905  1.00  0.00     0.124 S 
ATOM     78  O   UNL A   1      47.185  37.758  27.514  1.00  0.00    -0.237 OA
ATOM     79  O   UNL A   1      45.912  37.810  29.632  1.00  0.00    -0.237 OA
ATOM     80  O   UNL A   1      48.331  37.328  29.659  1.00  0.00    -0.744 OA
ENDBRANCH  76  77
ENDBRANCH  55  69
BRANCH  56  81
ATOM     81  C   UNL A   1      43.271  23.388  26.986  1.00  0.00     0.058 A 
ATOM     82  C   UNL A   1      43.149  22.927  25.667  1.00  0.00     0.135 A 
ATOM     83  C   UNL A   1      43.009  22.480  28.024  1.00  0.00     0.135 A 
ATOM     84  F   UNL A   1      43.384  23.761  24.641  1.00  0.00    -0.206 F 
ATOM     85  C   UNL A   1      42.779  21.616  25.386  1.00  0.00     0.059 A 
ATOM     86  C   UNL A   1      42.658  21.159  27.768  1.00  0.00     0.059 A 
ATOM     87  F   UNL A   1      43.129  22.869  29.303  1.00  0.00    -0.206 F 
ATOM     88  C   UNL A   1      42.541  20.737  26.443  1.00  0.00     0.060 A 
BRANCH  88  89
ATOM     89  S   UNL A   1      42.139  19.017  26.068  1.00  0.00     0.124 S 
ATOM     90  O   UNL A   1      43.028  18.745  24.945  1.00  0.00    -0.237 OA
ATOM     91  O   UNL A   1      42.469  18.344  27.322  1.00  0.00    -0.237 OA
ATOM     92  O   UNL A   1      40.715  19.068  25.751  1.00  0.00    -0.744 OA
ENDBRANCH  88  89
ENDBRANCH  56  81
BRANCH  68  93
ATOM     93  C   UNL A   1      49.418  26.685  26.682  1.00  0.00     0.058 A 
ATOM     94  C   UNL A   1      50.299  26.230  27.676  1.00  0.00     0.135 A 
ATOM     95  C   UNL A   1      49.859  26.649  25.349  1.00  0.00     0.135 A 
ATOM     96  F   UNL A   1      49.929  26.251  28.967  1.00  0.00    -0.206 F 
ATOM     97  C   UNL A   1      51.574  25.771  27.363  1.00  0.00     0.059 A 
ATOM     98  C   UNL A   1      51.121  26.171  25.010  1.00  0.00     0.059 A 
ATOM     99  F   UNL A   1      49.053  27.065  24.360  1.00  0.00    -0.206 F 
ATOM    100  C   UNL A   1      51.976  25.744  26.025  1.00  0.00     0.060 A 
BRANCH 100 101
ATOM    101  S   UNL A   1      53.620  25.113  25.626  1.00  0.00     0.124 S 
ATOM    102  O   UNL A   1      54.350  25.394  26.858  1.00  0.00    -0.237 OA
ATOM    103  O   UNL A   1      53.357  23.703  25.352  1.00  0.00    -0.237 OA
ATOM    104  O   UNL A   1      54.015  25.907  24.466  1.00  0.00    -0.744 OA
ENDBRANCH 100 101
ENDBRANCH  68  93
ENDBRANCH  42  43
ENDBRANCH  34  37
ENDBRANCH  32  33
ENDBRANCH   1  32
TORSDOF 17
ENDMDL
MODEL 3
REMARK VINA RESULT:     -13.2      3.010      9.839
REMARK SMILES C[NH+]1CCC(C(=O)N2C[C@@H](C(=O)NCCCCNC(=O)c3ccc(-c4c5nc(c(-c6c(F)cc(S(=O)(=O)[O-])cc6F)c6ccc([nH]6)c(-c6c(F)cc(S(=O)(=O)[O-])cc6F)c6nc(c(-c7c(F)cc(S(=O)(=O)[O-])cc7F)c7ccc4[nH]7)C=C6)C=C5)cc3)[C@H](c3ccc4c(c3)OCO4)C2)CC1
REMARK SMILES IDX 16 1 15 2 14 3 13 4 11 5 12 6 10 8 8 9 9 10 97 11 87 12 6 13
REMARK SMILES IDX 7 14 5 15 1 16 2 17 3 18 99 19 4 21 98 22 88 23 89 24 93 25
REMARK SMILES IDX 90 26 92 27 91 28 94 29 96 30 95 31 17 32 18 33 19 34 20 36
REMARK SMILES IDX 21 37 22 38 86 39 23 40 85 41 24 42 25 43 26 44 79 45 27 46
REMARK SMILES IDX 84 47 78 48 80 49 28 50 83 51 77 52 76 53 29 55 63 56 42 57
REMARK SMILES IDX 62 58 43 59 46 60 61 61 81 62 44 63 45 64 60 66 82 67 47 68
REMARK SMILES IDX 30 69 31 70 40 71 32 72 33 73 39 74 41 75 34 76 35 77 36 78
REMARK SMILES IDX 37 79 38 80 64 81 65 82 74 83 66 84 67 85 73 86 75 87 68 88
REMARK SMILES IDX 69 89 70 90 71 91 72 92 48 93 49 94 58 95 50 96 51 97 57 98
REMARK SMILES IDX 59 99 52 100 53 101 54 102 55 103 56 104
REMARK H PARENT 13 7 2 20 18 35 80 54 46 65
REMARK Flexibility Score: inf
ROOT
ATOM      1  C   UNL A   1      31.554  32.765  26.796  1.00  0.00     0.023 C 
ENDROOT
BRANCH   1   2
ATOM      2  C   UNL A   1      31.401  31.259  26.565  1.00  0.00     0.023 C 
BRANCH   2   3
ATOM      3  C   UNL A   1      32.695  30.455  26.607  1.00  0.00     0.116 C 
BRANCH   3   4
ATOM      4  N   UNL A   1      33.210  30.112  25.292  1.00  0.00    -0.356 N 
ATOM      5  C   UNL A   1      32.675  29.300  24.333  1.00  0.00     0.225 C 
ATOM      6  O   UNL A   1      33.207  29.273  23.223  1.00  0.00    -0.275 OA
ATOM      7  H   UNL A   1      34.071  30.526  25.058  1.00  0.00     0.163 HD
BRANCH   5   8
ATOM      8  C   UNL A   1      31.459  28.456  24.650  1.00  0.00     0.107 C 
ATOM      9  N   UNL A   1      30.616  26.328  24.949  1.00  0.00    -0.341 N 
ATOM     10  C   UNL A   1      31.872  27.046  25.017  1.00  0.00     0.133 C 
ATOM     11  C   UNL A   1      29.841  26.847  23.822  1.00  0.00     0.128 C 
ATOM     12  C   UNL A   1      30.517  28.193  23.450  1.00  0.00     0.053 C 
BRANCH   9  13
ATOM     13  C   UNL A   1      30.124  25.314  25.728  1.00  0.00     0.226 C 
ATOM     14  O   UNL A   1      29.301  25.568  26.617  1.00  0.00    -0.275 OA
BRANCH  13  15
ATOM     15  C   UNL A   1      30.787  23.928  25.734  1.00  0.00     0.090 C 
ATOM     16  C   UNL A   1      33.752  20.816  25.871  1.00  0.00     0.332 C 
ATOM     17  N   UNL A   1      33.029  22.072  25.693  1.00  0.00    -0.337 N 
ATOM     18  C   UNL A   1      32.531  22.574  26.977  1.00  0.00     0.262 C 
ATOM     19  C   UNL A   1      31.932  21.921  24.725  1.00  0.00     0.262 C 
ATOM     20  H   UNL A   1      33.683  22.758  25.317  1.00  0.00     0.347 HD
ATOM     21  C   UNL A   1      31.893  23.950  26.800  1.00  0.00     0.075 C 
ATOM     22  C   UNL A   1      31.302  23.290  24.447  1.00  0.00     0.075 C 
ENDBRANCH  13  15
ENDBRANCH   9  13
BRANCH  12  23
ATOM     23  C   UNL A   1      29.637  29.403  23.198  1.00  0.00    -0.038 A 
ATOM     24  C   UNL A   1      29.606  30.520  24.064  1.00  0.00     0.008 A 
ATOM     25  C   UNL A   1      28.979  29.484  21.954  1.00  0.00     0.054 A 
ATOM     26  C   UNL A   1      28.977  31.712  23.684  1.00  0.00     0.051 A 
ATOM     27  C   UNL A   1      28.411  30.685  21.588  1.00  0.00     0.166 A 
ATOM     28  C   UNL A   1      28.420  31.773  22.426  1.00  0.00     0.165 A 
ATOM     29  O   UNL A   1      27.892  30.976  20.365  1.00  0.00    -0.454 OA
ATOM     30  O   UNL A   1      27.894  32.881  21.838  1.00  0.00    -0.454 OA
ATOM     31  C   UNL A   1      27.708  32.404  20.488  1.00  0.00     0.468 C 
ENDBRANCH  12  23
ENDBRANCH   5   8
ENDBRANCH   3   4
ENDBRANCH   2   3
ENDBRANCH   1   2
BRANCH   1  32
ATOM     32  C   UNL A   1      32.909  33.240  27.319  1.00  0.00     0.116 C 
BRANCH  32  33
ATOM     33  N   UNL A   1      32.862  34.516  28.016  1.00  0.00    -0.352 N 
ATOM     34  C   UNL A   1      33.666  34.977  29.032  1.00  0.00     0.251 C 
ATOM     35  H   UNL A   1      32.156  35.134  27.719  1.00  0.00     0.163 HD
ATOM     36  O   UNL A   1      33.465  36.093  29.507  1.00  0.00    -0.269 OA
BRANCH  34  37
ATOM     37  C   UNL A   1      34.742  34.123  29.582  1.00  0.00     0.039 A 
ATOM     38  C   UNL A   1      36.057  34.365  29.174  1.00  0.00     0.014 A 
ATOM     39  C   UNL A   1      34.472  33.114  30.510  1.00  0.00     0.014 A 
ATOM     40  C   UNL A   1      37.109  33.660  29.763  1.00  0.00     0.010 A 
ATOM     41  C   UNL A   1      35.526  32.450  31.138  1.00  0.00     0.010 A 
ATOM     42  C   UNL A   1      36.855  32.731  30.786  1.00  0.00    -0.014 A 
BRANCH  42  43
ATOM     43  C   UNL A   1      37.971  32.098  31.537  1.00  0.00     0.031 A 
ATOM     44  C   UNL A   1      38.381  32.615  32.887  1.00  0.00     0.074 A 
ATOM     45  C   UNL A   1      38.670  31.102  30.958  1.00  0.00     0.049 A 
ATOM     46  N   UNL A   1      39.362  32.219  33.657  1.00  0.00    -0.248 NA
ATOM     47  C   UNL A   1      37.603  33.737  33.432  1.00  0.00     0.031 C 
ATOM     48  C   UNL A   1      38.413  30.556  29.622  1.00  0.00     0.029 A 
ATOM     49  N   UNL A   1      39.752  30.384  31.405  1.00  0.00    -0.354 N 
ATOM     50  C   UNL A   1      39.332  33.052  34.770  1.00  0.00     0.074 A 
ATOM     51  C   UNL A   1      38.258  33.999  34.554  1.00  0.00     0.031 C 
ATOM     52  C   UNL A   1      39.307  29.589  29.362  1.00  0.00     0.029 A 
ATOM     53  C   UNL A   1      40.218  29.463  30.496  1.00  0.00     0.049 A 
ATOM     54  H   UNL A   1      40.156  30.517  32.293  1.00  0.00     0.167 HD
ATOM     55  C   UNL A   1      40.117  33.020  35.874  1.00  0.00     0.037 A 
ATOM     56  C   UNL A   1      41.265  28.618  30.560  1.00  0.00     0.037 A 
ATOM     57  C   UNL A   1      41.171  32.063  36.091  1.00  0.00     0.049 A 
ATOM     58  C   UNL A   1      42.105  28.580  31.806  1.00  0.00     0.074 A 
ATOM     59  C   UNL A   1      41.967  31.898  37.211  1.00  0.00     0.029 A 
ATOM     60  N   UNL A   1      41.585  31.116  35.165  1.00  0.00    -0.354 N 
ATOM     61  N   UNL A   1      42.003  29.314  32.888  1.00  0.00    -0.248 NA
ATOM     62  C   UNL A   1      43.193  27.593  31.847  1.00  0.00     0.031 C 
ATOM     63  C   UNL A   1      42.891  30.880  36.947  1.00  0.00     0.029 A 
ATOM     64  C   UNL A   1      42.641  30.379  35.680  1.00  0.00     0.049 A 
ATOM     65  H   UNL A   1      41.188  30.985  34.274  1.00  0.00     0.167 HD
ATOM     66  C   UNL A   1      43.001  28.867  33.747  1.00  0.00     0.074 A 
ATOM     67  C   UNL A   1      43.687  27.789  33.063  1.00  0.00     0.031 C 
ATOM     68  C   UNL A   1      43.319  29.309  34.989  1.00  0.00     0.037 A 
BRANCH  55  69
ATOM     69  C   UNL A   1      39.865  34.058  36.932  1.00  0.00     0.058 A 
ATOM     70  C   UNL A   1      40.383  35.359  36.828  1.00  0.00     0.135 A 
ATOM     71  C   UNL A   1      39.081  33.754  38.057  1.00  0.00     0.135 A 
ATOM     72  F   UNL A   1      41.149  35.700  35.779  1.00  0.00    -0.206 F 
ATOM     73  C   UNL A   1      40.166  36.310  37.820  1.00  0.00     0.059 A 
ATOM     74  C   UNL A   1      38.828  34.699  39.049  1.00  0.00     0.059 A 
ATOM     75  F   UNL A   1      38.557  32.528  38.206  1.00  0.00    -0.206 F 
ATOM     76  C   UNL A   1      39.392  35.968  38.930  1.00  0.00     0.060 A 
BRANCH  76  77
ATOM     77  S   UNL A   1      39.136  37.207  40.218  1.00  0.00     0.124 S 
ATOM     78  O   UNL A   1      38.340  36.457  41.186  1.00  0.00    -0.237 OA
ATOM     79  O   UNL A   1      40.500  37.522  40.629  1.00  0.00    -0.237 OA
ATOM     80  O   UNL A   1      38.431  38.279  39.523  1.00  0.00    -0.744 OA
ENDBRANCH  76  77
ENDBRANCH  55  69
BRANCH  56  81
ATOM     81  C   UNL A   1      41.561  27.729  29.406  1.00  0.00     0.058 A 
ATOM     82  C   UNL A   1      42.678  27.951  28.589  1.00  0.00     0.135 A 
ATOM     83  C   UNL A   1      40.756  26.613  29.128  1.00  0.00     0.135 A 
ATOM     84  F   UNL A   1      43.474  29.009  28.813  1.00  0.00    -0.206 F 
ATOM     85  C   UNL A   1      42.988  27.101  27.533  1.00  0.00     0.059 A 
ATOM     86  C   UNL A   1      41.058  25.736  28.091  1.00  0.00     0.059 A 
ATOM     87  F   UNL A   1      39.686  26.348  29.892  1.00  0.00    -0.206 F 
ATOM     88  C   UNL A   1      42.175  25.991  27.295  1.00  0.00     0.060 A 
BRANCH  88  89
ATOM     89  S   UNL A   1      42.630  24.849  25.972  1.00  0.00     0.124 S 
ATOM     90  O   UNL A   1      44.015  24.546  26.309  1.00  0.00    -0.237 OA
ATOM     91  O   UNL A   1      41.673  23.763  26.162  1.00  0.00    -0.237 OA
ATOM     92  O   UNL A   1      42.431  25.643  24.762  1.00  0.00    -0.744 OA
ENDBRANCH  88  89
ENDBRANCH  56  81
BRANCH  68  93
ATOM     93  C   UNL A   1      44.445  28.616  35.703  1.00  0.00     0.058 A 
ATOM     94  C   UNL A   1      45.772  29.064  35.595  1.00  0.00     0.135 A 
ATOM     95  C   UNL A   1      44.188  27.523  36.546  1.00  0.00     0.135 A 
ATOM     96  F   UNL A   1      46.071  30.100  34.796  1.00  0.00    -0.206 F 
ATOM     97  C   UNL A   1      46.807  28.441  36.284  1.00  0.00     0.059 A 
ATOM     98  C   UNL A   1      45.204  26.900  37.264  1.00  0.00     0.059 A 
ATOM     99  F   UNL A   1      42.936  27.061  36.691  1.00  0.00    -0.206 F 
ATOM    100  C   UNL A   1      46.512  27.359  37.118  1.00  0.00     0.060 A 
BRANCH 100 101
ATOM    101  S   UNL A   1      47.859  26.581  38.037  1.00  0.00     0.124 S 
ATOM    102  O   UNL A   1      49.009  26.894  37.194  1.00  0.00    -0.237 OA
ATOM    103  O   UNL A   1      47.805  27.274  39.321  1.00  0.00    -0.237 OA
ATOM    104  O   UNL A   1      47.473  25.173  38.074  1.00  0.00    -0.744 OA
ENDBRANCH 100 101
ENDBRANCH  68  93
ENDBRANCH  42  43
ENDBRANCH  34  37
ENDBRANCH  32  33
ENDBRANCH   1  32
TORSDOF 17
ENDMDL
