MODEL 1
REMARK VINA RESULT:      -9.3      0.000      0.000
REMARK SMILES CCCCCCNC(=O)Oc1cccc(-c2ccc([C@H](C)C(=O)NCCCCNC(=O)c3ccc(-c4c5nc(c(-c6c(F)cc(S(=O)(=O)[O-])cc6F)c6ccc([nH]6)c(-c6c(F)cc(S(=O)(=O)[O-])cc6F)c6nc(c(-c7c(F)cc(S(=O)(=O)[O-])cc7F)c7ccc4[nH]7)C=C6)C=C5)cc3)cc2F)c1
REMARK SMILES IDX 20 1 21 2 19 3 16 4 17 5 99 6 18 7 98 8 100 9 15 10 11 11
REMARK SMILES IDX 12 12 101 13 13 14 14 15 10 16 8 17 7 18 9 20 6 21 5 22 4 23
REMARK SMILES IDX 3 24 2 25 1 26 22 27 23 28 24 29 25 31 26 32 27 33 28 34
REMARK SMILES IDX 29 35 30 36 31 38 32 39 33 40 97 41 34 42 96 43 35 44 36 45
REMARK SMILES IDX 37 46 90 47 38 48 95 49 89 50 91 51 39 52 94 53 88 54 87 55
REMARK SMILES IDX 40 57 74 58 53 59 73 60 54 61 57 62 72 63 92 64 55 65 56 66
REMARK SMILES IDX 71 68 93 69 58 70 41 71 42 72 51 73 43 74 44 75 50 76 52 77
REMARK SMILES IDX 45 78 46 79 47 80 48 81 49 82 75 83 76 84 85 85 77 86 78 87
REMARK SMILES IDX 84 88 86 89 79 90 80 91 81 92 82 93 83 94 59 95 60 96 69 97
REMARK SMILES IDX 61 98 62 99 68 100 70 101 63 102 64 103 65 104 66 105 67 106
REMARK H PARENT 7 19 24 30 29 37 91 56 57 67
REMARK Flexibility Score: inf
ROOT
ATOM      1  C   UNL A   1      45.188  21.962  25.734  1.00  0.00     0.105 C 
ATOM      2  C   UNL A   1      46.401  21.541  24.887  1.00  0.00     0.023 C 
ENDROOT
BRANCH   1   3
ATOM      3  C   UNL A   1      45.440  23.024  26.806  1.00  0.00    -0.033 A 
ATOM      4  C   UNL A   1      45.842  25.084  28.745  1.00  0.00     0.018 A 
ATOM      5  C   UNL A   1      44.814  24.145  28.889  1.00  0.00     0.012 A 
ATOM      6  C   UNL A   1      46.705  24.923  27.654  1.00  0.00     0.131 A 
ATOM      7  C   UNL A   1      44.635  23.118  27.954  1.00  0.00     0.005 A 
ATOM      8  C   UNL A   1      46.517  23.914  26.705  1.00  0.00     0.044 A 
ATOM      9  F   UNL A   1      47.747  25.753  27.484  1.00  0.00    -0.206 F 
BRANCH   4  10
ATOM     10  C   UNL A   1      45.974  26.204  29.690  1.00  0.00    -0.012 A 
ATOM     11  C   UNL A   1      46.266  27.028  31.955  1.00  0.00     0.133 A 
ATOM     12  C   UNL A   1      46.306  28.344  31.504  1.00  0.00     0.047 A 
ATOM     13  C   UNL A   1      46.084  25.966  31.070  1.00  0.00     0.056 A 
ATOM     14  C   UNL A   1      46.193  28.598  30.140  1.00  0.00     0.004 A 
ATOM     15  C   UNL A   1      46.031  27.537  29.242  1.00  0.00     0.009 A 
BRANCH  11  16
ATOM     16  O   UNL A   1      46.310  26.824  33.343  1.00  0.00    -0.410 OA
BRANCH  16  17
ATOM     17  C   UNL A   1      47.105  25.793  33.816  1.00  0.00     0.412 C 
ATOM     18  N   UNL A   1      46.387  24.735  34.296  1.00  0.00    -0.321 N 
ATOM     19  H   UNL A   1      46.903  23.982  34.665  1.00  0.00     0.167 HD
ATOM     20  O   UNL A   1      48.335  25.774  33.835  1.00  0.00    -0.224 OA
BRANCH  18  21
ATOM     21  C   UNL A   1      44.944  24.608  34.321  1.00  0.00     0.119 C 
BRANCH  21  22
ATOM     22  C   UNL A   1      44.488  23.221  33.869  1.00  0.00     0.021 C 
BRANCH  22  23
ATOM     23  C   UNL A   1      44.644  22.118  34.923  1.00  0.00     0.002 C 
BRANCH  23  24
ATOM     24  C   UNL A   1      45.855  21.195  34.737  1.00  0.00    -0.000 C 
BRANCH  24  25
ATOM     25  C   UNL A   1      46.125  20.226  35.891  1.00  0.00    -0.003 C 
ATOM     26  C   UNL A   1      47.586  20.183  36.311  1.00  0.00     0.004 C 
ENDBRANCH  24  25
ENDBRANCH  23  24
ENDBRANCH  22  23
ENDBRANCH  21  22
ENDBRANCH  18  21
ENDBRANCH  16  17
ENDBRANCH  11  16
ENDBRANCH   4  10
ENDBRANCH   1   3
BRANCH   1  27
ATOM     27  C   UNL A   1      44.036  22.289  24.776  1.00  0.00     0.227 C 
ATOM     28  O   UNL A   1      44.189  23.098  23.856  1.00  0.00    -0.274 OA
ATOM     29  N   UNL A   1      42.806  21.710  24.923  1.00  0.00    -0.356 N 
ATOM     30  H   UNL A   1      42.107  22.049  24.318  1.00  0.00     0.163 HD
BRANCH  29  31
ATOM     31  C   UNL A   1      42.378  20.666  25.843  1.00  0.00     0.116 C 
BRANCH  31  32
ATOM     32  C   UNL A   1      40.936  20.861  26.296  1.00  0.00     0.023 C 
BRANCH  32  33
ATOM     33  C   UNL A   1      40.787  21.313  27.748  1.00  0.00     0.023 C 
BRANCH  33  34
ATOM     34  C   UNL A   1      41.092  22.785  28.003  1.00  0.00     0.116 C 
BRANCH  34  35
ATOM     35  N   UNL A   1      41.191  23.562  26.776  1.00  0.00    -0.352 N 
ATOM     36  C   UNL A   1      41.093  24.923  26.605  1.00  0.00     0.251 C 
ATOM     37  H   UNL A   1      41.350  23.042  25.955  1.00  0.00     0.163 HD
ATOM     38  O   UNL A   1      41.031  25.400  25.476  1.00  0.00    -0.269 OA
BRANCH  36  39
ATOM     39  C   UNL A   1      41.030  25.804  27.790  1.00  0.00     0.039 A 
ATOM     40  C   UNL A   1      42.131  26.606  28.097  1.00  0.00     0.014 A 
ATOM     41  C   UNL A   1      39.877  25.858  28.579  1.00  0.00     0.014 A 
ATOM     42  C   UNL A   1      42.048  27.518  29.152  1.00  0.00     0.010 A 
ATOM     43  C   UNL A   1      39.769  26.820  29.579  1.00  0.00     0.010 A 
ATOM     44  C   UNL A   1      40.852  27.663  29.875  1.00  0.00    -0.014 A 
BRANCH  44  45
ATOM     45  C   UNL A   1      40.712  28.695  30.936  1.00  0.00     0.031 A 
ATOM     46  C   UNL A   1      41.547  28.613  32.185  1.00  0.00     0.074 A 
ATOM     47  C   UNL A   1      39.782  29.664  30.804  1.00  0.00     0.049 A 
ATOM     48  N   UNL A   1      41.513  29.372  33.250  1.00  0.00    -0.248 NA
ATOM     49  C   UNL A   1      42.532  27.520  32.262  1.00  0.00     0.031 C 
ATOM     50  C   UNL A   1      38.870  29.815  29.667  1.00  0.00     0.029 A 
ATOM     51  N   UNL A   1      39.436  30.698  31.639  1.00  0.00    -0.354 N 
ATOM     52  C   UNL A   1      42.450  28.837  34.128  1.00  0.00     0.074 A 
ATOM     53  C   UNL A   1      43.009  27.666  33.491  1.00  0.00     0.031 C 
ATOM     54  C   UNL A   1      38.080  30.882  29.871  1.00  0.00     0.029 A 
ATOM     55  C   UNL A   1      38.400  31.470  31.167  1.00  0.00     0.049 A 
ATOM     56  H   UNL A   1      39.889  30.870  32.496  1.00  0.00     0.167 HD
ATOM     57  C   UNL A   1      42.823  29.295  35.346  1.00  0.00     0.037 A 
ATOM     58  C   UNL A   1      37.766  32.522  31.723  1.00  0.00     0.037 A 
ATOM     59  C   UNL A   1      42.295  30.488  35.955  1.00  0.00     0.049 A 
ATOM     60  C   UNL A   1      38.217  33.020  33.071  1.00  0.00     0.074 A 
ATOM     61  C   UNL A   1      42.675  31.081  37.147  1.00  0.00     0.029 A 
ATOM     62  N   UNL A   1      41.277  31.267  35.428  1.00  0.00    -0.354 N 
ATOM     63  N   UNL A   1      39.170  32.554  33.846  1.00  0.00    -0.248 NA
ATOM     64  C   UNL A   1      37.519  34.191  33.620  1.00  0.00     0.031 C 
ATOM     65  C   UNL A   1      41.852  32.190  37.366  1.00  0.00     0.029 A 
ATOM     66  C   UNL A   1      40.999  32.320  36.282  1.00  0.00     0.049 A 
ATOM     67  H   UNL A   1      40.821  31.097  34.572  1.00  0.00     0.167 HD
ATOM     68  C   UNL A   1      39.201  33.392  34.955  1.00  0.00     0.074 A 
ATOM     69  C   UNL A   1      38.187  34.403  34.745  1.00  0.00     0.031 C 
ATOM     70  C   UNL A   1      39.999  33.332  36.050  1.00  0.00     0.037 A 
BRANCH  57  71
ATOM     71  C   UNL A   1      43.861  28.521  36.111  1.00  0.00     0.058 A 
ATOM     72  C   UNL A   1      43.525  27.398  36.882  1.00  0.00     0.135 A 
ATOM     73  C   UNL A   1      45.221  28.850  35.991  1.00  0.00     0.135 A 
ATOM     74  F   UNL A   1      42.239  27.049  37.045  1.00  0.00    -0.206 F 
ATOM     75  C   UNL A   1      44.499  26.629  37.509  1.00  0.00     0.059 A 
ATOM     76  C   UNL A   1      46.214  28.080  36.589  1.00  0.00     0.059 A 
ATOM     77  F   UNL A   1      45.597  29.918  35.270  1.00  0.00    -0.206 F 
ATOM     78  C   UNL A   1      45.843  26.972  37.347  1.00  0.00     0.060 A 
BRANCH  78  79
ATOM     79  S   UNL A   1      47.097  25.927  38.118  1.00  0.00     0.124 S 
ATOM     80  O   UNL A   1      48.244  26.828  38.157  1.00  0.00    -0.237 OA
ATOM     81  O   UNL A   1      46.491  25.617  39.410  1.00  0.00    -0.237 OA
ATOM     82  O   UNL A   1      47.214  24.800  37.198  1.00  0.00    -0.744 OA
ENDBRANCH  78  79
ENDBRANCH  57  71
BRANCH  58  83
ATOM     83  C   UNL A   1      36.630  33.178  31.018  1.00  0.00     0.058 A 
ATOM     84  C   UNL A   1      36.843  33.987  29.891  1.00  0.00     0.135 A 
ATOM     85  C   UNL A   1      35.312  33.039  31.479  1.00  0.00     0.135 A 
ATOM     86  F   UNL A   1      38.086  34.155  29.413  1.00  0.00    -0.206 F 
ATOM     87  C   UNL A   1      35.799  34.666  29.271  1.00  0.00     0.059 A 
ATOM     88  C   UNL A   1      34.246  33.683  30.858  1.00  0.00     0.059 A 
ATOM     89  F   UNL A   1      35.048  32.261  32.541  1.00  0.00    -0.206 F 
ATOM     90  C   UNL A   1      34.504  34.513  29.768  1.00  0.00     0.060 A 
BRANCH  90  91
ATOM     91  S   UNL A   1      33.154  35.398  28.959  1.00  0.00     0.124 S 
ATOM     92  O   UNL A   1      32.659  34.391  28.029  1.00  0.00    -0.237 OA
ATOM     93  O   UNL A   1      32.278  35.718  30.082  1.00  0.00    -0.237 OA
ATOM     94  O   UNL A   1      33.823  36.546  28.350  1.00  0.00    -0.744 OA
ENDBRANCH  90  91
ENDBRANCH  58  83
BRANCH  70  95
ATOM     95  C   UNL A   1      39.843  34.410  37.087  1.00  0.00     0.058 A 
ATOM     96  C   UNL A   1      39.130  34.197  38.276  1.00  0.00     0.135 A 
ATOM     97  C   UNL A   1      40.467  35.656  36.909  1.00  0.00     0.135 A 
ATOM     98  F   UNL A   1      38.511  33.026  38.493  1.00  0.00    -0.206 F 
ATOM     99  C   UNL A   1      39.018  35.191  39.242  1.00  0.00     0.059 A 
ATOM    100  C   UNL A   1      40.395  36.653  37.876  1.00  0.00     0.059 A 
ATOM    101  F   UNL A   1      41.172  35.908  35.794  1.00  0.00    -0.206 F 
ATOM    102  C   UNL A   1      39.657  36.415  39.035  1.00  0.00     0.060 A 
BRANCH 102 103
ATOM    103  S   UNL A   1      39.535  37.683  40.314  1.00  0.00     0.124 S 
ATOM    104  O   UNL A   1      40.937  38.039  40.509  1.00  0.00    -0.237 OA
ATOM    105  O   UNL A   1      38.708  38.699  39.670  1.00  0.00    -0.237 OA
ATOM    106  O   UNL A   1      38.904  36.983  41.429  1.00  0.00    -0.744 OA
ENDBRANCH 102 103
ENDBRANCH  70  95
ENDBRANCH  44  45
ENDBRANCH  36  39
ENDBRANCH  34  35
ENDBRANCH  33  34
ENDBRANCH  32  33
ENDBRANCH  31  32
ENDBRANCH  29  31
ENDBRANCH   1  27
TORSDOF 23
ENDMDL
MODEL 2
REMARK VINA RESULT:      -9.3      4.377      9.454
REMARK SMILES CCCCCCNC(=O)Oc1cccc(-c2ccc([C@H](C)C(=O)NCCCCNC(=O)c3ccc(-c4c5nc(c(-c6c(F)cc(S(=O)(=O)[O-])cc6F)c6ccc([nH]6)c(-c6c(F)cc(S(=O)(=O)[O-])cc6F)c6nc(c(-c7c(F)cc(S(=O)(=O)[O-])cc7F)c7ccc4[nH]7)C=C6)C=C5)cc3)cc2F)c1
REMARK SMILES IDX 20 1 21 2 19 3 16 4 17 5 99 6 18 7 98 8 100 9 15 10 11 11
REMARK SMILES IDX 12 12 101 13 13 14 14 15 10 16 8 17 7 18 9 20 6 21 5 22 4 23
REMARK SMILES IDX 3 24 2 25 1 26 22 27 23 28 24 29 25 31 26 32 27 33 28 34
REMARK SMILES IDX 29 35 30 36 31 38 32 39 33 40 97 41 34 42 96 43 35 44 36 45
REMARK SMILES IDX 37 46 90 47 38 48 95 49 89 50 91 51 39 52 94 53 88 54 87 55
REMARK SMILES IDX 40 57 74 58 53 59 73 60 54 61 57 62 72 63 92 64 55 65 56 66
REMARK SMILES IDX 71 68 93 69 58 70 41 71 42 72 51 73 43 74 44 75 50 76 52 77
REMARK SMILES IDX 45 78 46 79 47 80 48 81 49 82 75 83 76 84 85 85 77 86 78 87
REMARK SMILES IDX 84 88 86 89 79 90 80 91 81 92 82 93 83 94 59 95 60 96 69 97
REMARK SMILES IDX 61 98 62 99 68 100 70 101 63 102 64 103 65 104 66 105 67 106
REMARK H PARENT 7 19 24 30 29 37 91 56 57 67
REMARK Flexibility Score: inf
ROOT
ATOM      1  C   UNL A   1      43.031  23.956  27.553  1.00  0.00     0.105 C 
ATOM      2  C   UNL A   1      42.655  22.487  27.813  1.00  0.00     0.023 C 
ENDROOT
BRANCH   1   3
ATOM      3  C   UNL A   1      42.007  25.009  27.980  1.00  0.00    -0.033 A 
ATOM      4  C   UNL A   1      40.106  27.027  28.673  1.00  0.00     0.018 A 
ATOM      5  C   UNL A   1      39.697  25.804  28.127  1.00  0.00     0.012 A 
ATOM      6  C   UNL A   1      41.473  27.185  28.931  1.00  0.00     0.131 A 
ATOM      7  C   UNL A   1      40.626  24.804  27.816  1.00  0.00     0.005 A 
ATOM      8  C   UNL A   1      42.407  26.200  28.601  1.00  0.00     0.044 A 
ATOM      9  F   UNL A   1      41.930  28.310  29.505  1.00  0.00    -0.206 F 
BRANCH   4  10
ATOM     10  C   UNL A   1      39.131  28.100  28.924  1.00  0.00    -0.012 A 
ATOM     11  C   UNL A   1      37.504  29.173  30.372  1.00  0.00     0.133 A 
ATOM     12  C   UNL A   1      37.315  30.199  29.450  1.00  0.00     0.047 A 
ATOM     13  C   UNL A   1      38.385  28.123  30.114  1.00  0.00     0.056 A 
ATOM     14  C   UNL A   1      38.043  30.188  28.264  1.00  0.00     0.004 A 
ATOM     15  C   UNL A   1      38.944  29.149  28.005  1.00  0.00     0.009 A 
BRANCH  11  16
ATOM     16  O   UNL A   1      36.697  29.185  31.520  1.00  0.00    -0.410 OA
BRANCH  16  17
ATOM     17  C   UNL A   1      37.316  28.988  32.744  1.00  0.00     0.412 C 
ATOM     18  N   UNL A   1      37.388  30.124  33.500  1.00  0.00    -0.321 N 
ATOM     19  H   UNL A   1      37.837  30.045  34.372  1.00  0.00     0.167 HD
ATOM     20  O   UNL A   1      37.778  27.928  33.162  1.00  0.00    -0.224 OA
BRANCH  18  21
ATOM     21  C   UNL A   1      36.873  31.432  33.149  1.00  0.00     0.119 C 
BRANCH  21  22
ATOM     22  C   UNL A   1      37.985  32.378  32.698  1.00  0.00     0.021 C 
BRANCH  22  23
ATOM     23  C   UNL A   1      37.604  33.312  31.543  1.00  0.00     0.002 C 
BRANCH  23  24
ATOM     24  C   UNL A   1      36.303  34.100  31.734  1.00  0.00    -0.000 C 
BRANCH  24  25
ATOM     25  C   UNL A   1      36.208  34.907  33.032  1.00  0.00    -0.003 C 
ATOM     26  C   UNL A   1      34.797  34.982  33.593  1.00  0.00     0.004 C 
ENDBRANCH  24  25
ENDBRANCH  23  24
ENDBRANCH  22  23
ENDBRANCH  21  22
ENDBRANCH  18  21
ENDBRANCH  16  17
ENDBRANCH  11  16
ENDBRANCH   4  10
ENDBRANCH   1   3
BRANCH   1  27
ATOM     27  C   UNL A   1      44.443  24.185  28.106  1.00  0.00     0.227 C 
ATOM     28  O   UNL A   1      45.316  24.713  27.412  1.00  0.00    -0.274 OA
ATOM     29  N   UNL A   1      44.780  23.795  29.372  1.00  0.00    -0.356 N 
ATOM     30  H   UNL A   1      45.731  23.900  29.606  1.00  0.00     0.163 HD
BRANCH  29  31
ATOM     31  C   UNL A   1      43.940  23.245  30.426  1.00  0.00     0.116 C 
BRANCH  31  32
ATOM     32  C   UNL A   1      44.221  23.893  31.776  1.00  0.00     0.023 C 
BRANCH  32  33
ATOM     33  C   UNL A   1      43.986  22.977  32.977  1.00  0.00     0.023 C 
BRANCH  33  34
ATOM     34  C   UNL A   1      45.208  22.738  33.857  1.00  0.00     0.116 C 
BRANCH  34  35
ATOM     35  N   UNL A   1      44.892  22.752  35.278  1.00  0.00    -0.352 N 
ATOM     36  C   UNL A   1      44.603  23.825  36.088  1.00  0.00     0.251 C 
ATOM     37  H   UNL A   1      44.884  21.873  35.720  1.00  0.00     0.163 HD
ATOM     38  O   UNL A   1      44.526  23.678  37.303  1.00  0.00    -0.269 OA
BRANCH  36  39
ATOM     39  C   UNL A   1      44.419  25.164  35.487  1.00  0.00     0.039 A 
ATOM     40  C   UNL A   1      45.526  26.005  35.357  1.00  0.00     0.014 A 
ATOM     41  C   UNL A   1      43.164  25.574  35.028  1.00  0.00     0.014 A 
ATOM     42  C   UNL A   1      45.388  27.230  34.699  1.00  0.00     0.010 A 
ATOM     43  C   UNL A   1      43.046  26.757  34.306  1.00  0.00     0.010 A 
ATOM     44  C   UNL A   1      44.156  27.597  34.131  1.00  0.00    -0.014 A 
BRANCH  44  45
ATOM     45  C   UNL A   1      44.015  28.850  33.342  1.00  0.00     0.031 A 
ATOM     46  C   UNL A   1      44.446  28.889  31.901  1.00  0.00     0.074 A 
ATOM     47  C   UNL A   1      43.565  29.970  33.947  1.00  0.00     0.049 A 
ATOM     48  N   UNL A   1      44.473  29.904  31.076  1.00  0.00    -0.248 NA
ATOM     49  C   UNL A   1      44.939  27.630  31.315  1.00  0.00     0.031 C 
ATOM     50  C   UNL A   1      43.172  30.075  35.354  1.00  0.00     0.029 A 
ATOM     51  N   UNL A   1      43.376  31.240  33.459  1.00  0.00    -0.354 N 
ATOM     52  C   UNL A   1      45.003  29.414  29.888  1.00  0.00     0.074 A 
ATOM     53  C   UNL A   1      45.323  28.021  30.108  1.00  0.00     0.031 C 
ATOM     54  C   UNL A   1      42.780  31.333  35.612  1.00  0.00     0.029 A 
ATOM     55  C   UNL A   1      42.928  32.136  34.403  1.00  0.00     0.049 A 
ATOM     56  H   UNL A   1      43.547  31.487  32.522  1.00  0.00     0.167 HD
ATOM     57  C   UNL A   1      45.186  30.063  28.714  1.00  0.00     0.037 A 
ATOM     58  C   UNL A   1      42.681  33.458  34.310  1.00  0.00     0.037 A 
ATOM     59  C   UNL A   1      44.822  31.438  28.488  1.00  0.00     0.049 A 
ATOM     60  C   UNL A   1      42.876  34.148  32.985  1.00  0.00     0.074 A 
ATOM     61  C   UNL A   1      44.887  32.158  27.307  1.00  0.00     0.029 A 
ATOM     62  N   UNL A   1      44.331  32.301  29.456  1.00  0.00    -0.354 N 
ATOM     63  N   UNL A   1      43.292  33.643  31.846  1.00  0.00    -0.248 NA
ATOM     64  C   UNL A   1      42.560  35.581  32.925  1.00  0.00     0.031 C 
ATOM     65  C   UNL A   1      44.484  33.470  27.572  1.00  0.00     0.029 A 
ATOM     66  C   UNL A   1      44.114  33.552  28.905  1.00  0.00     0.049 A 
ATOM     67  H   UNL A   1      44.162  32.058  30.395  1.00  0.00     0.167 HD
ATOM     68  C   UNL A   1      43.258  34.691  30.933  1.00  0.00     0.074 A 
ATOM     69  C   UNL A   1      42.766  35.851  31.644  1.00  0.00     0.031 C 
ATOM     70  C   UNL A   1      43.604  34.694  29.621  1.00  0.00     0.037 A 
BRANCH  57  71
ATOM     71  C   UNL A   1      45.795  29.305  27.567  1.00  0.00     0.058 A 
ATOM     72  C   UNL A   1      47.185  29.225  27.390  1.00  0.00     0.135 A 
ATOM     73  C   UNL A   1      44.980  28.568  26.692  1.00  0.00     0.135 A 
ATOM     74  F   UNL A   1      48.010  29.923  28.187  1.00  0.00    -0.206 F 
ATOM     75  C   UNL A   1      47.746  28.443  26.386  1.00  0.00     0.059 A 
ATOM     76  C   UNL A   1      45.521  27.760  25.697  1.00  0.00     0.059 A 
ATOM     77  F   UNL A   1      43.644  28.613  26.815  1.00  0.00    -0.206 F 
ATOM     78  C   UNL A   1      46.905  27.705  25.550  1.00  0.00     0.060 A 
BRANCH  78  79
ATOM     79  S   UNL A   1      47.653  26.650  24.292  1.00  0.00     0.124 S 
ATOM     80  O   UNL A   1      49.017  26.518  24.795  1.00  0.00    -0.237 OA
ATOM     81  O   UNL A   1      46.832  25.446  24.367  1.00  0.00    -0.237 OA
ATOM     82  O   UNL A   1      47.510  27.428  23.065  1.00  0.00    -0.744 OA
ENDBRANCH  78  79
ENDBRANCH  57  71
BRANCH  58  83
ATOM     83  C   UNL A   1      42.229  34.227  35.502  1.00  0.00     0.058 A 
ATOM     84  C   UNL A   1      40.866  34.439  35.757  1.00  0.00     0.135 A 
ATOM     85  C   UNL A   1      43.154  34.797  36.391  1.00  0.00     0.135 A 
ATOM     86  F   UNL A   1      39.941  33.918  34.935  1.00  0.00    -0.206 F 
ATOM     87  C   UNL A   1      40.435  35.221  36.825  1.00  0.00     0.059 A 
ATOM     88  C   UNL A   1      42.747  35.558  37.484  1.00  0.00     0.059 A 
ATOM     89  F   UNL A   1      44.470  34.610  36.207  1.00  0.00    -0.206 F 
ATOM     90  C   UNL A   1      41.385  35.782  37.679  1.00  0.00     0.060 A 
BRANCH  90  91
ATOM     91  S   UNL A   1      40.819  36.796  39.061  1.00  0.00     0.124 S 
ATOM     92  O   UNL A   1      41.871  37.801  39.138  1.00  0.00    -0.237 OA
ATOM     93  O   UNL A   1      39.520  37.265  38.588  1.00  0.00    -0.237 OA
ATOM     94  O   UNL A   1      40.767  35.849  40.172  1.00  0.00    -0.744 OA
ENDBRANCH  90  91
ENDBRANCH  58  83
BRANCH  70  95
ATOM     95  C   UNL A   1      43.420  35.974  28.854  1.00  0.00     0.058 A 
ATOM     96  C   UNL A   1      42.182  36.336  28.302  1.00  0.00     0.135 A 
ATOM     97  C   UNL A   1      44.487  36.877  28.720  1.00  0.00     0.135 A 
ATOM     98  F   UNL A   1      41.130  35.507  28.398  1.00  0.00    -0.206 F 
ATOM     99  C   UNL A   1      42.015  37.537  27.621  1.00  0.00     0.059 A 
ATOM    100  C   UNL A   1      44.335  38.097  28.070  1.00  0.00     0.059 A 
ATOM    101  F   UNL A   1      45.691  36.585  29.239  1.00  0.00    -0.206 F 
ATOM    102  C   UNL A   1      43.097  38.412  27.513  1.00  0.00     0.060 A 
BRANCH 102 103
ATOM    103  S   UNL A   1      42.856  39.984  26.658  1.00  0.00     0.124 S 
ATOM    104  O   UNL A   1      44.000  40.004  25.753  1.00  0.00    -0.237 OA
ATOM    105  O   UNL A   1      41.552  39.801  26.027  1.00  0.00    -0.237 OA
ATOM    106  O   UNL A   1      42.892  40.968  27.736  1.00  0.00    -0.744 OA
ENDBRANCH 102 103
ENDBRANCH  70  95
ENDBRANCH  44  45
ENDBRANCH  36  39
ENDBRANCH  34  35
ENDBRANCH  33  34
ENDBRANCH  32  33
ENDBRANCH  31  32
ENDBRANCH  29  31
ENDBRANCH   1  27
TORSDOF 23
ENDMDL
MODEL 3
REMARK VINA RESULT:      -9.0      3.443      8.834
REMARK SMILES CCCCCCNC(=O)Oc1cccc(-c2ccc([C@H](C)C(=O)NCCCCNC(=O)c3ccc(-c4c5nc(c(-c6c(F)cc(S(=O)(=O)[O-])cc6F)c6ccc([nH]6)c(-c6c(F)cc(S(=O)(=O)[O-])cc6F)c6nc(c(-c7c(F)cc(S(=O)(=O)[O-])cc7F)c7ccc4[nH]7)C=C6)C=C5)cc3)cc2F)c1
REMARK SMILES IDX 20 1 21 2 19 3 16 4 17 5 99 6 18 7 98 8 100 9 15 10 11 11
REMARK SMILES IDX 12 12 101 13 13 14 14 15 10 16 8 17 7 18 9 20 6 21 5 22 4 23
REMARK SMILES IDX 3 24 2 25 1 26 22 27 23 28 24 29 25 31 26 32 27 33 28 34
REMARK SMILES IDX 29 35 30 36 31 38 32 39 33 40 97 41 34 42 96 43 35 44 36 45
REMARK SMILES IDX 37 46 90 47 38 48 95 49 89 50 91 51 39 52 94 53 88 54 87 55
REMARK SMILES IDX 40 57 74 58 53 59 73 60 54 61 57 62 72 63 92 64 55 65 56 66
REMARK SMILES IDX 71 68 93 69 58 70 41 71 42 72 51 73 43 74 44 75 50 76 52 77
REMARK SMILES IDX 45 78 46 79 47 80 48 81 49 82 75 83 76 84 85 85 77 86 78 87
REMARK SMILES IDX 84 88 86 89 79 90 80 91 81 92 82 93 83 94 59 95 60 96 69 97
REMARK SMILES IDX 61 98 62 99 68 100 70 101 63 102 64 103 65 104 66 105 67 106
REMARK H PARENT 7 19 24 30 29 37 91 56 57 67
REMARK Flexibility Score: inf
ROOT
ATOM      1  C   UNL A   1      40.396  27.613  28.806  1.00  0.00     0.105 C 
ATOM      2  C   UNL A   1      41.483  28.316  29.637  1.00  0.00     0.023 C 
ENDROOT
BRANCH   1   3
ATOM      3  C   UNL A   1      40.729  26.211  28.291  1.00  0.00    -0.033 A 
ATOM      4  C   UNL A   1      41.298  23.548  27.427  1.00  0.00     0.018 A 
ATOM      5  C   UNL A   1      40.154  24.224  26.986  1.00  0.00     0.012 A 
ATOM      6  C   UNL A   1      42.184  24.261  28.245  1.00  0.00     0.131 A 
ATOM      7  C   UNL A   1      39.890  25.539  27.387  1.00  0.00     0.005 A 
ATOM      8  C   UNL A   1      41.915  25.565  28.667  1.00  0.00     0.044 A 
ATOM      9  F   UNL A   1      43.330  23.695  28.659  1.00  0.00    -0.206 F 
BRANCH   4  10
ATOM     10  C   UNL A   1      41.527  22.141  27.063  1.00  0.00    -0.012 A 
ATOM     11  C   UNL A   1      42.746  20.460  25.804  1.00  0.00     0.133 A 
ATOM     12  C   UNL A   1      42.026  19.437  26.415  1.00  0.00     0.047 A 
ATOM     13  C   UNL A   1      42.494  21.798  26.103  1.00  0.00     0.056 A 
ATOM     14  C   UNL A   1      41.060  19.760  27.364  1.00  0.00     0.004 A 
ATOM     15  C   UNL A   1      40.815  21.099  27.686  1.00  0.00     0.009 A 
BRANCH  11  16
ATOM     16  O   UNL A   1      43.656  20.093  24.802  1.00  0.00    -0.410 OA
BRANCH  16  17
ATOM     17  C   UNL A   1      44.805  19.423  25.190  1.00  0.00     0.412 C 
ATOM     18  N   UNL A   1      45.919  20.214  25.181  1.00  0.00    -0.321 N 
ATOM     19  H   UNL A   1      46.768  19.781  25.430  1.00  0.00     0.167 HD
ATOM     20  O   UNL A   1      44.880  18.239  25.515  1.00  0.00    -0.224 OA
BRANCH  18  21
ATOM     21  C   UNL A   1      45.980  21.620  24.842  1.00  0.00     0.119 C 
BRANCH  21  22
ATOM     22  C   UNL A   1      45.748  22.509  26.064  1.00  0.00     0.021 C 
BRANCH  22  23
ATOM     23  C   UNL A   1      45.716  24.013  25.767  1.00  0.00     0.002 C 
BRANCH  23  24
ATOM     24  C   UNL A   1      44.528  24.494  24.926  1.00  0.00    -0.000 C 
BRANCH  24  25
ATOM     25  C   UNL A   1      43.848  25.773  25.421  1.00  0.00    -0.003 C 
ATOM     26  C   UNL A   1      44.697  26.564  26.404  1.00  0.00     0.004 C 
ENDBRANCH  24  25
ENDBRANCH  23  24
ENDBRANCH  22  23
ENDBRANCH  21  22
ENDBRANCH  18  21
ENDBRANCH  16  17
ENDBRANCH  11  16
ENDBRANCH   4  10
ENDBRANCH   1   3
BRANCH   1  27
ATOM     27  C   UNL A   1      39.076  27.706  29.582  1.00  0.00     0.227 C 
ATOM     28  O   UNL A   1      38.857  26.968  30.546  1.00  0.00    -0.274 OA
ATOM     29  N   UNL A   1      38.102  28.593  29.219  1.00  0.00    -0.356 N 
ATOM     30  H   UNL A   1      37.257  28.518  29.719  1.00  0.00     0.163 HD
BRANCH  29  31
ATOM     31  C   UNL A   1      38.129  29.634  28.201  1.00  0.00     0.116 C 
BRANCH  31  32
ATOM     32  C   UNL A   1      38.103  31.030  28.811  1.00  0.00     0.023 C 
BRANCH  32  33
ATOM     33  C   UNL A   1      36.801  31.795  28.580  1.00  0.00     0.023 C 
BRANCH  33  34
ATOM     34  C   UNL A   1      35.690  31.499  29.582  1.00  0.00     0.116 C 
BRANCH  34  35
ATOM     35  N   UNL A   1      35.016  32.702  30.049  1.00  0.00    -0.352 N 
ATOM     36  C   UNL A   1      35.247  33.433  31.190  1.00  0.00     0.251 C 
ATOM     37  H   UNL A   1      34.296  33.038  29.468  1.00  0.00     0.163 HD
ATOM     38  O   UNL A   1      34.472  34.326  31.518  1.00  0.00    -0.269 OA
BRANCH  36  39
ATOM     39  C   UNL A   1      36.416  33.114  32.037  1.00  0.00     0.039 A 
ATOM     40  C   UNL A   1      37.658  33.662  31.711  1.00  0.00     0.014 A 
ATOM     41  C   UNL A   1      36.279  32.299  33.165  1.00  0.00     0.014 A 
ATOM     42  C   UNL A   1      38.749  33.453  32.559  1.00  0.00     0.010 A 
ATOM     43  C   UNL A   1      37.346  32.158  34.048  1.00  0.00     0.010 A 
ATOM     44  C   UNL A   1      38.592  32.734  33.756  1.00  0.00    -0.014 A 
BRANCH  44  45
ATOM     45  C   UNL A   1      39.716  32.585  34.718  1.00  0.00     0.031 A 
ATOM     46  C   UNL A   1      40.571  31.347  34.695  1.00  0.00     0.074 A 
ATOM     47  C   UNL A   1      39.918  33.533  35.658  1.00  0.00     0.049 A 
ATOM     48  N   UNL A   1      41.543  31.002  35.500  1.00  0.00    -0.248 NA
ATOM     49  C   UNL A   1      40.281  30.351  33.648  1.00  0.00     0.031 C 
ATOM     50  C   UNL A   1      39.119  34.750  35.821  1.00  0.00     0.029 A 
ATOM     51  N   UNL A   1      40.849  33.615  36.665  1.00  0.00    -0.354 N 
ATOM     52  C   UNL A   1      41.963  29.747  35.073  1.00  0.00     0.074 A 
ATOM     53  C   UNL A   1      41.116  29.371  33.964  1.00  0.00     0.031 C 
ATOM     54  C   UNL A   1      39.599  35.460  36.855  1.00  0.00     0.029 A 
ATOM     55  C   UNL A   1      40.714  34.734  37.453  1.00  0.00     0.049 A 
ATOM     56  H   UNL A   1      41.546  32.936  36.808  1.00  0.00     0.167 HD
ATOM     57  C   UNL A   1      42.976  28.989  35.552  1.00  0.00     0.037 A 
ATOM     58  C   UNL A   1      41.400  35.124  38.546  1.00  0.00     0.037 A 
ATOM     59  C   UNL A   1      43.846  29.390  36.627  1.00  0.00     0.049 A 
ATOM     60  C   UNL A   1      42.536  34.268  39.043  1.00  0.00     0.074 A 
ATOM     61  C   UNL A   1      44.956  28.728  37.123  1.00  0.00     0.029 A 
ATOM     62  N   UNL A   1      43.705  30.549  37.373  1.00  0.00    -0.354 N 
ATOM     63  N   UNL A   1      42.976  33.126  38.567  1.00  0.00    -0.248 NA
ATOM     64  C   UNL A   1      43.275  34.753  40.216  1.00  0.00     0.031 C 
ATOM     65  C   UNL A   1      45.456  29.461  38.202  1.00  0.00     0.029 A 
ATOM     66  C   UNL A   1      44.692  30.609  38.342  1.00  0.00     0.049 A 
ATOM     67  H   UNL A   1      43.007  31.230  37.234  1.00  0.00     0.167 HD
ATOM     68  C   UNL A   1      44.060  32.776  39.365  1.00  0.00     0.074 A 
ATOM     69  C   UNL A   1      44.220  33.831  40.341  1.00  0.00     0.031 C 
ATOM     70  C   UNL A   1      44.852  31.677  39.296  1.00  0.00     0.037 A 
BRANCH  57  71
ATOM     71  C   UNL A   1      43.224  27.647  34.918  1.00  0.00     0.058 A 
ATOM     72  C   UNL A   1      44.070  27.500  33.808  1.00  0.00     0.135 A 
ATOM     73  C   UNL A   1      42.684  26.483  35.490  1.00  0.00     0.135 A 
ATOM     74  F   UNL A   1      44.598  28.580  33.211  1.00  0.00    -0.206 F 
ATOM     75  C   UNL A   1      44.372  26.246  33.286  1.00  0.00     0.059 A 
ATOM     76  C   UNL A   1      42.993  25.218  35.000  1.00  0.00     0.059 A 
ATOM     77  F   UNL A   1      41.865  26.568  36.550  1.00  0.00    -0.206 F 
ATOM     78  C   UNL A   1      43.836  25.110  33.896  1.00  0.00     0.060 A 
BRANCH  78  79
ATOM     79  S   UNL A   1      44.288  23.489  33.242  1.00  0.00     0.124 S 
ATOM     80  O   UNL A   1      43.224  22.649  33.782  1.00  0.00    -0.237 OA
ATOM     81  O   UNL A   1      44.246  23.714  31.800  1.00  0.00    -0.237 OA
ATOM     82  O   UNL A   1      45.617  23.255  33.798  1.00  0.00    -0.744 OA
ENDBRANCH  78  79
ENDBRANCH  57  71
BRANCH  58  83
ATOM     83  C   UNL A   1      41.036  36.381  39.258  1.00  0.00     0.058 A 
ATOM     84  C   UNL A   1      41.785  37.555  39.091  1.00  0.00     0.135 A 
ATOM     85  C   UNL A   1      39.951  36.423  40.148  1.00  0.00     0.135 A 
ATOM     86  F   UNL A   1      42.834  37.567  38.254  1.00  0.00    -0.206 F 
ATOM     87  C   UNL A   1      41.500  38.713  39.809  1.00  0.00     0.059 A 
ATOM     88  C   UNL A   1      39.627  37.577  40.855  1.00  0.00     0.059 A 
ATOM     89  F   UNL A   1      39.188  35.334  40.332  1.00  0.00    -0.206 F 
ATOM     90  C   UNL A   1      40.422  38.711  40.695  1.00  0.00     0.060 A 
BRANCH  90  91
ATOM     91  S   UNL A   1      40.059  40.216  41.624  1.00  0.00     0.124 S 
ATOM     92  O   UNL A   1      41.395  40.651  42.010  1.00  0.00    -0.237 OA
ATOM     93  O   UNL A   1      39.382  41.038  40.626  1.00  0.00    -0.237 OA
ATOM     94  O   UNL A   1      39.209  39.740  42.713  1.00  0.00    -0.744 OA
ENDBRANCH  90  91
ENDBRANCH  58  83
BRANCH  70  95
ATOM     95  C   UNL A   1      45.993  31.578  40.270  1.00  0.00     0.058 A 
ATOM     96  C   UNL A   1      47.257  32.118  39.988  1.00  0.00     0.135 A 
ATOM     97  C   UNL A   1      45.799  30.983  41.527  1.00  0.00     0.135 A 
ATOM     98  F   UNL A   1      47.497  32.693  38.799  1.00  0.00    -0.206 F 
ATOM     99  C   UNL A   1      48.297  32.049  40.908  1.00  0.00     0.059 A 
ATOM    100  C   UNL A   1      46.816  30.931  42.475  1.00  0.00     0.059 A 
ATOM    101  F   UNL A   1      44.605  30.462  41.853  1.00  0.00    -0.206 F 
ATOM    102  C   UNL A   1      48.066  31.456  42.151  1.00  0.00     0.060 A 
BRANCH 102 103
ATOM    103  S   UNL A   1      49.414  31.405  43.351  1.00  0.00     0.124 S 
ATOM    104  O   UNL A   1      50.345  30.484  42.707  1.00  0.00    -0.237 OA
ATOM    105  O   UNL A   1      49.839  32.801  43.404  1.00  0.00    -0.237 OA
ATOM    106  O   UNL A   1      48.774  30.904  44.563  1.00  0.00    -0.744 OA
ENDBRANCH 102 103
ENDBRANCH  70  95
ENDBRANCH  44  45
ENDBRANCH  36  39
ENDBRANCH  34  35
ENDBRANCH  33  34
ENDBRANCH  32  33
ENDBRANCH  31  32
ENDBRANCH  29  31
ENDBRANCH   1  27
TORSDOF 23
ENDMDL
