MODEL 1
REMARK VINA RESULT:     -12.5      0.000      0.000
REMARK SMILES O=CN1CC[NH+](C[C@@H](CC(=O)Nc2ccc(C(F)(F)F)nc2)C(=O)NCCCCNC(=O)c2ccc(-c3c4nc(c(-c5c(F)cc(S(=O)(=O)[O-])cc5F)c5ccc([nH]5)c(-c5c(F)cc(S(=O)(=O)[O-])cc5F)c5nc(c(-c6c(F)cc(S(=O)(=O)[O-])cc6F)c6ccc3[nH]6)C=C5)C=C4)cc2)CC1
REMARK SMILES IDX 27 1 26 2 25 3 23 4 24 5 8 7 7 8 6 9 1 10 2 11 3 12 4 13
REMARK SMILES IDX 100 14 5 15 99 16 9 18 10 19 11 20 12 21 13 23 14 24 22 25
REMARK SMILES IDX 15 26 21 27 16 28 17 29 18 30 19 31 20 32 28 33 29 34 30 35
REMARK SMILES IDX 31 36 32 38 33 39 34 40 98 41 35 42 97 43 36 44 37 45 38 46
REMARK SMILES IDX 91 47 39 48 96 49 90 50 92 51 40 52 95 53 89 54 88 55 41 57
REMARK SMILES IDX 75 58 54 59 74 60 55 61 58 62 73 63 93 64 56 65 57 66 72 68
REMARK SMILES IDX 94 69 59 70 42 71 43 72 52 73 44 74 45 75 51 76 53 77 46 78
REMARK SMILES IDX 47 79 48 80 49 81 50 82 76 83 77 84 86 85 78 86 79 87 85 88
REMARK SMILES IDX 87 89 80 90 81 91 82 92 83 93 84 94 60 95 61 96 70 97 62 98
REMARK SMILES IDX 63 99 69 100 71 101 64 102 65 103 66 104 67 105 68 106
REMARK H PARENT 25 6 6 17 12 22 30 37 92 56 58 67
REMARK Flexibility Score: inf
ROOT
ATOM      1  C   UNL A   1      38.494  23.252  26.248  1.00  0.00     0.023 C 
ENDROOT
BRANCH   1   2
ATOM      2  C   UNL A   1      37.366  22.382  25.733  1.00  0.00     0.116 C 
BRANCH   2   3
ATOM      3  N   UNL A   1      36.198  22.262  26.553  1.00  0.00    -0.356 N 
ATOM      4  C   UNL A   1      35.029  21.646  26.210  1.00  0.00     0.229 C 
ATOM      5  O   UNL A   1      34.179  21.509  27.096  1.00  0.00    -0.275 OA
ATOM      6  H   UNL A   1      36.241  22.664  27.450  1.00  0.00     0.163 HD
BRANCH   4   7
ATOM      7  C   UNL A   1      34.696  21.226  24.755  1.00  0.00     0.142 C 
BRANCH   7   8
ATOM      8  C   UNL A   1      34.521  19.698  24.734  1.00  0.00     0.276 C 
BRANCH   8   9
ATOM      9  N   UNL A   1      33.426  18.975  24.068  1.00  0.00    -0.331 N 
ATOM     10  O   UNL A   1      32.010  14.667  26.439  1.00  0.00    -0.279 OA
ATOM     11  C   UNL A   1      32.703  14.977  25.479  1.00  0.00     0.340 C 
ATOM     12  N   UNL A   1      32.998  16.259  25.078  1.00  0.00    -0.334 N 
ATOM     13  C   UNL A   1      33.985  16.502  24.039  1.00  0.00     0.180 C 
ATOM     14  C   UNL A   1      32.564  17.411  25.866  1.00  0.00     0.180 C 
ATOM     15  C   UNL A   1      33.698  17.788  23.256  1.00  0.00     0.284 C 
ATOM     16  C   UNL A   1      32.310  18.661  24.996  1.00  0.00     0.284 C 
ATOM     17  H   UNL A   1      33.187  19.682  23.374  1.00  0.00     0.348 HD
ENDBRANCH   8   9
ENDBRANCH   7   8
BRANCH   7  18
ATOM     18  C   UNL A   1      33.862  22.221  23.938  1.00  0.00     0.119 C 
BRANCH  18  19
ATOM     19  C   UNL A   1      32.373  22.303  23.558  1.00  0.00     0.225 C 
ATOM     20  O   UNL A   1      31.949  21.405  22.810  1.00  0.00    -0.275 OA
ATOM     21  N   UNL A   1      31.399  23.108  24.045  1.00  0.00    -0.325 N 
ATOM     22  H   UNL A   1      30.502  22.747  23.865  1.00  0.00     0.169 HD
BRANCH  21  23
ATOM     23  C   UNL A   1      31.347  24.319  24.739  1.00  0.00     0.059 A 
ATOM     24  C   UNL A   1      30.754  25.478  24.263  1.00  0.00     0.030 A 
ATOM     25  C   UNL A   1      31.799  24.354  26.053  1.00  0.00     0.137 A 
ATOM     26  C   UNL A   1      30.810  26.655  25.011  1.00  0.00     0.035 A 
ATOM     27  N   UNL A   1      31.883  25.476  26.807  1.00  0.00    -0.250 NA
ATOM     28  C   UNL A   1      31.445  26.641  26.248  1.00  0.00     0.144 A 
BRANCH  28  29
ATOM     29  C   UNL A   1      31.662  27.961  26.974  1.00  0.00     0.433 C 
ATOM     30  F   UNL A   1      32.898  28.060  27.541  1.00  0.00    -0.165 F 
ATOM     31  F   UNL A   1      31.519  29.058  26.178  1.00  0.00    -0.165 F 
ATOM     32  F   UNL A   1      30.777  28.146  28.002  1.00  0.00    -0.165 F 
ENDBRANCH  28  29
ENDBRANCH  21  23
ENDBRANCH  18  19
ENDBRANCH   7  18
ENDBRANCH   4   7
ENDBRANCH   2   3
ENDBRANCH   1   2
BRANCH   1  33
ATOM     33  C   UNL A   1      39.661  22.493  26.850  1.00  0.00     0.023 C 
BRANCH  33  34
ATOM     34  C   UNL A   1      40.955  23.284  26.991  1.00  0.00     0.116 C 
BRANCH  34  35
ATOM     35  N   UNL A   1      41.200  24.254  25.927  1.00  0.00    -0.352 N 
ATOM     36  C   UNL A   1      41.373  25.618  26.042  1.00  0.00     0.251 C 
ATOM     37  H   UNL A   1      41.247  23.889  25.014  1.00  0.00     0.163 HD
ATOM     38  O   UNL A   1      41.497  26.326  25.050  1.00  0.00    -0.269 OA
BRANCH  36  39
ATOM     39  C   UNL A   1      41.352  26.211  27.396  1.00  0.00     0.039 A 
ATOM     40  C   UNL A   1      42.442  26.970  27.824  1.00  0.00     0.014 A 
ATOM     41  C   UNL A   1      40.186  26.141  28.162  1.00  0.00     0.014 A 
ATOM     42  C   UNL A   1      42.316  27.756  28.970  1.00  0.00     0.010 A 
ATOM     43  C   UNL A   1      40.027  27.009  29.235  1.00  0.00     0.010 A 
ATOM     44  C   UNL A   1      41.085  27.833  29.647  1.00  0.00    -0.014 A 
BRANCH  44  45
ATOM     45  C   UNL A   1      40.877  28.783  30.772  1.00  0.00     0.031 A 
ATOM     46  C   UNL A   1      41.708  28.660  32.021  1.00  0.00     0.074 A 
ATOM     47  C   UNL A   1      39.889  29.699  30.706  1.00  0.00     0.049 A 
ATOM     48  N   UNL A   1      41.630  29.341  33.135  1.00  0.00    -0.248 NA
ATOM     49  C   UNL A   1      42.738  27.607  32.034  1.00  0.00     0.031 C 
ATOM     50  C   UNL A   1      38.961  29.870  29.584  1.00  0.00     0.029 A 
ATOM     51  N   UNL A   1      39.491  30.657  31.606  1.00  0.00    -0.354 N 
ATOM     52  C   UNL A   1      42.582  28.788  33.982  1.00  0.00     0.074 A 
ATOM     53  C   UNL A   1      43.178  27.673  33.281  1.00  0.00     0.031 C 
ATOM     54  C   UNL A   1      38.129  30.892  29.848  1.00  0.00     0.029 A 
ATOM     55  C   UNL A   1      38.436  31.425  31.170  1.00  0.00     0.049 A 
ATOM     56  H   UNL A   1      39.921  30.781  32.484  1.00  0.00     0.167 HD
ATOM     57  C   UNL A   1      42.952  29.191  35.221  1.00  0.00     0.037 A 
ATOM     58  C   UNL A   1      37.789  32.445  31.770  1.00  0.00     0.037 A 
ATOM     59  C   UNL A   1      42.386  30.326  35.899  1.00  0.00     0.049 A 
ATOM     60  C   UNL A   1      38.237  32.894  33.134  1.00  0.00     0.074 A 
ATOM     61  C   UNL A   1      42.742  30.863  37.123  1.00  0.00     0.029 A 
ATOM     62  N   UNL A   1      41.345  31.102  35.409  1.00  0.00    -0.354 N 
ATOM     63  N   UNL A   1      39.192  32.407  33.890  1.00  0.00    -0.248 NA
ATOM     64  C   UNL A   1      37.523  34.035  33.726  1.00  0.00     0.031 C 
ATOM     65  C   UNL A   1      41.891  31.938  37.392  1.00  0.00     0.029 A 
ATOM     66  C   UNL A   1      41.034  32.102  36.315  1.00  0.00     0.049 A 
ATOM     67  H   UNL A   1      40.894  30.961  34.545  1.00  0.00     0.167 HD
ATOM     68  C   UNL A   1      39.212  33.196  35.034  1.00  0.00     0.074 A 
ATOM     69  C   UNL A   1      38.183  34.201  34.865  1.00  0.00     0.031 C 
ATOM     70  C   UNL A   1      40.009  33.097  36.127  1.00  0.00     0.037 A 
BRANCH  57  71
ATOM     71  C   UNL A   1      44.036  28.408  35.910  1.00  0.00     0.058 A 
ATOM     72  C   UNL A   1      45.395  28.706  35.718  1.00  0.00     0.135 A 
ATOM     73  C   UNL A   1      43.713  27.361  36.789  1.00  0.00     0.135 A 
ATOM     74  F   UNL A   1      45.760  29.685  34.875  1.00  0.00    -0.206 F 
ATOM     75  C   UNL A   1      46.396  27.974  36.347  1.00  0.00     0.059 A 
ATOM     76  C   UNL A   1      44.698  26.635  37.452  1.00  0.00     0.059 A 
ATOM     77  F   UNL A   1      42.430  27.032  37.007  1.00  0.00    -0.206 F 
ATOM     78  C   UNL A   1      46.037  26.939  37.211  1.00  0.00     0.060 A 
BRANCH  78  79
ATOM     79  S   UNL A   1      47.349  26.001  38.021  1.00  0.00     0.124 S 
ATOM     80  O   UNL A   1      46.605  25.304  39.066  1.00  0.00    -0.237 OA
ATOM     81  O   UNL A   1      47.851  25.164  36.937  1.00  0.00    -0.237 OA
ATOM     82  O   UNL A   1      48.268  27.035  38.488  1.00  0.00    -0.744 OA
ENDBRANCH  78  79
ENDBRANCH  57  71
BRANCH  58  83
ATOM     83  C   UNL A   1      36.672  33.135  31.069  1.00  0.00     0.058 A 
ATOM     84  C   UNL A   1      36.922  34.001  29.993  1.00  0.00     0.135 A 
ATOM     85  C   UNL A   1      35.336  32.937  31.450  1.00  0.00     0.135 A 
ATOM     86  F   UNL A   1      38.183  34.228  29.594  1.00  0.00    -0.206 F 
ATOM     87  C   UNL A   1      35.891  34.660  29.331  1.00  0.00     0.059 A 
ATOM     88  C   UNL A   1      34.285  33.566  30.788  1.00  0.00     0.059 A 
ATOM     89  F   UNL A   1      35.041  32.106  32.460  1.00  0.00    -0.206 F 
ATOM     90  C   UNL A   1      34.574  34.434  29.735  1.00  0.00     0.060 A 
BRANCH  90  91
ATOM     91  S   UNL A   1      33.238  35.253  28.836  1.00  0.00     0.124 S 
ATOM     92  O   UNL A   1      32.426  35.775  29.929  1.00  0.00    -0.237 OA
ATOM     93  O   UNL A   1      33.963  36.244  28.047  1.00  0.00    -0.237 OA
ATOM     94  O   UNL A   1      32.640  34.167  28.065  1.00  0.00    -0.744 OA
ENDBRANCH  90  91
ENDBRANCH  58  83
BRANCH  70  95
ATOM     95  C   UNL A   1      39.820  34.118  37.214  1.00  0.00     0.058 A 
ATOM     96  C   UNL A   1      38.903  33.921  38.258  1.00  0.00     0.135 A 
ATOM     97  C   UNL A   1      40.600  35.286  37.236  1.00  0.00     0.135 A 
ATOM     98  F   UNL A   1      38.130  32.825  38.280  1.00  0.00    -0.206 F 
ATOM     99  C   UNL A   1      38.748  34.859  39.274  1.00  0.00     0.059 A 
ATOM    100  C   UNL A   1      40.482  36.224  38.256  1.00  0.00     0.059 A 
ATOM    101  F   UNL A   1      41.500  35.516  36.267  1.00  0.00    -0.206 F 
ATOM    102  C   UNL A   1      39.543  36.007  39.264  1.00  0.00     0.060 A 
BRANCH 102 103
ATOM    103  S   UNL A   1      39.352  37.204  40.602  1.00  0.00     0.124 S 
ATOM    104  O   UNL A   1      38.319  38.083  40.063  1.00  0.00    -0.237 OA
ATOM    105  O   UNL A   1      38.946  36.360  41.721  1.00  0.00    -0.237 OA
ATOM    106  O   UNL A   1      40.681  37.796  40.721  1.00  0.00    -0.744 OA
ENDBRANCH 102 103
ENDBRANCH  70  95
ENDBRANCH  44  45
ENDBRANCH  36  39
ENDBRANCH  34  35
ENDBRANCH  33  34
ENDBRANCH   1  33
TORSDOF 20
ENDMDL
MODEL 2
REMARK VINA RESULT:     -12.4      4.833     10.082
REMARK SMILES O=CN1CC[NH+](C[C@@H](CC(=O)Nc2ccc(C(F)(F)F)nc2)C(=O)NCCCCNC(=O)c2ccc(-c3c4nc(c(-c5c(F)cc(S(=O)(=O)[O-])cc5F)c5ccc([nH]5)c(-c5c(F)cc(S(=O)(=O)[O-])cc5F)c5nc(c(-c6c(F)cc(S(=O)(=O)[O-])cc6F)c6ccc3[nH]6)C=C5)C=C4)cc2)CC1
REMARK SMILES IDX 27 1 26 2 25 3 23 4 24 5 8 7 7 8 6 9 1 10 2 11 3 12 4 13
REMARK SMILES IDX 100 14 5 15 99 16 9 18 10 19 11 20 12 21 13 23 14 24 22 25
REMARK SMILES IDX 15 26 21 27 16 28 17 29 18 30 19 31 20 32 28 33 29 34 30 35
REMARK SMILES IDX 31 36 32 38 33 39 34 40 98 41 35 42 97 43 36 44 37 45 38 46
REMARK SMILES IDX 91 47 39 48 96 49 90 50 92 51 40 52 95 53 89 54 88 55 41 57
REMARK SMILES IDX 75 58 54 59 74 60 55 61 58 62 73 63 93 64 56 65 57 66 72 68
REMARK SMILES IDX 94 69 59 70 42 71 43 72 52 73 44 74 45 75 51 76 53 77 46 78
REMARK SMILES IDX 47 79 48 80 49 81 50 82 76 83 77 84 86 85 78 86 79 87 85 88
REMARK SMILES IDX 87 89 80 90 81 91 82 92 83 93 84 94 60 95 61 96 70 97 62 98
REMARK SMILES IDX 63 99 69 100 71 101 64 102 65 103 66 104 67 105 68 106
REMARK H PARENT 25 6 6 17 12 22 30 37 92 56 58 67
REMARK Flexibility Score: inf
ROOT
ATOM      1  C   UNL A   1      31.953  27.608  26.648  1.00  0.00     0.023 C 
ENDROOT
BRANCH   1   2
ATOM      2  C   UNL A   1      31.958  26.138  26.284  1.00  0.00     0.116 C 
BRANCH   2   3
ATOM      3  N   UNL A   1      30.893  25.328  26.796  1.00  0.00    -0.356 N 
ATOM      4  C   UNL A   1      30.698  23.999  26.553  1.00  0.00     0.229 C 
ATOM      5  O   UNL A   1      29.812  23.428  27.196  1.00  0.00    -0.275 OA
ATOM      6  H   UNL A   1      30.238  25.773  27.380  1.00  0.00     0.163 HD
BRANCH   4   7
ATOM      7  C   UNL A   1      31.457  23.229  25.440  1.00  0.00     0.142 C 
BRANCH   7   8
ATOM      8  C   UNL A   1      31.562  21.758  25.874  1.00  0.00     0.276 C 
BRANCH   8   9
ATOM      9  N   UNL A   1      32.815  21.044  26.169  1.00  0.00    -0.331 N 
ATOM     10  O   UNL A   1      36.983  24.010  26.115  1.00  0.00    -0.279 OA
ATOM     11  C   UNL A   1      36.435  23.218  25.360  1.00  0.00     0.340 C 
ATOM     12  N   UNL A   1      35.237  22.585  25.587  1.00  0.00    -0.334 N 
ATOM     13  C   UNL A   1      34.594  21.815  24.536  1.00  0.00     0.180 C 
ATOM     14  C   UNL A   1      34.433  22.900  26.767  1.00  0.00     0.180 C 
ATOM     15  C   UNL A   1      33.737  20.673  25.093  1.00  0.00     0.284 C 
ATOM     16  C   UNL A   1      33.595  21.695  27.250  1.00  0.00     0.284 C 
ATOM     17  H   UNL A   1      32.410  20.150  26.446  1.00  0.00     0.348 HD
ENDBRANCH   8   9
ENDBRANCH   7   8
BRANCH   7  18
ATOM     18  C   UNL A   1      31.220  23.711  24.004  1.00  0.00     0.119 C 
BRANCH  18  19
ATOM     19  C   UNL A   1      32.080  24.474  22.980  1.00  0.00     0.225 C 
ATOM     20  O   UNL A   1      32.996  23.827  22.445  1.00  0.00    -0.275 OA
ATOM     21  N   UNL A   1      31.894  25.701  22.438  1.00  0.00    -0.325 N 
ATOM     22  H   UNL A   1      32.399  25.812  21.601  1.00  0.00     0.169 HD
BRANCH  21  23
ATOM     23  C   UNL A   1      31.167  26.847  22.767  1.00  0.00     0.059 A 
ATOM     24  C   UNL A   1      29.838  26.855  23.160  1.00  0.00     0.030 A 
ATOM     25  C   UNL A   1      31.838  28.063  22.840  1.00  0.00     0.137 A 
ATOM     26  C   UNL A   1      29.185  28.064  23.408  1.00  0.00     0.035 A 
ATOM     27  N   UNL A   1      31.240  29.258  23.064  1.00  0.00    -0.250 NA
ATOM     28  C   UNL A   1      29.893  29.254  23.281  1.00  0.00     0.144 A 
BRANCH  28  29
ATOM     29  C   UNL A   1      29.135  30.570  23.375  1.00  0.00     0.433 C 
ATOM     30  F   UNL A   1      29.156  31.280  22.211  1.00  0.00    -0.165 F 
ATOM     31  F   UNL A   1      27.821  30.427  23.709  1.00  0.00    -0.165 F 
ATOM     32  F   UNL A   1      29.657  31.410  24.321  1.00  0.00    -0.165 F 
ENDBRANCH  28  29
ENDBRANCH  21  23
ENDBRANCH  18  19
ENDBRANCH   7  18
ENDBRANCH   4   7
ENDBRANCH   2   3
ENDBRANCH   1   2
BRANCH   1  33
ATOM     33  C   UNL A   1      33.270  28.136  27.185  1.00  0.00     0.023 C 
BRANCH  33  34
ATOM     34  C   UNL A   1      33.740  29.457  26.589  1.00  0.00     0.116 C 
BRANCH  34  35
ATOM     35  N   UNL A   1      33.678  30.596  27.501  1.00  0.00    -0.352 N 
ATOM     36  C   UNL A   1      34.627  31.008  28.414  1.00  0.00     0.251 C 
ATOM     37  H   UNL A   1      32.857  31.137  27.459  1.00  0.00     0.163 HD
ATOM     38  O   UNL A   1      34.411  31.945  29.174  1.00  0.00    -0.269 OA
BRANCH  36  39
ATOM     39  C   UNL A   1      35.896  30.253  28.488  1.00  0.00     0.039 A 
ATOM     40  C   UNL A   1      36.787  30.314  27.416  1.00  0.00     0.014 A 
ATOM     41  C   UNL A   1      36.258  29.626  29.682  1.00  0.00     0.014 A 
ATOM     42  C   UNL A   1      38.090  29.843  27.587  1.00  0.00     0.010 A 
ATOM     43  C   UNL A   1      37.583  29.264  29.883  1.00  0.00     0.010 A 
ATOM     44  C   UNL A   1      38.518  29.376  28.842  1.00  0.00    -0.014 A 
BRANCH  44  45
ATOM     45  C   UNL A   1      39.940  29.020  29.095  1.00  0.00     0.031 A 
ATOM     46  C   UNL A   1      40.877  30.044  29.676  1.00  0.00     0.074 A 
ATOM     47  C   UNL A   1      40.406  27.810  28.725  1.00  0.00     0.049 A 
ATOM     48  N   UNL A   1      42.162  29.952  29.903  1.00  0.00    -0.248 NA
ATOM     49  C   UNL A   1      40.302  31.358  30.013  1.00  0.00     0.031 C 
ATOM     50  C   UNL A   1      39.619  26.756  28.079  1.00  0.00     0.029 A 
ATOM     51  N   UNL A   1      41.660  27.260  28.833  1.00  0.00    -0.354 N 
ATOM     52  C   UNL A   1      42.549  31.195  30.387  1.00  0.00     0.074 A 
ATOM     53  C   UNL A   1      41.380  32.045  30.359  1.00  0.00     0.031 C 
ATOM     54  C   UNL A   1      40.398  25.679  27.881  1.00  0.00     0.029 A 
ATOM     55  C   UNL A   1      41.747  25.975  28.349  1.00  0.00     0.049 A 
ATOM     56  H   UNL A   1      42.427  27.743  29.218  1.00  0.00     0.167 HD
ATOM     57  C   UNL A   1      43.762  31.587  30.847  1.00  0.00     0.037 A 
ATOM     58  C   UNL A   1      42.796  25.130  28.291  1.00  0.00     0.037 A 
ATOM     59  C   UNL A   1      44.912  30.727  30.912  1.00  0.00     0.049 A 
ATOM     60  C   UNL A   1      44.126  25.578  28.833  1.00  0.00     0.074 A 
ATOM     61  C   UNL A   1      46.165  31.004  31.430  1.00  0.00     0.029 A 
ATOM     62  N   UNL A   1      44.950  29.420  30.448  1.00  0.00    -0.354 N 
ATOM     63  N   UNL A   1      44.455  26.733  29.360  1.00  0.00    -0.248 NA
ATOM     64  C   UNL A   1      45.227  24.605  28.781  1.00  0.00     0.031 C 
ATOM     65  C   UNL A   1      46.973  29.878  31.242  1.00  0.00     0.029 A 
ATOM     66  C   UNL A   1      46.210  28.882  30.650  1.00  0.00     0.049 A 
ATOM     67  H   UNL A   1      44.193  28.945  30.036  1.00  0.00     0.167 HD
ATOM     68  C   UNL A   1      45.792  26.619  29.724  1.00  0.00     0.074 A 
ATOM     69  C   UNL A   1      46.206  25.277  29.371  1.00  0.00     0.031 C 
ATOM     70  C   UNL A   1      46.604  27.542  30.297  1.00  0.00     0.037 A 
BRANCH  57  71
ATOM     71  C   UNL A   1      43.893  33.004  31.334  1.00  0.00     0.058 A 
ATOM     72  C   UNL A   1      43.655  33.347  32.675  1.00  0.00     0.135 A 
ATOM     73  C   UNL A   1      44.284  34.028  30.456  1.00  0.00     0.135 A 
ATOM     74  F   UNL A   1      43.261  32.411  33.552  1.00  0.00    -0.206 F 
ATOM     75  C   UNL A   1      43.766  34.659  33.121  1.00  0.00     0.059 A 
ATOM     76  C   UNL A   1      44.431  35.343  30.888  1.00  0.00     0.059 A 
ATOM     77  F   UNL A   1      44.522  33.757  29.163  1.00  0.00    -0.206 F 
ATOM     78  C   UNL A   1      44.153  35.651  32.219  1.00  0.00     0.060 A 
BRANCH  78  79
ATOM     79  S   UNL A   1      44.296  37.348  32.816  1.00  0.00     0.124 S 
ATOM     80  O   UNL A   1      43.167  37.427  33.738  1.00  0.00    -0.237 OA
ATOM     81  O   UNL A   1      45.618  37.352  33.433  1.00  0.00    -0.237 OA
ATOM     82  O   UNL A   1      44.172  38.148  31.601  1.00  0.00    -0.744 OA
ENDBRANCH  78  79
ENDBRANCH  57  71
BRANCH  58  83
ATOM     83  C   UNL A   1      42.623  23.764  27.728  1.00  0.00     0.058 A 
ATOM     84  C   UNL A   1      42.471  22.651  28.570  1.00  0.00     0.135 A 
ATOM     85  C   UNL A   1      42.596  23.541  26.343  1.00  0.00     0.135 A 
ATOM     86  F   UNL A   1      42.495  22.811  29.902  1.00  0.00    -0.206 F 
ATOM     87  C   UNL A   1      42.316  21.366  28.062  1.00  0.00     0.059 A 
ATOM     88  C   UNL A   1      42.419  22.267  25.809  1.00  0.00     0.059 A 
ATOM     89  F   UNL A   1      42.720  24.572  25.493  1.00  0.00    -0.206 F 
ATOM     90  C   UNL A   1      42.289  21.184  26.679  1.00  0.00     0.060 A 
BRANCH  90  91
ATOM     91  S   UNL A   1      42.034  19.518  26.027  1.00  0.00     0.124 S 
ATOM     92  O   UNL A   1      42.475  18.695  27.147  1.00  0.00    -0.237 OA
ATOM     93  O   UNL A   1      40.600  19.512  25.755  1.00  0.00    -0.237 OA
ATOM     94  O   UNL A   1      42.888  19.488  24.844  1.00  0.00    -0.744 OA
ENDBRANCH  90  91
ENDBRANCH  58  83
BRANCH  70  95
ATOM     95  C   UNL A   1      48.014  27.125  30.605  1.00  0.00     0.058 A 
ATOM     96  C   UNL A   1      49.036  27.218  29.647  1.00  0.00     0.135 A 
ATOM     97  C   UNL A   1      48.357  26.671  31.889  1.00  0.00     0.135 A 
ATOM     98  F   UNL A   1      48.760  27.640  28.404  1.00  0.00    -0.206 F 
ATOM     99  C   UNL A   1      50.344  26.851  29.945  1.00  0.00     0.059 A 
ATOM    100  C   UNL A   1      49.664  26.325  32.217  1.00  0.00     0.059 A 
ATOM    101  F   UNL A   1      47.419  26.574  32.845  1.00  0.00    -0.206 F 
ATOM    102  C   UNL A   1      50.648  26.406  31.233  1.00  0.00     0.060 A 
BRANCH 102 103
ATOM    103  S   UNL A   1      52.355  25.958  31.614  1.00  0.00     0.124 S 
ATOM    104  O   UNL A   1      53.019  26.224  30.342  1.00  0.00    -0.237 OA
ATOM    105  O   UNL A   1      52.682  26.874  32.703  1.00  0.00    -0.237 OA
ATOM    106  O   UNL A   1      52.261  24.552  31.994  1.00  0.00    -0.744 OA
ENDBRANCH 102 103
ENDBRANCH  70  95
ENDBRANCH  44  45
ENDBRANCH  36  39
ENDBRANCH  34  35
ENDBRANCH  33  34
ENDBRANCH   1  33
TORSDOF 20
ENDMDL
MODEL 3
REMARK VINA RESULT:     -12.3      6.368      9.185
REMARK SMILES O=CN1CC[NH+](C[C@@H](CC(=O)Nc2ccc(C(F)(F)F)nc2)C(=O)NCCCCNC(=O)c2ccc(-c3c4nc(c(-c5c(F)cc(S(=O)(=O)[O-])cc5F)c5ccc([nH]5)c(-c5c(F)cc(S(=O)(=O)[O-])cc5F)c5nc(c(-c6c(F)cc(S(=O)(=O)[O-])cc6F)c6ccc3[nH]6)C=C5)C=C4)cc2)CC1
REMARK SMILES IDX 27 1 26 2 25 3 23 4 24 5 8 7 7 8 6 9 1 10 2 11 3 12 4 13
REMARK SMILES IDX 100 14 5 15 99 16 9 18 10 19 11 20 12 21 13 23 14 24 22 25
REMARK SMILES IDX 15 26 21 27 16 28 17 29 18 30 19 31 20 32 28 33 29 34 30 35
REMARK SMILES IDX 31 36 32 38 33 39 34 40 98 41 35 42 97 43 36 44 37 45 38 46
REMARK SMILES IDX 91 47 39 48 96 49 90 50 92 51 40 52 95 53 89 54 88 55 41 57
REMARK SMILES IDX 75 58 54 59 74 60 55 61 58 62 73 63 93 64 56 65 57 66 72 68
REMARK SMILES IDX 94 69 59 70 42 71 43 72 52 73 44 74 45 75 51 76 53 77 46 78
REMARK SMILES IDX 47 79 48 80 49 81 50 82 76 83 77 84 86 85 78 86 79 87 85 88
REMARK SMILES IDX 87 89 80 90 81 91 82 92 83 93 84 94 60 95 61 96 70 97 62 98
REMARK SMILES IDX 63 99 69 100 71 101 64 102 65 103 66 104 67 105 68 106
REMARK H PARENT 25 6 6 17 12 22 30 37 92 56 58 67
REMARK Flexibility Score: inf
ROOT
ATOM      1  C   UNL A   1      36.973  22.212  25.821  1.00  0.00     0.023 C 
ENDROOT
BRANCH   1   2
ATOM      2  C   UNL A   1      36.573  23.397  24.967  1.00  0.00     0.116 C 
BRANCH   2   3
ATOM      3  N   UNL A   1      35.680  23.152  23.874  1.00  0.00    -0.356 N 
ATOM      4  C   UNL A   1      34.529  23.833  23.601  1.00  0.00     0.229 C 
ATOM      5  O   UNL A   1      33.961  23.582  22.533  1.00  0.00    -0.275 OA
ATOM      6  H   UNL A   1      35.919  22.420  23.261  1.00  0.00     0.163 HD
BRANCH   4   7
ATOM      7  C   UNL A   1      33.867  24.803  24.614  1.00  0.00     0.142 C 
BRANCH   7   8
ATOM      8  C   UNL A   1      33.005  25.797  23.819  1.00  0.00     0.276 C 
BRANCH   8   9
ATOM      9  N   UNL A   1      31.848  25.443  22.981  1.00  0.00    -0.331 N 
ATOM     10  O   UNL A   1      28.405  29.191  22.462  1.00  0.00    -0.279 OA
ATOM     11  C   UNL A   1      28.530  28.173  23.130  1.00  0.00     0.340 C 
ATOM     12  N   UNL A   1      29.627  27.345  23.140  1.00  0.00    -0.334 N 
ATOM     13  C   UNL A   1      29.738  26.273  24.114  1.00  0.00     0.180 C 
ATOM     14  C   UNL A   1      30.833  27.686  22.385  1.00  0.00     0.180 C 
ATOM     15  C   UNL A   1      30.563  25.093  23.588  1.00  0.00     0.284 C 
ATOM     16  C   UNL A   1      31.603  26.436  21.906  1.00  0.00     0.284 C 
ATOM     17  H   UNL A   1      32.192  24.548  22.632  1.00  0.00     0.348 HD
ENDBRANCH   8   9
ENDBRANCH   7   8
BRANCH   7  18
ATOM     18  C   UNL A   1      33.496  24.206  25.977  1.00  0.00     0.119 C 
BRANCH  18  19
ATOM     19  C   UNL A   1      32.289  23.403  26.495  1.00  0.00     0.225 C 
ATOM     20  O   UNL A   1      31.546  23.992  27.301  1.00  0.00    -0.275 OA
ATOM     21  N   UNL A   1      31.804  22.208  26.085  1.00  0.00    -0.325 N 
ATOM     22  H   UNL A   1      30.868  22.078  26.358  1.00  0.00     0.169 HD
BRANCH  21  23
ATOM     23  C   UNL A   1      32.298  21.112  25.372  1.00  0.00     0.059 A 
ATOM     24  C   UNL A   1      31.988  20.823  24.052  1.00  0.00     0.030 A 
ATOM     25  C   UNL A   1      33.272  20.317  25.964  1.00  0.00     0.137 A 
ATOM     26  C   UNL A   1      32.488  19.667  23.449  1.00  0.00     0.035 A 
ATOM     27  N   UNL A   1      33.771  19.181  25.420  1.00  0.00    -0.250 NA
ATOM     28  C   UNL A   1      33.319  18.827  24.183  1.00  0.00     0.144 A 
BRANCH  28  29
ATOM     29  C   UNL A   1      33.712  17.484  23.585  1.00  0.00     0.433 C 
ATOM     30  F   UNL A   1      34.996  17.129  23.874  1.00  0.00    -0.165 F 
ATOM     31  F   UNL A   1      32.929  16.447  23.996  1.00  0.00    -0.165 F 
ATOM     32  F   UNL A   1      33.632  17.475  22.218  1.00  0.00    -0.165 F 
ENDBRANCH  28  29
ENDBRANCH  21  23
ENDBRANCH  18  19
ENDBRANCH   7  18
ENDBRANCH   4   7
ENDBRANCH   2   3
ENDBRANCH   1   2
BRANCH   1  33
ATOM     33  C   UNL A   1      38.093  21.364  25.249  1.00  0.00     0.023 C 
BRANCH  33  34
ATOM     34  C   UNL A   1      39.373  21.323  26.075  1.00  0.00     0.116 C 
BRANCH  34  35
ATOM     35  N   UNL A   1      40.087  20.049  26.036  1.00  0.00    -0.352 N 
ATOM     36  C   UNL A   1      41.444  19.830  26.151  1.00  0.00     0.251 C 
ATOM     37  H   UNL A   1      39.529  19.247  25.912  1.00  0.00     0.163 HD
ATOM     38  O   UNL A   1      41.917  18.706  26.025  1.00  0.00    -0.269 OA
BRANCH  36  39
ATOM     39  C   UNL A   1      42.321  20.997  26.379  1.00  0.00     0.039 A 
ATOM     40  C   UNL A   1      42.719  21.773  25.290  1.00  0.00     0.014 A 
ATOM     41  C   UNL A   1      42.606  21.402  27.686  1.00  0.00     0.014 A 
ATOM     42  C   UNL A   1      43.304  23.019  25.520  1.00  0.00     0.010 A 
ATOM     43  C   UNL A   1      43.083  22.687  27.909  1.00  0.00     0.010 A 
ATOM     44  C   UNL A   1      43.429  23.515  26.830  1.00  0.00    -0.014 A 
BRANCH  44  45
ATOM     45  C   UNL A   1      43.899  24.901  27.094  1.00  0.00     0.031 A 
ATOM     46  C   UNL A   1      45.348  25.253  26.889  1.00  0.00     0.074 A 
ATOM     47  C   UNL A   1      43.045  25.817  27.594  1.00  0.00     0.049 A 
ATOM     48  N   UNL A   1      45.966  26.380  27.131  1.00  0.00    -0.248 NA
ATOM     49  C   UNL A   1      46.227  24.186  26.381  1.00  0.00     0.031 C 
ATOM     50  C   UNL A   1      41.634  25.581  27.912  1.00  0.00     0.029 A 
ATOM     51  N   UNL A   1      43.239  27.134  27.933  1.00  0.00    -0.354 N 
ATOM     52  C   UNL A   1      47.301  26.152  26.825  1.00  0.00     0.074 A 
ATOM     53  C   UNL A   1      47.418  24.762  26.445  1.00  0.00     0.031 C 
ATOM     54  C   UNL A   1      41.084  26.721  28.364  1.00  0.00     0.029 A 
ATOM     55  C   UNL A   1      42.108  27.759  28.406  1.00  0.00     0.049 A 
ATOM     56  H   UNL A   1      44.109  27.588  27.848  1.00  0.00     0.167 HD
ATOM     57  C   UNL A   1      48.334  27.028  26.827  1.00  0.00     0.037 A 
ATOM     58  C   UNL A   1      41.918  29.026  28.825  1.00  0.00     0.037 A 
ATOM     59  C   UNL A   1      48.207  28.419  27.166  1.00  0.00     0.049 A 
ATOM     60  C   UNL A   1      43.073  29.989  28.791  1.00  0.00     0.074 A 
ATOM     61  C   UNL A   1      49.175  29.407  27.128  1.00  0.00     0.029 A 
ATOM     62  N   UNL A   1      47.036  29.023  27.603  1.00  0.00    -0.354 N 
ATOM     63  N   UNL A   1      44.315  29.774  28.425  1.00  0.00    -0.248 NA
ATOM     64  C   UNL A   1      42.803  31.368  29.222  1.00  0.00     0.031 C 
ATOM     65  C   UNL A   1      48.601  30.599  27.580  1.00  0.00     0.029 A 
ATOM     66  C   UNL A   1      47.263  30.366  27.856  1.00  0.00     0.049 A 
ATOM     67  H   UNL A   1      46.173  28.564  27.718  1.00  0.00     0.167 HD
ATOM     68  C   UNL A   1      44.967  30.995  28.556  1.00  0.00     0.074 A 
ATOM     69  C   UNL A   1      43.980  31.946  29.022  1.00  0.00     0.031 C 
ATOM     70  C   UNL A   1      46.266  31.300  28.315  1.00  0.00     0.037 A 
BRANCH  57  71
ATOM     71  C   UNL A   1      49.687  26.504  26.430  1.00  0.00     0.058 A 
ATOM     72  C   UNL A   1      50.181  26.655  25.123  1.00  0.00     0.135 A 
ATOM     73  C   UNL A   1      50.510  25.864  27.370  1.00  0.00     0.135 A 
ATOM     74  F   UNL A   1      49.428  27.243  24.181  1.00  0.00    -0.206 F 
ATOM     75  C   UNL A   1      51.427  26.161  24.755  1.00  0.00     0.059 A 
ATOM     76  C   UNL A   1      51.774  25.388  27.031  1.00  0.00     0.059 A 
ATOM     77  F   UNL A   1      50.088  25.691  28.633  1.00  0.00    -0.206 F 
ATOM     78  C   UNL A   1      52.216  25.527  25.716  1.00  0.00     0.060 A 
BRANCH  78  79
ATOM     79  S   UNL A   1      53.832  24.895  25.221  1.00  0.00     0.124 S 
ATOM     80  O   UNL A   1      53.562  23.464  25.109  1.00  0.00    -0.237 OA
ATOM     81  O   UNL A   1      54.069  25.594  23.961  1.00  0.00    -0.237 OA
ATOM     82  O   UNL A   1      54.703  25.286  26.325  1.00  0.00    -0.744 OA
ENDBRANCH  78  79
ENDBRANCH  57  71
BRANCH  58  83
ATOM     83  C   UNL A   1      40.571  29.468  29.279  1.00  0.00     0.058 A 
ATOM     84  C   UNL A   1      39.540  29.702  28.356  1.00  0.00     0.135 A 
ATOM     85  C   UNL A   1      40.283  29.654  30.639  1.00  0.00     0.135 A 
ATOM     86  F   UNL A   1      39.767  29.543  27.043  1.00  0.00    -0.206 F 
ATOM     87  C   UNL A   1      38.278  30.123  28.762  1.00  0.00     0.059 A 
ATOM     88  C   UNL A   1      39.020  30.051  31.073  1.00  0.00     0.059 A 
ATOM     89  F   UNL A   1      41.227  29.427  31.565  1.00  0.00    -0.206 F 
ATOM     90  C   UNL A   1      38.027  30.292  30.124  1.00  0.00     0.060 A 
BRANCH  90  91
ATOM     91  S   UNL A   1      36.369  30.787  30.646  1.00  0.00     0.124 S 
ATOM     92  O   UNL A   1      36.589  32.173  31.043  1.00  0.00    -0.237 OA
ATOM     93  O   UNL A   1      35.592  30.586  29.427  1.00  0.00    -0.237 OA
ATOM     94  O   UNL A   1      36.069  29.857  31.731  1.00  0.00    -0.744 OA
ENDBRANCH  90  91
ENDBRANCH  58  83
BRANCH  70  95
ATOM     95  C   UNL A   1      46.690  32.727  28.522  1.00  0.00     0.058 A 
ATOM     96  C   UNL A   1      47.227  33.166  29.743  1.00  0.00     0.135 A 
ATOM     97  C   UNL A   1      46.602  33.655  27.472  1.00  0.00     0.135 A 
ATOM     98  F   UNL A   1      47.328  32.320  30.779  1.00  0.00    -0.206 F 
ATOM     99  C   UNL A   1      47.638  34.483  29.922  1.00  0.00     0.059 A 
ATOM    100  C   UNL A   1      47.033  34.969  27.620  1.00  0.00     0.059 A 
ATOM    101  F   UNL A   1      46.106  33.283  26.280  1.00  0.00    -0.206 F 
ATOM    102  C   UNL A   1      47.538  35.376  28.854  1.00  0.00     0.060 A 
BRANCH 102 103
ATOM    103  S   UNL A   1      48.100  37.076  29.091  1.00  0.00     0.124 S 
ATOM    104  O   UNL A   1      49.441  36.869  29.628  1.00  0.00    -0.237 OA
ATOM    105  O   UNL A   1      48.036  37.617  27.737  1.00  0.00    -0.237 OA
ATOM    106  O   UNL A   1      47.125  37.629  30.026  1.00  0.00    -0.744 OA
ENDBRANCH 102 103
ENDBRANCH  70  95
ENDBRANCH  44  45
ENDBRANCH  36  39
ENDBRANCH  34  35
ENDBRANCH  33  34
ENDBRANCH   1  33
TORSDOF 20
ENDMDL
