MODEL 1
REMARK VINA RESULT:      -9.6      0.000      0.000
REMARK SMILES N#CCC[NH2+]C1(C(=O)NCCCCNC(=O)c2ccc(-c3c4nc(c(-c5c(F)cc(S(=O)(=O)[O-])cc5F)c5ccc([nH]5)c(-c5c(F)cc(S(=O)(=O)[O-])cc5F)c5nc(c(-c6c(F)cc(S(=O)(=O)[O-])cc6F)c6ccc3[nH]6)C=C5)C=C4)cc2)CC1
REMARK SMILES IDX 11 1 10 2 9 3 7 4 8 5 6 7 83 8 84 9 5 10 4 13 3 14 2 15 1 16
REMARK SMILES IDX 12 17 13 18 14 19 15 20 16 22 17 23 18 24 82 25 19 26 81 27
REMARK SMILES IDX 20 28 21 29 22 30 75 31 23 32 80 33 74 34 76 35 24 36 79 37
REMARK SMILES IDX 73 38 72 39 25 41 59 42 38 43 58 44 39 45 42 46 57 47 77 48
REMARK SMILES IDX 40 49 41 50 56 52 78 53 43 54 26 55 27 56 36 57 28 58 29 59
REMARK SMILES IDX 35 60 37 61 30 62 31 63 32 64 33 65 34 66 60 67 61 68 70 69
REMARK SMILES IDX 62 70 63 71 69 72 71 73 64 74 65 75 66 76 67 77 68 78 44 79
REMARK SMILES IDX 45 80 54 81 46 82 47 83 53 84 55 85 48 86 49 87 50 88 51 89
REMARK SMILES IDX 52 90
REMARK H PARENT 9 6 5 11 5 12 14 21 76 40 42 51
REMARK Flexibility Score: inf
ROOT
ATOM      1  C   UNL A   1      33.193  26.936  25.234  1.00  0.00     0.023 C 
ENDROOT
BRANCH   1   2
ATOM      2  C   UNL A   1      32.928  25.510  25.707  1.00  0.00     0.116 C 
BRANCH   2   3
ATOM      3  N   UNL A   1      31.620  25.386  26.307  1.00  0.00    -0.351 N 
ATOM      4  C   UNL A   1      30.345  25.451  25.820  1.00  0.00     0.281 C 
ATOM      5  O   UNL A   1      29.449  25.356  26.665  1.00  0.00    -0.268 OA
ATOM      6  H   UNL A   1      31.654  25.219  27.276  1.00  0.00     0.163 HD
BRANCH   4   7
ATOM      7  C   UNL A   1      29.985  25.594  24.342  1.00  0.00     0.176 C 
ATOM      8  C   UNL A   1      30.217  26.869  23.559  1.00  0.00     0.086 C 
ATOM      9  C   UNL A   1      28.813  26.438  23.883  1.00  0.00     0.086 C 
BRANCH   7  10
ATOM     10  N   UNL A   1      30.190  24.326  23.601  1.00  0.00    -0.333 N 
ATOM     11  H   UNL A   1      30.150  23.554  24.266  1.00  0.00     0.347 HD
ATOM     12  H   UNL A   1      29.454  24.268  22.897  1.00  0.00     0.347 HD
BRANCH  10  13
ATOM     13  C   UNL A   1      31.473  24.263  22.892  1.00  0.00     0.276 C 
BRANCH  13  14
ATOM     14  C   UNL A   1      32.220  22.977  23.236  1.00  0.00     0.181 C 
BRANCH  14  15
ATOM     15  C   UNL A   1      33.686  23.164  22.882  1.00  0.00     0.068 C 
ATOM     16  N   UNL A   1      34.903  23.320  22.589  1.00  0.00    -0.198 NA
ENDBRANCH  14  15
ENDBRANCH  13  14
ENDBRANCH  10  13
ENDBRANCH   7  10
ENDBRANCH   4   7
ENDBRANCH   2   3
ENDBRANCH   1   2
BRANCH   1  17
ATOM     17  C   UNL A   1      32.693  28.023  26.187  1.00  0.00     0.023 C 
BRANCH  17  18
ATOM     18  C   UNL A   1      33.667  28.412  27.294  1.00  0.00     0.116 C 
BRANCH  18  19
ATOM     19  N   UNL A   1      33.556  29.810  27.682  1.00  0.00    -0.352 N 
ATOM     20  C   UNL A   1      34.507  30.622  28.248  1.00  0.00     0.251 C 
ATOM     21  H   UNL A   1      32.682  30.230  27.516  1.00  0.00     0.163 HD
ATOM     22  O   UNL A   1      34.212  31.756  28.615  1.00  0.00    -0.269 OA
BRANCH  20  23
ATOM     23  C   UNL A   1      35.875  30.102  28.445  1.00  0.00     0.039 A 
ATOM     24  C   UNL A   1      36.766  30.131  27.371  1.00  0.00     0.014 A 
ATOM     25  C   UNL A   1      36.283  29.631  29.696  1.00  0.00     0.014 A 
ATOM     26  C   UNL A   1      38.092  29.746  27.569  1.00  0.00     0.010 A 
ATOM     27  C   UNL A   1      37.621  29.315  29.908  1.00  0.00     0.010 A 
ATOM     28  C   UNL A   1      38.538  29.369  28.846  1.00  0.00    -0.014 A 
BRANCH  28  29
ATOM     29  C   UNL A   1      39.958  29.023  29.094  1.00  0.00     0.031 A 
ATOM     30  C   UNL A   1      40.888  30.048  29.683  1.00  0.00     0.074 A 
ATOM     31  C   UNL A   1      40.424  27.812  28.731  1.00  0.00     0.049 A 
ATOM     32  N   UNL A   1      42.173  29.965  29.905  1.00  0.00    -0.248 NA
ATOM     33  C   UNL A   1      40.297  31.347  30.043  1.00  0.00     0.031 C 
ATOM     34  C   UNL A   1      39.627  26.750  28.113  1.00  0.00     0.029 A 
ATOM     35  N   UNL A   1      41.682  27.272  28.823  1.00  0.00    -0.354 N 
ATOM     36  C   UNL A   1      42.548  31.201  30.419  1.00  0.00     0.074 A 
ATOM     37  C   UNL A   1      41.365  32.034  30.421  1.00  0.00     0.031 C 
ATOM     38  C   UNL A   1      40.409  25.677  27.906  1.00  0.00     0.029 A 
ATOM     39  C   UNL A   1      41.768  25.987  28.341  1.00  0.00     0.049 A 
ATOM     40  H   UNL A   1      42.450  27.759  29.198  1.00  0.00     0.167 HD
ATOM     41  C   UNL A   1      43.761  31.598  30.871  1.00  0.00     0.037 A 
ATOM     42  C   UNL A   1      42.824  25.155  28.256  1.00  0.00     0.037 A 
ATOM     43  C   UNL A   1      44.930  30.757  30.885  1.00  0.00     0.049 A 
ATOM     44  C   UNL A   1      44.164  25.621  28.756  1.00  0.00     0.074 A 
ATOM     45  C   UNL A   1      46.195  31.048  31.362  1.00  0.00     0.029 A 
ATOM     46  N   UNL A   1      44.973  29.457  30.401  1.00  0.00    -0.354 N 
ATOM     47  N   UNL A   1      44.491  26.777  29.284  1.00  0.00    -0.248 NA
ATOM     48  C   UNL A   1      45.278  24.669  28.653  1.00  0.00     0.031 C 
ATOM     49  C   UNL A   1      47.014  29.937  31.134  1.00  0.00     0.029 A 
ATOM     50  C   UNL A   1      46.248  28.938  30.554  1.00  0.00     0.049 A 
ATOM     51  H   UNL A   1      44.212  28.975  30.006  1.00  0.00     0.167 HD
ATOM     52  C   UNL A   1      45.841  26.681  29.604  1.00  0.00     0.074 A 
ATOM     53  C   UNL A   1      46.267  25.352  29.214  1.00  0.00     0.031 C 
ATOM     54  C   UNL A   1      46.652  27.608  30.168  1.00  0.00     0.037 A 
BRANCH  41  55
ATOM     55  C   UNL A   1      43.876  33.005  31.390  1.00  0.00     0.058 A 
ATOM     56  C   UNL A   1      43.566  33.324  32.723  1.00  0.00     0.135 A 
ATOM     57  C   UNL A   1      44.305  34.046  30.552  1.00  0.00     0.135 A 
ATOM     58  F   UNL A   1      43.136  32.370  33.564  1.00  0.00    -0.206 F 
ATOM     59  C   UNL A   1      43.634  34.631  33.193  1.00  0.00     0.059 A 
ATOM     60  C   UNL A   1      44.408  35.357  31.009  1.00  0.00     0.059 A 
ATOM     61  F   UNL A   1      44.616  33.798  29.270  1.00  0.00    -0.206 F 
ATOM     62  C   UNL A   1      44.051  35.642  32.327  1.00  0.00     0.060 A 
BRANCH  62  63
ATOM     63  S   UNL A   1      44.113  37.337  32.945  1.00  0.00     0.124 S 
ATOM     64  O   UNL A   1      43.845  38.099  31.730  1.00  0.00    -0.237 OA
ATOM     65  O   UNL A   1      43.050  37.345  33.945  1.00  0.00    -0.237 OA
ATOM     66  O   UNL A   1      45.468  37.455  33.474  1.00  0.00    -0.744 OA
ENDBRANCH  62  63
ENDBRANCH  41  55
BRANCH  42  67
ATOM     67  C   UNL A   1      42.646  23.784  27.710  1.00  0.00     0.058 A 
ATOM     68  C   UNL A   1      42.499  22.686  28.569  1.00  0.00     0.135 A 
ATOM     69  C   UNL A   1      42.597  23.546  26.328  1.00  0.00     0.135 A 
ATOM     70  F   UNL A   1      42.544  22.863  29.898  1.00  0.00    -0.206 F 
ATOM     71  C   UNL A   1      42.321  21.396  28.080  1.00  0.00     0.059 A 
ATOM     72  C   UNL A   1      42.397  22.268  25.814  1.00  0.00     0.059 A 
ATOM     73  F   UNL A   1      42.716  24.567  25.465  1.00  0.00    -0.206 F 
ATOM     74  C   UNL A   1      42.268  21.198  26.699  1.00  0.00     0.060 A 
BRANCH  74  75
ATOM     75  S   UNL A   1      41.980  19.528  26.075  1.00  0.00     0.124 S 
ATOM     76  O   UNL A   1      42.380  18.715  27.217  1.00  0.00    -0.237 OA
ATOM     77  O   UNL A   1      40.550  19.554  25.779  1.00  0.00    -0.237 OA
ATOM     78  O   UNL A   1      42.852  19.452  24.907  1.00  0.00    -0.744 OA
ENDBRANCH  74  75
ENDBRANCH  42  67
BRANCH  54  79
ATOM     79  C   UNL A   1      48.076  27.207  30.438  1.00  0.00     0.058 A 
ATOM     80  C   UNL A   1      49.099  27.451  29.509  1.00  0.00     0.135 A 
ATOM     81  C   UNL A   1      48.427  26.621  31.665  1.00  0.00     0.135 A 
ATOM     82  F   UNL A   1      48.814  28.001  28.319  1.00  0.00    -0.206 F 
ATOM     83  C   UNL A   1      50.420  27.108  29.780  1.00  0.00     0.059 A 
ATOM     84  C   UNL A   1      49.745  26.293  31.966  1.00  0.00     0.059 A 
ATOM     85  F   UNL A   1      47.487  26.376  32.591  1.00  0.00    -0.206 F 
ATOM     86  C   UNL A   1      50.733  26.532  31.013  1.00  0.00     0.060 A 
BRANCH  86  87
ATOM     87  S   UNL A   1      52.457  26.127  31.367  1.00  0.00     0.124 S 
ATOM     88  O   UNL A   1      52.329  24.809  31.982  1.00  0.00    -0.237 OA
ATOM     89  O   UNL A   1      53.063  26.151  30.039  1.00  0.00    -0.237 OA
ATOM     90  O   UNL A   1      52.880  27.200  32.262  1.00  0.00    -0.744 OA
ENDBRANCH  86  87
ENDBRANCH  54  79
ENDBRANCH  28  29
ENDBRANCH  20  23
ENDBRANCH  18  19
ENDBRANCH  17  18
ENDBRANCH   1  17
TORSDOF 18
ENDMDL
MODEL 2
REMARK VINA RESULT:      -9.6      5.484     10.125
REMARK SMILES N#CCC[NH2+]C1(C(=O)NCCCCNC(=O)c2ccc(-c3c4nc(c(-c5c(F)cc(S(=O)(=O)[O-])cc5F)c5ccc([nH]5)c(-c5c(F)cc(S(=O)(=O)[O-])cc5F)c5nc(c(-c6c(F)cc(S(=O)(=O)[O-])cc6F)c6ccc3[nH]6)C=C5)C=C4)cc2)CC1
REMARK SMILES IDX 11 1 10 2 9 3 7 4 8 5 6 7 83 8 84 9 5 10 4 13 3 14 2 15 1 16
REMARK SMILES IDX 12 17 13 18 14 19 15 20 16 22 17 23 18 24 82 25 19 26 81 27
REMARK SMILES IDX 20 28 21 29 22 30 75 31 23 32 80 33 74 34 76 35 24 36 79 37
REMARK SMILES IDX 73 38 72 39 25 41 59 42 38 43 58 44 39 45 42 46 57 47 77 48
REMARK SMILES IDX 40 49 41 50 56 52 78 53 43 54 26 55 27 56 36 57 28 58 29 59
REMARK SMILES IDX 35 60 37 61 30 62 31 63 32 64 33 65 34 66 60 67 61 68 70 69
REMARK SMILES IDX 62 70 63 71 69 72 71 73 64 74 65 75 66 76 67 77 68 78 44 79
REMARK SMILES IDX 45 80 54 81 46 82 47 83 53 84 55 85 48 86 49 87 50 88 51 89
REMARK SMILES IDX 52 90
REMARK H PARENT 9 6 5 11 5 12 14 21 76 40 42 51
REMARK Flexibility Score: inf
ROOT
ATOM      1  C   UNL A   1      37.291  23.387  25.015  1.00  0.00     0.023 C 
ENDROOT
BRANCH   1   2
ATOM      2  C   UNL A   1      36.706  21.979  25.061  1.00  0.00     0.116 C 
BRANCH   2   3
ATOM      3  N   UNL A   1      35.892  21.781  26.238  1.00  0.00    -0.351 N 
ATOM      4  C   UNL A   1      34.569  21.511  26.439  1.00  0.00     0.281 C 
ATOM      5  O   UNL A   1      34.210  21.469  27.620  1.00  0.00    -0.268 OA
ATOM      6  H   UNL A   1      36.402  21.859  27.076  1.00  0.00     0.163 HD
BRANCH   4   7
ATOM      7  C   UNL A   1      33.559  21.233  25.325  1.00  0.00     0.176 C 
ATOM      8  C   UNL A   1      33.641  21.882  23.961  1.00  0.00     0.086 C 
ATOM      9  C   UNL A   1      32.533  22.264  24.903  1.00  0.00     0.086 C 
BRANCH   7  10
ATOM     10  N   UNL A   1      33.082  19.829  25.354  1.00  0.00    -0.333 N 
ATOM     11  H   UNL A   1      33.050  19.518  26.325  1.00  0.00     0.347 HD
ATOM     12  H   UNL A   1      32.162  19.816  24.913  1.00  0.00     0.347 HD
BRANCH  10  13
ATOM     13  C   UNL A   1      33.937  18.906  24.598  1.00  0.00     0.276 C 
BRANCH  13  14
ATOM     14  C   UNL A   1      33.095  17.858  23.875  1.00  0.00     0.181 C 
BRANCH  14  15
ATOM     15  C   UNL A   1      33.430  16.492  24.452  1.00  0.00     0.068 C 
ATOM     16  N   UNL A   1      33.708  15.359  24.931  1.00  0.00    -0.198 NA
ENDBRANCH  14  15
ENDBRANCH  13  14
ENDBRANCH  10  13
ENDBRANCH   7  10
ENDBRANCH   4   7
ENDBRANCH   2   3
ENDBRANCH   1   2
BRANCH   1  17
ATOM     17  C   UNL A   1      37.510  24.027  26.387  1.00  0.00     0.023 C 
BRANCH  17  18
ATOM     18  C   UNL A   1      38.942  23.972  26.907  1.00  0.00     0.116 C 
BRANCH  18  19
ATOM     19  N   UNL A   1      39.912  24.491  25.955  1.00  0.00    -0.352 N 
ATOM     20  C   UNL A   1      40.732  25.586  26.073  1.00  0.00     0.251 C 
ATOM     21  H   UNL A   1      39.992  23.989  25.112  1.00  0.00     0.163 HD
ATOM     22  O   UNL A   1      41.419  25.949  25.123  1.00  0.00    -0.269 OA
BRANCH  20  23
ATOM     23  C   UNL A   1      40.747  26.340  27.342  1.00  0.00     0.039 A 
ATOM     24  C   UNL A   1      41.647  27.397  27.486  1.00  0.00     0.014 A 
ATOM     25  C   UNL A   1      39.843  26.032  28.363  1.00  0.00     0.014 A 
ATOM     26  C   UNL A   1      41.599  28.189  28.633  1.00  0.00     0.010 A 
ATOM     27  C   UNL A   1      39.750  26.865  29.473  1.00  0.00     0.010 A 
ATOM     28  C   UNL A   1      40.628  27.951  29.618  1.00  0.00    -0.014 A 
BRANCH  28  29
ATOM     29  C   UNL A   1      40.514  28.823  30.813  1.00  0.00     0.031 A 
ATOM     30  C   UNL A   1      39.486  29.921  30.844  1.00  0.00     0.074 A 
ATOM     31  C   UNL A   1      41.374  28.668  31.837  1.00  0.00     0.049 A 
ATOM     32  N   UNL A   1      39.279  30.831  31.759  1.00  0.00    -0.248 NA
ATOM     33  C   UNL A   1      38.593  30.024  29.679  1.00  0.00     0.031 C 
ATOM     34  C   UNL A   1      42.439  27.665  31.904  1.00  0.00     0.029 A 
ATOM     35  N   UNL A   1      41.494  29.356  33.019  1.00  0.00    -0.354 N 
ATOM     36  C   UNL A   1      38.243  31.621  31.277  1.00  0.00     0.074 A 
ATOM     37  C   UNL A   1      37.903  31.118  29.963  1.00  0.00     0.031 C 
ATOM     38  C   UNL A   1      43.086  27.786  33.075  1.00  0.00     0.029 A 
ATOM     39  C   UNL A   1      42.508  28.897  33.826  1.00  0.00     0.049 A 
ATOM     40  H   UNL A   1      40.908  30.108  33.264  1.00  0.00     0.167 HD
ATOM     41  C   UNL A   1      37.614  32.657  31.882  1.00  0.00     0.037 A 
ATOM     42  C   UNL A   1      42.925  29.325  35.032  1.00  0.00     0.037 A 
ATOM     43  C   UNL A   1      37.944  33.139  33.198  1.00  0.00     0.049 A 
ATOM     44  C   UNL A   1      42.218  30.483  35.682  1.00  0.00     0.074 A 
ATOM     45  C   UNL A   1      37.340  34.153  33.921  1.00  0.00     0.029 A 
ATOM     46  N   UNL A   1      38.968  32.639  33.990  1.00  0.00    -0.354 N 
ATOM     47  N   UNL A   1      41.206  31.189  35.234  1.00  0.00    -0.248 NA
ATOM     48  C   UNL A   1      42.704  30.900  37.005  1.00  0.00     0.031 C 
ATOM     49  C   UNL A   1      38.022  34.290  35.135  1.00  0.00     0.029 A 
ATOM     50  C   UNL A   1      39.023  33.333  35.187  1.00  0.00     0.049 A 
ATOM     51  H   UNL A   1      39.568  31.901  33.738  1.00  0.00     0.167 HD
ATOM     52  C   UNL A   1      40.917  32.114  36.231  1.00  0.00     0.074 A 
ATOM     53  C   UNL A   1      41.856  31.873  37.307  1.00  0.00     0.031 C 
ATOM     54  C   UNL A   1      39.960  33.074  36.252  1.00  0.00     0.037 A 
BRANCH  41  55
ATOM     55  C   UNL A   1      36.504  33.329  31.123  1.00  0.00     0.058 A 
ATOM     56  C   UNL A   1      36.765  34.147  30.010  1.00  0.00     0.135 A 
ATOM     57  C   UNL A   1      35.165  33.153  31.504  1.00  0.00     0.135 A 
ATOM     58  F   UNL A   1      38.029  34.362  29.611  1.00  0.00    -0.206 F 
ATOM     59  C   UNL A   1      35.742  34.800  29.332  1.00  0.00     0.059 A 
ATOM     60  C   UNL A   1      34.123  33.775  30.822  1.00  0.00     0.059 A 
ATOM     61  F   UNL A   1      34.857  32.382  32.559  1.00  0.00    -0.206 F 
ATOM     62  C   UNL A   1      34.424  34.613  29.749  1.00  0.00     0.060 A 
BRANCH  62  63
ATOM     63  S   UNL A   1      33.109  35.484  28.872  1.00  0.00     0.124 S 
ATOM     64  O   UNL A   1      32.506  34.401  28.102  1.00  0.00    -0.237 OA
ATOM     65  O   UNL A   1      32.298  36.011  29.966  1.00  0.00    -0.237 OA
ATOM     66  O   UNL A   1      33.827  36.486  28.091  1.00  0.00    -0.744 OA
ENDBRANCH  62  63
ENDBRANCH  41  55
BRANCH  42  67
ATOM     67  C   UNL A   1      44.045  28.630  35.719  1.00  0.00     0.058 A 
ATOM     68  C   UNL A   1      45.370  29.043  35.524  1.00  0.00     0.135 A 
ATOM     69  C   UNL A   1      43.815  27.560  36.598  1.00  0.00     0.135 A 
ATOM     70  F   UNL A   1      45.640  30.058  34.690  1.00  0.00    -0.206 F 
ATOM     71  C   UNL A   1      46.432  28.414  36.165  1.00  0.00     0.059 A 
ATOM     72  C   UNL A   1      44.858  26.929  37.269  1.00  0.00     0.059 A 
ATOM     73  F   UNL A   1      42.562  27.138  36.831  1.00  0.00    -0.206 F 
ATOM     74  C   UNL A   1      46.165  27.359  37.039  1.00  0.00     0.060 A 
BRANCH  74  75
ATOM     75  S   UNL A   1      47.546  26.585  37.909  1.00  0.00     0.124 S 
ATOM     76  O   UNL A   1      47.676  27.448  39.077  1.00  0.00    -0.237 OA
ATOM     77  O   UNL A   1      47.034  25.241  38.161  1.00  0.00    -0.237 OA
ATOM     78  O   UNL A   1      48.636  26.661  36.942  1.00  0.00    -0.744 OA
ENDBRANCH  74  75
ENDBRANCH  42  67
BRANCH  54  79
ATOM     79  C   UNL A   1      39.852  33.913  37.495  1.00  0.00     0.058 A 
ATOM     80  C   UNL A   1      40.547  35.124  37.630  1.00  0.00     0.135 A 
ATOM     81  C   UNL A   1      38.998  33.524  38.540  1.00  0.00     0.135 A 
ATOM     82  F   UNL A   1      41.382  35.536  36.663  1.00  0.00    -0.206 F 
ATOM     83  C   UNL A   1      40.415  35.912  38.769  1.00  0.00     0.059 A 
ATOM     84  C   UNL A   1      38.833  34.309  39.677  1.00  0.00     0.059 A 
ATOM     85  F   UNL A   1      38.304  32.379  38.456  1.00  0.00    -0.206 F 
ATOM     86  C   UNL A   1      39.553  35.497  39.786  1.00  0.00     0.060 A 
BRANCH  86  87
ATOM     87  S   UNL A   1      39.362  36.548  41.242  1.00  0.00     0.124 S 
ATOM     88  O   UNL A   1      38.412  35.777  42.038  1.00  0.00    -0.237 OA
ATOM     89  O   UNL A   1      40.724  36.611  41.764  1.00  0.00    -0.237 OA
ATOM     90  O   UNL A   1      38.850  37.799  40.692  1.00  0.00    -0.744 OA
ENDBRANCH  86  87
ENDBRANCH  54  79
ENDBRANCH  28  29
ENDBRANCH  20  23
ENDBRANCH  18  19
ENDBRANCH  17  18
ENDBRANCH   1  17
TORSDOF 18
ENDMDL
MODEL 3
REMARK VINA RESULT:      -9.6      1.414      2.206
REMARK SMILES N#CCC[NH2+]C1(C(=O)NCCCCNC(=O)c2ccc(-c3c4nc(c(-c5c(F)cc(S(=O)(=O)[O-])cc5F)c5ccc([nH]5)c(-c5c(F)cc(S(=O)(=O)[O-])cc5F)c5nc(c(-c6c(F)cc(S(=O)(=O)[O-])cc6F)c6ccc3[nH]6)C=C5)C=C4)cc2)CC1
REMARK SMILES IDX 11 1 10 2 9 3 7 4 8 5 6 7 83 8 84 9 5 10 4 13 3 14 2 15 1 16
REMARK SMILES IDX 12 17 13 18 14 19 15 20 16 22 17 23 18 24 82 25 19 26 81 27
REMARK SMILES IDX 20 28 21 29 22 30 75 31 23 32 80 33 74 34 76 35 24 36 79 37
REMARK SMILES IDX 73 38 72 39 25 41 59 42 38 43 58 44 39 45 42 46 57 47 77 48
REMARK SMILES IDX 40 49 41 50 56 52 78 53 43 54 26 55 27 56 36 57 28 58 29 59
REMARK SMILES IDX 35 60 37 61 30 62 31 63 32 64 33 65 34 66 60 67 61 68 70 69
REMARK SMILES IDX 62 70 63 71 69 72 71 73 64 74 65 75 66 76 67 77 68 78 44 79
REMARK SMILES IDX 45 80 54 81 46 82 47 83 53 84 55 85 48 86 49 87 50 88 51 89
REMARK SMILES IDX 52 90
REMARK H PARENT 9 6 5 11 5 12 14 21 76 40 42 51
REMARK Flexibility Score: inf
ROOT
ATOM      1  C   UNL A   1      33.521  27.205  24.841  1.00  0.00     0.023 C 
ENDROOT
BRANCH   1   2
ATOM      2  C   UNL A   1      33.999  25.793  25.167  1.00  0.00     0.116 C 
BRANCH   2   3
ATOM      3  N   UNL A   1      34.155  24.999  23.970  1.00  0.00    -0.351 N 
ATOM      4  C   UNL A   1      34.852  23.863  23.673  1.00  0.00     0.281 C 
ATOM      5  O   UNL A   1      34.794  23.498  22.494  1.00  0.00    -0.268 OA
ATOM      6  H   UNL A   1      33.651  25.353  23.204  1.00  0.00     0.163 HD
BRANCH   4   7
ATOM      7  C   UNL A   1      35.639  23.034  24.688  1.00  0.00     0.176 C 
ATOM      8  C   UNL A   1      36.182  23.612  25.976  1.00  0.00     0.086 C 
ATOM      9  C   UNL A   1      37.131  23.214  24.881  1.00  0.00     0.086 C 
BRANCH   7  10
ATOM     10  N   UNL A   1      35.149  21.636  24.754  1.00  0.00    -0.333 N 
ATOM     11  H   UNL A   1      34.618  21.439  23.906  1.00  0.00     0.347 HD
ATOM     12  H   UNL A   1      35.968  21.035  24.845  1.00  0.00     0.347 HD
BRANCH  10  13
ATOM     13  C   UNL A   1      34.288  21.373  25.913  1.00  0.00     0.276 C 
BRANCH  13  14
ATOM     14  C   UNL A   1      33.122  20.466  25.527  1.00  0.00     0.181 C 
BRANCH  14  15
ATOM     15  C   UNL A   1      32.657  20.850  24.132  1.00  0.00     0.068 C 
ATOM     16  N   UNL A   1      32.272  21.168  22.974  1.00  0.00    -0.198 NA
ENDBRANCH  14  15
ENDBRANCH  13  14
ENDBRANCH  10  13
ENDBRANCH   7  10
ENDBRANCH   4   7
ENDBRANCH   2   3
ENDBRANCH   1   2
BRANCH   1  17
ATOM     17  C   UNL A   1      32.814  27.916  25.996  1.00  0.00     0.023 C 
BRANCH  17  18
ATOM     18  C   UNL A   1      33.710  28.295  27.171  1.00  0.00     0.116 C 
BRANCH  18  19
ATOM     19  N   UNL A   1      33.595  29.696  27.545  1.00  0.00    -0.352 N 
ATOM     20  C   UNL A   1      34.543  30.516  28.105  1.00  0.00     0.251 C 
ATOM     21  H   UNL A   1      32.720  30.112  27.373  1.00  0.00     0.163 HD
ATOM     22  O   UNL A   1      34.244  31.652  28.460  1.00  0.00    -0.269 OA
BRANCH  20  23
ATOM     23  C   UNL A   1      35.911  30.001  28.308  1.00  0.00     0.039 A 
ATOM     24  C   UNL A   1      36.826  30.087  27.257  1.00  0.00     0.014 A 
ATOM     25  C   UNL A   1      36.298  29.480  29.547  1.00  0.00     0.014 A 
ATOM     26  C   UNL A   1      38.151  29.707  27.467  1.00  0.00     0.010 A 
ATOM     27  C   UNL A   1      37.634  29.170  29.774  1.00  0.00     0.010 A 
ATOM     28  C   UNL A   1      38.573  29.279  28.736  1.00  0.00    -0.014 A 
BRANCH  28  29
ATOM     29  C   UNL A   1      39.992  28.937  29.000  1.00  0.00     0.031 A 
ATOM     30  C   UNL A   1      40.913  29.966  29.596  1.00  0.00     0.074 A 
ATOM     31  C   UNL A   1      40.464  27.726  28.646  1.00  0.00     0.049 A 
ATOM     32  N   UNL A   1      42.196  29.886  29.832  1.00  0.00    -0.248 NA
ATOM     33  C   UNL A   1      40.316  31.265  29.945  1.00  0.00     0.031 C 
ATOM     34  C   UNL A   1      39.676  26.659  28.024  1.00  0.00     0.029 A 
ATOM     35  N   UNL A   1      41.722  27.188  28.753  1.00  0.00    -0.354 N 
ATOM     36  C   UNL A   1      42.563  31.124  30.345  1.00  0.00     0.074 A 
ATOM     37  C   UNL A   1      41.378  31.955  30.331  1.00  0.00     0.031 C 
ATOM     38  C   UNL A   1      40.462  25.588  27.829  1.00  0.00     0.029 A 
ATOM     39  C   UNL A   1      41.816  25.902  28.276  1.00  0.00     0.049 A 
ATOM     40  H   UNL A   1      42.485  27.678  29.135  1.00  0.00     0.167 HD
ATOM     41  C   UNL A   1      43.771  31.526  30.808  1.00  0.00     0.037 A 
ATOM     42  C   UNL A   1      42.874  25.072  28.206  1.00  0.00     0.037 A 
ATOM     43  C   UNL A   1      44.940  30.687  30.838  1.00  0.00     0.049 A 
ATOM     44  C   UNL A   1      44.208  25.543  28.718  1.00  0.00     0.074 A 
ATOM     45  C   UNL A   1      46.201  30.983  31.327  1.00  0.00     0.029 A 
ATOM     46  N   UNL A   1      44.992  29.386  30.359  1.00  0.00    -0.354 N 
ATOM     47  N   UNL A   1      44.527  26.701  29.246  1.00  0.00    -0.248 NA
ATOM     48  C   UNL A   1      45.325  24.593  28.631  1.00  0.00     0.031 C 
ATOM     49  C   UNL A   1      47.024  29.872  31.111  1.00  0.00     0.029 A 
ATOM     50  C   UNL A   1      46.266  28.870  30.527  1.00  0.00     0.049 A 
ATOM     51  H   UNL A   1      44.236  28.901  29.957  1.00  0.00     0.167 HD
ATOM     52  C   UNL A   1      45.874  26.609  29.580  1.00  0.00     0.074 A 
ATOM     53  C   UNL A   1      46.306  25.279  29.200  1.00  0.00     0.031 C 
ATOM     54  C   UNL A   1      46.677  27.540  30.150  1.00  0.00     0.037 A 
BRANCH  41  55
ATOM     55  C   UNL A   1      43.877  32.935  31.324  1.00  0.00     0.058 A 
ATOM     56  C   UNL A   1      43.496  33.269  32.635  1.00  0.00     0.135 A 
ATOM     57  C   UNL A   1      44.368  33.963  30.504  1.00  0.00     0.135 A 
ATOM     58  F   UNL A   1      43.005  32.327  33.456  1.00  0.00    -0.206 F 
ATOM     59  C   UNL A   1      43.557  34.578  33.099  1.00  0.00     0.059 A 
ATOM     60  C   UNL A   1      44.466  35.275  30.958  1.00  0.00     0.059 A 
ATOM     61  F   UNL A   1      44.748  33.701  29.244  1.00  0.00    -0.206 F 
ATOM     62  C   UNL A   1      44.038  35.576  32.251  1.00  0.00     0.060 A 
BRANCH  62  63
ATOM     63  S   UNL A   1      44.091  37.274  32.860  1.00  0.00     0.124 S 
ATOM     64  O   UNL A   1      45.455  37.356  33.374  1.00  0.00    -0.237 OA
ATOM     65  O   UNL A   1      43.822  38.049  31.653  1.00  0.00    -0.237 OA
ATOM     66  O   UNL A   1      43.037  37.306  33.869  1.00  0.00    -0.744 OA
ENDBRANCH  62  63
ENDBRANCH  41  55
BRANCH  42  67
ATOM     67  C   UNL A   1      42.705  23.699  27.663  1.00  0.00     0.058 A 
ATOM     68  C   UNL A   1      42.471  22.615  28.521  1.00  0.00     0.135 A 
ATOM     69  C   UNL A   1      42.750  23.445  26.284  1.00  0.00     0.135 A 
ATOM     70  F   UNL A   1      42.425  22.807  29.847  1.00  0.00    -0.206 F 
ATOM     71  C   UNL A   1      42.300  21.324  28.033  1.00  0.00     0.059 A 
ATOM     72  C   UNL A   1      42.558  22.166  25.770  1.00  0.00     0.059 A 
ATOM     73  F   UNL A   1      42.954  24.453  25.420  1.00  0.00    -0.206 F 
ATOM     74  C   UNL A   1      42.342  21.110  26.654  1.00  0.00     0.060 A 
BRANCH  74  75
ATOM     75  S   UNL A   1      42.062  19.439  26.028  1.00  0.00     0.124 S 
ATOM     76  O   UNL A   1      42.857  19.446  24.807  1.00  0.00    -0.237 OA
ATOM     77  O   UNL A   1      42.572  18.614  27.120  1.00  0.00    -0.237 OA
ATOM     78  O   UNL A   1      40.615  19.390  25.841  1.00  0.00    -0.744 OA
ENDBRANCH  74  75
ENDBRANCH  42  67
BRANCH  54  79
ATOM     79  C   UNL A   1      48.099  27.143  30.436  1.00  0.00     0.058 A 
ATOM     80  C   UNL A   1      49.155  27.525  29.595  1.00  0.00     0.135 A 
ATOM     81  C   UNL A   1      48.412  26.417  31.597  1.00  0.00     0.135 A 
ATOM     82  F   UNL A   1      48.907  28.213  28.469  1.00  0.00    -0.206 F 
ATOM     83  C   UNL A   1      50.472  27.183  29.884  1.00  0.00     0.059 A 
ATOM     84  C   UNL A   1      49.725  26.086  31.918  1.00  0.00     0.059 A 
ATOM     85  F   UNL A   1      47.439  26.035  32.439  1.00  0.00    -0.206 F 
ATOM     86  C   UNL A   1      50.747  26.465  31.049  1.00  0.00     0.060 A 
BRANCH  86  87
ATOM     87  S   UNL A   1      52.464  26.061  31.433  1.00  0.00     0.124 S 
ATOM     88  O   UNL A   1      53.049  25.965  30.100  1.00  0.00    -0.237 OA
ATOM     89  O   UNL A   1      52.885  27.210  32.230  1.00  0.00    -0.237 OA
ATOM     90  O   UNL A   1      52.360  24.803  32.167  1.00  0.00    -0.744 OA
ENDBRANCH  86  87
ENDBRANCH  54  79
ENDBRANCH  28  29
ENDBRANCH  20  23
ENDBRANCH  18  19
ENDBRANCH  17  18
ENDBRANCH   1  17
TORSDOF 18
ENDMDL
