MODEL 1
REMARK VINA RESULT:     -11.9      0.000      0.000
REMARK SMILES COc1c(N)cc(-c2ccccc2)cc1C(=O)NCCCCNC(=O)c1ccc(-c2c3nc(c(-c4c(F)cc(S(=O)(=O)[O-])cc4F)c4ccc([nH]4)c(-c4c(F)cc(S(=O)(=O)[O-])cc4F)c4nc(c(-c5c(F)cc(S(=O)(=O)[O-])cc5F)c5ccc2[nH]5)C=C4)C=C3)cc1
REMARK SMILES IDX 21 1 20 2 19 3 18 4 16 5 17 6 15 8 3 9 4 10 6 11 14 12 7 13
REMARK SMILES IDX 2 14 1 15 5 16 8 19 9 20 13 21 10 22 12 23 11 24 22 25 23 26
REMARK SMILES IDX 24 27 25 29 26 30 27 31 91 32 28 33 90 34 29 35 30 36 31 37
REMARK SMILES IDX 84 38 32 39 89 40 83 41 85 42 33 43 88 44 82 45 81 46 34 48
REMARK SMILES IDX 68 49 47 50 67 51 48 52 51 53 66 54 86 55 49 56 50 57 65 59
REMARK SMILES IDX 87 60 52 61 35 62 36 63 45 64 37 65 38 66 44 67 46 68 39 69
REMARK SMILES IDX 40 70 41 71 42 72 43 73 69 74 70 75 79 76 71 77 72 78 78 79
REMARK SMILES IDX 80 80 73 81 74 82 75 83 76 84 77 85 53 86 54 87 63 88 55 89
REMARK SMILES IDX 56 90 62 91 64 92 57 93 58 94 59 95 60 96 61 97
REMARK H PARENT 18 7 5 17 5 18 23 28 85 47 51 58
REMARK Flexibility Score: inf
ROOT
ATOM      1  C   UNL A   1      37.555  22.849  25.807  1.00  0.00     0.023 C 
ENDROOT
BRANCH   1   2
ATOM      2  C   UNL A   1      36.751  22.900  24.510  1.00  0.00     0.023 C 
BRANCH   2   3
ATOM      3  C   UNL A   1      35.398  23.596  24.563  1.00  0.00     0.116 C 
BRANCH   3   4
ATOM      4  N   UNL A   1      34.925  24.197  23.345  1.00  0.00    -0.352 N 
ATOM      5  C   UNL A   1      33.991  25.199  23.187  1.00  0.00     0.255 C 
ATOM      6  O   UNL A   1      33.825  25.644  22.049  1.00  0.00    -0.269 OA
ATOM      7  H   UNL A   1      35.321  23.847  22.514  1.00  0.00     0.163 HD
BRANCH   5   8
ATOM      8  C   UNL A   1      33.095  25.698  24.281  1.00  0.00     0.084 A 
ATOM      9  C   UNL A   1      31.980  25.033  24.836  1.00  0.00     0.154 A 
ATOM     10  C   UNL A   1      31.298  25.612  25.933  1.00  0.00     0.076 A 
ATOM     11  C   UNL A   1      31.686  26.871  26.400  1.00  0.00     0.038 A 
ATOM     12  C   UNL A   1      33.508  26.932  24.846  1.00  0.00     0.026 A 
ATOM     13  C   UNL A   1      32.822  27.526  25.914  1.00  0.00    -0.015 A 
BRANCH   9  14
ATOM     14  O   UNL A   1      31.643  23.768  24.406  1.00  0.00    -0.494 OA
ATOM     15  C   UNL A   1      30.718  23.751  23.308  1.00  0.00     0.278 C 
ENDBRANCH   9  14
BRANCH  10  16
ATOM     16  N   UNL A   1      30.219  24.994  26.569  1.00  0.00    -0.396 N 
ATOM     17  H   UNL A   1      30.367  24.462  27.385  1.00  0.00     0.156 HD
ATOM     18  H   UNL A   1      29.311  25.090  26.202  1.00  0.00     0.156 HD
ENDBRANCH  10  16
BRANCH  13  19
ATOM     19  C   UNL A   1      33.279  28.759  26.581  1.00  0.00    -0.018 A 
ATOM     20  C   UNL A   1      32.393  29.845  26.732  1.00  0.00     0.009 A 
ATOM     21  C   UNL A   1      34.596  28.922  27.031  1.00  0.00     0.009 A 
ATOM     22  C   UNL A   1      32.815  31.060  27.274  1.00  0.00     0.001 A 
ATOM     23  C   UNL A   1      35.020  30.140  27.576  1.00  0.00     0.001 A 
ATOM     24  C   UNL A   1      34.134  31.210  27.688  1.00  0.00     0.000 A 
ENDBRANCH  13  19
ENDBRANCH   5   8
ENDBRANCH   3   4
ENDBRANCH   2   3
ENDBRANCH   1   2
BRANCH   1  25
ATOM     25  C   UNL A   1      38.443  24.049  26.125  1.00  0.00     0.116 C 
BRANCH  25  26
ATOM     26  N   UNL A   1      39.872  23.758  26.141  1.00  0.00    -0.352 N 
ATOM     27  C   UNL A   1      40.916  24.395  26.774  1.00  0.00     0.251 C 
ATOM     28  H   UNL A   1      40.136  22.973  25.609  1.00  0.00     0.163 HD
ATOM     29  O   UNL A   1      42.065  23.994  26.600  1.00  0.00    -0.269 OA
BRANCH  27  30
ATOM     30  C   UNL A   1      40.673  25.589  27.618  1.00  0.00     0.039 A 
ATOM     31  C   UNL A   1      39.613  25.568  28.528  1.00  0.00     0.014 A 
ATOM     32  C   UNL A   1      41.498  26.711  27.542  1.00  0.00     0.014 A 
ATOM     33  C   UNL A   1      39.457  26.617  29.440  1.00  0.00     0.010 A 
ATOM     34  C   UNL A   1      41.405  27.704  28.513  1.00  0.00     0.010 A 
ATOM     35  C   UNL A   1      40.392  27.663  29.483  1.00  0.00    -0.014 A 
BRANCH  35  36
ATOM     36  C   UNL A   1      40.358  28.700  30.550  1.00  0.00     0.031 A 
ATOM     37  C   UNL A   1      41.230  28.569  31.769  1.00  0.00     0.074 A 
ATOM     38  C   UNL A   1      39.456  29.701  30.479  1.00  0.00     0.049 A 
ATOM     39  N   UNL A   1      41.257  29.305  32.850  1.00  0.00    -0.248 NA
ATOM     40  C   UNL A   1      42.166  27.434  31.792  1.00  0.00     0.031 C 
ATOM     41  C   UNL A   1      38.491  29.895  29.394  1.00  0.00     0.029 A 
ATOM     42  N   UNL A   1      39.185  30.730  31.348  1.00  0.00    -0.354 N 
ATOM     43  C   UNL A   1      42.184  28.704  33.695  1.00  0.00     0.074 A 
ATOM     44  C   UNL A   1      42.658  27.516  33.019  1.00  0.00     0.031 C 
ATOM     45  C   UNL A   1      37.744  30.980  29.656  1.00  0.00     0.029 A 
ATOM     46  C   UNL A   1      38.150  31.539  30.943  1.00  0.00     0.049 A 
ATOM     47  H   UNL A   1      39.685  30.873  32.184  1.00  0.00     0.167 HD
ATOM     48  C   UNL A   1      42.617  29.115  34.911  1.00  0.00     0.037 A 
ATOM     49  C   UNL A   1      37.580  32.604  31.539  1.00  0.00     0.037 A 
ATOM     50  C   UNL A   1      42.171  30.319  35.561  1.00  0.00     0.049 A 
ATOM     51  C   UNL A   1      38.115  33.081  32.859  1.00  0.00     0.074 A 
ATOM     52  C   UNL A   1      42.620  30.874  36.748  1.00  0.00     0.029 A 
ATOM     53  N   UNL A   1      41.171  31.153  35.083  1.00  0.00    -0.354 N 
ATOM     54  N   UNL A   1      39.060  32.554  33.602  1.00  0.00    -0.248 NA
ATOM     55  C   UNL A   1      37.518  34.301  33.418  1.00  0.00     0.031 C 
ATOM     56  C   UNL A   1      41.864  32.024  37.005  1.00  0.00     0.029 A 
ATOM     57  C   UNL A   1      40.974  32.209  35.959  1.00  0.00     0.049 A 
ATOM     58  H   UNL A   1      40.674  31.015  34.246  1.00  0.00     0.167 HD
ATOM     59  C   UNL A   1      39.181  33.386  34.709  1.00  0.00     0.074 A 
ATOM     60  C   UNL A   1      38.224  34.459  34.531  1.00  0.00     0.031 C 
ATOM     61  C   UNL A   1      40.013  33.270  35.774  1.00  0.00     0.037 A 
BRANCH  48  62
ATOM     62  C   UNL A   1      43.626  28.244  35.611  1.00  0.00     0.058 A 
ATOM     63  C   UNL A   1      43.239  27.263  36.539  1.00  0.00     0.135 A 
ATOM     64  C   UNL A   1      44.999  28.403  35.364  1.00  0.00     0.135 A 
ATOM     65  F   UNL A   1      41.940  27.075  36.821  1.00  0.00    -0.206 F 
ATOM     66  C   UNL A   1      44.177  26.513  37.239  1.00  0.00     0.059 A 
ATOM     67  C   UNL A   1      45.955  27.642  36.031  1.00  0.00     0.059 A 
ATOM     68  F   UNL A   1      45.426  29.320  34.481  1.00  0.00    -0.206 F 
ATOM     69  C   UNL A   1      45.535  26.718  36.986  1.00  0.00     0.060 A 
BRANCH  69  70
ATOM     70  S   UNL A   1      46.744  25.772  37.935  1.00  0.00     0.124 S 
ATOM     71  O   UNL A   1      47.515  26.838  38.566  1.00  0.00    -0.237 OA
ATOM     72  O   UNL A   1      45.898  24.988  38.830  1.00  0.00    -0.237 OA
ATOM     73  O   UNL A   1      47.450  25.005  36.915  1.00  0.00    -0.744 OA
ENDBRANCH  69  70
ENDBRANCH  48  62
BRANCH  49  74
ATOM     74  C   UNL A   1      36.456  33.302  30.862  1.00  0.00     0.058 A 
ATOM     75  C   UNL A   1      35.142  33.186  31.338  1.00  0.00     0.135 A 
ATOM     76  C   UNL A   1      36.684  34.156  29.770  1.00  0.00     0.135 A 
ATOM     77  F   UNL A   1      34.875  32.377  32.375  1.00  0.00    -0.206 F 
ATOM     78  C   UNL A   1      34.093  33.896  30.763  1.00  0.00     0.059 A 
ATOM     79  C   UNL A   1      35.654  34.891  29.190  1.00  0.00     0.059 A 
ATOM     80  F   UNL A   1      37.926  34.315  29.289  1.00  0.00    -0.206 F 
ATOM     81  C   UNL A   1      34.362  34.754  29.695  1.00  0.00     0.060 A 
BRANCH  81  82
ATOM     82  S   UNL A   1      33.011  35.749  29.023  1.00  0.00     0.124 S 
ATOM     83  O   UNL A   1      32.351  34.792  28.142  1.00  0.00    -0.237 OA
ATOM     84  O   UNL A   1      32.274  36.119  30.228  1.00  0.00    -0.237 OA
ATOM     85  O   UNL A   1      33.703  36.848  28.358  1.00  0.00    -0.744 OA
ENDBRANCH  81  82
ENDBRANCH  49  74
BRANCH  61  86
ATOM     86  C   UNL A   1      39.941  34.339  36.828  1.00  0.00     0.058 A 
ATOM     87  C   UNL A   1      40.752  35.483  36.773  1.00  0.00     0.135 A 
ATOM     88  C   UNL A   1      39.009  34.245  37.873  1.00  0.00     0.135 A 
ATOM     89  F   UNL A   1      41.665  35.617  35.797  1.00  0.00    -0.206 F 
ATOM     90  C   UNL A   1      40.654  36.489  37.727  1.00  0.00     0.059 A 
ATOM     91  C   UNL A   1      38.876  35.251  38.825  1.00  0.00     0.059 A 
ATOM     92  F   UNL A   1      38.202  33.176  37.967  1.00  0.00    -0.206 F 
ATOM     93  C   UNL A   1      39.710  36.365  38.750  1.00  0.00     0.060 A 
BRANCH  93  94
ATOM     94  S   UNL A   1      39.563  37.696  39.961  1.00  0.00     0.124 S 
ATOM     95  O   UNL A   1      39.530  36.949  41.215  1.00  0.00    -0.237 OA
ATOM     96  O   UNL A   1      40.773  38.476  39.720  1.00  0.00    -0.237 OA
ATOM     97  O   UNL A   1      38.315  38.355  39.590  1.00  0.00    -0.744 OA
ENDBRANCH  93  94
ENDBRANCH  61  86
ENDBRANCH  35  36
ENDBRANCH  27  30
ENDBRANCH  25  26
ENDBRANCH   1  25
TORSDOF 17
ENDMDL
MODEL 2
REMARK VINA RESULT:     -11.7      2.238      4.128
REMARK SMILES COc1c(N)cc(-c2ccccc2)cc1C(=O)NCCCCNC(=O)c1ccc(-c2c3nc(c(-c4c(F)cc(S(=O)(=O)[O-])cc4F)c4ccc([nH]4)c(-c4c(F)cc(S(=O)(=O)[O-])cc4F)c4nc(c(-c5c(F)cc(S(=O)(=O)[O-])cc5F)c5ccc2[nH]5)C=C4)C=C3)cc1
REMARK SMILES IDX 21 1 20 2 19 3 18 4 16 5 17 6 15 8 3 9 4 10 6 11 14 12 7 13
REMARK SMILES IDX 2 14 1 15 5 16 8 19 9 20 13 21 10 22 12 23 11 24 22 25 23 26
REMARK SMILES IDX 24 27 25 29 26 30 27 31 91 32 28 33 90 34 29 35 30 36 31 37
REMARK SMILES IDX 84 38 32 39 89 40 83 41 85 42 33 43 88 44 82 45 81 46 34 48
REMARK SMILES IDX 68 49 47 50 67 51 48 52 51 53 66 54 86 55 49 56 50 57 65 59
REMARK SMILES IDX 87 60 52 61 35 62 36 63 45 64 37 65 38 66 44 67 46 68 39 69
REMARK SMILES IDX 40 70 41 71 42 72 43 73 69 74 70 75 79 76 71 77 72 78 78 79
REMARK SMILES IDX 80 80 73 81 74 82 75 83 76 84 77 85 53 86 54 87 63 88 55 89
REMARK SMILES IDX 56 90 62 91 64 92 57 93 58 94 59 95 60 96 61 97
REMARK H PARENT 18 7 5 17 5 18 23 28 85 47 51 58
REMARK Flexibility Score: inf
ROOT
ATOM      1  C   UNL A   1      39.045  22.618  26.512  1.00  0.00     0.023 C 
ENDROOT
BRANCH   1   2
ATOM      2  C   UNL A   1      38.036  23.696  26.122  1.00  0.00     0.023 C 
BRANCH   2   3
ATOM      3  C   UNL A   1      36.630  23.231  25.770  1.00  0.00     0.116 C 
BRANCH   3   4
ATOM      4  N   UNL A   1      35.623  23.367  26.788  1.00  0.00    -0.352 N 
ATOM      5  C   UNL A   1      34.365  22.806  26.833  1.00  0.00     0.255 C 
ATOM      6  O   UNL A   1      33.710  22.965  27.866  1.00  0.00    -0.269 OA
ATOM      7  H   UNL A   1      35.864  23.936  27.554  1.00  0.00     0.163 HD
BRANCH   5   8
ATOM      8  C   UNL A   1      33.705  22.117  25.675  1.00  0.00     0.084 A 
ATOM      9  C   UNL A   1      33.185  22.723  24.511  1.00  0.00     0.154 A 
ATOM     10  C   UNL A   1      32.677  21.910  23.470  1.00  0.00     0.076 A 
ATOM     11  C   UNL A   1      32.624  20.524  23.640  1.00  0.00     0.038 A 
ATOM     12  C   UNL A   1      33.713  20.702  25.767  1.00  0.00     0.026 A 
ATOM     13  C   UNL A   1      33.188  19.889  24.752  1.00  0.00    -0.015 A 
BRANCH   9  14
ATOM     14  O   UNL A   1      33.294  24.084  24.330  1.00  0.00    -0.494 OA
ATOM     15  C   UNL A   1      32.204  24.838  24.882  1.00  0.00     0.278 C 
ENDBRANCH   9  14
BRANCH  10  16
ATOM     16  N   UNL A   1      32.191  22.430  22.268  1.00  0.00    -0.396 N 
ATOM     17  H   UNL A   1      32.197  21.875  21.453  1.00  0.00     0.156 HD
ATOM     18  H   UNL A   1      31.842  23.350  22.234  1.00  0.00     0.156 HD
ENDBRANCH  10  16
BRANCH  13  19
ATOM     19  C   UNL A   1      33.263  18.417  24.777  1.00  0.00    -0.018 A 
ATOM     20  C   UNL A   1      34.014  17.737  23.796  1.00  0.00     0.009 A 
ATOM     21  C   UNL A   1      32.564  17.648  25.715  1.00  0.00     0.009 A 
ATOM     22  C   UNL A   1      34.035  16.343  23.731  1.00  0.00     0.001 A 
ATOM     23  C   UNL A   1      32.585  16.249  25.652  1.00  0.00     0.001 A 
ATOM     24  C   UNL A   1      33.311  15.598  24.656  1.00  0.00     0.000 A 
ENDBRANCH  13  19
ENDBRANCH   5   8
ENDBRANCH   3   4
ENDBRANCH   2   3
ENDBRANCH   1   2
BRANCH   1  25
ATOM     25  C   UNL A   1      40.447  23.081  26.900  1.00  0.00     0.116 C 
BRANCH  25  26
ATOM     26  N   UNL A   1      41.097  23.938  25.914  1.00  0.00    -0.352 N 
ATOM     27  C   UNL A   1      41.602  25.214  26.020  1.00  0.00     0.251 C 
ATOM     28  H   UNL A   1      41.190  23.534  25.021  1.00  0.00     0.163 HD
ATOM     29  O   UNL A   1      42.068  25.765  25.025  1.00  0.00    -0.269 OA
BRANCH  27  30
ATOM     30  C   UNL A   1      41.540  25.947  27.306  1.00  0.00     0.039 A 
ATOM     31  C   UNL A   1      42.645  26.704  27.706  1.00  0.00     0.014 A 
ATOM     32  C   UNL A   1      40.395  25.920  28.102  1.00  0.00     0.014 A 
ATOM     33  C   UNL A   1      42.555  27.524  28.835  1.00  0.00     0.010 A 
ATOM     34  C   UNL A   1      40.270  26.811  29.165  1.00  0.00     0.010 A 
ATOM     35  C   UNL A   1      41.344  27.634  29.537  1.00  0.00    -0.014 A 
BRANCH  35  36
ATOM     36  C   UNL A   1      41.161  28.626  30.632  1.00  0.00     0.031 A 
ATOM     37  C   UNL A   1      41.978  28.530  31.892  1.00  0.00     0.074 A 
ATOM     38  C   UNL A   1      40.177  29.544  30.542  1.00  0.00     0.049 A 
ATOM     39  N   UNL A   1      41.882  29.227  32.995  1.00  0.00    -0.248 NA
ATOM     40  C   UNL A   1      43.011  27.483  31.931  1.00  0.00     0.031 C 
ATOM     41  C   UNL A   1      39.256  29.691  29.413  1.00  0.00     0.029 A 
ATOM     42  N   UNL A   1      39.770  30.514  31.426  1.00  0.00    -0.354 N 
ATOM     43  C   UNL A   1      42.815  28.681  33.870  1.00  0.00     0.074 A 
ATOM     44  C   UNL A   1      43.429  27.564  33.185  1.00  0.00     0.031 C 
ATOM     45  C   UNL A   1      38.401  30.695  29.667  1.00  0.00     0.029 A 
ATOM     46  C   UNL A   1      38.688  31.241  30.990  1.00  0.00     0.049 A 
ATOM     47  H   UNL A   1      40.211  30.671  32.293  1.00  0.00     0.167 HD
ATOM     48  C   UNL A   1      43.146  29.085  35.120  1.00  0.00     0.037 A 
ATOM     49  C   UNL A   1      37.994  32.230  31.587  1.00  0.00     0.037 A 
ATOM     50  C   UNL A   1      42.560  30.221  35.782  1.00  0.00     0.049 A 
ATOM     51  C   UNL A   1      38.415  32.705  32.948  1.00  0.00     0.074 A 
ATOM     52  C   UNL A   1      42.895  30.771  37.007  1.00  0.00     0.029 A 
ATOM     53  N   UNL A   1      41.514  30.980  35.275  1.00  0.00    -0.354 N 
ATOM     54  N   UNL A   1      39.363  32.239  33.725  1.00  0.00    -0.248 NA
ATOM     55  C   UNL A   1      37.681  33.847  33.511  1.00  0.00     0.031 C 
ATOM     56  C   UNL A   1      42.026  31.840  37.258  1.00  0.00     0.029 A 
ATOM     57  C   UNL A   1      41.177  31.982  36.171  1.00  0.00     0.049 A 
ATOM     58  H   UNL A   1      41.076  30.827  34.408  1.00  0.00     0.167 HD
ATOM     59  C   UNL A   1      39.352  33.038  34.862  1.00  0.00     0.074 A 
ATOM     60  C   UNL A   1      38.312  34.028  34.665  1.00  0.00     0.031 C 
ATOM     61  C   UNL A   1      40.135  32.959  35.966  1.00  0.00     0.037 A 
BRANCH  48  62
ATOM     62  C   UNL A   1      44.192  28.283  35.846  1.00  0.00     0.058 A 
ATOM     63  C   UNL A   1      45.564  28.536  35.681  1.00  0.00     0.135 A 
ATOM     64  C   UNL A   1      43.821  27.237  36.705  1.00  0.00     0.135 A 
ATOM     65  F   UNL A   1      45.976  29.517  34.864  1.00  0.00    -0.206 F 
ATOM     66  C   UNL A   1      46.529  27.744  36.294  1.00  0.00     0.059 A 
ATOM     67  C   UNL A   1      44.769  26.451  37.354  1.00  0.00     0.059 A 
ATOM     68  F   UNL A   1      42.523  26.955  36.907  1.00  0.00    -0.206 F 
ATOM     69  C   UNL A   1      46.121  26.696  37.120  1.00  0.00     0.060 A 
BRANCH  69  70
ATOM     70  S   UNL A   1      47.383  25.647  37.873  1.00  0.00     0.124 S 
ATOM     71  O   UNL A   1      46.913  25.574  39.253  1.00  0.00    -0.237 OA
ATOM     72  O   UNL A   1      47.268  24.413  37.100  1.00  0.00    -0.237 OA
ATOM     73  O   UNL A   1      48.616  26.399  37.666  1.00  0.00    -0.744 OA
ENDBRANCH  69  70
ENDBRANCH  48  62
BRANCH  49  74
ATOM     74  C   UNL A   1      36.847  32.849  30.871  1.00  0.00     0.058 A 
ATOM     75  C   UNL A   1      35.526  32.520  31.205  1.00  0.00     0.135 A 
ATOM     76  C   UNL A   1      37.050  33.834  29.891  1.00  0.00     0.135 A 
ATOM     77  F   UNL A   1      35.283  31.580  32.131  1.00  0.00    -0.206 F 
ATOM     78  C   UNL A   1      34.443  33.149  30.598  1.00  0.00     0.059 A 
ATOM     79  C   UNL A   1      35.984  34.492  29.285  1.00  0.00     0.059 A 
ATOM     80  F   UNL A   1      38.296  34.197  29.550  1.00  0.00    -0.206 F 
ATOM     81  C   UNL A   1      34.683  34.142  29.646  1.00  0.00     0.060 A 
BRANCH  81  82
ATOM     82  S   UNL A   1      33.273  35.024  28.941  1.00  0.00     0.124 S 
ATOM     83  O   UNL A   1      32.757  34.044  27.992  1.00  0.00    -0.237 OA
ATOM     84  O   UNL A   1      32.445  35.270  30.118  1.00  0.00    -0.237 OA
ATOM     85  O   UNL A   1      33.882  36.213  28.353  1.00  0.00    -0.744 OA
ENDBRANCH  81  82
ENDBRANCH  49  74
BRANCH  61  86
ATOM     86  C   UNL A   1      39.913  33.979  37.047  1.00  0.00     0.058 A 
ATOM     87  C   UNL A   1      40.469  35.265  36.972  1.00  0.00     0.135 A 
ATOM     88  C   UNL A   1      39.085  33.686  38.143  1.00  0.00     0.135 A 
ATOM     89  F   UNL A   1      41.274  35.594  35.948  1.00  0.00    -0.206 F 
ATOM     90  C   UNL A   1      40.227  36.220  37.953  1.00  0.00     0.059 A 
ATOM     91  C   UNL A   1      38.809  34.633  39.124  1.00  0.00     0.059 A 
ATOM     92  F   UNL A   1      38.520  32.473  38.258  1.00  0.00    -0.206 F 
ATOM     93  C   UNL A   1      39.393  35.895  39.026  1.00  0.00     0.060 A 
BRANCH  93  94
ATOM     94  S   UNL A   1      39.054  37.155  40.274  1.00  0.00     0.124 S 
ATOM     95  O   UNL A   1      38.143  36.445  41.167  1.00  0.00    -0.237 OA
ATOM     96  O   UNL A   1      40.382  37.431  40.812  1.00  0.00    -0.237 OA
ATOM     97  O   UNL A   1      38.457  38.242  39.504  1.00  0.00    -0.744 OA
ENDBRANCH  93  94
ENDBRANCH  61  86
ENDBRANCH  35  36
ENDBRANCH  27  30
ENDBRANCH  25  26
ENDBRANCH   1  25
TORSDOF 17
ENDMDL
MODEL 3
REMARK VINA RESULT:     -11.6      6.675     12.155
REMARK SMILES COc1c(N)cc(-c2ccccc2)cc1C(=O)NCCCCNC(=O)c1ccc(-c2c3nc(c(-c4c(F)cc(S(=O)(=O)[O-])cc4F)c4ccc([nH]4)c(-c4c(F)cc(S(=O)(=O)[O-])cc4F)c4nc(c(-c5c(F)cc(S(=O)(=O)[O-])cc5F)c5ccc2[nH]5)C=C4)C=C3)cc1
REMARK SMILES IDX 21 1 20 2 19 3 18 4 16 5 17 6 15 8 3 9 4 10 6 11 14 12 7 13
REMARK SMILES IDX 2 14 1 15 5 16 8 19 9 20 13 21 10 22 12 23 11 24 22 25 23 26
REMARK SMILES IDX 24 27 25 29 26 30 27 31 91 32 28 33 90 34 29 35 30 36 31 37
REMARK SMILES IDX 84 38 32 39 89 40 83 41 85 42 33 43 88 44 82 45 81 46 34 48
REMARK SMILES IDX 68 49 47 50 67 51 48 52 51 53 66 54 86 55 49 56 50 57 65 59
REMARK SMILES IDX 87 60 52 61 35 62 36 63 45 64 37 65 38 66 44 67 46 68 39 69
REMARK SMILES IDX 40 70 41 71 42 72 43 73 69 74 70 75 79 76 71 77 72 78 78 79
REMARK SMILES IDX 80 80 73 81 74 82 75 83 76 84 77 85 53 86 54 87 63 88 55 89
REMARK SMILES IDX 56 90 62 91 64 92 57 93 58 94 59 95 60 96 61 97
REMARK H PARENT 18 7 5 17 5 18 23 28 85 47 51 58
REMARK Flexibility Score: inf
ROOT
ATOM      1  C   UNL A   1      34.264  30.638  27.322  1.00  0.00     0.023 C 
ENDROOT
BRANCH   1   2
ATOM      2  C   UNL A   1      34.036  29.289  26.645  1.00  0.00     0.023 C 
BRANCH   2   3
ATOM      3  C   UNL A   1      32.815  29.166  25.744  1.00  0.00     0.116 C 
BRANCH   3   4
ATOM      4  N   UNL A   1      31.724  28.365  26.229  1.00  0.00    -0.352 N 
ATOM      5  C   UNL A   1      31.365  27.086  25.859  1.00  0.00     0.255 C 
ATOM      6  O   UNL A   1      30.458  26.545  26.496  1.00  0.00    -0.269 OA
ATOM      7  H   UNL A   1      31.158  28.785  26.917  1.00  0.00     0.163 HD
BRANCH   5   8
ATOM      8  C   UNL A   1      31.926  26.362  24.672  1.00  0.00     0.084 A 
ATOM      9  C   UNL A   1      31.517  26.491  23.327  1.00  0.00     0.154 A 
ATOM     10  C   UNL A   1      32.222  25.798  22.314  1.00  0.00     0.076 A 
ATOM     11  C   UNL A   1      33.261  24.932  22.666  1.00  0.00     0.038 A 
ATOM     12  C   UNL A   1      33.043  25.541  24.973  1.00  0.00     0.026 A 
ATOM     13  C   UNL A   1      33.730  24.829  23.980  1.00  0.00    -0.015 A 
BRANCH   9  14
ATOM     14  O   UNL A   1      30.530  27.391  22.986  1.00  0.00    -0.494 OA
ATOM     15  C   UNL A   1      31.022  28.690  22.625  1.00  0.00     0.278 C 
ENDBRANCH   9  14
BRANCH  10  16
ATOM     16  N   UNL A   1      31.911  25.912  20.957  1.00  0.00    -0.396 N 
ATOM     17  H   UNL A   1      32.312  26.633  20.419  1.00  0.00     0.156 HD
ATOM     18  H   UNL A   1      31.292  25.272  20.538  1.00  0.00     0.156 HD
ENDBRANCH  10  16
BRANCH  13  19
ATOM     19  C   UNL A   1      34.948  24.042  24.247  1.00  0.00    -0.018 A 
ATOM     20  C   UNL A   1      35.598  24.156  25.493  1.00  0.00     0.009 A 
ATOM     21  C   UNL A   1      35.529  23.212  23.280  1.00  0.00     0.009 A 
ATOM     22  C   UNL A   1      36.802  23.499  25.750  1.00  0.00     0.001 A 
ATOM     23  C   UNL A   1      36.737  22.551  23.537  1.00  0.00     0.001 A 
ATOM     24  C   UNL A   1      37.377  22.702  24.766  1.00  0.00     0.000 A 
ENDBRANCH  13  19
ENDBRANCH   5   8
ENDBRANCH   3   4
ENDBRANCH   2   3
ENDBRANCH   1   2
BRANCH   1  25
ATOM     25  C   UNL A   1      35.567  30.819  28.097  1.00  0.00     0.116 C 
BRANCH  25  26
ATOM     26  N   UNL A   1      35.465  30.546  29.526  1.00  0.00    -0.352 N 
ATOM     27  C   UNL A   1      36.429  30.217  30.453  1.00  0.00     0.251 C 
ATOM     28  H   UNL A   1      34.552  30.608  29.890  1.00  0.00     0.163 HD
ATOM     29  O   UNL A   1      36.096  29.979  31.612  1.00  0.00    -0.269 OA
BRANCH  27  30
ATOM     30  C   UNL A   1      37.850  30.094  30.055  1.00  0.00     0.039 A 
ATOM     31  C   UNL A   1      38.819  29.938  31.050  1.00  0.00     0.014 A 
ATOM     32  C   UNL A   1      38.231  30.101  28.713  1.00  0.00     0.014 A 
ATOM     33  C   UNL A   1      40.145  29.667  30.695  1.00  0.00     0.010 A 
ATOM     34  C   UNL A   1      39.526  29.732  28.360  1.00  0.00     0.010 A 
ATOM     35  C   UNL A   1      40.496  29.496  29.347  1.00  0.00    -0.014 A 
BRANCH  35  36
ATOM     36  C   UNL A   1      41.853  29.037  28.944  1.00  0.00     0.031 A 
ATOM     37  C   UNL A   1      42.989  30.017  28.833  1.00  0.00     0.074 A 
ATOM     38  C   UNL A   1      42.037  27.755  28.564  1.00  0.00     0.049 A 
ATOM     39  N   UNL A   1      44.206  29.827  28.391  1.00  0.00    -0.248 NA
ATOM     40  C   UNL A   1      42.706  31.404  29.234  1.00  0.00     0.031 C 
ATOM     41  C   UNL A   1      41.000  26.722  28.540  1.00  0.00     0.029 A 
ATOM     42  N   UNL A   1      43.157  27.108  28.100  1.00  0.00    -0.354 N 
ATOM     43  C   UNL A   1      44.821  31.074  28.426  1.00  0.00     0.074 A 
ATOM     44  C   UNL A   1      43.825  32.019  28.886  1.00  0.00     0.031 C 
ATOM     45  C   UNL A   1      41.533  25.571  28.097  1.00  0.00     0.029 A 
ATOM     46  C   UNL A   1      42.939  25.791  27.771  1.00  0.00     0.049 A 
ATOM     47  H   UNL A   1      44.034  27.548  28.009  1.00  0.00     0.167 HD
ATOM     48  C   UNL A   1      46.100  31.400  28.125  1.00  0.00     0.037 A 
ATOM     49  C   UNL A   1      43.769  24.863  27.256  1.00  0.00     0.037 A 
ATOM     50  C   UNL A   1      47.097  30.449  27.706  1.00  0.00     0.049 A 
ATOM     51  C   UNL A   1      45.201  25.227  26.986  1.00  0.00     0.074 A 
ATOM     52  C   UNL A   1      48.445  30.661  27.472  1.00  0.00     0.029 A 
ATOM     53  N   UNL A   1      46.854  29.106  27.454  1.00  0.00    -0.354 N 
ATOM     54  N   UNL A   1      45.792  26.391  27.115  1.00  0.00    -0.248 NA
ATOM     55  C   UNL A   1      46.083  24.152  26.512  1.00  0.00     0.031 C 
ATOM     56  C   UNL A   1      49.008  29.454  27.042  1.00  0.00     0.029 A 
ATOM     57  C   UNL A   1      48.021  28.480  27.049  1.00  0.00     0.049 A 
ATOM     58  H   UNL A   1      45.980  28.664  27.549  1.00  0.00     0.167 HD
ATOM     59  C   UNL A   1      47.118  26.187  26.753  1.00  0.00     0.074 A 
ATOM     60  C   UNL A   1      47.246  24.785  26.414  1.00  0.00     0.031 C 
ATOM     61  C   UNL A   1      48.136  27.083  26.708  1.00  0.00     0.037 A 
BRANCH  48  62
ATOM     62  C   UNL A   1      46.486  32.850  28.240  1.00  0.00     0.058 A 
ATOM     63  C   UNL A   1      46.358  33.737  27.158  1.00  0.00     0.135 A 
ATOM     64  C   UNL A   1      47.005  33.357  29.442  1.00  0.00     0.135 A 
ATOM     65  F   UNL A   1      45.878  33.304  25.983  1.00  0.00    -0.206 F 
ATOM     66  C   UNL A   1      46.786  35.057  27.245  1.00  0.00     0.059 A 
ATOM     67  C   UNL A   1      47.411  34.683  29.561  1.00  0.00     0.059 A 
ATOM     68  F   UNL A   1      47.141  32.557  30.511  1.00  0.00    -0.206 F 
ATOM     69  C   UNL A   1      47.322  35.519  28.449  1.00  0.00     0.060 A 
BRANCH  69  70
ATOM     70  S   UNL A   1      47.916  37.221  28.535  1.00  0.00     0.124 S 
ATOM     71  O   UNL A   1      49.334  37.048  28.235  1.00  0.00    -0.237 OA
ATOM     72  O   UNL A   1      47.127  37.882  27.500  1.00  0.00    -0.237 OA
ATOM     73  O   UNL A   1      47.607  37.619  29.904  1.00  0.00    -0.744 OA
ENDBRANCH  69  70
ENDBRANCH  48  62
BRANCH  49  74
ATOM     74  C   UNL A   1      43.256  23.492  26.995  1.00  0.00     0.058 A 
ATOM     75  C   UNL A   1      42.993  23.056  25.689  1.00  0.00     0.135 A 
ATOM     76  C   UNL A   1      43.089  22.569  28.040  1.00  0.00     0.135 A 
ATOM     77  F   UNL A   1      43.132  23.905  24.659  1.00  0.00    -0.206 F 
ATOM     78  C   UNL A   1      42.588  21.752  25.424  1.00  0.00     0.059 A 
ATOM     79  C   UNL A   1      42.705  21.254  27.799  1.00  0.00     0.059 A 
ATOM     80  F   UNL A   1      43.346  22.933  29.306  1.00  0.00    -0.206 F 
ATOM     81  C   UNL A   1      42.457  20.855  26.486  1.00  0.00     0.060 A 
BRANCH  81  82
ATOM     82  S   UNL A   1      42.032  19.137  26.120  1.00  0.00     0.124 S 
ATOM     83  O   UNL A   1      42.869  18.868  24.957  1.00  0.00    -0.237 OA
ATOM     84  O   UNL A   1      42.417  18.457  27.354  1.00  0.00    -0.237 OA
ATOM     85  O   UNL A   1      40.596  19.194  25.867  1.00  0.00    -0.744 OA
ENDBRANCH  81  82
ENDBRANCH  49  74
BRANCH  61  86
ATOM     86  C   UNL A   1      49.488  26.573  26.293  1.00  0.00     0.058 A 
ATOM     87  C   UNL A   1      49.969  26.745  24.986  1.00  0.00     0.135 A 
ATOM     88  C   UNL A   1      50.335  25.958  27.229  1.00  0.00     0.135 A 
ATOM     89  F   UNL A   1      49.196  27.321  24.052  1.00  0.00    -0.206 F 
ATOM     90  C   UNL A   1      51.237  26.309  24.616  1.00  0.00     0.059 A 
ATOM     91  C   UNL A   1      51.615  25.536  26.888  1.00  0.00     0.059 A 
ATOM     92  F   UNL A   1      49.926  25.778  28.495  1.00  0.00    -0.206 F 
ATOM     93  C   UNL A   1      52.054  25.706  25.576  1.00  0.00     0.060 A 
BRANCH  93  94
ATOM     94  S   UNL A   1      53.713  25.180  25.095  1.00  0.00     0.124 S 
ATOM     95  O   UNL A   1      53.866  25.838  23.802  1.00  0.00    -0.237 OA
ATOM     96  O   UNL A   1      54.537  25.710  26.178  1.00  0.00    -0.237 OA
ATOM     97  O   UNL A   1      53.608  23.725  25.051  1.00  0.00    -0.744 OA
ENDBRANCH  93  94
ENDBRANCH  61  86
ENDBRANCH  35  36
ENDBRANCH  27  30
ENDBRANCH  25  26
ENDBRANCH   1  25
TORSDOF 17
ENDMDL
