MODEL 1
REMARK VINA RESULT:     -12.1      0.000      0.000
REMARK SMILES CC(C)CSc1cc2c(cc1Cl)C=C(C(=O)NCCCCNC(=O)c1ccc(-c3c4nc(c(-c5c(F)cc(S(=O)(=O)[O-])cc5F)c5ccc([nH]5)c(-c5c(F)cc(S(=O)(=O)[O-])cc5F)c5nc(c(-c6c(F)cc(S(=O)(=O)[O-])cc6F)c6ccc3[nH]6)C=C5)C=C4)cc1)[C@H](C(F)(F)F)O2
REMARK SMILES IDX 19 1 18 2 17 3 15 4 16 5 14 7 6 8 7 9 11 10 8 11 10 12 12 13
REMARK SMILES IDX 9 14 96 15 13 16 91 17 5 18 4 19 2 20 1 21 3 22 92 23 93 24
REMARK SMILES IDX 94 25 95 26 20 27 21 28 22 29 23 30 24 32 25 33 26 34 90 35
REMARK SMILES IDX 27 36 89 37 28 38 29 39 30 40 83 41 31 42 88 43 82 44 84 45
REMARK SMILES IDX 32 46 87 47 81 48 80 49 33 51 67 52 46 53 66 54 47 55 50 56
REMARK SMILES IDX 65 57 85 58 48 59 49 60 64 62 86 63 51 64 34 65 35 66 44 67
REMARK SMILES IDX 36 68 37 69 43 70 45 71 38 72 39 73 40 74 41 75 42 76 68 77
REMARK SMILES IDX 69 78 78 79 70 80 71 81 77 82 79 83 72 84 73 85 74 86 75 87
REMARK SMILES IDX 76 88 52 89 53 90 62 91 54 92 55 93 61 94 63 95 56 96 57 97
REMARK SMILES IDX 58 98 59 99 60 100
REMARK H PARENT 17 6 22 31 84 50 50 61
REMARK Flexibility Score: inf
ROOT
ATOM      1  C   UNL A   1      31.476  29.507  25.969  1.00  0.00     0.023 C 
ENDROOT
BRANCH   1   2
ATOM      2  C   UNL A   1      31.304  29.010  24.536  1.00  0.00     0.116 C 
BRANCH   2   3
ATOM      3  N   UNL A   1      32.496  29.200  23.728  1.00  0.00    -0.352 N 
ATOM      4  C   UNL A   1      33.477  28.428  23.202  1.00  0.00     0.251 C 
ATOM      5  O   UNL A   1      34.315  29.037  22.528  1.00  0.00    -0.270 OA
ATOM      6  H   UNL A   1      32.628  30.149  23.502  1.00  0.00     0.163 HD
BRANCH   4   7
ATOM      7  C   UNL A   1      33.611  26.951  23.366  1.00  0.00     0.067 C 
ATOM      8  C   UNL A   1      34.186  22.292  25.239  1.00  0.00     0.030 A 
ATOM      9  C   UNL A   1      34.330  22.869  23.963  1.00  0.00     0.063 A 
ATOM     10  C   UNL A   1      33.871  23.147  26.311  1.00  0.00     0.055 A 
ATOM     11  C   UNL A   1      34.181  24.241  23.776  1.00  0.00     0.129 A 
ATOM     12  C   UNL A   1      33.811  24.539  26.125  1.00  0.00     0.033 A 
ATOM     13  Cl  UNL A   1      33.446  22.600  27.893  1.00  0.00    -0.083 Cl
ATOM     14  C   UNL A   1      33.959  25.090  24.856  1.00  0.00     0.019 A 
ATOM     15  O   UNL A   1      34.249  24.720  22.494  1.00  0.00    -0.475 OA
ATOM     16  C   UNL A   1      33.867  26.526  24.620  1.00  0.00     0.025 C 
ATOM     17  C   UNL A   1      33.451  25.926  22.275  1.00  0.00     0.314 C 
BRANCH   8  18
ATOM     18  S   UNL A   1      34.339  20.503  25.233  1.00  0.00    -0.124 SA
BRANCH  18  19
ATOM     19  C   UNL A   1      33.074  19.870  24.076  1.00  0.00     0.078 C 
BRANCH  19  20
ATOM     20  C   UNL A   1      33.037  18.361  23.773  1.00  0.00    -0.007 C 
ATOM     21  C   UNL A   1      32.377  17.495  24.843  1.00  0.00     0.008 C 
ATOM     22  C   UNL A   1      32.294  18.160  22.445  1.00  0.00     0.008 C 
ENDBRANCH  19  20
ENDBRANCH  18  19
ENDBRANCH   8  18
BRANCH  17  23
ATOM     23  C   UNL A   1      31.974  25.563  22.005  1.00  0.00     0.429 C 
ATOM     24  F   UNL A   1      31.547  25.957  20.783  1.00  0.00    -0.167 F 
ATOM     25  F   UNL A   1      31.743  24.232  22.078  1.00  0.00    -0.167 F 
ATOM     26  F   UNL A   1      31.164  26.158  22.916  1.00  0.00    -0.167 F 
ENDBRANCH  17  23
ENDBRANCH   4   7
ENDBRANCH   2   3
ENDBRANCH   1   2
BRANCH   1  27
ATOM     27  C   UNL A   1      32.270  28.587  26.896  1.00  0.00     0.023 C 
BRANCH  27  28
ATOM     28  C   UNL A   1      33.664  29.075  27.272  1.00  0.00     0.116 C 
BRANCH  28  29
ATOM     29  N   UNL A   1      33.698  30.361  27.958  1.00  0.00    -0.352 N 
ATOM     30  C   UNL A   1      34.764  30.922  28.635  1.00  0.00     0.251 C 
ATOM     31  H   UNL A   1      32.867  30.890  27.936  1.00  0.00     0.163 HD
ATOM     32  O   UNL A   1      34.645  31.987  29.224  1.00  0.00    -0.269 OA
BRANCH  30  33
ATOM     33  C   UNL A   1      36.033  30.164  28.685  1.00  0.00     0.039 A 
ATOM     34  C   UNL A   1      36.459  29.602  29.889  1.00  0.00     0.014 A 
ATOM     35  C   UNL A   1      36.862  30.146  27.561  1.00  0.00     0.014 A 
ATOM     36  C   UNL A   1      37.786  29.223  30.026  1.00  0.00     0.010 A 
ATOM     37  C   UNL A   1      38.172  29.672  27.679  1.00  0.00     0.010 A 
ATOM     38  C   UNL A   1      38.668  29.281  28.932  1.00  0.00    -0.014 A 
BRANCH  38  39
ATOM     39  C   UNL A   1      40.109  28.986  29.159  1.00  0.00     0.031 A 
ATOM     40  C   UNL A   1      40.703  27.666  28.734  1.00  0.00     0.074 A 
ATOM     41  C   UNL A   1      40.907  29.959  29.641  1.00  0.00     0.049 A 
ATOM     42  N   UNL A   1      41.953  27.280  28.763  1.00  0.00    -0.248 NA
ATOM     43  C   UNL A   1      39.780  26.645  28.210  1.00  0.00     0.031 C 
ATOM     44  C   UNL A   1      40.452  31.283  30.074  1.00  0.00     0.029 A 
ATOM     45  N   UNL A   1      42.269  30.011  29.797  1.00  0.00    -0.354 N 
ATOM     46  C   UNL A   1      41.964  25.974  28.286  1.00  0.00     0.074 A 
ATOM     47  C   UNL A   1      40.592  25.620  27.997  1.00  0.00     0.031 C 
ATOM     48  C   UNL A   1      41.519  32.041  30.364  1.00  0.00     0.029 A 
ATOM     49  C   UNL A   1      42.729  31.244  30.197  1.00  0.00     0.049 A 
ATOM     50  H   UNL A   1      42.861  29.239  29.638  1.00  0.00     0.167 HD
ATOM     51  C   UNL A   1      43.022  25.151  28.090  1.00  0.00     0.037 A 
ATOM     52  C   UNL A   1      43.984  31.686  30.404  1.00  0.00     0.037 A 
ATOM     53  C   UNL A   1      44.391  25.519  28.334  1.00  0.00     0.049 A 
ATOM     54  C   UNL A   1      45.136  30.746  30.206  1.00  0.00     0.074 A 
ATOM     55  C   UNL A   1      45.534  24.765  28.131  1.00  0.00     0.029 A 
ATOM     56  N   UNL A   1      44.804  26.747  28.828  1.00  0.00    -0.354 N 
ATOM     57  N   UNL A   1      45.122  29.514  29.756  1.00  0.00    -0.248 NA
ATOM     58  C   UNL A   1      46.470  31.243  30.569  1.00  0.00     0.031 C 
ATOM     59  C   UNL A   1      46.636  25.525  28.533  1.00  0.00     0.029 A 
ATOM     60  C   UNL A   1      46.182  26.763  28.959  1.00  0.00     0.049 A 
ATOM     61  H   UNL A   1      44.206  27.497  29.051  1.00  0.00     0.167 HD
ATOM     62  C   UNL A   1      46.443  29.084  29.793  1.00  0.00     0.074 A 
ATOM     63  C   UNL A   1      47.234  30.195  30.282  1.00  0.00     0.031 C 
ATOM     64  C   UNL A   1      46.950  27.874  29.462  1.00  0.00     0.037 A 
BRANCH  51  65
ATOM     65  C   UNL A   1      42.747  23.762  27.585  1.00  0.00     0.058 A 
ATOM     66  C   UNL A   1      42.771  23.460  26.215  1.00  0.00     0.135 A 
ATOM     67  C   UNL A   1      42.518  22.708  28.486  1.00  0.00     0.135 A 
ATOM     68  F   UNL A   1      42.971  24.435  25.313  1.00  0.00    -0.206 F 
ATOM     69  C   UNL A   1      42.561  22.165  25.752  1.00  0.00     0.059 A 
ATOM     70  C   UNL A   1      42.325  21.402  28.046  1.00  0.00     0.059 A 
ATOM     71  F   UNL A   1      42.485  22.944  29.807  1.00  0.00    -0.206 F 
ATOM     72  C   UNL A   1      42.338  21.142  26.677  1.00  0.00     0.060 A 
BRANCH  72  73
ATOM     73  S   UNL A   1      42.078  19.465  26.060  1.00  0.00     0.124 S 
ATOM     74  O   UNL A   1      42.575  18.666  27.176  1.00  0.00    -0.237 OA
ATOM     75  O   UNL A   1      40.634  19.429  25.852  1.00  0.00    -0.237 OA
ATOM     76  O   UNL A   1      42.885  19.419  24.846  1.00  0.00    -0.744 OA
ENDBRANCH  72  73
ENDBRANCH  51  65
BRANCH  52  77
ATOM     77  C   UNL A   1      44.204  33.094  30.823  1.00  0.00     0.058 A 
ATOM     78  C   UNL A   1      44.299  33.434  32.179  1.00  0.00     0.135 A 
ATOM     79  C   UNL A   1      44.373  34.115  29.875  1.00  0.00     0.135 A 
ATOM     80  F   UNL A   1      44.139  32.491  33.120  1.00  0.00    -0.206 F 
ATOM     81  C   UNL A   1      44.560  34.738  32.583  1.00  0.00     0.059 A 
ATOM     82  C   UNL A   1      44.656  35.422  30.254  1.00  0.00     0.059 A 
ATOM     83  F   UNL A   1      44.305  33.834  28.564  1.00  0.00    -0.206 F 
ATOM     84  C   UNL A   1      44.745  35.725  31.612  1.00  0.00     0.060 A 
BRANCH  84  85
ATOM     85  S   UNL A   1      45.161  37.400  32.144  1.00  0.00     0.124 S 
ATOM     86  O   UNL A   1      45.718  37.965  30.921  1.00  0.00    -0.237 OA
ATOM     87  O   UNL A   1      43.864  37.924  32.558  1.00  0.00    -0.237 OA
ATOM     88  O   UNL A   1      46.113  37.178  33.230  1.00  0.00    -0.744 OA
ENDBRANCH  84  85
ENDBRANCH  52  77
BRANCH  64  89
ATOM     89  C   UNL A   1      48.424  27.665  29.644  1.00  0.00     0.058 A 
ATOM     90  C   UNL A   1      48.938  27.187  30.858  1.00  0.00     0.135 A 
ATOM     91  C   UNL A   1      49.315  27.849  28.575  1.00  0.00     0.135 A 
ATOM     92  F   UNL A   1      48.126  27.005  31.911  1.00  0.00    -0.206 F 
ATOM     93  C   UNL A   1      50.288  26.890  31.006  1.00  0.00     0.059 A 
ATOM     94  C   UNL A   1      50.667  27.542  28.696  1.00  0.00     0.059 A 
ATOM     95  F   UNL A   1      48.867  28.300  27.392  1.00  0.00    -0.206 F 
ATOM     96  C   UNL A   1      51.143  27.062  29.915  1.00  0.00     0.060 A 
BRANCH  96  97
ATOM     97  S   UNL A   1      52.878  26.599  30.100  1.00  0.00     0.124 S 
ATOM     98  O   UNL A   1      53.455  27.824  30.644  1.00  0.00    -0.237 OA
ATOM     99  O   UNL A   1      52.803  25.469  31.021  1.00  0.00    -0.237 OA
ATOM    100  O   UNL A   1      53.287  26.263  28.739  1.00  0.00    -0.744 OA
ENDBRANCH  96  97
ENDBRANCH  64  89
ENDBRANCH  38  39
ENDBRANCH  30  33
ENDBRANCH  28  29
ENDBRANCH  27  28
ENDBRANCH   1  27
TORSDOF 18
ENDMDL
MODEL 2
REMARK VINA RESULT:     -11.8      3.808      9.628
REMARK SMILES CC(C)CSc1cc2c(cc1Cl)C=C(C(=O)NCCCCNC(=O)c1ccc(-c3c4nc(c(-c5c(F)cc(S(=O)(=O)[O-])cc5F)c5ccc([nH]5)c(-c5c(F)cc(S(=O)(=O)[O-])cc5F)c5nc(c(-c6c(F)cc(S(=O)(=O)[O-])cc6F)c6ccc3[nH]6)C=C5)C=C4)cc1)[C@H](C(F)(F)F)O2
REMARK SMILES IDX 19 1 18 2 17 3 15 4 16 5 14 7 6 8 7 9 11 10 8 11 10 12 12 13
REMARK SMILES IDX 9 14 96 15 13 16 91 17 5 18 4 19 2 20 1 21 3 22 92 23 93 24
REMARK SMILES IDX 94 25 95 26 20 27 21 28 22 29 23 30 24 32 25 33 26 34 90 35
REMARK SMILES IDX 27 36 89 37 28 38 29 39 30 40 83 41 31 42 88 43 82 44 84 45
REMARK SMILES IDX 32 46 87 47 81 48 80 49 33 51 67 52 46 53 66 54 47 55 50 56
REMARK SMILES IDX 65 57 85 58 48 59 49 60 64 62 86 63 51 64 34 65 35 66 44 67
REMARK SMILES IDX 36 68 37 69 43 70 45 71 38 72 39 73 40 74 41 75 42 76 68 77
REMARK SMILES IDX 69 78 78 79 70 80 71 81 77 82 79 83 72 84 73 85 74 86 75 87
REMARK SMILES IDX 76 88 52 89 53 90 62 91 54 92 55 93 61 94 63 95 56 96 57 97
REMARK SMILES IDX 58 98 59 99 60 100
REMARK H PARENT 17 6 22 31 84 50 50 61
REMARK Flexibility Score: inf
ROOT
ATOM      1  C   UNL A   1      35.280  21.682  25.072  1.00  0.00     0.023 C 
ENDROOT
BRANCH   1   2
ATOM      2  C   UNL A   1      34.418  22.389  26.115  1.00  0.00     0.116 C 
BRANCH   2   3
ATOM      3  N   UNL A   1      33.039  21.930  26.109  1.00  0.00    -0.352 N 
ATOM      4  C   UNL A   1      31.857  22.336  25.589  1.00  0.00     0.251 C 
ATOM      5  O   UNL A   1      30.900  21.590  25.825  1.00  0.00    -0.270 OA
ATOM      6  H   UNL A   1      32.937  21.098  26.624  1.00  0.00     0.163 HD
BRANCH   4   7
ATOM      7  C   UNL A   1      31.633  23.570  24.779  1.00  0.00     0.067 C 
ATOM      8  C   UNL A   1      30.970  28.344  23.260  1.00  0.00     0.030 A 
ATOM      9  C   UNL A   1      30.694  27.082  22.702  1.00  0.00     0.063 A 
ATOM     10  C   UNL A   1      31.495  28.380  24.566  1.00  0.00     0.055 A 
ATOM     11  C   UNL A   1      30.920  25.913  23.425  1.00  0.00     0.129 A 
ATOM     12  C   UNL A   1      31.636  27.200  25.316  1.00  0.00     0.033 A 
ATOM     13  Cl  UNL A   1      32.093  29.809  25.328  1.00  0.00    -0.083 Cl
ATOM     14  C   UNL A   1      31.355  25.962  24.746  1.00  0.00     0.019 A 
ATOM     15  O   UNL A   1      30.711  24.719  22.786  1.00  0.00    -0.475 OA
ATOM     16  C   UNL A   1      31.523  24.715  25.482  1.00  0.00     0.025 C 
ATOM     17  C   UNL A   1      31.561  23.635  23.277  1.00  0.00     0.314 C 
BRANCH   8  18
ATOM     18  S   UNL A   1      30.681  29.705  22.125  1.00  0.00    -0.124 SA
BRANCH  18  19
ATOM     19  C   UNL A   1      28.870  29.919  22.011  1.00  0.00     0.078 C 
BRANCH  19  20
ATOM     20  C   UNL A   1      28.048  29.969  23.312  1.00  0.00    -0.007 C 
ATOM     21  C   UNL A   1      27.399  31.316  23.625  1.00  0.00     0.008 C 
ATOM     22  C   UNL A   1      26.950  28.899  23.224  1.00  0.00     0.008 C 
ENDBRANCH  19  20
ENDBRANCH  18  19
ENDBRANCH   8  18
BRANCH  17  23
ATOM     23  C   UNL A   1      32.953  23.687  22.611  1.00  0.00     0.429 C 
ATOM     24  F   UNL A   1      32.934  24.265  21.387  1.00  0.00    -0.167 F 
ATOM     25  F   UNL A   1      33.856  24.377  23.344  1.00  0.00    -0.167 F 
ATOM     26  F   UNL A   1      33.449  22.434  22.446  1.00  0.00    -0.167 F 
ENDBRANCH  17  23
ENDBRANCH   4   7
ENDBRANCH   2   3
ENDBRANCH   1   2
BRANCH   1  27
ATOM     27  C   UNL A   1      36.259  22.575  24.309  1.00  0.00     0.023 C 
BRANCH  27  28
ATOM     28  C   UNL A   1      37.313  23.273  25.158  1.00  0.00     0.116 C 
BRANCH  28  29
ATOM     29  N   UNL A   1      38.538  22.509  25.364  1.00  0.00    -0.352 N 
ATOM     30  C   UNL A   1      39.659  22.897  26.074  1.00  0.00     0.251 C 
ATOM     31  H   UNL A   1      38.570  21.616  24.950  1.00  0.00     0.163 HD
ATOM     32  O   UNL A   1      40.652  22.184  26.121  1.00  0.00    -0.269 OA
BRANCH  30  33
ATOM     33  C   UNL A   1      39.648  24.228  26.718  1.00  0.00     0.039 A 
ATOM     34  C   UNL A   1      40.374  25.277  26.155  1.00  0.00     0.014 A 
ATOM     35  C   UNL A   1      39.031  24.379  27.963  1.00  0.00     0.014 A 
ATOM     36  C   UNL A   1      40.664  26.391  26.929  1.00  0.00     0.010 A 
ATOM     37  C   UNL A   1      39.247  25.546  28.701  1.00  0.00     0.010 A 
ATOM     38  C   UNL A   1      40.130  26.527  28.223  1.00  0.00    -0.014 A 
BRANCH  38  39
ATOM     39  C   UNL A   1      40.571  27.675  29.061  1.00  0.00     0.031 A 
ATOM     40  C   UNL A   1      39.663  28.858  29.289  1.00  0.00     0.074 A 
ATOM     41  C   UNL A   1      41.747  27.593  29.715  1.00  0.00     0.049 A 
ATOM     42  N   UNL A   1      39.844  29.895  30.068  1.00  0.00    -0.248 NA
ATOM     43  C   UNL A   1      38.390  28.887  28.550  1.00  0.00     0.031 C 
ATOM     44  C   UNL A   1      42.705  26.492  29.588  1.00  0.00     0.029 A 
ATOM     45  N   UNL A   1      42.313  28.416  30.656  1.00  0.00    -0.354 N 
ATOM     46  C   UNL A   1      38.727  30.704  29.897  1.00  0.00     0.074 A 
ATOM     47  C   UNL A   1      37.881  30.054  28.921  1.00  0.00     0.031 C 
ATOM     48  C   UNL A   1      43.694  26.664  30.477  1.00  0.00     0.029 A 
ATOM     49  C   UNL A   1      43.474  27.915  31.196  1.00  0.00     0.049 A 
ATOM     50  H   UNL A   1      41.924  29.282  30.920  1.00  0.00     0.167 HD
ATOM     51  C   UNL A   1      38.423  31.873  30.510  1.00  0.00     0.037 A 
ATOM     52  C   UNL A   1      44.274  28.404  32.163  1.00  0.00     0.037 A 
ATOM     53  C   UNL A   1      39.242  32.497  31.515  1.00  0.00     0.049 A 
ATOM     54  C   UNL A   1      43.930  29.715  32.807  1.00  0.00     0.074 A 
ATOM     55  C   UNL A   1      39.001  33.664  32.219  1.00  0.00     0.029 A 
ATOM     56  N   UNL A   1      40.458  32.002  31.964  1.00  0.00    -0.354 N 
ATOM     57  N   UNL A   1      42.868  30.463  32.627  1.00  0.00    -0.248 NA
ATOM     58  C   UNL A   1      44.903  30.262  33.762  1.00  0.00     0.031 C 
ATOM     59  C   UNL A   1      40.086  33.893  33.071  1.00  0.00     0.029 A 
ATOM     60  C   UNL A   1      40.989  32.853  32.919  1.00  0.00     0.049 A 
ATOM     61  H   UNL A   1      40.880  31.170  31.652  1.00  0.00     0.167 HD
ATOM     62  C   UNL A   1      43.051  31.577  33.438  1.00  0.00     0.074 A 
ATOM     63  C   UNL A   1      44.310  31.391  34.131  1.00  0.00     0.031 C 
ATOM     64  C   UNL A   1      42.252  32.659  33.586  1.00  0.00     0.037 A 
BRANCH  51  65
ATOM     65  C   UNL A   1      37.148  32.564  30.115  1.00  0.00     0.058 A 
ATOM     66  C   UNL A   1      35.933  32.288  30.758  1.00  0.00     0.135 A 
ATOM     67  C   UNL A   1      37.155  33.558  29.122  1.00  0.00     0.135 A 
ATOM     68  F   UNL A   1      35.870  31.336  31.703  1.00  0.00    -0.206 F 
ATOM     69  C   UNL A   1      34.763  32.962  30.421  1.00  0.00     0.059 A 
ATOM     70  C   UNL A   1      36.001  34.258  28.782  1.00  0.00     0.059 A 
ATOM     71  F   UNL A   1      38.292  33.860  28.476  1.00  0.00    -0.206 F 
ATOM     72  C   UNL A   1      34.808  33.945  29.431  1.00  0.00     0.060 A 
BRANCH  72  73
ATOM     73  S   UNL A   1      33.282  34.817  29.013  1.00  0.00     0.124 S 
ATOM     74  O   UNL A   1      32.620  34.881  30.312  1.00  0.00    -0.237 OA
ATOM     75  O   UNL A   1      33.780  36.087  28.493  1.00  0.00    -0.237 OA
ATOM     76  O   UNL A   1      32.650  33.945  28.029  1.00  0.00    -0.744 OA
ENDBRANCH  72  73
ENDBRANCH  51  65
BRANCH  52  77
ATOM     77  C   UNL A   1      45.478  27.639  32.574  1.00  0.00     0.058 A 
ATOM     78  C   UNL A   1      45.398  26.646  33.560  1.00  0.00     0.135 A 
ATOM     79  C   UNL A   1      46.719  27.851  31.954  1.00  0.00     0.135 A 
ATOM     80  F   UNL A   1      44.232  26.412  34.183  1.00  0.00    -0.206 F 
ATOM     81  C   UNL A   1      46.505  25.884  33.915  1.00  0.00     0.059 A 
ATOM     82  C   UNL A   1      47.835  27.088  32.277  1.00  0.00     0.059 A 
ATOM     83  F   UNL A   1      46.841  28.781  30.994  1.00  0.00    -0.206 F 
ATOM     84  C   UNL A   1      47.719  26.108  33.262  1.00  0.00     0.060 A 
BRANCH  84  85
ATOM     85  S   UNL A   1      49.133  25.062  33.673  1.00  0.00     0.124 S 
ATOM     86  O   UNL A   1      48.479  23.917  34.294  1.00  0.00    -0.237 OA
ATOM     87  O   UNL A   1      49.732  24.824  32.363  1.00  0.00    -0.237 OA
ATOM     88  O   UNL A   1      49.921  25.905  34.569  1.00  0.00    -0.744 OA
ENDBRANCH  84  85
ENDBRANCH  52  77
BRANCH  64  89
ATOM     89  C   UNL A   1      42.719  33.748  34.505  1.00  0.00     0.058 A 
ATOM     90  C   UNL A   1      43.425  34.854  34.008  1.00  0.00     0.135 A 
ATOM     91  C   UNL A   1      42.378  33.738  35.866  1.00  0.00     0.135 A 
ATOM     92  F   UNL A   1      43.780  34.903  32.715  1.00  0.00    -0.206 F 
ATOM     93  C   UNL A   1      43.772  35.920  34.830  1.00  0.00     0.059 A 
ATOM     94  C   UNL A   1      42.701  34.801  36.704  1.00  0.00     0.059 A 
ATOM     95  F   UNL A   1      41.699  32.702  36.385  1.00  0.00    -0.206 F 
ATOM     96  C   UNL A   1      43.397  35.888  36.175  1.00  0.00     0.060 A 
BRANCH  96  97
ATOM     97  S   UNL A   1      43.788  37.314  37.211  1.00  0.00     0.124 S 
ATOM     98  O   UNL A   1      45.025  36.882  37.854  1.00  0.00    -0.237 OA
ATOM     99  O   UNL A   1      43.923  38.386  36.229  1.00  0.00    -0.237 OA
ATOM    100  O   UNL A   1      42.628  37.422  38.092  1.00  0.00    -0.744 OA
ENDBRANCH  96  97
ENDBRANCH  64  89
ENDBRANCH  38  39
ENDBRANCH  30  33
ENDBRANCH  28  29
ENDBRANCH  27  28
ENDBRANCH   1  27
TORSDOF 18
ENDMDL
MODEL 3
REMARK VINA RESULT:     -11.7      5.527     10.226
REMARK SMILES CC(C)CSc1cc2c(cc1Cl)C=C(C(=O)NCCCCNC(=O)c1ccc(-c3c4nc(c(-c5c(F)cc(S(=O)(=O)[O-])cc5F)c5ccc([nH]5)c(-c5c(F)cc(S(=O)(=O)[O-])cc5F)c5nc(c(-c6c(F)cc(S(=O)(=O)[O-])cc6F)c6ccc3[nH]6)C=C5)C=C4)cc1)[C@H](C(F)(F)F)O2
REMARK SMILES IDX 19 1 18 2 17 3 15 4 16 5 14 7 6 8 7 9 11 10 8 11 10 12 12 13
REMARK SMILES IDX 9 14 96 15 13 16 91 17 5 18 4 19 2 20 1 21 3 22 92 23 93 24
REMARK SMILES IDX 94 25 95 26 20 27 21 28 22 29 23 30 24 32 25 33 26 34 90 35
REMARK SMILES IDX 27 36 89 37 28 38 29 39 30 40 83 41 31 42 88 43 82 44 84 45
REMARK SMILES IDX 32 46 87 47 81 48 80 49 33 51 67 52 46 53 66 54 47 55 50 56
REMARK SMILES IDX 65 57 85 58 48 59 49 60 64 62 86 63 51 64 34 65 35 66 44 67
REMARK SMILES IDX 36 68 37 69 43 70 45 71 38 72 39 73 40 74 41 75 42 76 68 77
REMARK SMILES IDX 69 78 78 79 70 80 71 81 77 82 79 83 72 84 73 85 74 86 75 87
REMARK SMILES IDX 76 88 52 89 53 90 62 91 54 92 55 93 61 94 63 95 56 96 57 97
REMARK SMILES IDX 58 98 59 99 60 100
REMARK H PARENT 17 6 22 31 84 50 50 61
REMARK Flexibility Score: inf
ROOT
ATOM      1  C   UNL A   1      37.519  22.700  25.734  1.00  0.00     0.023 C 
ENDROOT
BRANCH   1   2
ATOM      2  C   UNL A   1      36.480  21.588  25.611  1.00  0.00     0.116 C 
BRANCH   2   3
ATOM      3  N   UNL A   1      35.503  21.609  26.687  1.00  0.00    -0.352 N 
ATOM      4  C   UNL A   1      34.287  22.158  26.918  1.00  0.00     0.251 C 
ATOM      5  O   UNL A   1      33.788  21.877  28.013  1.00  0.00    -0.270 OA
ATOM      6  H   UNL A   1      35.810  21.081  27.459  1.00  0.00     0.163 HD
BRANCH   4   7
ATOM      7  C   UNL A   1      33.532  23.040  25.981  1.00  0.00     0.067 C 
ATOM      8  C   UNL A   1      31.820  26.976  23.311  1.00  0.00     0.030 A 
ATOM      9  C   UNL A   1      31.304  25.710  23.649  1.00  0.00     0.063 A 
ATOM     10  C   UNL A   1      33.069  27.336  23.850  1.00  0.00     0.055 A 
ATOM     11  C   UNL A   1      32.001  24.855  24.498  1.00  0.00     0.129 A 
ATOM     12  C   UNL A   1      33.721  26.502  24.775  1.00  0.00     0.033 A 
ATOM     13  Cl  UNL A   1      33.955  28.743  23.383  1.00  0.00    -0.083 Cl
ATOM     14  C   UNL A   1      33.191  25.255  25.097  1.00  0.00     0.019 A 
ATOM     15  O   UNL A   1      31.480  23.606  24.712  1.00  0.00    -0.475 OA
ATOM     16  C   UNL A   1      33.857  24.348  26.025  1.00  0.00     0.025 C 
ATOM     17  C   UNL A   1      32.491  22.588  24.992  1.00  0.00     0.314 C 
BRANCH   8  18
ATOM     18  S   UNL A   1      30.797  27.875  22.142  1.00  0.00    -0.124 SA
BRANCH  18  19
ATOM     19  C   UNL A   1      29.353  28.494  23.074  1.00  0.00     0.078 C 
BRANCH  19  20
ATOM     20  C   UNL A   1      28.990  29.986  22.970  1.00  0.00    -0.007 C 
ATOM     21  C   UNL A   1      29.147  30.604  21.583  1.00  0.00     0.008 C 
ATOM     22  C   UNL A   1      27.533  30.155  23.425  1.00  0.00     0.008 C 
ENDBRANCH  19  20
ENDBRANCH  18  19
ENDBRANCH   8  18
BRANCH  17  23
ATOM     23  C   UNL A   1      33.103  22.050  23.680  1.00  0.00     0.429 C 
ATOM     24  F   UNL A   1      34.223  22.712  23.308  1.00  0.00    -0.167 F 
ATOM     25  F   UNL A   1      33.443  20.743  23.761  1.00  0.00    -0.167 F 
ATOM     26  F   UNL A   1      32.218  22.169  22.659  1.00  0.00    -0.167 F 
ENDBRANCH  17  23
ENDBRANCH   4   7
ENDBRANCH   2   3
ENDBRANCH   1   2
BRANCH   1  27
ATOM     27  C   UNL A   1      38.879  22.274  26.287  1.00  0.00     0.023 C 
BRANCH  27  28
ATOM     28  C   UNL A   1      39.732  23.393  26.873  1.00  0.00     0.116 C 
BRANCH  28  29
ATOM     29  N   UNL A   1      40.285  24.319  25.892  1.00  0.00    -0.352 N 
ATOM     30  C   UNL A   1      40.790  25.584  26.124  1.00  0.00     0.251 C 
ATOM     31  H   UNL A   1      40.300  24.007  24.957  1.00  0.00     0.163 HD
ATOM     32  O   UNL A   1      41.172  26.289  25.200  1.00  0.00    -0.269 OA
BRANCH  30  33
ATOM     33  C   UNL A   1      40.793  26.087  27.515  1.00  0.00     0.039 A 
ATOM     34  C   UNL A   1      39.645  25.970  28.298  1.00  0.00     0.014 A 
ATOM     35  C   UNL A   1      41.898  26.806  27.978  1.00  0.00     0.014 A 
ATOM     36  C   UNL A   1      39.522  26.749  29.439  1.00  0.00     0.010 A 
ATOM     37  C   UNL A   1      41.803  27.515  29.179  1.00  0.00     0.010 A 
ATOM     38  C   UNL A   1      40.587  27.555  29.879  1.00  0.00    -0.014 A 
BRANCH  38  39
ATOM     39  C   UNL A   1      40.364  28.468  31.032  1.00  0.00     0.031 A 
ATOM     40  C   UNL A   1      41.296  28.455  32.218  1.00  0.00     0.074 A 
ATOM     41  C   UNL A   1      39.388  29.395  30.953  1.00  0.00     0.049 A 
ATOM     42  N   UNL A   1      41.310  29.246  33.261  1.00  0.00    -0.248 NA
ATOM     43  C   UNL A   1      42.345  27.422  32.244  1.00  0.00     0.031 C 
ATOM     44  C   UNL A   1      38.432  29.517  29.849  1.00  0.00     0.029 A 
ATOM     45  N   UNL A   1      39.071  30.440  31.782  1.00  0.00    -0.354 N 
ATOM     46  C   UNL A   1      42.347  28.797  34.071  1.00  0.00     0.074 A 
ATOM     47  C   UNL A   1      42.926  27.646  33.414  1.00  0.00     0.031 C 
ATOM     48  C   UNL A   1      37.696  30.623  30.027  1.00  0.00     0.029 A 
ATOM     49  C   UNL A   1      38.082  31.256  31.284  1.00  0.00     0.049 A 
ATOM     50  H   UNL A   1      39.510  30.593  32.651  1.00  0.00     0.167 HD
ATOM     51  C   UNL A   1      42.789  29.307  35.245  1.00  0.00     0.037 A 
ATOM     52  C   UNL A   1      37.546  32.387  31.779  1.00  0.00     0.037 A 
ATOM     53  C   UNL A   1      42.243  30.479  35.875  1.00  0.00     0.049 A 
ATOM     54  C   UNL A   1      38.034  32.916  33.095  1.00  0.00     0.074 A 
ATOM     55  C   UNL A   1      42.648  31.093  37.048  1.00  0.00     0.029 A 
ATOM     56  N   UNL A   1      41.180  31.220  35.382  1.00  0.00    -0.354 N 
ATOM     57  N   UNL A   1      39.016  32.473  33.845  1.00  0.00    -0.248 NA
ATOM     58  C   UNL A   1      37.328  34.079  33.649  1.00  0.00     0.031 C 
ATOM     59  C   UNL A   1      41.808  32.186  37.282  1.00  0.00     0.029 A 
ATOM     60  C   UNL A   1      40.900  32.271  36.239  1.00  0.00     0.049 A 
ATOM     61  H   UNL A   1      40.697  31.028  34.546  1.00  0.00     0.167 HD
ATOM     62  C   UNL A   1      39.036  33.296  34.964  1.00  0.00     0.074 A 
ATOM     63  C   UNL A   1      37.989  34.281  34.782  1.00  0.00     0.031 C 
ATOM     64  C   UNL A   1      39.843  33.232  36.049  1.00  0.00     0.037 A 
BRANCH  51  65
ATOM     65  C   UNL A   1      43.923  28.602  35.935  1.00  0.00     0.058 A 
ATOM     66  C   UNL A   1      43.705  27.478  36.745  1.00  0.00     0.135 A 
ATOM     67  C   UNL A   1      45.250  29.019  35.734  1.00  0.00     0.135 A 
ATOM     68  F   UNL A   1      42.455  27.048  36.982  1.00  0.00    -0.206 F 
ATOM     69  C   UNL A   1      44.761  26.799  37.347  1.00  0.00     0.059 A 
ATOM     70  C   UNL A   1      46.322  28.344  36.310  1.00  0.00     0.059 A 
ATOM     71  F   UNL A   1      45.513  30.089  34.967  1.00  0.00    -0.206 F 
ATOM     72  C   UNL A   1      46.066  27.241  37.123  1.00  0.00     0.060 A 
BRANCH  72  73
ATOM     73  S   UNL A   1      47.425  26.344  37.903  1.00  0.00     0.124 S 
ATOM     74  O   UNL A   1      46.953  26.243  39.281  1.00  0.00    -0.237 OA
ATOM     75  O   UNL A   1      47.448  25.094  37.150  1.00  0.00    -0.237 OA
ATOM     76  O   UNL A   1      48.575  27.218  37.696  1.00  0.00    -0.744 OA
ENDBRANCH  72  73
ENDBRANCH  51  65
BRANCH  52  77
ATOM     77  C   UNL A   1      36.485  33.091  31.015  1.00  0.00     0.058 A 
ATOM     78  C   UNL A   1      35.146  33.033  31.423  1.00  0.00     0.135 A 
ATOM     79  C   UNL A   1      36.796  33.873  29.891  1.00  0.00     0.135 A 
ATOM     80  F   UNL A   1      34.801  32.293  32.489  1.00  0.00    -0.206 F 
ATOM     81  C   UNL A   1      34.150  33.731  30.750  1.00  0.00     0.059 A 
ATOM     82  C   UNL A   1      35.822  34.596  29.214  1.00  0.00     0.059 A 
ATOM     83  F   UNL A   1      38.067  33.970  29.471  1.00  0.00    -0.206 F 
ATOM     84  C   UNL A   1      34.500  34.517  29.650  1.00  0.00     0.060 A 
BRANCH  84  85
ATOM     85  S   UNL A   1      33.213  35.483  28.828  1.00  0.00     0.124 S 
ATOM     86  O   UNL A   1      34.007  36.415  28.037  1.00  0.00    -0.237 OA
ATOM     87  O   UNL A   1      32.492  34.460  28.078  1.00  0.00    -0.237 OA
ATOM     88  O   UNL A   1      32.474  36.068  29.944  1.00  0.00    -0.744 OA
ENDBRANCH  84  85
ENDBRANCH  52  77
BRANCH  64  89
ATOM     89  C   UNL A   1      39.615  34.231  37.144  1.00  0.00     0.058 A 
ATOM     90  C   UNL A   1      38.863  33.893  38.279  1.00  0.00     0.135 A 
ATOM     91  C   UNL A   1      40.228  35.493  37.109  1.00  0.00     0.135 A 
ATOM     92  F   UNL A   1      38.250  32.701  38.353  1.00  0.00    -0.206 F 
ATOM     93  C   UNL A   1      38.731  34.772  39.348  1.00  0.00     0.059 A 
ATOM     94  C   UNL A   1      40.123  36.381  38.174  1.00  0.00     0.059 A 
ATOM     95  F   UNL A   1      40.962  35.857  36.045  1.00  0.00    -0.206 F 
ATOM     96  C   UNL A   1      39.373  36.010  39.290  1.00  0.00     0.060 A 
BRANCH  96  97
ATOM     97  S   UNL A   1      39.256  37.109  40.718  1.00  0.00     0.124 S 
ATOM     98  O   UNL A   1      38.723  36.211  41.738  1.00  0.00    -0.237 OA
ATOM     99  O   UNL A   1      40.642  37.528  40.903  1.00  0.00    -0.237 OA
ATOM    100  O   UNL A   1      38.346  38.158  40.266  1.00  0.00    -0.744 OA
ENDBRANCH  96  97
ENDBRANCH  64  89
ENDBRANCH  38  39
ENDBRANCH  30  33
ENDBRANCH  28  29
ENDBRANCH  27  28
ENDBRANCH   1  27
TORSDOF 18
ENDMDL
