MODEL 1
REMARK VINA RESULT:     -12.6      0.000      0.000
REMARK SMILES C[NH+]1CCC(NC(=O)N[C@H]2C=C[C@H](C(=O)NCCCCNC(=O)c3ccc(-c4c5nc(c(-c6c(F)cc(S(=O)(=O)[O-])cc6F)c6ccc([nH]6)c(-c6c(F)cc(S(=O)(=O)[O-])cc6F)c6nc(c(-c7c(F)cc(S(=O)(=O)[O-])cc7F)c7ccc4[nH]7)C=C6)C=C5)cc3)C2)CC1
REMARK SMILES IDX 19 1 18 2 17 3 16 4 14 5 15 6 13 8 10 9 11 10 90 11 12 12
REMARK SMILES IDX 9 13 6 14 7 15 8 17 5 19 1 20 2 21 3 22 92 23 4 25 91 26
REMARK SMILES IDX 20 27 21 28 22 29 23 31 24 32 25 33 89 34 26 35 88 36 27 37
REMARK SMILES IDX 28 38 29 39 82 40 30 41 87 42 81 43 83 44 31 45 86 46 80 47
REMARK SMILES IDX 79 48 32 50 66 51 45 52 65 53 46 54 49 55 64 56 84 57 47 58
REMARK SMILES IDX 48 59 63 61 85 62 50 63 33 64 34 65 43 66 35 67 36 68 42 69
REMARK SMILES IDX 44 70 37 71 38 72 39 73 40 74 41 75 67 76 68 77 77 78 69 79
REMARK SMILES IDX 70 80 76 81 78 82 71 83 72 84 73 85 74 86 75 87 51 88 52 89
REMARK SMILES IDX 61 90 53 91 54 92 60 93 62 94 55 95 56 96 57 97 58 98 59 99
REMARK H PARENT 16 7 6 16 9 18 2 24 21 30 83 49 49 60
REMARK Flexibility Score: inf
ROOT
ATOM      1  C   UNL A   1      37.553  23.271  25.522  1.00  0.00     0.023 C 
ENDROOT
BRANCH   1   2
ATOM      2  C   UNL A   1      37.888  21.780  25.406  1.00  0.00     0.023 C 
BRANCH   2   3
ATOM      3  C   UNL A   1      36.676  20.872  25.154  1.00  0.00     0.116 C 
BRANCH   3   4
ATOM      4  N   UNL A   1      35.509  21.244  25.941  1.00  0.00    -0.356 N 
ATOM      5  C   UNL A   1      34.260  21.624  25.513  1.00  0.00     0.227 C 
ATOM      6  O   UNL A   1      33.357  21.750  26.340  1.00  0.00    -0.274 OA
ATOM      7  H   UNL A   1      35.632  21.221  26.917  1.00  0.00     0.163 HD
BRANCH   5   8
ATOM      8  C   UNL A   1      34.041  21.863  24.020  1.00  0.00     0.103 C 
ATOM      9  C   UNL A   1      32.852  23.681  22.869  1.00  0.00     0.107 C 
ATOM     10  C   UNL A   1      32.049  22.431  22.880  1.00  0.00    -0.006 C 
ATOM     11  C   UNL A   1      34.155  23.343  23.597  1.00  0.00     0.047 C 
ATOM     12  C   UNL A   1      32.664  21.458  23.564  1.00  0.00    -0.016 C 
BRANCH   9  13
ATOM     13  N   UNL A   1      32.944  24.301  21.555  1.00  0.00    -0.332 N 
ATOM     14  N   UNL A   1      32.388  26.615  21.461  1.00  0.00    -0.335 N 
ATOM     15  C   UNL A   1      32.745  25.453  20.916  1.00  0.00     0.315 C 
ATOM     16  H   UNL A   1      32.205  27.313  20.791  1.00  0.00     0.165 HD
ATOM     17  O   UNL A   1      32.904  25.438  19.690  1.00  0.00    -0.249 OA
ATOM     18  H   UNL A   1      33.268  23.632  20.910  1.00  0.00     0.165 HD
BRANCH  14  19
ATOM     19  C   UNL A   1      32.212  27.075  22.819  1.00  0.00     0.095 C 
ATOM     20  C   UNL A   1      32.125  29.142  26.520  1.00  0.00     0.332 C 
ATOM     21  N   UNL A   1      32.405  28.867  25.107  1.00  0.00    -0.337 N 
ATOM     22  C   UNL A   1      31.155  28.751  24.347  1.00  0.00     0.264 C 
ATOM     23  C   UNL A   1      33.267  27.680  24.993  1.00  0.00     0.264 C 
ATOM     24  H   UNL A   1      32.917  29.647  24.695  1.00  0.00     0.347 HD
ATOM     25  C   UNL A   1      31.379  28.353  22.888  1.00  0.00     0.086 C 
ATOM     26  C   UNL A   1      33.538  27.298  23.537  1.00  0.00     0.086 C 
ENDBRANCH  14  19
ENDBRANCH   9  13
ENDBRANCH   5   8
ENDBRANCH   3   4
ENDBRANCH   2   3
ENDBRANCH   1   2
BRANCH   1  27
ATOM     27  C   UNL A   1      38.468  24.068  26.454  1.00  0.00     0.116 C 
BRANCH  27  28
ATOM     28  N   UNL A   1      39.888  23.925  26.166  1.00  0.00    -0.352 N 
ATOM     29  C   UNL A   1      40.930  24.701  26.634  1.00  0.00     0.251 C 
ATOM     30  H   UNL A   1      40.135  23.184  25.568  1.00  0.00     0.163 HD
ATOM     31  O   UNL A   1      42.072  24.497  26.233  1.00  0.00    -0.269 OA
BRANCH  29  32
ATOM     32  C   UNL A   1      40.655  25.815  27.575  1.00  0.00     0.039 A 
ATOM     33  C   UNL A   1      39.638  25.665  28.523  1.00  0.00     0.014 A 
ATOM     34  C   UNL A   1      41.423  26.982  27.557  1.00  0.00     0.014 A 
ATOM     35  C   UNL A   1      39.455  26.643  29.506  1.00  0.00     0.010 A 
ATOM     36  C   UNL A   1      41.287  27.920  28.581  1.00  0.00     0.010 A 
ATOM     37  C   UNL A   1      40.309  27.756  29.572  1.00  0.00    -0.014 A 
BRANCH  37  38
ATOM     38  C   UNL A   1      40.212  28.737  30.688  1.00  0.00     0.031 A 
ATOM     39  C   UNL A   1      41.066  28.591  31.919  1.00  0.00     0.074 A 
ATOM     40  C   UNL A   1      39.294  29.724  30.627  1.00  0.00     0.049 A 
ATOM     41  N   UNL A   1      41.091  29.328  33.000  1.00  0.00    -0.248 NA
ATOM     42  C   UNL A   1      41.990  27.446  31.954  1.00  0.00     0.031 C 
ATOM     43  C   UNL A   1      38.345  29.930  29.530  1.00  0.00     0.029 A 
ATOM     44  N   UNL A   1      39.000  30.733  31.511  1.00  0.00    -0.354 N 
ATOM     45  C   UNL A   1      42.016  28.731  33.848  1.00  0.00     0.074 A 
ATOM     46  C   UNL A   1      42.492  27.540  33.176  1.00  0.00     0.031 C 
ATOM     47  C   UNL A   1      37.591  31.010  29.796  1.00  0.00     0.029 A 
ATOM     48  C   UNL A   1      37.985  31.560  31.090  1.00  0.00     0.049 A 
ATOM     49  H   UNL A   1      39.473  30.853  32.367  1.00  0.00     0.167 HD
ATOM     50  C   UNL A   1      42.449  29.146  35.063  1.00  0.00     0.037 A 
ATOM     51  C   UNL A   1      37.435  32.642  31.675  1.00  0.00     0.037 A 
ATOM     52  C   UNL A   1      41.999  30.348  35.716  1.00  0.00     0.049 A 
ATOM     53  C   UNL A   1      37.971  33.119  32.995  1.00  0.00     0.074 A 
ATOM     54  C   UNL A   1      42.436  30.895  36.911  1.00  0.00     0.029 A 
ATOM     55  N   UNL A   1      41.013  31.193  35.229  1.00  0.00    -0.354 N 
ATOM     56  N   UNL A   1      38.910  32.589  33.743  1.00  0.00    -0.248 NA
ATOM     57  C   UNL A   1      37.388  34.351  33.545  1.00  0.00     0.031 C 
ATOM     58  C   UNL A   1      41.690  32.054  37.163  1.00  0.00     0.029 A 
ATOM     59  C   UNL A   1      40.817  32.250  36.105  1.00  0.00     0.049 A 
ATOM     60  H   UNL A   1      40.523  31.061  34.385  1.00  0.00     0.167 HD
ATOM     61  C   UNL A   1      39.045  33.435  34.839  1.00  0.00     0.074 A 
ATOM     62  C   UNL A   1      38.103  34.518  34.649  1.00  0.00     0.031 C 
ATOM     63  C   UNL A   1      39.876  33.323  35.905  1.00  0.00     0.037 A 
BRANCH  50  64
ATOM     64  C   UNL A   1      43.471  28.292  35.762  1.00  0.00     0.058 A 
ATOM     65  C   UNL A   1      44.848  28.477  35.556  1.00  0.00     0.135 A 
ATOM     66  C   UNL A   1      43.073  27.290  36.661  1.00  0.00     0.135 A 
ATOM     67  F   UNL A   1      45.283  29.413  34.697  1.00  0.00    -0.206 F 
ATOM     68  C   UNL A   1      45.792  27.674  36.186  1.00  0.00     0.059 A 
ATOM     69  C   UNL A   1      44.002  26.491  37.323  1.00  0.00     0.059 A 
ATOM     70  F   UNL A   1      41.770  27.072  36.899  1.00  0.00    -0.206 F 
ATOM     71  C   UNL A   1      45.359  26.679  37.063  1.00  0.00     0.060 A 
BRANCH  71  72
ATOM     72  S   UNL A   1      46.594  25.632  37.861  1.00  0.00     0.124 S 
ATOM     73  O   UNL A   1      47.751  26.523  37.893  1.00  0.00    -0.237 OA
ATOM     74  O   UNL A   1      45.979  25.347  39.153  1.00  0.00    -0.237 OA
ATOM     75  O   UNL A   1      46.706  24.490  36.959  1.00  0.00    -0.744 OA
ENDBRANCH  71  72
ENDBRANCH  50  64
BRANCH  51  76
ATOM     76  C   UNL A   1      36.337  33.373  30.989  1.00  0.00     0.058 A 
ATOM     77  C   UNL A   1      35.027  33.340  31.490  1.00  0.00     0.135 A 
ATOM     78  C   UNL A   1      36.579  34.136  29.837  1.00  0.00     0.135 A 
ATOM     79  F   UNL A   1      34.746  32.619  32.587  1.00  0.00    -0.206 F 
ATOM     80  C   UNL A   1      33.992  34.028  30.867  1.00  0.00     0.059 A 
ATOM     81  C   UNL A   1      35.564  34.851  29.209  1.00  0.00     0.059 A 
ATOM     82  F   UNL A   1      37.819  34.213  29.331  1.00  0.00    -0.206 F 
ATOM     83  C   UNL A   1      34.271  34.785  29.728  1.00  0.00     0.060 A 
BRANCH  83  84
ATOM     84  S   UNL A   1      32.934  35.729  28.963  1.00  0.00     0.124 S 
ATOM     85  O   UNL A   1      32.349  34.737  28.069  1.00  0.00    -0.237 OA
ATOM     86  O   UNL A   1      32.124  36.107  30.117  1.00  0.00    -0.237 OA
ATOM     87  O   UNL A   1      33.636  36.832  28.312  1.00  0.00    -0.744 OA
ENDBRANCH  83  84
ENDBRANCH  51  76
BRANCH  63  88
ATOM     88  C   UNL A   1      39.823  34.416  36.935  1.00  0.00     0.058 A 
ATOM     89  C   UNL A   1      38.998  34.322  38.067  1.00  0.00     0.135 A 
ATOM     90  C   UNL A   1      40.629  35.558  36.802  1.00  0.00     0.135 A 
ATOM     91  F   UNL A   1      38.206  33.252  38.239  1.00  0.00    -0.206 F 
ATOM     92  C   UNL A   1      38.950  35.338  39.017  1.00  0.00     0.059 A 
ATOM     93  C   UNL A   1      40.614  36.575  37.752  1.00  0.00     0.059 A 
ATOM     94  F   UNL A   1      41.443  35.692  35.744  1.00  0.00    -0.206 F 
ATOM     95  C   UNL A   1      39.759  36.463  38.848  1.00  0.00     0.060 A 
BRANCH  95  96
ATOM     96  S   UNL A   1      39.699  37.772  40.090  1.00  0.00     0.124 S 
ATOM     97  O   UNL A   1      41.041  38.336  39.987  1.00  0.00    -0.237 OA
ATOM     98  O   UNL A   1      38.616  38.620  39.602  1.00  0.00    -0.237 OA
ATOM     99  O   UNL A   1      39.413  37.052  41.327  1.00  0.00    -0.744 OA
ENDBRANCH  95  96
ENDBRANCH  63  88
ENDBRANCH  37  38
ENDBRANCH  29  32
ENDBRANCH  27  28
ENDBRANCH   1  27
TORSDOF 16
ENDMDL
MODEL 2
REMARK VINA RESULT:     -12.5      6.726     12.309
REMARK SMILES C[NH+]1CCC(NC(=O)N[C@H]2C=C[C@H](C(=O)NCCCCNC(=O)c3ccc(-c4c5nc(c(-c6c(F)cc(S(=O)(=O)[O-])cc6F)c6ccc([nH]6)c(-c6c(F)cc(S(=O)(=O)[O-])cc6F)c6nc(c(-c7c(F)cc(S(=O)(=O)[O-])cc7F)c7ccc4[nH]7)C=C6)C=C5)cc3)C2)CC1
REMARK SMILES IDX 19 1 18 2 17 3 16 4 14 5 15 6 13 8 10 9 11 10 90 11 12 12
REMARK SMILES IDX 9 13 6 14 7 15 8 17 5 19 1 20 2 21 3 22 92 23 4 25 91 26
REMARK SMILES IDX 20 27 21 28 22 29 23 31 24 32 25 33 89 34 26 35 88 36 27 37
REMARK SMILES IDX 28 38 29 39 82 40 30 41 87 42 81 43 83 44 31 45 86 46 80 47
REMARK SMILES IDX 79 48 32 50 66 51 45 52 65 53 46 54 49 55 64 56 84 57 47 58
REMARK SMILES IDX 48 59 63 61 85 62 50 63 33 64 34 65 43 66 35 67 36 68 42 69
REMARK SMILES IDX 44 70 37 71 38 72 39 73 40 74 41 75 67 76 68 77 77 78 69 79
REMARK SMILES IDX 70 80 76 81 78 82 71 83 72 84 73 85 74 86 75 87 51 88 52 89
REMARK SMILES IDX 61 90 53 91 54 92 60 93 62 94 55 95 56 96 57 97 58 98 59 99
REMARK H PARENT 16 7 6 16 9 18 2 24 21 30 83 49 49 60
REMARK Flexibility Score: inf
ROOT
ATOM      1  C   UNL A   1      34.802  31.671  27.975  1.00  0.00     0.023 C 
ENDROOT
BRANCH   1   2
ATOM      2  C   UNL A   1      34.633  30.204  27.564  1.00  0.00     0.023 C 
BRANCH   2   3
ATOM      3  C   UNL A   1      33.323  29.894  26.827  1.00  0.00     0.116 C 
BRANCH   3   4
ATOM      4  N   UNL A   1      33.530  29.443  25.457  1.00  0.00    -0.356 N 
ATOM      5  C   UNL A   1      32.765  28.589  24.700  1.00  0.00     0.227 C 
ATOM      6  O   UNL A   1      33.025  28.454  23.506  1.00  0.00    -0.274 OA
ATOM      7  H   UNL A   1      34.330  29.801  25.011  1.00  0.00     0.163 HD
BRANCH   5   8
ATOM      8  C   UNL A   1      31.612  27.850  25.377  1.00  0.00     0.103 C 
ATOM      9  C   UNL A   1      31.104  25.444  25.448  1.00  0.00     0.107 C 
ATOM     10  C   UNL A   1      30.211  26.159  24.499  1.00  0.00    -0.006 C 
ATOM     11  C   UNL A   1      32.022  26.517  26.039  1.00  0.00     0.047 C 
ATOM     12  C   UNL A   1      30.528  27.457  24.408  1.00  0.00    -0.016 C 
BRANCH   9  13
ATOM     13  N   UNL A   1      30.392  24.570  26.369  1.00  0.00    -0.332 N 
ATOM     14  N   UNL A   1      31.459  22.498  26.860  1.00  0.00    -0.335 N 
ATOM     15  C   UNL A   1      30.459  23.373  26.949  1.00  0.00     0.315 C 
ATOM     16  H   UNL A   1      31.255  21.637  27.293  1.00  0.00     0.165 HD
ATOM     17  O   UNL A   1      29.487  23.041  27.639  1.00  0.00    -0.249 OA
ATOM     18  H   UNL A   1      29.572  25.024  26.669  1.00  0.00     0.165 HD
BRANCH  14  19
ATOM     19  C   UNL A   1      32.775  22.535  26.268  1.00  0.00     0.095 C 
ATOM     20  C   UNL A   1      36.490  21.792  24.362  1.00  0.00     0.332 C 
ATOM     21  N   UNL A   1      35.150  21.543  24.905  1.00  0.00    -0.337 N 
ATOM     22  C   UNL A   1      34.146  22.335  24.185  1.00  0.00     0.264 C 
ATOM     23  C   UNL A   1      35.149  21.783  26.356  1.00  0.00     0.264 C 
ATOM     24  H   UNL A   1      34.895  20.565  24.765  1.00  0.00     0.347 HD
ATOM     25  C   UNL A   1      32.744  22.202  24.778  1.00  0.00     0.086 C 
ATOM     26  C   UNL A   1      33.759  21.608  26.971  1.00  0.00     0.086 C 
ENDBRANCH  14  19
ENDBRANCH   9  13
ENDBRANCH   5   8
ENDBRANCH   3   4
ENDBRANCH   2   3
ENDBRANCH   1   2
BRANCH   1  27
ATOM     27  C   UNL A   1      35.845  31.922  29.064  1.00  0.00     0.116 C 
BRANCH  27  28
ATOM     28  N   UNL A   1      35.643  31.143  30.278  1.00  0.00    -0.352 N 
ATOM     29  C   UNL A   1      36.546  30.314  30.913  1.00  0.00     0.251 C 
ATOM     30  H   UNL A   1      34.756  31.219  30.697  1.00  0.00     0.163 HD
ATOM     31  O   UNL A   1      36.194  29.662  31.892  1.00  0.00    -0.269 OA
BRANCH  29  32
ATOM     32  C   UNL A   1      37.921  30.171  30.375  1.00  0.00     0.039 A 
ATOM     33  C   UNL A   1      38.999  30.157  31.266  1.00  0.00     0.014 A 
ATOM     34  C   UNL A   1      38.148  30.005  29.006  1.00  0.00     0.014 A 
ATOM     35  C   UNL A   1      40.287  29.885  30.794  1.00  0.00     0.010 A 
ATOM     36  C   UNL A   1      39.420  29.662  28.549  1.00  0.00     0.010 A 
ATOM     37  C   UNL A   1      40.502  29.588  29.438  1.00  0.00    -0.014 A 
BRANCH  37  38
ATOM     38  C   UNL A   1      41.842  29.168  28.943  1.00  0.00     0.031 A 
ATOM     39  C   UNL A   1      42.964  30.163  28.819  1.00  0.00     0.074 A 
ATOM     40  C   UNL A   1      42.029  27.897  28.530  1.00  0.00     0.049 A 
ATOM     41  N   UNL A   1      44.182  29.983  28.376  1.00  0.00    -0.248 NA
ATOM     42  C   UNL A   1      42.668  31.550  29.212  1.00  0.00     0.031 C 
ATOM     43  C   UNL A   1      41.002  26.852  28.517  1.00  0.00     0.029 A 
ATOM     44  N   UNL A   1      43.143  27.270  28.031  1.00  0.00    -0.354 N 
ATOM     45  C   UNL A   1      44.792  31.231  28.421  1.00  0.00     0.074 A 
ATOM     46  C   UNL A   1      43.793  32.170  28.885  1.00  0.00     0.031 C 
ATOM     47  C   UNL A   1      41.540  25.710  28.056  1.00  0.00     0.029 A 
ATOM     48  C   UNL A   1      42.941  25.946  27.719  1.00  0.00     0.049 A 
ATOM     49  H   UNL A   1      44.008  27.726  27.908  1.00  0.00     0.167 HD
ATOM     50  C   UNL A   1      46.073  31.564  28.127  1.00  0.00     0.037 A 
ATOM     51  C   UNL A   1      43.787  25.022  27.223  1.00  0.00     0.037 A 
ATOM     52  C   UNL A   1      47.076  30.624  27.697  1.00  0.00     0.049 A 
ATOM     53  C   UNL A   1      45.218  25.398  26.961  1.00  0.00     0.074 A 
ATOM     54  C   UNL A   1      48.420  30.850  27.451  1.00  0.00     0.029 A 
ATOM     55  N   UNL A   1      46.847  29.278  27.450  1.00  0.00    -0.354 N 
ATOM     56  N   UNL A   1      45.800  26.566  27.093  1.00  0.00    -0.248 NA
ATOM     57  C   UNL A   1      46.114  24.328  26.498  1.00  0.00     0.031 C 
ATOM     58  C   UNL A   1      48.997  29.647  27.025  1.00  0.00     0.029 A 
ATOM     59  C   UNL A   1      48.021  28.663  27.043  1.00  0.00     0.049 A 
ATOM     60  H   UNL A   1      45.978  28.826  27.550  1.00  0.00     0.167 HD
ATOM     61  C   UNL A   1      47.134  26.366  26.752  1.00  0.00     0.074 A 
ATOM     62  C   UNL A   1      47.275  24.963  26.422  1.00  0.00     0.031 C 
ATOM     63  C   UNL A   1      48.149  27.265  26.718  1.00  0.00     0.037 A 
BRANCH  50  64
ATOM     64  C   UNL A   1      46.463  33.009  28.270  1.00  0.00     0.058 A 
ATOM     65  C   UNL A   1      46.366  33.907  27.193  1.00  0.00     0.135 A 
ATOM     66  C   UNL A   1      46.921  33.509  29.499  1.00  0.00     0.135 A 
ATOM     67  F   UNL A   1      45.947  33.479  25.993  1.00  0.00    -0.206 F 
ATOM     68  C   UNL A   1      46.747  35.238  27.320  1.00  0.00     0.059 A 
ATOM     69  C   UNL A   1      47.283  34.845  29.656  1.00  0.00     0.059 A 
ATOM     70  F   UNL A   1      47.030  32.697  30.562  1.00  0.00    -0.206 F 
ATOM     71  C   UNL A   1      47.210  35.697  28.554  1.00  0.00     0.060 A 
BRANCH  71  72
ATOM     72  S   UNL A   1      47.717  37.423  28.701  1.00  0.00     0.124 S 
ATOM     73  O   UNL A   1      48.132  37.484  30.100  1.00  0.00    -0.237 OA
ATOM     74  O   UNL A   1      48.792  37.521  27.718  1.00  0.00    -0.237 OA
ATOM     75  O   UNL A   1      46.503  38.163  28.372  1.00  0.00    -0.744 OA
ENDBRANCH  71  72
ENDBRANCH  50  64
BRANCH  51  76
ATOM     76  C   UNL A   1      43.307  23.635  26.983  1.00  0.00     0.058 A 
ATOM     77  C   UNL A   1      43.037  23.181  25.683  1.00  0.00     0.135 A 
ATOM     78  C   UNL A   1      43.131  22.732  28.041  1.00  0.00     0.135 A 
ATOM     79  F   UNL A   1      43.186  24.011  24.639  1.00  0.00    -0.206 F 
ATOM     80  C   UNL A   1      42.599  21.884  25.440  1.00  0.00     0.059 A 
ATOM     81  C   UNL A   1      42.715  21.423  27.822  1.00  0.00     0.059 A 
ATOM     82  F   UNL A   1      43.394  23.114  29.301  1.00  0.00    -0.206 F 
ATOM     83  C   UNL A   1      42.444  21.010  26.518  1.00  0.00     0.060 A 
BRANCH  83  84
ATOM     84  S   UNL A   1      41.939  19.308  26.188  1.00  0.00     0.124 S 
ATOM     85  O   UNL A   1      42.320  18.643  27.429  1.00  0.00    -0.237 OA
ATOM     86  O   UNL A   1      40.505  19.451  25.954  1.00  0.00    -0.237 OA
ATOM     87  O   UNL A   1      42.724  18.949  25.011  1.00  0.00    -0.744 OA
ENDBRANCH  83  84
ENDBRANCH  51  76
BRANCH  63  88
ATOM     88  C   UNL A   1      49.509  26.752  26.336  1.00  0.00     0.058 A 
ATOM     89  C   UNL A   1      50.000  26.871  25.026  1.00  0.00     0.135 A 
ATOM     90  C   UNL A   1      50.341  26.158  27.298  1.00  0.00     0.135 A 
ATOM     91  F   UNL A   1      49.243  27.428  24.068  1.00  0.00    -0.206 F 
ATOM     92  C   UNL A   1      51.259  26.392  24.676  1.00  0.00     0.059 A 
ATOM     93  C   UNL A   1      51.612  25.693  26.975  1.00  0.00     0.059 A 
ATOM     94  F   UNL A   1      49.923  26.029  28.567  1.00  0.00    -0.206 F 
ATOM     95  C   UNL A   1      52.056  25.799  25.658  1.00  0.00     0.060 A 
BRANCH  95  96
ATOM     96  S   UNL A   1      53.692  25.189  25.198  1.00  0.00     0.124 S 
ATOM     97  O   UNL A   1      53.818  25.688  23.833  1.00  0.00    -0.237 OA
ATOM     98  O   UNL A   1      54.555  25.826  26.187  1.00  0.00    -0.237 OA
ATOM     99  O   UNL A   1      53.562  23.741  25.329  1.00  0.00    -0.744 OA
ENDBRANCH  95  96
ENDBRANCH  63  88
ENDBRANCH  37  38
ENDBRANCH  29  32
ENDBRANCH  27  28
ENDBRANCH   1  27
TORSDOF 16
ENDMDL
MODEL 3
REMARK VINA RESULT:     -12.3      4.899     10.424
REMARK SMILES C[NH+]1CCC(NC(=O)N[C@H]2C=C[C@H](C(=O)NCCCCNC(=O)c3ccc(-c4c5nc(c(-c6c(F)cc(S(=O)(=O)[O-])cc6F)c6ccc([nH]6)c(-c6c(F)cc(S(=O)(=O)[O-])cc6F)c6nc(c(-c7c(F)cc(S(=O)(=O)[O-])cc7F)c7ccc4[nH]7)C=C6)C=C5)cc3)C2)CC1
REMARK SMILES IDX 19 1 18 2 17 3 16 4 14 5 15 6 13 8 10 9 11 10 90 11 12 12
REMARK SMILES IDX 9 13 6 14 7 15 8 17 5 19 1 20 2 21 3 22 92 23 4 25 91 26
REMARK SMILES IDX 20 27 21 28 22 29 23 31 24 32 25 33 89 34 26 35 88 36 27 37
REMARK SMILES IDX 28 38 29 39 82 40 30 41 87 42 81 43 83 44 31 45 86 46 80 47
REMARK SMILES IDX 79 48 32 50 66 51 45 52 65 53 46 54 49 55 64 56 84 57 47 58
REMARK SMILES IDX 48 59 63 61 85 62 50 63 33 64 34 65 43 66 35 67 36 68 42 69
REMARK SMILES IDX 44 70 37 71 38 72 39 73 40 74 41 75 67 76 68 77 77 78 69 79
REMARK SMILES IDX 70 80 76 81 78 82 71 83 72 84 73 85 74 86 75 87 51 88 52 89
REMARK SMILES IDX 61 90 53 91 54 92 60 93 62 94 55 95 56 96 57 97 58 98 59 99
REMARK H PARENT 16 7 6 16 9 18 2 24 21 30 83 49 49 60
REMARK Flexibility Score: inf
ROOT
ATOM      1  C   UNL A   1      32.399  28.005  26.277  1.00  0.00     0.023 C 
ENDROOT
BRANCH   1   2
ATOM      2  C   UNL A   1      31.497  26.927  26.888  1.00  0.00     0.023 C 
BRANCH   2   3
ATOM      3  C   UNL A   1      30.654  26.148  25.869  1.00  0.00     0.116 C 
BRANCH   3   4
ATOM      4  N   UNL A   1      29.959  25.008  26.453  1.00  0.00    -0.356 N 
ATOM      5  C   UNL A   1      30.449  23.766  26.774  1.00  0.00     0.227 C 
ATOM      6  O   UNL A   1      29.735  22.987  27.405  1.00  0.00    -0.274 OA
ATOM      7  H   UNL A   1      29.004  25.148  26.643  1.00  0.00     0.163 HD
BRANCH   5   8
ATOM      8  C   UNL A   1      31.869  23.408  26.343  1.00  0.00     0.103 C 
ATOM      9  C   UNL A   1      33.198  21.390  26.800  1.00  0.00     0.107 C 
ATOM     10  C   UNL A   1      33.642  22.532  27.639  1.00  0.00    -0.006 C 
ATOM     11  C   UNL A   1      32.051  21.928  25.942  1.00  0.00     0.047 C 
ATOM     12  C   UNL A   1      32.878  23.614  27.442  1.00  0.00    -0.016 C 
BRANCH   9  13
ATOM     13  N   UNL A   1      34.292  20.703  26.128  1.00  0.00    -0.332 N 
ATOM     14  N   UNL A   1      35.004  21.663  24.067  1.00  0.00    -0.335 N 
ATOM     15  C   UNL A   1      35.038  20.738  25.025  1.00  0.00     0.315 C 
ATOM     16  H   UNL A   1      35.575  21.440  23.297  1.00  0.00     0.165 HD
ATOM     17  O   UNL A   1      35.843  19.811  24.875  1.00  0.00    -0.249 OA
ATOM     18  H   UNL A   1      34.583  19.946  26.685  1.00  0.00     0.165 HD
BRANCH  14  19
ATOM     19  C   UNL A   1      34.313  22.922  23.912  1.00  0.00     0.095 C 
ATOM     20  C   UNL A   1      32.942  26.806  22.902  1.00  0.00     0.332 C 
ATOM     21  N   UNL A   1      33.789  25.608  22.916  1.00  0.00    -0.337 N 
ATOM     22  C   UNL A   1      33.058  24.453  22.383  1.00  0.00     0.264 C 
ATOM     23  C   UNL A   1      34.316  25.387  24.272  1.00  0.00     0.264 C 
ATOM     24  H   UNL A   1      34.593  25.744  22.303  1.00  0.00     0.347 HD
ATOM     25  C   UNL A   1      33.852  23.150  22.475  1.00  0.00     0.086 C 
ATOM     26  C   UNL A   1      35.152  24.109  24.368  1.00  0.00     0.086 C 
ENDBRANCH  14  19
ENDBRANCH   9  13
ENDBRANCH   5   8
ENDBRANCH   3   4
ENDBRANCH   2   3
ENDBRANCH   1   2
BRANCH   1  27
ATOM     27  C   UNL A   1      33.567  28.447  27.159  1.00  0.00     0.116 C 
BRANCH  27  28
ATOM     28  N   UNL A   1      33.484  29.827  27.616  1.00  0.00    -0.352 N 
ATOM     29  C   UNL A   1      34.478  30.589  28.196  1.00  0.00     0.251 C 
ATOM     30  H   UNL A   1      32.614  30.270  27.495  1.00  0.00     0.163 HD
ATOM     31  O   UNL A   1      34.225  31.720  28.601  1.00  0.00    -0.269 OA
BRANCH  29  32
ATOM     32  C   UNL A   1      35.834  30.016  28.380  1.00  0.00     0.039 A 
ATOM     33  C   UNL A   1      36.742  30.070  27.318  1.00  0.00     0.014 A 
ATOM     34  C   UNL A   1      36.229  29.470  29.605  1.00  0.00     0.014 A 
ATOM     35  C   UNL A   1      38.066  29.662  27.513  1.00  0.00     0.010 A 
ATOM     36  C   UNL A   1      37.565  29.133  29.818  1.00  0.00     0.010 A 
ATOM     37  C   UNL A   1      38.501  29.234  28.778  1.00  0.00    -0.014 A 
BRANCH  37  38
ATOM     38  C   UNL A   1      39.934  28.923  29.037  1.00  0.00     0.031 A 
ATOM     39  C   UNL A   1      40.859  29.965  29.605  1.00  0.00     0.074 A 
ATOM     40  C   UNL A   1      40.424  27.716  28.686  1.00  0.00     0.049 A 
ATOM     41  N   UNL A   1      42.139  29.882  29.862  1.00  0.00    -0.248 NA
ATOM     42  C   UNL A   1      40.275  31.286  29.891  1.00  0.00     0.031 C 
ATOM     43  C   UNL A   1      39.657  26.643  28.048  1.00  0.00     0.029 A 
ATOM     44  N   UNL A   1      41.687  27.191  28.805  1.00  0.00    -0.354 N 
ATOM     45  C   UNL A   1      42.518  31.137  30.322  1.00  0.00     0.074 A 
ATOM     46  C   UNL A   1      41.342  31.979  30.260  1.00  0.00     0.031 C 
ATOM     47  C   UNL A   1      40.458  25.582  27.854  1.00  0.00     0.029 A 
ATOM     48  C   UNL A   1      41.800  25.906  28.329  1.00  0.00     0.049 A 
ATOM     49  H   UNL A   1      42.442  27.689  29.195  1.00  0.00     0.167 HD
ATOM     50  C   UNL A   1      43.727  31.547  30.778  1.00  0.00     0.037 A 
ATOM     51  C   UNL A   1      42.862  25.076  28.285  1.00  0.00     0.037 A 
ATOM     52  C   UNL A   1      44.887  30.700  30.872  1.00  0.00     0.049 A 
ATOM     53  C   UNL A   1      44.177  25.531  28.851  1.00  0.00     0.074 A 
ATOM     54  C   UNL A   1      46.134  31.001  31.394  1.00  0.00     0.029 A 
ATOM     55  N   UNL A   1      44.946  29.385  30.436  1.00  0.00    -0.354 N 
ATOM     56  N   UNL A   1      44.494  26.696  29.364  1.00  0.00    -0.248 NA
ATOM     57  C   UNL A   1      45.276  24.555  28.849  1.00  0.00     0.031 C 
ATOM     58  C   UNL A   1      46.956  29.877  31.244  1.00  0.00     0.029 A 
ATOM     59  C   UNL A   1      46.210  28.864  30.665  1.00  0.00     0.049 A 
ATOM     60  H   UNL A   1      44.199  28.893  30.024  1.00  0.00     0.167 HD
ATOM     61  C   UNL A   1      45.821  26.585  29.767  1.00  0.00     0.074 A 
ATOM     62  C   UNL A   1      46.242  25.236  29.451  1.00  0.00     0.031 C 
ATOM     63  C   UNL A   1      46.617  27.518  30.347  1.00  0.00     0.037 A 
BRANCH  50  64
ATOM     64  C   UNL A   1      43.850  32.979  31.221  1.00  0.00     0.058 A 
ATOM     65  C   UNL A   1      44.186  34.001  30.317  1.00  0.00     0.135 A 
ATOM     66  C   UNL A   1      43.612  33.339  32.557  1.00  0.00     0.135 A 
ATOM     67  F   UNL A   1      44.436  33.710  29.031  1.00  0.00    -0.206 F 
ATOM     68  C   UNL A   1      44.321  35.322  30.730  1.00  0.00     0.059 A 
ATOM     69  C   UNL A   1      43.715  34.660  32.987  1.00  0.00     0.059 A 
ATOM     70  F   UNL A   1      43.284  32.404  33.462  1.00  0.00    -0.206 F 
ATOM     71  C   UNL A   1      44.090  35.641  32.069  1.00  0.00     0.060 A 
BRANCH  71  72
ATOM     72  S   UNL A   1      44.284  37.357  32.596  1.00  0.00     0.124 S 
ATOM     73  O   UNL A   1      44.341  38.048  31.311  1.00  0.00    -0.237 OA
ATOM     74  O   UNL A   1      43.076  37.583  33.383  1.00  0.00    -0.237 OA
ATOM     75  O   UNL A   1      45.530  37.340  33.356  1.00  0.00    -0.744 OA
ENDBRANCH  71  72
ENDBRANCH  50  64
BRANCH  51  76
ATOM     76  C   UNL A   1      42.707  23.710  27.718  1.00  0.00     0.058 A 
ATOM     77  C   UNL A   1      42.442  22.611  28.549  1.00  0.00     0.135 A 
ATOM     78  C   UNL A   1      42.797  23.481  26.337  1.00  0.00     0.135 A 
ATOM     79  F   UNL A   1      42.353  22.782  29.877  1.00  0.00    -0.206 F 
ATOM     80  C   UNL A   1      42.282  21.330  28.033  1.00  0.00     0.059 A 
ATOM     81  C   UNL A   1      42.619  22.212  25.795  1.00  0.00     0.059 A 
ATOM     82  F   UNL A   1      43.031  24.503  25.500  1.00  0.00    -0.206 F 
ATOM     83  C   UNL A   1      42.370  21.141  26.653  1.00  0.00     0.060 A 
BRANCH  83  84
ATOM     84  S   UNL A   1      42.096  19.485  25.985  1.00  0.00     0.124 S 
ATOM     85  O   UNL A   1      42.937  19.506  24.794  1.00  0.00    -0.237 OA
ATOM     86  O   UNL A   1      42.555  18.631  27.077  1.00  0.00    -0.237 OA
ATOM     87  O   UNL A   1      40.656  19.457  25.743  1.00  0.00    -0.744 OA
ENDBRANCH  83  84
ENDBRANCH  51  76
BRANCH  63  88
ATOM     88  C   UNL A   1      48.016  27.101  30.703  1.00  0.00     0.058 A 
ATOM     89  C   UNL A   1      48.316  26.511  31.941  1.00  0.00     0.135 A 
ATOM     90  C   UNL A   1      49.064  27.269  29.785  1.00  0.00     0.135 A 
ATOM     91  F   UNL A   1      47.350  26.332  32.856  1.00  0.00    -0.206 F 
ATOM     92  C   UNL A   1      49.613  26.130  32.268  1.00  0.00     0.059 A 
ATOM     93  C   UNL A   1      50.365  26.874  30.082  1.00  0.00     0.059 A 
ATOM     94  F   UNL A   1      48.829  27.818  28.583  1.00  0.00    -0.206 F 
ATOM     95  C   UNL A   1      50.633  26.319  31.333  1.00  0.00     0.060 A 
BRANCH  95  96
ATOM     96  S   UNL A   1      52.311  25.812  31.761  1.00  0.00     0.124 S 
ATOM     97  O   UNL A   1      52.646  26.764  32.816  1.00  0.00    -0.237 OA
ATOM     98  O   UNL A   1      52.123  24.431  32.192  1.00  0.00    -0.237 OA
ATOM     99  O   UNL A   1      53.044  25.977  30.509  1.00  0.00    -0.744 OA
ENDBRANCH  95  96
ENDBRANCH  63  88
ENDBRANCH  37  38
ENDBRANCH  29  32
ENDBRANCH  27  28
ENDBRANCH   1  27
TORSDOF 16
ENDMDL
