MODEL 1
REMARK VINA RESULT:     -11.9      0.000      0.000
REMARK SMILES COc1ncccc1NS(=O)(=O)c1ccc(Br)c(C(=O)NCCCCNC(=O)c2ccc(-c3c4nc(c(-c5c(F)cc(S(=O)(=O)[O-])cc5F)c5ccc([nH]5)c(-c5c(F)cc(S(=O)(=O)[O-])cc5F)c5nc(c(-c6c(F)cc(S(=O)(=O)[O-])cc6F)c6ccc3[nH]6)C=C5)C=C4)cc2)c1
REMARK SMILES IDX 23 1 22 2 21 3 19 4 20 5 18 7 13 8 14 9 95 10 15 11 16 12
REMARK SMILES IDX 17 13 10 14 11 15 12 16 9 17 8 19 3 20 4 21 5 22 7 23 6 24
REMARK SMILES IDX 2 25 1 26 24 27 25 28 26 29 27 30 28 32 29 33 30 34 94 35
REMARK SMILES IDX 31 36 93 37 32 38 33 39 34 40 87 41 35 42 92 43 86 44 88 45
REMARK SMILES IDX 36 46 91 47 85 48 84 49 37 51 71 52 50 53 70 54 51 55 54 56
REMARK SMILES IDX 69 57 89 58 52 59 53 60 68 62 90 63 55 64 38 65 39 66 48 67
REMARK SMILES IDX 40 68 41 69 47 70 49 71 42 72 43 73 44 74 45 75 46 76 72 77
REMARK SMILES IDX 73 78 82 79 74 80 75 81 81 82 83 83 76 84 77 85 78 86 79 87
REMARK SMILES IDX 80 88 56 89 57 90 66 91 58 92 59 93 65 94 67 95 60 96 61 97
REMARK SMILES IDX 62 98 63 99 64 100
REMARK H PARENT 21 6 9 18 26 31 88 50 54 61
REMARK Flexibility Score: inf
ROOT
ATOM      1  C   UNL A   1      33.733  30.607  27.254  1.00  0.00     0.023 C 
ENDROOT
BRANCH   1   2
ATOM      2  C   UNL A   1      32.446  30.498  26.432  1.00  0.00     0.116 C 
BRANCH   2   3
ATOM      3  N   UNL A   1      32.768  30.066  25.101  1.00  0.00    -0.352 N 
ATOM      4  C   UNL A   1      32.340  29.093  24.252  1.00  0.00     0.252 C 
ATOM      5  O   UNL A   1      33.152  28.893  23.337  1.00  0.00    -0.269 OA
ATOM      6  H   UNL A   1      33.482  30.613  24.700  1.00  0.00     0.163 HD
BRANCH   4   7
ATOM      7  C   UNL A   1      31.021  28.351  24.205  1.00  0.00     0.055 A 
ATOM      8  C   UNL A   1      30.144  26.206  25.083  1.00  0.00     0.088 A 
ATOM      9  C   UNL A   1      29.033  26.278  24.270  1.00  0.00     0.023 A 
ATOM     10  C   UNL A   1      31.037  27.280  25.133  1.00  0.00     0.037 A 
ATOM     11  C   UNL A   1      28.887  27.403  23.463  1.00  0.00     0.018 A 
ATOM     12  C   UNL A   1      29.869  28.429  23.409  1.00  0.00     0.030 A 
ATOM     13  Br  UNL A   1      29.301  29.858  22.310  1.00  0.00    -0.050 Br
BRANCH   8  14
ATOM     14  S   UNL A   1      30.427  24.796  26.111  1.00  0.00     0.262 S 
ATOM     15  O   UNL A   1      29.212  24.578  26.876  1.00  0.00    -0.201 OA
ATOM     16  O   UNL A   1      31.684  24.970  26.804  1.00  0.00    -0.201 OA
BRANCH  14  17
ATOM     17  N   UNL A   1      30.651  23.409  25.160  1.00  0.00    -0.274 N 
ATOM     18  H   UNL A   1      29.860  23.018  24.726  1.00  0.00     0.180 HD
BRANCH  17  19
ATOM     19  C   UNL A   1      31.923  22.762  24.943  1.00  0.00     0.111 A 
ATOM     20  C   UNL A   1      33.054  23.297  24.320  1.00  0.00     0.238 A 
ATOM     21  N   UNL A   1      34.248  22.671  24.220  1.00  0.00    -0.220 NA
ATOM     22  C   UNL A   1      34.380  21.504  24.877  1.00  0.00     0.115 A 
ATOM     23  C   UNL A   1      32.142  21.607  25.696  1.00  0.00     0.034 A 
ATOM     24  C   UNL A   1      33.379  20.963  25.662  1.00  0.00     0.023 A 
BRANCH  20  25
ATOM     25  O   UNL A   1      33.026  24.532  23.755  1.00  0.00    -0.480 OA
ATOM     26  C   UNL A   1      32.583  24.489  22.407  1.00  0.00     0.280 C 
ENDBRANCH  20  25
ENDBRANCH  17  19
ENDBRANCH  14  17
ENDBRANCH   8  14
ENDBRANCH   4   7
ENDBRANCH   2   3
ENDBRANCH   1   2
BRANCH   1  27
ATOM     27  C   UNL A   1      34.560  29.324  27.268  1.00  0.00     0.023 C 
BRANCH  27  28
ATOM     28  C   UNL A   1      35.806  29.399  28.140  1.00  0.00     0.116 C 
BRANCH  28  29
ATOM     29  N   UNL A   1      35.563  29.979  29.454  1.00  0.00    -0.352 N 
ATOM     30  C   UNL A   1      36.493  30.314  30.410  1.00  0.00     0.251 C 
ATOM     31  H   UNL A   1      34.621  30.151  29.685  1.00  0.00     0.163 HD
ATOM     32  O   UNL A   1      36.146  30.698  31.520  1.00  0.00    -0.269 OA
BRANCH  30  33
ATOM     33  C   UNL A   1      37.918  30.155  30.071  1.00  0.00     0.039 A 
ATOM     34  C   UNL A   1      38.781  29.608  31.020  1.00  0.00     0.014 A 
ATOM     35  C   UNL A   1      38.362  30.442  28.777  1.00  0.00     0.014 A 
ATOM     36  C   UNL A   1      40.084  29.282  30.646  1.00  0.00     0.010 A 
ATOM     37  C   UNL A   1      39.629  30.033  28.384  1.00  0.00     0.010 A 
ATOM     38  C   UNL A   1      40.505  29.452  29.314  1.00  0.00    -0.014 A 
BRANCH  38  39
ATOM     39  C   UNL A   1      41.858  29.029  28.876  1.00  0.00     0.031 A 
ATOM     40  C   UNL A   1      42.972  30.039  28.807  1.00  0.00     0.074 A 
ATOM     41  C   UNL A   1      42.067  27.756  28.484  1.00  0.00     0.049 A 
ATOM     42  N   UNL A   1      44.203  29.881  28.397  1.00  0.00    -0.248 NA
ATOM     43  C   UNL A   1      42.651  31.414  29.226  1.00  0.00     0.031 C 
ATOM     44  C   UNL A   1      41.052  26.700  28.454  1.00  0.00     0.029 A 
ATOM     45  N   UNL A   1      43.203  27.133  28.029  1.00  0.00    -0.354 N 
ATOM     46  C   UNL A   1      44.797  31.134  28.498  1.00  0.00     0.074 A 
ATOM     47  C   UNL A   1      43.777  32.054  28.946  1.00  0.00     0.031 C 
ATOM     48  C   UNL A   1      41.617  25.557  28.032  1.00  0.00     0.029 A 
ATOM     49  C   UNL A   1      43.021  25.804  27.722  1.00  0.00     0.049 A 
ATOM     50  H   UNL A   1      44.068  27.594  27.933  1.00  0.00     0.167 HD
ATOM     51  C   UNL A   1      46.085  31.479  28.266  1.00  0.00     0.037 A 
ATOM     52  C   UNL A   1      43.886  24.892  27.236  1.00  0.00     0.037 A 
ATOM     53  C   UNL A   1      47.101  30.551  27.844  1.00  0.00     0.049 A 
ATOM     54  C   UNL A   1      45.311  25.304  26.978  1.00  0.00     0.074 A 
ATOM     55  C   UNL A   1      48.448  30.788  27.638  1.00  0.00     0.029 A 
ATOM     56  N   UNL A   1      46.882  29.210  27.560  1.00  0.00    -0.354 N 
ATOM     57  N   UNL A   1      45.874  26.477  27.149  1.00  0.00    -0.248 NA
ATOM     58  C   UNL A   1      46.222  24.269  26.469  1.00  0.00     0.031 C 
ATOM     59  C   UNL A   1      49.033  29.605  27.178  1.00  0.00     0.029 A 
ATOM     60  C   UNL A   1      48.065  28.613  27.157  1.00  0.00     0.049 A 
ATOM     61  H   UNL A   1      46.014  28.751  27.635  1.00  0.00     0.167 HD
ATOM     62  C   UNL A   1      47.211  26.311  26.800  1.00  0.00     0.074 A 
ATOM     63  C   UNL A   1      47.373  24.924  26.421  1.00  0.00     0.031 C 
ATOM     64  C   UNL A   1      48.212  27.225  26.795  1.00  0.00     0.037 A 
BRANCH  51  65
ATOM     65  C   UNL A   1      46.474  32.918  28.469  1.00  0.00     0.058 A 
ATOM     66  C   UNL A   1      46.400  33.858  27.427  1.00  0.00     0.135 A 
ATOM     67  C   UNL A   1      46.881  33.376  29.732  1.00  0.00     0.135 A 
ATOM     68  F   UNL A   1      46.035  33.473  26.193  1.00  0.00    -0.206 F 
ATOM     69  C   UNL A   1      46.735  35.192  27.625  1.00  0.00     0.059 A 
ATOM     70  C   UNL A   1      47.191  34.713  29.961  1.00  0.00     0.059 A 
ATOM     71  F   UNL A   1      46.975  32.521  30.764  1.00  0.00    -0.206 F 
ATOM     72  C   UNL A   1      47.126  35.612  28.898  1.00  0.00     0.060 A 
BRANCH  72  73
ATOM     73  S   UNL A   1      47.533  37.353  29.142  1.00  0.00     0.124 S 
ATOM     74  O   UNL A   1      48.908  37.402  28.652  1.00  0.00    -0.237 OA
ATOM     75  O   UNL A   1      46.540  38.024  28.309  1.00  0.00    -0.237 OA
ATOM     76  O   UNL A   1      47.374  37.543  30.581  1.00  0.00    -0.744 OA
ENDBRANCH  72  73
ENDBRANCH  51  65
BRANCH  52  77
ATOM     77  C   UNL A   1      43.435  23.496  26.974  1.00  0.00     0.058 A 
ATOM     78  C   UNL A   1      43.206  23.043  25.665  1.00  0.00     0.135 A 
ATOM     79  C   UNL A   1      43.218  22.591  28.023  1.00  0.00     0.135 A 
ATOM     80  F   UNL A   1      43.393  23.871  24.626  1.00  0.00    -0.206 F 
ATOM     81  C   UNL A   1      42.753  21.753  25.408  1.00  0.00     0.059 A 
ATOM     82  C   UNL A   1      42.795  21.286  27.790  1.00  0.00     0.059 A 
ATOM     83  F   UNL A   1      43.438  22.967  29.293  1.00  0.00    -0.206 F 
ATOM     84  C   UNL A   1      42.551  20.880  26.479  1.00  0.00     0.060 A 
BRANCH  84  85
ATOM     85  S   UNL A   1      41.992  19.199  26.132  1.00  0.00     0.124 S 
ATOM     86  O   UNL A   1      42.277  18.528  27.394  1.00  0.00    -0.237 OA
ATOM     87  O   UNL A   1      40.581  19.404  25.821  1.00  0.00    -0.237 OA
ATOM     88  O   UNL A   1      42.823  18.796  25.001  1.00  0.00    -0.744 OA
ENDBRANCH  84  85
ENDBRANCH  52  77
BRANCH  64  89
ATOM     89  C   UNL A   1      49.587  26.750  26.411  1.00  0.00     0.058 A 
ATOM     90  C   UNL A   1      50.466  26.188  27.349  1.00  0.00     0.135 A 
ATOM     91  C   UNL A   1      50.006  26.805  25.071  1.00  0.00     0.135 A 
ATOM     92  F   UNL A   1      50.119  26.115  28.644  1.00  0.00    -0.206 F 
ATOM     93  C   UNL A   1      51.723  25.720  26.978  1.00  0.00     0.059 A 
ATOM     94  C   UNL A   1      51.244  26.312  24.672  1.00  0.00     0.059 A 
ATOM     95  F   UNL A   1      49.199  27.322  24.131  1.00  0.00    -0.206 F 
ATOM     96  C   UNL A   1      52.100  25.783  25.634  1.00  0.00     0.060 A 
BRANCH  96  97
ATOM     97  S   UNL A   1      53.718  25.137  25.161  1.00  0.00     0.124 S 
ATOM     98  O   UNL A   1      53.469  23.700  25.146  1.00  0.00    -0.237 OA
ATOM     99  O   UNL A   1      53.931  25.757  23.857  1.00  0.00    -0.237 OA
ATOM    100  O   UNL A   1      54.599  25.611  26.225  1.00  0.00    -0.744 OA
ENDBRANCH  96  97
ENDBRANCH  64  89
ENDBRANCH  38  39
ENDBRANCH  30  33
ENDBRANCH  28  29
ENDBRANCH  27  28
ENDBRANCH   1  27
TORSDOF 18
ENDMDL
MODEL 2
REMARK VINA RESULT:     -11.8      6.540     11.897
REMARK SMILES COc1ncccc1NS(=O)(=O)c1ccc(Br)c(C(=O)NCCCCNC(=O)c2ccc(-c3c4nc(c(-c5c(F)cc(S(=O)(=O)[O-])cc5F)c5ccc([nH]5)c(-c5c(F)cc(S(=O)(=O)[O-])cc5F)c5nc(c(-c6c(F)cc(S(=O)(=O)[O-])cc6F)c6ccc3[nH]6)C=C5)C=C4)cc2)c1
REMARK SMILES IDX 23 1 22 2 21 3 19 4 20 5 18 7 13 8 14 9 95 10 15 11 16 12
REMARK SMILES IDX 17 13 10 14 11 15 12 16 9 17 8 19 3 20 4 21 5 22 7 23 6 24
REMARK SMILES IDX 2 25 1 26 24 27 25 28 26 29 27 30 28 32 29 33 30 34 94 35
REMARK SMILES IDX 31 36 93 37 32 38 33 39 34 40 87 41 35 42 92 43 86 44 88 45
REMARK SMILES IDX 36 46 91 47 85 48 84 49 37 51 71 52 50 53 70 54 51 55 54 56
REMARK SMILES IDX 69 57 89 58 52 59 53 60 68 62 90 63 55 64 38 65 39 66 48 67
REMARK SMILES IDX 40 68 41 69 47 70 49 71 42 72 43 73 44 74 45 75 46 76 72 77
REMARK SMILES IDX 73 78 82 79 74 80 75 81 81 82 83 83 76 84 77 85 78 86 79 87
REMARK SMILES IDX 80 88 56 89 57 90 66 91 58 92 59 93 65 94 67 95 60 96 61 97
REMARK SMILES IDX 62 98 63 99 64 100
REMARK H PARENT 21 6 9 18 26 31 88 50 54 61
REMARK Flexibility Score: inf
ROOT
ATOM      1  C   UNL A   1      37.563  23.629  25.749  1.00  0.00     0.023 C 
ENDROOT
BRANCH   1   2
ATOM      2  C   UNL A   1      37.190  22.183  25.408  1.00  0.00     0.116 C 
BRANCH   2   3
ATOM      3  N   UNL A   1      36.126  21.752  26.269  1.00  0.00    -0.352 N 
ATOM      4  C   UNL A   1      34.788  21.537  26.146  1.00  0.00     0.252 C 
ATOM      5  O   UNL A   1      34.227  21.496  27.252  1.00  0.00    -0.269 OA
ATOM      6  H   UNL A   1      36.444  21.564  27.181  1.00  0.00     0.163 HD
BRANCH   4   7
ATOM      7  C   UNL A   1      33.957  21.232  24.918  1.00  0.00     0.055 A 
ATOM      8  C   UNL A   1      33.134  22.502  22.955  1.00  0.00     0.088 A 
ATOM      9  C   UNL A   1      32.251  21.496  22.622  1.00  0.00     0.023 A 
ATOM     10  C   UNL A   1      34.044  22.306  23.998  1.00  0.00     0.037 A 
ATOM     11  C   UNL A   1      32.253  20.342  23.399  1.00  0.00     0.018 A 
ATOM     12  C   UNL A   1      33.080  20.203  24.546  1.00  0.00     0.030 A 
ATOM     13  Br  UNL A   1      32.921  18.474  25.295  1.00  0.00    -0.050 Br
BRANCH   8  14
ATOM     14  S   UNL A   1      33.172  24.016  22.045  1.00  0.00     0.262 S 
ATOM     15  O   UNL A   1      33.411  23.670  20.655  1.00  0.00    -0.201 OA
ATOM     16  O   UNL A   1      34.064  24.938  22.713  1.00  0.00    -0.201 OA
BRANCH  14  17
ATOM     17  N   UNL A   1      31.656  24.774  22.097  1.00  0.00    -0.274 N 
ATOM     18  H   UNL A   1      30.947  24.422  21.513  1.00  0.00     0.180 HD
BRANCH  17  19
ATOM     19  C   UNL A   1      31.331  25.899  22.940  1.00  0.00     0.111 A 
ATOM     20  C   UNL A   1      31.300  25.936  24.337  1.00  0.00     0.238 A 
ATOM     21  N   UNL A   1      31.071  27.045  25.075  1.00  0.00    -0.220 NA
ATOM     22  C   UNL A   1      30.990  28.212  24.410  1.00  0.00     0.115 A 
ATOM     23  C   UNL A   1      31.349  27.144  22.308  1.00  0.00     0.034 A 
ATOM     24  C   UNL A   1      31.171  28.316  23.044  1.00  0.00     0.023 A 
BRANCH  20  25
ATOM     25  O   UNL A   1      31.513  24.813  25.073  1.00  0.00    -0.480 OA
ATOM     26  C   UNL A   1      31.629  25.103  26.458  1.00  0.00     0.280 C 
ENDBRANCH  20  25
ENDBRANCH  17  19
ENDBRANCH  14  17
ENDBRANCH   8  14
ENDBRANCH   4   7
ENDBRANCH   2   3
ENDBRANCH   1   2
BRANCH   1  27
ATOM     27  C   UNL A   1      38.822  23.750  26.603  1.00  0.00     0.023 C 
BRANCH  27  28
ATOM     28  C   UNL A   1      39.621  25.022  26.353  1.00  0.00     0.116 C 
BRANCH  28  29
ATOM     29  N   UNL A   1      40.967  24.775  25.854  1.00  0.00    -0.352 N 
ATOM     30  C   UNL A   1      42.151  25.268  26.349  1.00  0.00     0.251 C 
ATOM     31  H   UNL A   1      41.036  24.187  25.067  1.00  0.00     0.163 HD
ATOM     32  O   UNL A   1      43.210  25.066  25.769  1.00  0.00    -0.269 OA
BRANCH  30  33
ATOM     33  C   UNL A   1      42.099  26.081  27.577  1.00  0.00     0.039 A 
ATOM     34  C   UNL A   1      42.810  27.279  27.625  1.00  0.00     0.014 A 
ATOM     35  C   UNL A   1      41.253  25.706  28.625  1.00  0.00     0.014 A 
ATOM     36  C   UNL A   1      42.619  28.141  28.704  1.00  0.00     0.010 A 
ATOM     37  C   UNL A   1      40.996  26.606  29.650  1.00  0.00     0.010 A 
ATOM     38  C   UNL A   1      41.678  27.831  29.703  1.00  0.00    -0.014 A 
BRANCH  38  39
ATOM     39  C   UNL A   1      41.396  28.776  30.812  1.00  0.00     0.031 A 
ATOM     40  C   UNL A   1      42.209  28.711  32.076  1.00  0.00     0.074 A 
ATOM     41  C   UNL A   1      40.372  29.648  30.704  1.00  0.00     0.049 A 
ATOM     42  N   UNL A   1      42.081  29.407  33.175  1.00  0.00    -0.248 NA
ATOM     43  C   UNL A   1      43.290  27.712  32.121  1.00  0.00     0.031 C 
ATOM     44  C   UNL A   1      39.476  29.766  29.550  1.00  0.00     0.029 A 
ATOM     45  N   UNL A   1      39.906  30.596  31.580  1.00  0.00    -0.354 N 
ATOM     46  C   UNL A   1      43.054  28.924  34.043  1.00  0.00     0.074 A 
ATOM     47  C   UNL A   1      43.722  27.835  33.368  1.00  0.00     0.031 C 
ATOM     48  C   UNL A   1      38.590  30.749  29.779  1.00  0.00     0.029 A 
ATOM     49  C   UNL A   1      38.823  31.302  31.108  1.00  0.00     0.049 A 
ATOM     50  H   UNL A   1      40.308  30.756  32.465  1.00  0.00     0.167 HD
ATOM     51  C   UNL A   1      43.380  29.369  35.279  1.00  0.00     0.037 A 
ATOM     52  C   UNL A   1      38.096  32.279  31.686  1.00  0.00     0.037 A 
ATOM     53  C   UNL A   1      42.726  30.472  35.932  1.00  0.00     0.049 A 
ATOM     54  C   UNL A   1      38.474  32.749  33.066  1.00  0.00     0.074 A 
ATOM     55  C   UNL A   1      43.019  31.038  37.160  1.00  0.00     0.029 A 
ATOM     56  N   UNL A   1      41.646  31.173  35.415  1.00  0.00    -0.354 N 
ATOM     57  N   UNL A   1      39.444  32.330  33.843  1.00  0.00    -0.248 NA
ATOM     58  C   UNL A   1      37.665  33.831  33.645  1.00  0.00     0.031 C 
ATOM     59  C   UNL A   1      42.083  32.046  37.410  1.00  0.00     0.029 A 
ATOM     60  C   UNL A   1      41.245  32.151  36.311  1.00  0.00     0.049 A 
ATOM     61  H   UNL A   1      41.227  31.002  34.541  1.00  0.00     0.167 HD
ATOM     62  C   UNL A   1      39.382  33.118  34.988  1.00  0.00     0.074 A 
ATOM     63  C   UNL A   1      38.288  34.046  34.795  1.00  0.00     0.031 C 
ATOM     64  C   UNL A   1      40.161  33.077  36.097  1.00  0.00     0.037 A 
BRANCH  51  65
ATOM     65  C   UNL A   1      44.496  28.669  36.005  1.00  0.00     0.058 A 
ATOM     66  C   UNL A   1      45.836  29.068  35.859  1.00  0.00     0.135 A 
ATOM     67  C   UNL A   1      44.221  27.618  36.894  1.00  0.00     0.135 A 
ATOM     68  F   UNL A   1      46.160  30.055  35.009  1.00  0.00    -0.206 F 
ATOM     69  C   UNL A   1      46.862  28.437  36.553  1.00  0.00     0.059 A 
ATOM     70  C   UNL A   1      45.229  26.993  37.622  1.00  0.00     0.059 A 
ATOM     71  F   UNL A   1      42.960  27.192  37.068  1.00  0.00    -0.206 F 
ATOM     72  C   UNL A   1      46.548  27.402  37.436  1.00  0.00     0.060 A 
BRANCH  72  73
ATOM     73  S   UNL A   1      47.892  26.611  38.346  1.00  0.00     0.124 S 
ATOM     74  O   UNL A   1      48.906  27.662  38.339  1.00  0.00    -0.237 OA
ATOM     75  O   UNL A   1      47.272  26.338  39.639  1.00  0.00    -0.237 OA
ATOM     76  O   UNL A   1      48.204  25.435  37.540  1.00  0.00    -0.744 OA
ENDBRANCH  72  73
ENDBRANCH  51  65
BRANCH  52  77
ATOM     77  C   UNL A   1      36.947  32.888  30.960  1.00  0.00     0.058 A 
ATOM     78  C   UNL A   1      37.149  33.872  29.979  1.00  0.00     0.135 A 
ATOM     79  C   UNL A   1      35.625  32.504  31.233  1.00  0.00     0.135 A 
ATOM     80  F   UNL A   1      38.394  34.278  29.684  1.00  0.00    -0.206 F 
ATOM     81  C   UNL A   1      36.084  34.473  29.317  1.00  0.00     0.059 A 
ATOM     82  C   UNL A   1      34.544  33.068  30.562  1.00  0.00     0.059 A 
ATOM     83  F   UNL A   1      35.375  31.555  32.149  1.00  0.00    -0.206 F 
ATOM     84  C   UNL A   1      34.783  34.063  29.615  1.00  0.00     0.060 A 
BRANCH  84  85
ATOM     85  S   UNL A   1      33.410  34.828  28.728  1.00  0.00     0.124 S 
ATOM     86  O   UNL A   1      34.051  36.003  28.150  1.00  0.00    -0.237 OA
ATOM     87  O   UNL A   1      33.032  33.778  27.786  1.00  0.00    -0.237 OA
ATOM     88  O   UNL A   1      32.435  35.094  29.781  1.00  0.00    -0.744 OA
ENDBRANCH  84  85
ENDBRANCH  52  77
BRANCH  64  89
ATOM     89  C   UNL A   1      39.892  34.093  37.174  1.00  0.00     0.058 A 
ATOM     90  C   UNL A   1      39.047  33.818  38.260  1.00  0.00     0.135 A 
ATOM     91  C   UNL A   1      40.539  35.340  37.147  1.00  0.00     0.135 A 
ATOM     92  F   UNL A   1      38.400  32.644  38.333  1.00  0.00    -0.206 F 
ATOM     93  C   UNL A   1      38.832  34.752  39.268  1.00  0.00     0.059 A 
ATOM     94  C   UNL A   1      40.366  36.275  38.162  1.00  0.00     0.059 A 
ATOM     95  F   UNL A   1      41.368  35.651  36.137  1.00  0.00    -0.206 F 
ATOM     96  C   UNL A   1      39.501  35.977  39.212  1.00  0.00     0.060 A 
BRANCH  96  97
ATOM     97  S   UNL A   1      39.242  37.164  40.547  1.00  0.00     0.124 S 
ATOM     98  O   UNL A   1      38.764  36.300  41.621  1.00  0.00    -0.237 OA
ATOM     99  O   UNL A   1      40.578  37.724  40.730  1.00  0.00    -0.237 OA
ATOM    100  O   UNL A   1      38.252  38.086  39.996  1.00  0.00    -0.744 OA
ENDBRANCH  96  97
ENDBRANCH  64  89
ENDBRANCH  38  39
ENDBRANCH  30  33
ENDBRANCH  28  29
ENDBRANCH  27  28
ENDBRANCH   1  27
TORSDOF 18
ENDMDL
MODEL 3
REMARK VINA RESULT:     -11.7      2.978      4.729
REMARK SMILES COc1ncccc1NS(=O)(=O)c1ccc(Br)c(C(=O)NCCCCNC(=O)c2ccc(-c3c4nc(c(-c5c(F)cc(S(=O)(=O)[O-])cc5F)c5ccc([nH]5)c(-c5c(F)cc(S(=O)(=O)[O-])cc5F)c5nc(c(-c6c(F)cc(S(=O)(=O)[O-])cc6F)c6ccc3[nH]6)C=C5)C=C4)cc2)c1
REMARK SMILES IDX 23 1 22 2 21 3 19 4 20 5 18 7 13 8 14 9 95 10 15 11 16 12
REMARK SMILES IDX 17 13 10 14 11 15 12 16 9 17 8 19 3 20 4 21 5 22 7 23 6 24
REMARK SMILES IDX 2 25 1 26 24 27 25 28 26 29 27 30 28 32 29 33 30 34 94 35
REMARK SMILES IDX 31 36 93 37 32 38 33 39 34 40 87 41 35 42 92 43 86 44 88 45
REMARK SMILES IDX 36 46 91 47 85 48 84 49 37 51 71 52 50 53 70 54 51 55 54 56
REMARK SMILES IDX 69 57 89 58 52 59 53 60 68 62 90 63 55 64 38 65 39 66 48 67
REMARK SMILES IDX 40 68 41 69 47 70 49 71 42 72 43 73 44 74 45 75 46 76 72 77
REMARK SMILES IDX 73 78 82 79 74 80 75 81 81 82 83 83 76 84 77 85 78 86 79 87
REMARK SMILES IDX 80 88 56 89 57 90 66 91 58 92 59 93 65 94 67 95 60 96 61 97
REMARK SMILES IDX 62 98 63 99 64 100
REMARK H PARENT 21 6 9 18 26 31 88 50 54 61
REMARK Flexibility Score: inf
ROOT
ATOM      1  C   UNL A   1      32.099  26.642  26.528  1.00  0.00     0.023 C 
ENDROOT
BRANCH   1   2
ATOM      2  C   UNL A   1      30.670  26.269  26.122  1.00  0.00     0.116 C 
BRANCH   2   3
ATOM      3  N   UNL A   1      30.489  24.852  26.271  1.00  0.00    -0.352 N 
ATOM      4  C   UNL A   1      30.931  23.733  25.635  1.00  0.00     0.252 C 
ATOM      5  O   UNL A   1      30.233  22.745  25.910  1.00  0.00    -0.269 OA
ATOM      6  H   UNL A   1      29.893  24.635  27.023  1.00  0.00     0.163 HD
BRANCH   4   7
ATOM      7  C   UNL A   1      32.164  23.516  24.785  1.00  0.00     0.055 A 
ATOM      8  C   UNL A   1      33.103  24.500  22.713  1.00  0.00     0.088 A 
ATOM      9  C   UNL A   1      34.005  23.465  22.580  1.00  0.00     0.023 A 
ATOM     10  C   UNL A   1      32.302  24.577  23.856  1.00  0.00     0.037 A 
ATOM     11  C   UNL A   1      34.024  22.485  23.568  1.00  0.00     0.018 A 
ATOM     12  C   UNL A   1      33.109  22.489  24.656  1.00  0.00     0.030 A 
ATOM     13  Br  UNL A   1      33.489  21.090  25.869  1.00  0.00    -0.050 Br
BRANCH   8  14
ATOM     14  S   UNL A   1      32.987  25.766  21.486  1.00  0.00     0.262 S 
ATOM     15  O   UNL A   1      32.880  25.102  20.199  1.00  0.00    -0.201 OA
ATOM     16  O   UNL A   1      34.045  26.726  21.707  1.00  0.00    -0.201 OA
BRANCH  14  17
ATOM     17  N   UNL A   1      31.555  26.654  21.688  1.00  0.00    -0.274 N 
ATOM     18  H   UNL A   1      30.761  26.363  21.185  1.00  0.00     0.180 HD
BRANCH  17  19
ATOM     19  C   UNL A   1      31.420  27.806  22.547  1.00  0.00     0.111 A 
ATOM     20  C   UNL A   1      30.241  28.337  23.077  1.00  0.00     0.238 A 
ATOM     21  N   UNL A   1      30.184  29.371  23.947  1.00  0.00    -0.220 NA
ATOM     22  C   UNL A   1      31.356  29.831  24.423  1.00  0.00     0.115 A 
ATOM     23  C   UNL A   1      32.600  28.243  23.151  1.00  0.00     0.034 A 
ATOM     24  C   UNL A   1      32.576  29.271  24.094  1.00  0.00     0.023 A 
BRANCH  20  25
ATOM     25  O   UNL A   1      29.028  27.826  22.742  1.00  0.00    -0.480 OA
ATOM     26  C   UNL A   1      27.983  28.767  22.944  1.00  0.00     0.280 C 
ENDBRANCH  20  25
ENDBRANCH  17  19
ENDBRANCH  14  17
ENDBRANCH   8  14
ENDBRANCH   4   7
ENDBRANCH   2   3
ENDBRANCH   1   2
BRANCH   1  27
ATOM     27  C   UNL A   1      32.179  27.881  27.416  1.00  0.00     0.023 C 
BRANCH  27  28
ATOM     28  C   UNL A   1      33.534  28.574  27.394  1.00  0.00     0.116 C 
BRANCH  28  29
ATOM     29  N   UNL A   1      33.476  29.979  27.774  1.00  0.00    -0.352 N 
ATOM     30  C   UNL A   1      34.482  30.746  28.310  1.00  0.00     0.251 C 
ATOM     31  H   UNL A   1      32.613  30.431  27.631  1.00  0.00     0.163 HD
ATOM     32  O   UNL A   1      34.270  31.893  28.685  1.00  0.00    -0.269 OA
BRANCH  30  33
ATOM     33  C   UNL A   1      35.813  30.132  28.459  1.00  0.00     0.039 A 
ATOM     34  C   UNL A   1      36.696  30.163  27.380  1.00  0.00     0.014 A 
ATOM     35  C   UNL A   1      36.216  29.636  29.702  1.00  0.00     0.014 A 
ATOM     36  C   UNL A   1      38.016  29.755  27.570  1.00  0.00     0.010 A 
ATOM     37  C   UNL A   1      37.551  29.317  29.910  1.00  0.00     0.010 A 
ATOM     38  C   UNL A   1      38.464  29.370  28.847  1.00  0.00    -0.014 A 
BRANCH  38  39
ATOM     39  C   UNL A   1      39.886  29.017  29.087  1.00  0.00     0.031 A 
ATOM     40  C   UNL A   1      40.827  30.046  29.651  1.00  0.00     0.074 A 
ATOM     41  C   UNL A   1      40.339  27.794  28.742  1.00  0.00     0.049 A 
ATOM     42  N   UNL A   1      42.111  29.952  29.878  1.00  0.00    -0.248 NA
ATOM     43  C   UNL A   1      40.256  31.365  29.974  1.00  0.00     0.031 C 
ATOM     44  C   UNL A   1      39.534  26.730  28.136  1.00  0.00     0.029 A 
ATOM     45  N   UNL A   1      41.591  27.240  28.846  1.00  0.00    -0.354 N 
ATOM     46  C   UNL A   1      42.501  31.197  30.358  1.00  0.00     0.074 A 
ATOM     47  C   UNL A   1      41.334  32.048  30.330  1.00  0.00     0.031 C 
ATOM     48  C   UNL A   1      40.304  25.647  27.948  1.00  0.00     0.029 A 
ATOM     49  C   UNL A   1      41.665  25.948  28.380  1.00  0.00     0.049 A 
ATOM     50  H   UNL A   1      42.364  27.723  29.219  1.00  0.00     0.167 HD
ATOM     51  C   UNL A   1      43.716  31.585  30.810  1.00  0.00     0.037 A 
ATOM     52  C   UNL A   1      42.714  25.105  28.301  1.00  0.00     0.037 A 
ATOM     53  C   UNL A   1      44.867  30.722  30.858  1.00  0.00     0.049 A 
ATOM     54  C   UNL A   1      44.057  25.565  28.802  1.00  0.00     0.074 A 
ATOM     55  C   UNL A   1      46.129  31.001  31.352  1.00  0.00     0.029 A 
ATOM     56  N   UNL A   1      44.899  29.415  30.394  1.00  0.00    -0.354 N 
ATOM     57  N   UNL A   1      44.392  26.722  29.321  1.00  0.00    -0.248 NA
ATOM     58  C   UNL A   1      45.165  24.603  28.715  1.00  0.00     0.031 C 
ATOM     59  C   UNL A   1      46.939  29.882  31.138  1.00  0.00     0.029 A 
ATOM     60  C   UNL A   1      46.166  28.882  30.568  1.00  0.00     0.049 A 
ATOM     61  H   UNL A   1      44.134  28.936  30.000  1.00  0.00     0.167 HD
ATOM     62  C   UNL A   1      45.739  26.616  29.652  1.00  0.00     0.074 A 
ATOM     63  C   UNL A   1      46.153  25.278  29.287  1.00  0.00     0.031 C 
ATOM     64  C   UNL A   1      46.558  27.542  30.209  1.00  0.00     0.037 A 
BRANCH  51  65
ATOM     65  C   UNL A   1      43.866  33.002  31.294  1.00  0.00     0.058 A 
ATOM     66  C   UNL A   1      43.651  33.349  32.638  1.00  0.00     0.135 A 
ATOM     67  C   UNL A   1      44.275  34.017  30.415  1.00  0.00     0.135 A 
ATOM     68  F   UNL A   1      43.239  32.423  33.519  1.00  0.00    -0.206 F 
ATOM     69  C   UNL A   1      43.816  34.654  33.088  1.00  0.00     0.059 A 
ATOM     70  C   UNL A   1      44.478  35.324  30.850  1.00  0.00     0.059 A 
ATOM     71  F   UNL A   1      44.491  33.743  29.118  1.00  0.00    -0.206 F 
ATOM     72  C   UNL A   1      44.234  35.635  32.186  1.00  0.00     0.060 A 
BRANCH  72  73
ATOM     73  S   UNL A   1      44.467  37.318  32.794  1.00  0.00     0.124 S 
ATOM     74  O   UNL A   1      44.469  38.080  31.547  1.00  0.00    -0.237 OA
ATOM     75  O   UNL A   1      43.298  37.505  33.647  1.00  0.00    -0.237 OA
ATOM     76  O   UNL A   1      45.748  37.255  33.490  1.00  0.00    -0.744 OA
ENDBRANCH  72  73
ENDBRANCH  51  65
BRANCH  52  77
ATOM     77  C   UNL A   1      42.536  23.737  27.739  1.00  0.00     0.058 A 
ATOM     78  C   UNL A   1      42.425  22.618  28.579  1.00  0.00     0.135 A 
ATOM     79  C   UNL A   1      42.479  23.519  26.354  1.00  0.00     0.135 A 
ATOM     80  F   UNL A   1      42.480  22.771  29.911  1.00  0.00    -0.206 F 
ATOM     81  C   UNL A   1      42.293  21.331  28.067  1.00  0.00     0.059 A 
ATOM     82  C   UNL A   1      42.315  22.245  25.818  1.00  0.00     0.059 A 
ATOM     83  F   UNL A   1      42.562  24.556  25.506  1.00  0.00    -0.206 F 
ATOM     84  C   UNL A   1      42.237  21.155  26.683  1.00  0.00     0.060 A 
BRANCH  84  85
ATOM     85  S   UNL A   1      42.033  19.484  26.031  1.00  0.00     0.124 S 
ATOM     86  O   UNL A   1      40.595  19.434  25.796  1.00  0.00    -0.237 OA
ATOM     87  O   UNL A   1      42.875  19.517  24.838  1.00  0.00    -0.237 OA
ATOM     88  O   UNL A   1      42.527  18.638  27.113  1.00  0.00    -0.744 OA
ENDBRANCH  84  85
ENDBRANCH  52  77
BRANCH  64  89
ATOM     89  C   UNL A   1      47.976  27.131  30.503  1.00  0.00     0.058 A 
ATOM     90  C   UNL A   1      49.016  27.348  29.587  1.00  0.00     0.135 A 
ATOM     91  C   UNL A   1      48.304  26.564  31.746  1.00  0.00     0.135 A 
ATOM     92  F   UNL A   1      48.757  27.880  28.382  1.00  0.00    -0.206 F 
ATOM     93  C   UNL A   1      50.329  26.995  29.882  1.00  0.00     0.059 A 
ATOM     94  C   UNL A   1      49.615  26.236  32.076  1.00  0.00     0.059 A 
ATOM     95  F   UNL A   1      47.349  26.347  32.665  1.00  0.00    -0.206 F 
ATOM     96  C   UNL A   1      50.619  26.443  31.132  1.00  0.00     0.060 A 
BRANCH  96  97
ATOM     97  S   UNL A   1      52.332  26.026  31.515  1.00  0.00     0.124 S 
ATOM     98  O   UNL A   1      52.196  24.667  32.030  1.00  0.00    -0.237 OA
ATOM     99  O   UNL A   1      52.982  26.149  30.214  1.00  0.00    -0.237 OA
ATOM    100  O   UNL A   1      52.717  27.034  32.499  1.00  0.00    -0.744 OA
ENDBRANCH  96  97
ENDBRANCH  64  89
ENDBRANCH  38  39
ENDBRANCH  30  33
ENDBRANCH  28  29
ENDBRANCH  27  28
ENDBRANCH   1  27
TORSDOF 18
ENDMDL
