MODEL 1
REMARK VINA RESULT:     -12.4      0.000      0.000
REMARK SMILES O=C(NCCCCNC(=O)[C@H]1[C@@H]2C[C@H]3C[C@@H](C2)C[C@]1(n1ncc(N2CCN(c4ccc(F)cc4)CC2)c(Cl)c1=O)C3)c1ccc(-c2c3nc(c(-c4c(F)cc(S(=O)(=O)[O-])cc4F)c4ccc([nH]4)c(-c4c(F)cc(S(=O)(=O)[O-])cc4F)c4nc(c(-c5c(F)cc(S(=O)(=O)[O-])cc5F)c5ccc2[nH]5)C=C4)C=C3)cc1
REMARK SMILES IDX 5 1 4 2 3 3 1 4 2 5 42 7 43 8 107 9 44 10 106 11 45 12 46 13
REMARK SMILES IDX 47 14 100 15 48 16 105 17 99 18 101 19 49 20 104 21 98 22
REMARK SMILES IDX 97 23 50 25 84 26 63 27 83 28 64 29 67 30 82 31 102 32 65 33
REMARK SMILES IDX 66 34 81 36 103 37 68 38 51 39 52 40 61 41 53 42 54 43 60 44
REMARK SMILES IDX 62 45 55 46 56 47 57 48 58 49 59 50 85 51 86 52 95 53 87 54
REMARK SMILES IDX 88 55 94 56 96 57 89 58 90 59 91 60 92 61 93 62 69 63 70 64
REMARK SMILES IDX 79 65 71 66 72 67 78 68 80 69 73 70 74 71 75 72 76 73 77 74
REMARK SMILES IDX 6 75 7 76 8 77 9 78 10 80 11 81 12 82 19 83 17 84 13 85
REMARK SMILES IDX 41 86 18 87 16 88 14 89 15 90 20 91 21 92 39 93 22 94 37 95
REMARK SMILES IDX 40 96 23 97 38 98 24 99 25 100 36 101 26 102 35 103 27 104
REMARK SMILES IDX 28 105 29 106 34 107 30 108 33 109 31 110 32 111
REMARK H PARENT 3 6 101 24 67 35 8 79
REMARK Flexibility Score: inf
ROOT
ATOM      1  C   UNL A   1      34.745  31.032  27.837  1.00  0.00     0.023 C 
ENDROOT
BRANCH   1   2
ATOM      2  C   UNL A   1      35.662  31.747  28.837  1.00  0.00     0.116 C 
BRANCH   2   3
ATOM      3  N   UNL A   1      35.588  31.253  30.204  1.00  0.00    -0.352 N 
ATOM      4  O   UNL A   1      36.190  30.184  32.086  1.00  0.00    -0.269 OA
ATOM      5  C   UNL A   1      36.505  30.554  30.957  1.00  0.00     0.251 C 
ATOM      6  H   UNL A   1      34.742  31.452  30.667  1.00  0.00     0.163 HD
BRANCH   5   7
ATOM      7  C   UNL A   1      37.852  30.217  30.433  1.00  0.00     0.039 A 
ATOM      8  C   UNL A   1      38.894  30.010  31.346  1.00  0.00     0.014 A 
ATOM      9  C   UNL A   1      38.121  30.170  29.063  1.00  0.00     0.014 A 
ATOM     10  C   UNL A   1      40.182  29.699  30.889  1.00  0.00     0.010 A 
ATOM     11  C   UNL A   1      39.394  29.808  28.609  1.00  0.00     0.010 A 
ATOM     12  C   UNL A   1      40.442  29.570  29.516  1.00  0.00    -0.014 A 
BRANCH  12  13
ATOM     13  C   UNL A   1      41.805  29.229  29.016  1.00  0.00     0.031 A 
ATOM     14  C   UNL A   1      42.115  27.822  28.566  1.00  0.00     0.074 A 
ATOM     15  C   UNL A   1      42.773  30.169  28.977  1.00  0.00     0.049 A 
ATOM     16  N   UNL A   1      43.254  27.311  28.170  1.00  0.00    -0.248 NA
ATOM     17  C   UNL A   1      40.999  26.861  28.572  1.00  0.00     0.031 C 
ATOM     18  C   UNL A   1      42.611  31.567  29.380  1.00  0.00     0.029 A 
ATOM     19  N   UNL A   1      44.086  30.094  28.579  1.00  0.00    -0.354 N 
ATOM     20  C   UNL A   1      42.993  25.977  27.880  1.00  0.00     0.074 A 
ATOM     21  C   UNL A   1      41.601  25.740  28.196  1.00  0.00     0.031 C 
ATOM     22  C   UNL A   1      43.768  32.220  29.185  1.00  0.00     0.029 A 
ATOM     23  C   UNL A   1      44.771  31.284  28.684  1.00  0.00     0.049 A 
ATOM     24  H   UNL A   1      44.501  29.263  28.249  1.00  0.00     0.167 HD
ATOM     25  C   UNL A   1      43.827  25.040  27.368  1.00  0.00     0.037 A 
ATOM     26  C   UNL A   1      46.058  31.585  28.417  1.00  0.00     0.037 A 
ATOM     27  C   UNL A   1      45.207  25.279  27.029  1.00  0.00     0.049 A 
ATOM     28  C   UNL A   1      46.979  30.507  27.903  1.00  0.00     0.074 A 
ATOM     29  C   UNL A   1      46.126  24.389  26.499  1.00  0.00     0.029 A 
ATOM     30  N   UNL A   1      45.862  26.492  27.169  1.00  0.00    -0.354 N 
ATOM     31  N   UNL A   1      46.709  29.251  27.632  1.00  0.00    -0.248 NA
ATOM     32  C   UNL A   1      48.378  30.885  27.659  1.00  0.00     0.031 C 
ATOM     33  C   UNL A   1      47.347  25.053  26.354  1.00  0.00     0.029 A 
ATOM     34  C   UNL A   1      47.174  26.371  26.744  1.00  0.00     0.049 A 
ATOM     35  H   UNL A   1      45.454  27.317  27.519  1.00  0.00     0.167 HD
ATOM     36  C   UNL A   1      47.893  28.706  27.144  1.00  0.00     0.074 A 
ATOM     37  C   UNL A   1      48.878  29.765  27.152  1.00  0.00     0.031 C 
ATOM     38  C   UNL A   1      48.140  27.440  26.727  1.00  0.00     0.037 A 
BRANCH  25  39
ATOM     39  C   UNL A   1      43.275  23.665  27.107  1.00  0.00     0.058 A 
ATOM     40  C   UNL A   1      42.810  23.297  25.834  1.00  0.00     0.135 A 
ATOM     41  C   UNL A   1      43.316  22.674  28.101  1.00  0.00     0.135 A 
ATOM     42  F   UNL A   1      42.733  24.209  24.854  1.00  0.00    -0.206 F 
ATOM     43  C   UNL A   1      42.405  21.996  25.557  1.00  0.00     0.059 A 
ATOM     44  C   UNL A   1      42.940  21.359  27.839  1.00  0.00     0.059 A 
ATOM     45  F   UNL A   1      43.749  22.973  29.336  1.00  0.00    -0.206 F 
ATOM     46  C   UNL A   1      42.487  21.031  26.562  1.00  0.00     0.060 A 
BRANCH  46  47
ATOM     47  S   UNL A   1      42.015  19.334  26.160  1.00  0.00     0.124 S 
ATOM     48  O   UNL A   1      42.265  18.654  27.427  1.00  0.00    -0.237 OA
ATOM     49  O   UNL A   1      40.613  19.484  25.787  1.00  0.00    -0.237 OA
ATOM     50  O   UNL A   1      42.918  18.979  25.070  1.00  0.00    -0.744 OA
ENDBRANCH  46  47
ENDBRANCH  25  39
BRANCH  26  51
ATOM     51  C   UNL A   1      46.567  32.972  28.611  1.00  0.00     0.058 A 
ATOM     52  C   UNL A   1      46.539  33.905  27.562  1.00  0.00     0.135 A 
ATOM     53  C   UNL A   1      47.126  33.386  29.831  1.00  0.00     0.135 A 
ATOM     54  F   UNL A   1      46.025  33.558  26.371  1.00  0.00    -0.206 F 
ATOM     55  C   UNL A   1      47.072  35.182  27.703  1.00  0.00     0.059 A 
ATOM     56  C   UNL A   1      47.636  34.668  30.007  1.00  0.00     0.059 A 
ATOM     57  F   UNL A   1      47.168  32.540  30.873  1.00  0.00    -0.206 F 
ATOM     58  C   UNL A   1      47.621  35.554  28.931  1.00  0.00     0.060 A 
BRANCH  58  59
ATOM     59  S   UNL A   1      48.300  37.219  29.104  1.00  0.00     0.124 S 
ATOM     60  O   UNL A   1      49.218  37.282  27.973  1.00  0.00    -0.237 OA
ATOM     61  O   UNL A   1      47.104  38.049  29.005  1.00  0.00    -0.237 OA
ATOM     62  O   UNL A   1      48.926  37.189  30.423  1.00  0.00    -0.744 OA
ENDBRANCH  58  59
ENDBRANCH  26  51
BRANCH  38  63
ATOM     63  C   UNL A   1      49.510  27.132  26.185  1.00  0.00     0.058 A 
ATOM     64  C   UNL A   1      50.571  26.754  27.022  1.00  0.00     0.135 A 
ATOM     65  C   UNL A   1      49.742  27.149  24.799  1.00  0.00     0.135 A 
ATOM     66  F   UNL A   1      50.404  26.724  28.353  1.00  0.00    -0.206 F 
ATOM     67  C   UNL A   1      51.821  26.424  26.506  1.00  0.00     0.059 A 
ATOM     68  C   UNL A   1      50.974  26.794  24.260  1.00  0.00     0.059 A 
ATOM     69  F   UNL A   1      48.759  27.490  23.952  1.00  0.00    -0.206 F 
ATOM     70  C   UNL A   1      52.012  26.443  25.123  1.00  0.00     0.060 A 
BRANCH  70  71
ATOM     71  S   UNL A   1      53.629  25.977  24.469  1.00  0.00     0.124 S 
ATOM     72  O   UNL A   1      53.571  24.522  24.551  1.00  0.00    -0.237 OA
ATOM     73  O   UNL A   1      53.592  26.539  23.123  1.00  0.00    -0.237 OA
ATOM     74  O   UNL A   1      54.566  26.620  25.385  1.00  0.00    -0.744 OA
ENDBRANCH  70  71
ENDBRANCH  38  63
ENDBRANCH  12  13
ENDBRANCH   5   7
ENDBRANCH   2   3
ENDBRANCH   1   2
BRANCH   1  75
ATOM     75  C   UNL A   1      34.846  29.506  27.699  1.00  0.00     0.023 C 
BRANCH  75  76
ATOM     76  C   UNL A   1      34.133  28.862  26.513  1.00  0.00     0.116 C 
BRANCH  76  77
ATOM     77  N   UNL A   1      34.449  29.344  25.164  1.00  0.00    -0.356 N 
ATOM     78  C   UNL A   1      33.918  28.846  23.959  1.00  0.00     0.225 C 
ATOM     79  H   UNL A   1      35.094  30.085  25.095  1.00  0.00     0.163 HD
ATOM     80  O   UNL A   1      34.456  29.113  22.894  1.00  0.00    -0.275 OA
BRANCH  78  81
ATOM     81  C   UNL A   1      32.558  28.164  24.099  1.00  0.00     0.109 C 
ATOM     82  C   UNL A   1      31.505  29.314  23.932  1.00  0.00     0.004 C 
ATOM     83  C   UNL A   1      31.999  26.845  23.484  1.00  0.00     0.079 C 
ATOM     84  C   UNL A   1      30.966  29.418  22.490  1.00  0.00     0.008 C 
ATOM     85  C   UNL A   1      30.340  29.003  24.872  1.00  0.00     0.008 C 
ATOM     86  C   UNL A   1      30.771  26.544  24.473  1.00  0.00     0.035 C 
ATOM     87  C   UNL A   1      31.350  27.023  22.085  1.00  0.00     0.035 C 
ATOM     88  C   UNL A   1      30.278  28.113  22.081  1.00  0.00    -0.008 C 
ATOM     89  C   UNL A   1      29.719  27.662  24.480  1.00  0.00    -0.008 C 
ATOM     90  C   UNL A   1      29.150  27.772  23.069  1.00  0.00     0.007 C 
BRANCH  83  91
ATOM     91  N   UNL A   1      32.885  25.622  23.480  1.00  0.00    -0.222 N 
ATOM     92  N   UNL A   1      33.178  25.099  24.726  1.00  0.00    -0.175 NA
ATOM     93  C   UNL A   1      33.173  24.904  22.309  1.00  0.00     0.288 A 
ATOM     94  C   UNL A   1      33.367  23.827  24.812  1.00  0.00     0.161 A 
ATOM     95  C   UNL A   1      33.356  23.419  22.499  1.00  0.00     0.132 A 
ATOM     96  O   UNL A   1      33.142  25.381  21.180  1.00  0.00    -0.266 OA
ATOM     97  C   UNL A   1      33.321  22.841  23.710  1.00  0.00     0.082 A 
ATOM     98  Cl  UNL A   1      33.364  22.451  21.055  1.00  0.00    -0.076 Cl
BRANCH  97  99
ATOM     99  N   UNL A   1      33.287  21.483  24.048  1.00  0.00    -0.365 N 
ATOM    100  C   UNL A   1      32.138  20.608  23.695  1.00  0.00     0.138 C 
ATOM    101  C   UNL A   1      34.179  20.900  25.074  1.00  0.00     0.138 C 
ATOM    102  C   UNL A   1      32.600  19.176  23.309  1.00  0.00     0.138 C 
ATOM    103  C   UNL A   1      34.635  19.476  24.691  1.00  0.00     0.138 C 
ATOM    104  N   UNL A   1      33.467  18.638  24.366  1.00  0.00    -0.368 N 
BRANCH 104 105
ATOM    105  C   UNL A   1      33.442  17.316  24.750  1.00  0.00     0.037 A 
ATOM    106  C   UNL A   1      32.224  16.731  25.136  1.00  0.00     0.029 A 
ATOM    107  C   UNL A   1      34.585  16.506  24.758  1.00  0.00     0.029 A 
ATOM    108  C   UNL A   1      32.142  15.388  25.509  1.00  0.00     0.041 A 
ATOM    109  C   UNL A   1      34.516  15.163  25.150  1.00  0.00     0.041 A 
ATOM    110  C   UNL A   1      33.294  14.616  25.517  1.00  0.00     0.123 A 
ATOM    111  F   UNL A   1      33.224  13.330  25.882  1.00  0.00    -0.207 F 
ENDBRANCH 104 105
ENDBRANCH  97  99
ENDBRANCH  83  91
ENDBRANCH  78  81
ENDBRANCH  76  77
ENDBRANCH  75  76
ENDBRANCH   1  75
TORSDOF 17
ENDMDL
MODEL 2
REMARK VINA RESULT:     -12.3      6.431     15.888
REMARK SMILES O=C(NCCCCNC(=O)[C@H]1[C@@H]2C[C@H]3C[C@@H](C2)C[C@]1(n1ncc(N2CCN(c4ccc(F)cc4)CC2)c(Cl)c1=O)C3)c1ccc(-c2c3nc(c(-c4c(F)cc(S(=O)(=O)[O-])cc4F)c4ccc([nH]4)c(-c4c(F)cc(S(=O)(=O)[O-])cc4F)c4nc(c(-c5c(F)cc(S(=O)(=O)[O-])cc5F)c5ccc2[nH]5)C=C4)C=C3)cc1
REMARK SMILES IDX 5 1 4 2 3 3 1 4 2 5 42 7 43 8 107 9 44 10 106 11 45 12 46 13
REMARK SMILES IDX 47 14 100 15 48 16 105 17 99 18 101 19 49 20 104 21 98 22
REMARK SMILES IDX 97 23 50 25 84 26 63 27 83 28 64 29 67 30 82 31 102 32 65 33
REMARK SMILES IDX 66 34 81 36 103 37 68 38 51 39 52 40 61 41 53 42 54 43 60 44
REMARK SMILES IDX 62 45 55 46 56 47 57 48 58 49 59 50 85 51 86 52 95 53 87 54
REMARK SMILES IDX 88 55 94 56 96 57 89 58 90 59 91 60 92 61 93 62 69 63 70 64
REMARK SMILES IDX 79 65 71 66 72 67 78 68 80 69 73 70 74 71 75 72 76 73 77 74
REMARK SMILES IDX 6 75 7 76 8 77 9 78 10 80 11 81 12 82 19 83 17 84 13 85
REMARK SMILES IDX 41 86 18 87 16 88 14 89 15 90 20 91 21 92 39 93 22 94 37 95
REMARK SMILES IDX 40 96 23 97 38 98 24 99 25 100 36 101 26 102 35 103 27 104
REMARK SMILES IDX 28 105 29 106 34 107 30 108 33 109 31 110 32 111
REMARK H PARENT 3 6 101 24 67 35 8 79
REMARK Flexibility Score: inf
ROOT
ATOM      1  C   UNL A   1      44.991  38.643  31.434  1.00  0.00     0.023 C 
ENDROOT
BRANCH   1   2
ATOM      2  C   UNL A   1      45.417  37.655  30.341  1.00  0.00     0.116 C 
BRANCH   2   3
ATOM      3  N   UNL A   1      46.809  37.754  29.929  1.00  0.00    -0.352 N 
ATOM      4  O   UNL A   1      48.831  37.111  29.190  1.00  0.00    -0.269 OA
ATOM      5  C   UNL A   1      47.661  36.805  29.407  1.00  0.00     0.251 C 
ATOM      6  H   UNL A   1      47.207  38.647  30.040  1.00  0.00     0.163 HD
BRANCH   5   7
ATOM      7  C   UNL A   1      47.208  35.420  29.123  1.00  0.00     0.039 A 
ATOM      8  C   UNL A   1      47.311  34.461  30.138  1.00  0.00     0.014 A 
ATOM      9  C   UNL A   1      46.750  35.037  27.861  1.00  0.00     0.014 A 
ATOM     10  C   UNL A   1      46.902  33.141  29.906  1.00  0.00     0.010 A 
ATOM     11  C   UNL A   1      46.292  33.732  27.646  1.00  0.00     0.010 A 
ATOM     12  C   UNL A   1      46.365  32.767  28.665  1.00  0.00    -0.014 A 
BRANCH  12  13
ATOM     13  C   UNL A   1      45.915  31.367  28.408  1.00  0.00     0.031 A 
ATOM     14  C   UNL A   1      44.495  30.961  28.720  1.00  0.00     0.074 A 
ATOM     15  C   UNL A   1      46.775  30.454  27.910  1.00  0.00     0.049 A 
ATOM     16  N   UNL A   1      43.935  29.781  28.636  1.00  0.00    -0.248 NA
ATOM     17  C   UNL A   1      43.589  32.019  29.198  1.00  0.00     0.031 C 
ATOM     18  C   UNL A   1      48.174  30.712  27.563  1.00  0.00     0.029 A 
ATOM     19  N   UNL A   1      46.602  29.124  27.609  1.00  0.00    -0.354 N 
ATOM     20  C   UNL A   1      42.617  29.953  29.047  1.00  0.00     0.074 A 
ATOM     21  C   UNL A   1      42.474  31.340  29.432  1.00  0.00     0.031 C 
ATOM     22  C   UNL A   1      48.721  29.587  27.074  1.00  0.00     0.029 A 
ATOM     23  C   UNL A   1      47.731  28.514  27.110  1.00  0.00     0.049 A 
ATOM     24  H   UNL A   1      45.748  28.651  27.738  1.00  0.00     0.167 HD
ATOM     25  C   UNL A   1      41.610  29.048  29.073  1.00  0.00     0.037 A 
ATOM     26  C   UNL A   1      47.948  27.237  26.735  1.00  0.00     0.037 A 
ATOM     27  C   UNL A   1      41.743  27.672  28.667  1.00  0.00     0.049 A 
ATOM     28  C   UNL A   1      46.823  26.237  26.831  1.00  0.00     0.074 A 
ATOM     29  C   UNL A   1      40.773  26.684  28.654  1.00  0.00     0.029 A 
ATOM     30  N   UNL A   1      42.908  27.093  28.188  1.00  0.00    -0.354 N 
ATOM     31  N   UNL A   1      45.583  26.423  27.219  1.00  0.00    -0.248 NA
ATOM     32  C   UNL A   1      47.124  24.853  26.437  1.00  0.00     0.031 C 
ATOM     33  C   UNL A   1      41.360  25.498  28.204  1.00  0.00     0.029 A 
ATOM     34  C   UNL A   1      42.682  25.762  27.885  1.00  0.00     0.049 A 
ATOM     35  H   UNL A   1      43.767  27.560  28.079  1.00  0.00     0.167 HD
ATOM     36  C   UNL A   1      44.950  25.193  27.073  1.00  0.00     0.074 A 
ATOM     37  C   UNL A   1      45.939  24.271  26.557  1.00  0.00     0.031 C 
ATOM     38  C   UNL A   1      43.664  24.858  27.343  1.00  0.00     0.037 A 
BRANCH  25  39
ATOM     39  C   UNL A   1      40.252  29.510  29.529  1.00  0.00     0.058 A 
ATOM     40  C   UNL A   1      39.970  29.705  30.890  1.00  0.00     0.135 A 
ATOM     41  C   UNL A   1      39.265  29.868  28.597  1.00  0.00     0.135 A 
ATOM     42  F   UNL A   1      40.871  29.362  31.823  1.00  0.00    -0.206 F 
ATOM     43  C   UNL A   1      38.757  30.239  31.311  1.00  0.00     0.059 A 
ATOM     44  C   UNL A   1      38.054  30.429  28.994  1.00  0.00     0.059 A 
ATOM     45  F   UNL A   1      39.482  29.699  27.283  1.00  0.00    -0.206 F 
ATOM     46  C   UNL A   1      37.811  30.611  30.355  1.00  0.00     0.060 A 
BRANCH  46  47
ATOM     47  S   UNL A   1      36.269  31.361  30.922  1.00  0.00     0.124 S 
ATOM     48  O   UNL A   1      35.429  31.236  29.735  1.00  0.00    -0.237 OA
ATOM     49  O   UNL A   1      35.906  30.507  32.048  1.00  0.00    -0.237 OA
ATOM     50  O   UNL A   1      36.661  32.723  31.271  1.00  0.00    -0.744 OA
ENDBRANCH  46  47
ENDBRANCH  25  39
BRANCH  26  51
ATOM     51  C   UNL A   1      49.280  26.815  26.215  1.00  0.00     0.058 A 
ATOM     52  C   UNL A   1      50.212  26.178  27.051  1.00  0.00     0.135 A 
ATOM     53  C   UNL A   1      49.665  27.070  24.889  1.00  0.00     0.135 A 
ATOM     54  F   UNL A   1      49.898  25.920  28.330  1.00  0.00    -0.206 F 
ATOM     55  C   UNL A   1      51.484  25.839  26.602  1.00  0.00     0.059 A 
ATOM     56  C   UNL A   1      50.921  26.712  24.409  1.00  0.00     0.059 A 
ATOM     57  F   UNL A   1      48.810  27.665  24.043  1.00  0.00    -0.206 F 
ATOM     58  C   UNL A   1      51.830  26.112  25.278  1.00  0.00     0.060 A 
BRANCH  58  59
ATOM     59  S   UNL A   1      53.482  25.658  24.706  1.00  0.00     0.124 S 
ATOM     60  O   UNL A   1      54.315  26.628  25.408  1.00  0.00    -0.237 OA
ATOM     61  O   UNL A   1      53.592  24.274  25.158  1.00  0.00    -0.237 OA
ATOM     62  O   UNL A   1      53.394  25.831  23.259  1.00  0.00    -0.744 OA
ENDBRANCH  58  59
ENDBRANCH  26  51
BRANCH  38  63
ATOM     63  C   UNL A   1      43.223  23.453  27.033  1.00  0.00     0.058 A 
ATOM     64  C   UNL A   1      42.971  23.027  25.720  1.00  0.00     0.135 A 
ATOM     65  C   UNL A   1      43.120  22.501  28.062  1.00  0.00     0.135 A 
ATOM     66  F   UNL A   1      43.053  23.896  24.700  1.00  0.00    -0.206 F 
ATOM     67  C   UNL A   1      42.611  21.713  25.439  1.00  0.00     0.059 A 
ATOM     68  C   UNL A   1      42.791  21.175  27.801  1.00  0.00     0.059 A 
ATOM     69  F   UNL A   1      43.363  22.851  29.334  1.00  0.00    -0.206 F 
ATOM     70  C   UNL A   1      42.528  20.792  26.486  1.00  0.00     0.060 A 
BRANCH  70  71
ATOM     71  S   UNL A   1      42.094  19.083  26.099  1.00  0.00     0.124 S 
ATOM     72  O   UNL A   1      40.655  19.186  25.881  1.00  0.00    -0.237 OA
ATOM     73  O   UNL A   1      42.899  18.821  24.910  1.00  0.00    -0.237 OA
ATOM     74  O   UNL A   1      42.496  18.350  27.296  1.00  0.00    -0.744 OA
ENDBRANCH  70  71
ENDBRANCH  38  63
ENDBRANCH  12  13
ENDBRANCH   5   7
ENDBRANCH   2   3
ENDBRANCH   1   2
BRANCH   1  75
ATOM     75  C   UNL A   1      44.563  38.095  32.802  1.00  0.00     0.023 C 
BRANCH  75  76
ATOM     76  C   UNL A   1      44.513  39.081  33.967  1.00  0.00     0.116 C 
BRANCH  76  77
ATOM     77  N   UNL A   1      45.701  39.897  34.242  1.00  0.00    -0.356 N 
ATOM     78  C   UNL A   1      45.949  41.194  33.752  1.00  0.00     0.225 C 
ATOM     79  H   UNL A   1      46.389  39.499  34.823  1.00  0.00     0.163 HD
ATOM     80  O   UNL A   1      47.077  41.662  33.799  1.00  0.00    -0.275 OA
BRANCH  78  81
ATOM     81  C   UNL A   1      44.695  41.984  33.385  1.00  0.00     0.109 C 
ATOM     82  C   UNL A   1      44.397  42.884  34.633  1.00  0.00     0.004 C 
ATOM     83  C   UNL A   1      44.300  42.744  32.082  1.00  0.00     0.079 C 
ATOM     84  C   UNL A   1      44.971  44.310  34.485  1.00  0.00     0.008 C 
ATOM     85  C   UNL A   1      42.878  42.978  34.777  1.00  0.00     0.008 C 
ATOM     86  C   UNL A   1      42.708  42.845  32.257  1.00  0.00     0.035 C 
ATOM     87  C   UNL A   1      44.790  44.216  32.034  1.00  0.00     0.035 C 
ATOM     88  C   UNL A   1      44.358  45.009  33.269  1.00  0.00    -0.008 C 
ATOM     89  C   UNL A   1      42.291  43.617  33.517  1.00  0.00    -0.008 C 
ATOM     90  C   UNL A   1      42.826  45.040  33.387  1.00  0.00     0.007 C 
BRANCH  83  91
ATOM     91  N   UNL A   1      44.566  42.078  30.753  1.00  0.00    -0.222 N 
ATOM     92  N   UNL A   1      43.449  41.579  30.107  1.00  0.00    -0.175 NA
ATOM     93  C   UNL A   1      45.797  42.187  30.087  1.00  0.00     0.288 A 
ATOM     94  C   UNL A   1      43.458  41.568  28.818  1.00  0.00     0.161 A 
ATOM     95  C   UNL A   1      45.711  42.189  28.581  1.00  0.00     0.132 A 
ATOM     96  O   UNL A   1      46.865  42.414  30.644  1.00  0.00    -0.266 OA
ATOM     97  C   UNL A   1      44.550  42.022  27.929  1.00  0.00     0.082 A 
ATOM     98  Cl  UNL A   1      47.147  42.669  27.728  1.00  0.00    -0.076 Cl
BRANCH  97  99
ATOM     99  N   UNL A   1      44.263  42.177  26.568  1.00  0.00    -0.365 N 
ATOM    100  C   UNL A   1      43.600  41.110  25.772  1.00  0.00     0.138 C 
ATOM    101  C   UNL A   1      44.904  43.221  25.738  1.00  0.00     0.138 C 
ATOM    102  C   UNL A   1      42.614  41.700  24.726  1.00  0.00     0.138 C 
ATOM    103  C   UNL A   1      43.924  43.803  24.697  1.00  0.00     0.138 C 
ATOM    104  N   UNL A   1      43.303  42.716  23.920  1.00  0.00    -0.368 N 
BRANCH 104 105
ATOM    105  C   UNL A   1      43.073  42.881  22.572  1.00  0.00     0.037 A 
ATOM    106  C   UNL A   1      44.162  43.054  21.701  1.00  0.00     0.029 A 
ATOM    107  C   UNL A   1      41.788  42.865  22.014  1.00  0.00     0.029 A 
ATOM    108  C   UNL A   1      43.982  43.200  20.324  1.00  0.00     0.041 A 
ATOM    109  C   UNL A   1      41.596  43.030  20.636  1.00  0.00     0.041 A 
ATOM    110  C   UNL A   1      42.696  43.191  19.804  1.00  0.00     0.123 A 
ATOM    111  F   UNL A   1      42.516  43.339  18.486  1.00  0.00    -0.207 F 
ENDBRANCH 104 105
ENDBRANCH  97  99
ENDBRANCH  83  91
ENDBRANCH  78  81
ENDBRANCH  76  77
ENDBRANCH  75  76
ENDBRANCH   1  75
TORSDOF 17
ENDMDL
MODEL 3
REMARK VINA RESULT:     -12.3      5.550      8.188
REMARK SMILES O=C(NCCCCNC(=O)[C@H]1[C@@H]2C[C@H]3C[C@@H](C2)C[C@]1(n1ncc(N2CCN(c4ccc(F)cc4)CC2)c(Cl)c1=O)C3)c1ccc(-c2c3nc(c(-c4c(F)cc(S(=O)(=O)[O-])cc4F)c4ccc([nH]4)c(-c4c(F)cc(S(=O)(=O)[O-])cc4F)c4nc(c(-c5c(F)cc(S(=O)(=O)[O-])cc5F)c5ccc2[nH]5)C=C4)C=C3)cc1
REMARK SMILES IDX 5 1 4 2 3 3 1 4 2 5 42 7 43 8 107 9 44 10 106 11 45 12 46 13
REMARK SMILES IDX 47 14 100 15 48 16 105 17 99 18 101 19 49 20 104 21 98 22
REMARK SMILES IDX 97 23 50 25 84 26 63 27 83 28 64 29 67 30 82 31 102 32 65 33
REMARK SMILES IDX 66 34 81 36 103 37 68 38 51 39 52 40 61 41 53 42 54 43 60 44
REMARK SMILES IDX 62 45 55 46 56 47 57 48 58 49 59 50 85 51 86 52 95 53 87 54
REMARK SMILES IDX 88 55 94 56 96 57 89 58 90 59 91 60 92 61 93 62 69 63 70 64
REMARK SMILES IDX 79 65 71 66 72 67 78 68 80 69 73 70 74 71 75 72 76 73 77 74
REMARK SMILES IDX 6 75 7 76 8 77 9 78 10 80 11 81 12 82 19 83 17 84 13 85
REMARK SMILES IDX 41 86 18 87 16 88 14 89 15 90 20 91 21 92 39 93 22 94 37 95
REMARK SMILES IDX 40 96 23 97 38 98 24 99 25 100 36 101 26 102 35 103 27 104
REMARK SMILES IDX 28 105 29 106 34 107 30 108 33 109 31 110 32 111
REMARK H PARENT 3 6 101 24 67 35 8 79
REMARK Flexibility Score: inf
ROOT
ATOM      1  C   UNL A   1      32.442  30.812  26.866  1.00  0.00     0.023 C 
ENDROOT
BRANCH   1   2
ATOM      2  C   UNL A   1      33.512  31.827  27.288  1.00  0.00     0.116 C 
BRANCH   2   3
ATOM      3  N   UNL A   1      32.997  33.067  27.848  1.00  0.00    -0.352 N 
ATOM      4  O   UNL A   1      32.821  34.840  29.217  1.00  0.00    -0.269 OA
ATOM      5  C   UNL A   1      33.470  33.855  28.875  1.00  0.00     0.251 C 
ATOM      6  H   UNL A   1      32.173  33.400  27.421  1.00  0.00     0.163 HD
BRANCH   5   7
ATOM      7  C   UNL A   1      34.729  33.530  29.591  1.00  0.00     0.039 A 
ATOM      8  C   UNL A   1      35.915  34.149  29.176  1.00  0.00     0.014 A 
ATOM      9  C   UNL A   1      34.772  32.579  30.614  1.00  0.00     0.014 A 
ATOM     10  C   UNL A   1      37.124  33.861  29.821  1.00  0.00     0.010 A 
ATOM     11  C   UNL A   1      35.972  32.332  31.292  1.00  0.00     0.010 A 
ATOM     12  C   UNL A   1      37.163  32.968  30.903  1.00  0.00    -0.014 A 
BRANCH  12  13
ATOM     13  C   UNL A   1      38.443  32.661  31.606  1.00  0.00     0.031 A 
ATOM     14  C   UNL A   1      39.448  31.730  30.974  1.00  0.00     0.074 A 
ATOM     15  C   UNL A   1      38.703  33.201  32.815  1.00  0.00     0.049 A 
ATOM     16  N   UNL A   1      40.581  31.283  31.457  1.00  0.00    -0.248 NA
ATOM     17  C   UNL A   1      39.135  31.227  29.626  1.00  0.00     0.031 C 
ATOM     18  C   UNL A   1      37.821  34.117  33.540  1.00  0.00     0.029 A 
ATOM     19  N   UNL A   1      39.785  33.059  33.651  1.00  0.00    -0.354 N 
ATOM     20  C   UNL A   1      41.112  30.452  30.476  1.00  0.00     0.074 A 
ATOM     21  C   UNL A   1      40.155  30.413  29.393  1.00  0.00     0.031 C 
ATOM     22  C   UNL A   1      38.407  34.474  34.695  1.00  0.00     0.029 A 
ATOM     23  C   UNL A   1      39.687  33.781  34.819  1.00  0.00     0.049 A 
ATOM     24  H   UNL A   1      40.561  32.492  33.435  1.00  0.00     0.167 HD
ATOM     25  C   UNL A   1      42.303  29.806  30.465  1.00  0.00     0.037 A 
ATOM     26  C   UNL A   1      40.525  33.869  35.873  1.00  0.00     0.037 A 
ATOM     27  C   UNL A   1      43.269  29.863  31.532  1.00  0.00     0.049 A 
ATOM     28  C   UNL A   1      41.817  33.091  35.857  1.00  0.00     0.074 A 
ATOM     29  C   UNL A   1      44.505  29.244  31.603  1.00  0.00     0.029 A 
ATOM     30  N   UNL A   1      43.120  30.590  32.702  1.00  0.00    -0.354 N 
ATOM     31  N   UNL A   1      42.301  32.314  34.917  1.00  0.00    -0.248 NA
ATOM     32  C   UNL A   1      42.677  33.201  37.045  1.00  0.00     0.031 C 
ATOM     33  C   UNL A   1      45.087  29.565  32.832  1.00  0.00     0.029 A 
ATOM     34  C   UNL A   1      44.237  30.428  33.503  1.00  0.00     0.049 A 
ATOM     35  H   UNL A   1      42.335  31.141  32.929  1.00  0.00     0.167 HD
ATOM     36  C   UNL A   1      43.539  31.881  35.382  1.00  0.00     0.074 A 
ATOM     37  C   UNL A   1      43.733  32.484  36.683  1.00  0.00     0.031 C 
ATOM     38  C   UNL A   1      44.435  31.057  34.785  1.00  0.00     0.037 A 
BRANCH  25  39
ATOM     39  C   UNL A   1      42.657  28.994  29.249  1.00  0.00     0.058 A 
ATOM     40  C   UNL A   1      42.199  27.676  29.095  1.00  0.00     0.135 A 
ATOM     41  C   UNL A   1      43.362  29.571  28.180  1.00  0.00     0.135 A 
ATOM     42  F   UNL A   1      41.537  27.070  30.092  1.00  0.00    -0.206 F 
ATOM     43  C   UNL A   1      42.427  26.959  27.925  1.00  0.00     0.059 A 
ATOM     44  C   UNL A   1      43.579  28.882  26.990  1.00  0.00     0.059 A 
ATOM     45  F   UNL A   1      43.826  30.828  28.276  1.00  0.00    -0.206 F 
ATOM     46  C   UNL A   1      43.106  27.576  26.873  1.00  0.00     0.060 A 
BRANCH  46  47
ATOM     47  S   UNL A   1      43.334  26.648  25.340  1.00  0.00     0.124 S 
ATOM     48  O   UNL A   1      44.789  26.550  25.272  1.00  0.00    -0.237 OA
ATOM     49  O   UNL A   1      42.628  25.403  25.626  1.00  0.00    -0.237 OA
ATOM     50  O   UNL A   1      42.716  27.501  24.330  1.00  0.00    -0.744 OA
ENDBRANCH  46  47
ENDBRANCH  25  39
BRANCH  26  51
ATOM     51  C   UNL A   1      40.190  34.738  37.037  1.00  0.00     0.058 A 
ATOM     52  C   UNL A   1      40.748  36.020  37.163  1.00  0.00     0.135 A 
ATOM     53  C   UNL A   1      39.339  34.296  38.063  1.00  0.00     0.135 A 
ATOM     54  F   UNL A   1      41.576  36.488  36.216  1.00  0.00    -0.206 F 
ATOM     55  C   UNL A   1      40.501  36.819  38.276  1.00  0.00     0.059 A 
ATOM     56  C   UNL A   1      39.053  35.088  39.170  1.00  0.00     0.059 A 
ATOM     57  F   UNL A   1      38.768  33.084  37.987  1.00  0.00    -0.206 F 
ATOM     58  C   UNL A   1      39.653  36.342  39.276  1.00  0.00     0.060 A 
BRANCH  58  59
ATOM     59  S   UNL A   1      39.333  37.392  40.711  1.00  0.00     0.124 S 
ATOM     60  O   UNL A   1      40.629  38.033  40.902  1.00  0.00    -0.237 OA
ATOM     61  O   UNL A   1      38.258  38.253  40.225  1.00  0.00    -0.237 OA
ATOM     62  O   UNL A   1      38.943  36.437  41.744  1.00  0.00    -0.744 OA
ENDBRANCH  58  59
ENDBRANCH  26  51
BRANCH  38  63
ATOM     63  C   UNL A   1      45.736  30.799  35.494  1.00  0.00     0.058 A 
ATOM     64  C   UNL A   1      45.889  29.743  36.405  1.00  0.00     0.135 A 
ATOM     65  C   UNL A   1      46.868  31.581  35.202  1.00  0.00     0.135 A 
ATOM     66  F   UNL A   1      44.840  28.967  36.721  1.00  0.00    -0.206 F 
ATOM     67  C   UNL A   1      47.111  29.483  37.018  1.00  0.00     0.059 A 
ATOM     68  C   UNL A   1      48.105  31.321  35.781  1.00  0.00     0.059 A 
ATOM     69  F   UNL A   1      46.781  32.596  34.328  1.00  0.00    -0.206 F 
ATOM     70  C   UNL A   1      48.214  30.275  36.696  1.00  0.00     0.060 A 
BRANCH  70  71
ATOM     71  S   UNL A   1      49.800  29.902  37.475  1.00  0.00     0.124 S 
ATOM     72  O   UNL A   1      50.136  28.622  36.859  1.00  0.00    -0.237 OA
ATOM     73  O   UNL A   1      50.621  31.038  37.066  1.00  0.00    -0.237 OA
ATOM     74  O   UNL A   1      49.478  29.847  38.898  1.00  0.00    -0.744 OA
ENDBRANCH  70  71
ENDBRANCH  38  63
ENDBRANCH  12  13
ENDBRANCH   5   7
ENDBRANCH   2   3
ENDBRANCH   1   2
BRANCH   1  75
ATOM     75  C   UNL A   1      32.532  29.375  27.399  1.00  0.00     0.023 C 
BRANCH  75  76
ATOM     76  C   UNL A   1      33.724  28.535  26.948  1.00  0.00     0.116 C 
BRANCH  76  77
ATOM     77  N   UNL A   1      34.319  28.817  25.636  1.00  0.00    -0.356 N 
ATOM     78  C   UNL A   1      33.942  28.233  24.412  1.00  0.00     0.225 C 
ATOM     79  H   UNL A   1      35.051  29.475  25.611  1.00  0.00     0.163 HD
ATOM     80  O   UNL A   1      34.681  28.315  23.440  1.00  0.00    -0.275 OA
BRANCH  78  81
ATOM     81  C   UNL A   1      32.507  27.715  24.370  1.00  0.00     0.109 C 
ATOM     82  C   UNL A   1      31.641  28.942  23.919  1.00  0.00     0.004 C 
ATOM     83  C   UNL A   1      31.902  26.401  23.789  1.00  0.00     0.079 C 
ATOM     84  C   UNL A   1      31.363  28.943  22.400  1.00  0.00     0.008 C 
ATOM     85  C   UNL A   1      30.308  28.858  24.663  1.00  0.00     0.008 C 
ATOM     86  C   UNL A   1      30.501  26.338  24.569  1.00  0.00     0.035 C 
ATOM     87  C   UNL A   1      31.518  26.491  22.287  1.00  0.00     0.035 C 
ATOM     88  C   UNL A   1      30.600  27.679  21.996  1.00  0.00    -0.008 C 
ATOM     89  C   UNL A   1      29.603  27.553  24.290  1.00  0.00    -0.008 C 
ATOM     90  C   UNL A   1      29.292  27.566  22.797  1.00  0.00     0.007 C 
BRANCH  83  91
ATOM     91  N   UNL A   1      32.622  25.100  24.050  1.00  0.00    -0.222 N 
ATOM     92  N   UNL A   1      33.488  24.693  23.052  1.00  0.00    -0.175 NA
ATOM     93  C   UNL A   1      32.630  24.482  25.310  1.00  0.00     0.288 A 
ATOM     94  C   UNL A   1      34.527  24.014  23.401  1.00  0.00     0.161 A 
ATOM     95  C   UNL A   1      33.893  23.729  25.645  1.00  0.00     0.132 A 
ATOM     96  O   UNL A   1      31.762  24.639  26.162  1.00  0.00    -0.266 OA
ATOM     97  C   UNL A   1      34.903  23.597  24.770  1.00  0.00     0.082 A 
ATOM     98  Cl  UNL A   1      34.090  23.251  27.304  1.00  0.00    -0.076 Cl
BRANCH  97  99
ATOM     99  N   UNL A   1      36.196  23.102  24.971  1.00  0.00    -0.365 N 
ATOM    100  C   UNL A   1      37.288  23.944  25.529  1.00  0.00     0.138 C 
ATOM    101  C   UNL A   1      36.679  21.862  24.325  1.00  0.00     0.138 C 
ATOM    102  C   UNL A   1      38.221  23.131  26.468  1.00  0.00     0.138 C 
ATOM    103  C   UNL A   1      37.608  21.058  25.257  1.00  0.00     0.138 C 
ATOM    104  N   UNL A   1      38.684  21.922  25.774  1.00  0.00    -0.368 N 
BRANCH 104 105
ATOM    105  C   UNL A   1      39.958  21.420  25.919  1.00  0.00     0.037 A 
ATOM    106  C   UNL A   1      40.153  20.029  25.961  1.00  0.00     0.029 A 
ATOM    107  C   UNL A   1      41.090  22.239  26.010  1.00  0.00     0.029 A 
ATOM    108  C   UNL A   1      41.427  19.471  26.083  1.00  0.00     0.041 A 
ATOM    109  C   UNL A   1      42.371  21.689  26.151  1.00  0.00     0.041 A 
ATOM    110  C   UNL A   1      42.526  20.310  26.182  1.00  0.00     0.123 A 
ATOM    111  F   UNL A   1      43.751  19.781  26.307  1.00  0.00    -0.207 F 
ENDBRANCH 104 105
ENDBRANCH  97  99
ENDBRANCH  83  91
ENDBRANCH  78  81
ENDBRANCH  76  77
ENDBRANCH  75  76
ENDBRANCH   1  75
TORSDOF 17
ENDMDL
