MODEL 1
REMARK VINA RESULT:     -11.6      0.000      0.000
REMARK SMILES C[C@H]1CC[C@H](CNC(=O)NCc2ccc(C(=O)NCCCCNC(=O)c3ccc(-c4c5nc(c(-c6c(F)cc(S(=O)(=O)[O-])cc6F)c6ccc([nH]6)c(-c6c(F)cc(S(=O)(=O)[O-])cc6F)c6nc(c(-c7c(F)cc(S(=O)(=O)[O-])cc7F)c7ccc4[nH]7)C=C6)C=C5)cc3)o2)CC1
REMARK SMILES IDX 20 1 19 2 18 3 16 4 17 5 15 7 12 8 13 9 92 10 14 11 11 12
REMARK SMILES IDX 10 13 7 14 8 15 9 17 6 19 5 20 1 21 2 22 94 23 3 24 93 25
REMARK SMILES IDX 4 26 21 27 22 28 23 29 24 30 25 32 26 33 27 34 91 35 28 36
REMARK SMILES IDX 90 37 29 38 30 39 31 40 84 41 32 42 89 43 83 44 85 45 33 46
REMARK SMILES IDX 88 47 82 48 81 49 34 51 68 52 47 53 67 54 48 55 51 56 66 57
REMARK SMILES IDX 86 58 49 59 50 60 65 62 87 63 52 64 35 65 36 66 45 67 37 68
REMARK SMILES IDX 38 69 44 70 46 71 39 72 40 73 41 74 42 75 43 76 69 77 70 78
REMARK SMILES IDX 79 79 71 80 72 81 78 82 80 83 73 84 74 85 75 86 76 87 77 88
REMARK SMILES IDX 53 89 54 90 63 91 55 92 56 93 62 94 64 95 57 96 58 97 59 98
REMARK SMILES IDX 60 99 61 100
REMARK H PARENT 18 6 7 16 10 18 23 31 85 50 51 61
REMARK Flexibility Score: inf
ROOT
ATOM      1  C   UNL A   1      32.674  29.175  24.945  1.00  0.00     0.023 C 
ENDROOT
BRANCH   1   2
ATOM      2  C   UNL A   1      31.303  29.838  24.833  1.00  0.00     0.116 C 
BRANCH   2   3
ATOM      3  N   UNL A   1      30.879  29.950  23.453  1.00  0.00    -0.349 N 
ATOM      4  C   UNL A   1      30.053  29.149  22.698  1.00  0.00     0.286 C 
ATOM      5  O   UNL A   1      29.767  29.584  21.574  1.00  0.00    -0.266 OA
ATOM      6  H   UNL A   1      31.242  30.730  22.975  1.00  0.00     0.163 HD
BRANCH   4   7
ATOM      7  C   UNL A   1      29.546  27.885  23.203  1.00  0.00     0.191 A 
ATOM      8  C   UNL A   1      29.808  25.778  23.862  1.00  0.00     0.124 A 
ATOM      9  C   UNL A   1      28.470  26.069  24.008  1.00  0.00     0.048 A 
ATOM     10  O   UNL A   1      30.458  26.869  23.366  1.00  0.00    -0.454 OA
ATOM     11  C   UNL A   1      28.308  27.421  23.617  1.00  0.00     0.056 A 
BRANCH   8  12
ATOM     12  C   UNL A   1      30.598  24.543  24.124  1.00  0.00     0.193 C 
BRANCH  12  13
ATOM     13  N   UNL A   1      30.188  23.892  25.344  1.00  0.00    -0.331 N 
ATOM     14  N   UNL A   1      32.174  23.171  26.393  1.00  0.00    -0.338 N 
ATOM     15  C   UNL A   1      30.857  23.415  26.397  1.00  0.00     0.315 C 
ATOM     16  H   UNL A   1      32.556  23.071  27.294  1.00  0.00     0.165 HD
ATOM     17  O   UNL A   1      30.236  23.197  27.440  1.00  0.00    -0.249 OA
ATOM     18  H   UNL A   1      29.213  23.774  25.416  1.00  0.00     0.165 HD
BRANCH  14  19
ATOM     19  C   UNL A   1      33.152  23.021  25.331  1.00  0.00     0.121 C 
BRANCH  19  20
ATOM     20  C   UNL A   1      34.565  22.808  25.902  1.00  0.00     0.008 C 
ATOM     21  C   UNL A   1      38.944  22.456  25.981  1.00  0.00     0.007 C 
ATOM     22  C   UNL A   1      37.512  22.657  25.489  1.00  0.00    -0.014 C 
ATOM     23  C   UNL A   1      36.859  23.861  26.176  1.00  0.00     0.003 C 
ATOM     24  C   UNL A   1      36.677  21.393  25.720  1.00  0.00     0.003 C 
ATOM     25  C   UNL A   1      35.422  24.065  25.697  1.00  0.00     0.006 C 
ATOM     26  C   UNL A   1      35.234  21.582  25.254  1.00  0.00     0.006 C 
ENDBRANCH  19  20
ENDBRANCH  14  19
ENDBRANCH  12  13
ENDBRANCH   8  12
ENDBRANCH   4   7
ENDBRANCH   2   3
ENDBRANCH   1   2
BRANCH   1  27
ATOM     27  C   UNL A   1      32.763  28.092  26.026  1.00  0.00     0.023 C 
BRANCH  27  28
ATOM     28  C   UNL A   1      33.592  28.460  27.256  1.00  0.00     0.116 C 
BRANCH  28  29
ATOM     29  N   UNL A   1      33.511  29.869  27.609  1.00  0.00    -0.352 N 
ATOM     30  C   UNL A   1      34.480  30.669  28.169  1.00  0.00     0.251 C 
ATOM     31  H   UNL A   1      32.650  30.308  27.423  1.00  0.00     0.163 HD
ATOM     32  O   UNL A   1      34.210  31.819  28.504  1.00  0.00    -0.269 OA
BRANCH  30  33
ATOM     33  C   UNL A   1      35.833  30.119  28.398  1.00  0.00     0.039 A 
ATOM     34  C   UNL A   1      36.766  30.166  27.360  1.00  0.00     0.014 A 
ATOM     35  C   UNL A   1      36.188  29.597  29.645  1.00  0.00     0.014 A 
ATOM     36  C   UNL A   1      38.080  29.756  27.597  1.00  0.00     0.010 A 
ATOM     37  C   UNL A   1      37.515  29.257  29.897  1.00  0.00     0.010 A 
ATOM     38  C   UNL A   1      38.475  29.338  28.877  1.00  0.00    -0.014 A 
BRANCH  38  39
ATOM     39  C   UNL A   1      39.890  28.993  29.173  1.00  0.00     0.031 A 
ATOM     40  C   UNL A   1      40.809  30.021  29.776  1.00  0.00     0.074 A 
ATOM     41  C   UNL A   1      40.362  27.776  28.836  1.00  0.00     0.049 A 
ATOM     42  N   UNL A   1      42.088  29.931  30.037  1.00  0.00    -0.248 NA
ATOM     43  C   UNL A   1      40.221  31.331  30.101  1.00  0.00     0.031 C 
ATOM     44  C   UNL A   1      39.584  26.713  28.194  1.00  0.00     0.029 A 
ATOM     45  N   UNL A   1      41.616  27.230  28.970  1.00  0.00    -0.354 N 
ATOM     46  C   UNL A   1      42.460  31.172  30.542  1.00  0.00     0.074 A 
ATOM     47  C   UNL A   1      41.284  32.014  30.502  1.00  0.00     0.031 C 
ATOM     48  C   UNL A   1      40.371  25.640  28.010  1.00  0.00     0.029 A 
ATOM     49  C   UNL A   1      41.716  25.949  28.480  1.00  0.00     0.049 A 
ATOM     50  H   UNL A   1      42.371  27.712  29.377  1.00  0.00     0.167 HD
ATOM     51  C   UNL A   1      43.665  31.566  31.017  1.00  0.00     0.037 A 
ATOM     52  C   UNL A   1      42.777  25.119  28.407  1.00  0.00     0.037 A 
ATOM     53  C   UNL A   1      44.824  30.712  31.081  1.00  0.00     0.049 A 
ATOM     54  C   UNL A   1      44.104  25.580  28.948  1.00  0.00     0.074 A 
ATOM     55  C   UNL A   1      46.071  30.997  31.608  1.00  0.00     0.029 A 
ATOM     56  N   UNL A   1      44.878  29.411  30.603  1.00  0.00    -0.354 N 
ATOM     57  N   UNL A   1      44.418  26.732  29.491  1.00  0.00    -0.248 NA
ATOM     58  C   UNL A   1      45.221  24.627  28.875  1.00  0.00     0.031 C 
ATOM     59  C   UNL A   1      46.895  29.885  31.406  1.00  0.00     0.029 A 
ATOM     60  C   UNL A   1      46.145  28.888  30.804  1.00  0.00     0.049 A 
ATOM     61  H   UNL A   1      44.128  28.930  30.186  1.00  0.00     0.167 HD
ATOM     62  C   UNL A   1      45.759  26.631  29.850  1.00  0.00     0.074 A 
ATOM     63  C   UNL A   1      46.191  25.301  29.475  1.00  0.00     0.031 C 
ATOM     64  C   UNL A   1      46.558  27.556  30.436  1.00  0.00     0.037 A 
BRANCH  51  65
ATOM     65  C   UNL A   1      43.798  32.980  31.514  1.00  0.00     0.058 A 
ATOM     66  C   UNL A   1      44.268  34.011  30.688  1.00  0.00     0.135 A 
ATOM     67  C   UNL A   1      43.392  33.318  32.816  1.00  0.00     0.135 A 
ATOM     68  F   UNL A   1      44.685  33.741  29.439  1.00  0.00    -0.206 F 
ATOM     69  C   UNL A   1      44.351  35.324  31.137  1.00  0.00     0.059 A 
ATOM     70  C   UNL A   1      43.438  34.630  33.278  1.00  0.00     0.059 A 
ATOM     71  F   UNL A   1      42.935  32.371  33.650  1.00  0.00    -0.206 F 
ATOM     72  C   UNL A   1      43.930  35.625  32.433  1.00  0.00     0.060 A 
BRANCH  72  73
ATOM     73  S   UNL A   1      44.020  37.339  32.991  1.00  0.00     0.124 S 
ATOM     74  O   UNL A   1      43.726  38.062  31.757  1.00  0.00    -0.237 OA
ATOM     75  O   UNL A   1      42.983  37.389  34.016  1.00  0.00    -0.237 OA
ATOM     76  O   UNL A   1      45.389  37.468  33.481  1.00  0.00    -0.744 OA
ENDBRANCH  72  73
ENDBRANCH  51  65
BRANCH  52  77
ATOM     77  C   UNL A   1      42.627  23.763  27.811  1.00  0.00     0.058 A 
ATOM     78  C   UNL A   1      42.433  22.634  28.621  1.00  0.00     0.135 A 
ATOM     79  C   UNL A   1      42.681  23.569  26.422  1.00  0.00     0.135 A 
ATOM     80  F   UNL A   1      42.380  22.766  29.955  1.00  0.00    -0.206 F 
ATOM     81  C   UNL A   1      42.324  21.358  28.078  1.00  0.00     0.059 A 
ATOM     82  C   UNL A   1      42.545  22.306  25.854  1.00  0.00     0.059 A 
ATOM     83  F   UNL A   1      42.845  24.618  25.601  1.00  0.00    -0.206 F 
ATOM     84  C   UNL A   1      42.382  21.204  26.692  1.00  0.00     0.060 A 
BRANCH  84  85
ATOM     85  S   UNL A   1      42.207  19.546  25.996  1.00  0.00     0.124 S 
ATOM     86  O   UNL A   1      40.784  19.509  25.682  1.00  0.00    -0.237 OA
ATOM     87  O   UNL A   1      43.114  19.596  24.854  1.00  0.00    -0.237 OA
ATOM     88  O   UNL A   1      42.637  18.677  27.089  1.00  0.00    -0.744 OA
ENDBRANCH  84  85
ENDBRANCH  52  77
BRANCH  64  89
ATOM     89  C   UNL A   1      47.972  27.153  30.750  1.00  0.00     0.058 A 
ATOM     90  C   UNL A   1      48.330  26.615  31.996  1.00  0.00     0.135 A 
ATOM     91  C   UNL A   1      48.972  27.255  29.768  1.00  0.00     0.135 A 
ATOM     92  F   UNL A   1      47.413  26.502  32.971  1.00  0.00    -0.206 F 
ATOM     93  C   UNL A   1      49.635  26.215  32.267  1.00  0.00     0.059 A 
ATOM     94  C   UNL A   1      50.276  26.832  30.008  1.00  0.00     0.059 A 
ATOM     95  F   UNL A   1      48.682  27.750  28.555  1.00  0.00    -0.206 F 
ATOM     96  C   UNL A   1      50.601  26.325  31.265  1.00  0.00     0.060 A 
BRANCH  96  97
ATOM     97  S   UNL A   1      52.281  25.769  31.618  1.00  0.00     0.124 S 
ATOM     98  O   UNL A   1      52.950  26.029  30.348  1.00  0.00    -0.237 OA
ATOM     99  O   UNL A   1      52.669  26.633  32.728  1.00  0.00    -0.237 OA
ATOM    100  O   UNL A   1      52.108  24.360  31.960  1.00  0.00    -0.744 OA
ENDBRANCH  96  97
ENDBRANCH  64  89
ENDBRANCH  38  39
ENDBRANCH  30  33
ENDBRANCH  28  29
ENDBRANCH  27  28
ENDBRANCH   1  27
TORSDOF 18
ENDMDL
MODEL 2
REMARK VINA RESULT:     -11.5      1.179      1.976
REMARK SMILES C[C@H]1CC[C@H](CNC(=O)NCc2ccc(C(=O)NCCCCNC(=O)c3ccc(-c4c5nc(c(-c6c(F)cc(S(=O)(=O)[O-])cc6F)c6ccc([nH]6)c(-c6c(F)cc(S(=O)(=O)[O-])cc6F)c6nc(c(-c7c(F)cc(S(=O)(=O)[O-])cc7F)c7ccc4[nH]7)C=C6)C=C5)cc3)o2)CC1
REMARK SMILES IDX 20 1 19 2 18 3 16 4 17 5 15 7 12 8 13 9 92 10 14 11 11 12
REMARK SMILES IDX 10 13 7 14 8 15 9 17 6 19 5 20 1 21 2 22 94 23 3 24 93 25
REMARK SMILES IDX 4 26 21 27 22 28 23 29 24 30 25 32 26 33 27 34 91 35 28 36
REMARK SMILES IDX 90 37 29 38 30 39 31 40 84 41 32 42 89 43 83 44 85 45 33 46
REMARK SMILES IDX 88 47 82 48 81 49 34 51 68 52 47 53 67 54 48 55 51 56 66 57
REMARK SMILES IDX 86 58 49 59 50 60 65 62 87 63 52 64 35 65 36 66 45 67 37 68
REMARK SMILES IDX 38 69 44 70 46 71 39 72 40 73 41 74 42 75 43 76 69 77 70 78
REMARK SMILES IDX 79 79 71 80 72 81 78 82 80 83 73 84 74 85 75 86 76 87 77 88
REMARK SMILES IDX 53 89 54 90 63 91 55 92 56 93 62 94 64 95 57 96 58 97 59 98
REMARK SMILES IDX 60 99 61 100
REMARK H PARENT 18 6 7 16 10 18 23 31 85 50 51 61
REMARK Flexibility Score: inf
ROOT
ATOM      1  C   UNL A   1      34.005  28.435  24.461  1.00  0.00     0.023 C 
ENDROOT
BRANCH   1   2
ATOM      2  C   UNL A   1      33.207  28.768  23.201  1.00  0.00     0.116 C 
BRANCH   2   3
ATOM      3  N   UNL A   1      33.462  27.813  22.143  1.00  0.00    -0.349 N 
ATOM      4  C   UNL A   1      32.943  26.559  21.918  1.00  0.00     0.286 C 
ATOM      5  O   UNL A   1      33.258  26.034  20.841  1.00  0.00    -0.266 OA
ATOM      6  H   UNL A   1      34.118  28.111  21.472  1.00  0.00     0.163 HD
BRANCH   4   7
ATOM      7  C   UNL A   1      32.073  25.909  22.882  1.00  0.00     0.191 A 
ATOM      8  C   UNL A   1      31.712  24.601  24.645  1.00  0.00     0.124 A 
ATOM      9  C   UNL A   1      30.478  25.058  24.237  1.00  0.00     0.048 A 
ATOM     10  O   UNL A   1      32.676  25.105  23.822  1.00  0.00    -0.454 OA
ATOM     11  C   UNL A   1      30.711  25.915  23.134  1.00  0.00     0.056 A 
BRANCH   8  12
ATOM     12  C   UNL A   1      32.129  23.695  25.750  1.00  0.00     0.193 C 
BRANCH  12  13
ATOM     13  N   UNL A   1      31.738  22.329  25.501  1.00  0.00    -0.331 N 
ATOM     14  N   UNL A   1      33.494  21.370  24.252  1.00  0.00    -0.338 N 
ATOM     15  C   UNL A   1      32.371  21.277  24.975  1.00  0.00     0.315 C 
ATOM     16  H   UNL A   1      33.969  20.514  24.156  1.00  0.00     0.165 HD
ATOM     17  O   UNL A   1      31.907  20.152  25.174  1.00  0.00    -0.249 OA
ATOM     18  H   UNL A   1      30.813  22.131  25.775  1.00  0.00     0.165 HD
BRANCH  14  19
ATOM     19  C   UNL A   1      34.153  22.474  23.580  1.00  0.00     0.121 C 
BRANCH  19  20
ATOM     20  C   UNL A   1      35.643  22.545  23.955  1.00  0.00     0.008 C 
ATOM     21  C   UNL A   1      39.241  22.528  26.477  1.00  0.00     0.007 C 
ATOM     22  C   UNL A   1      37.783  22.468  26.028  1.00  0.00    -0.014 C 
ATOM     23  C   UNL A   1      37.551  21.293  25.071  1.00  0.00     0.003 C 
ATOM     24  C   UNL A   1      37.365  23.786  25.366  1.00  0.00     0.003 C 
ATOM     25  C   UNL A   1      36.096  21.230  24.608  1.00  0.00     0.006 C 
ATOM     26  C   UNL A   1      35.914  23.738  24.890  1.00  0.00     0.006 C 
ENDBRANCH  19  20
ENDBRANCH  14  19
ENDBRANCH  12  13
ENDBRANCH   8  12
ENDBRANCH   4   7
ENDBRANCH   2   3
ENDBRANCH   1   2
BRANCH   1  27
ATOM     27  C   UNL A   1      33.142  28.108  25.684  1.00  0.00     0.023 C 
BRANCH  27  28
ATOM     28  C   UNL A   1      33.801  28.367  27.038  1.00  0.00     0.116 C 
BRANCH  28  29
ATOM     29  N   UNL A   1      33.680  29.746  27.488  1.00  0.00    -0.352 N 
ATOM     30  C   UNL A   1      34.622  30.529  28.113  1.00  0.00     0.251 C 
ATOM     31  H   UNL A   1      32.809  30.173  27.324  1.00  0.00     0.163 HD
ATOM     32  O   UNL A   1      34.318  31.645  28.525  1.00  0.00    -0.269 OA
BRANCH  30  33
ATOM     33  C   UNL A   1      35.986  30.000  28.318  1.00  0.00     0.039 A 
ATOM     34  C   UNL A   1      36.910  30.092  27.274  1.00  0.00     0.014 A 
ATOM     35  C   UNL A   1      36.363  29.454  29.548  1.00  0.00     0.014 A 
ATOM     36  C   UNL A   1      38.233  29.702  27.489  1.00  0.00     0.010 A 
ATOM     37  C   UNL A   1      37.697  29.133  29.781  1.00  0.00     0.010 A 
ATOM     38  C   UNL A   1      38.648  29.259  28.756  1.00  0.00    -0.014 A 
BRANCH  38  39
ATOM     39  C   UNL A   1      40.071  28.934  29.031  1.00  0.00     0.031 A 
ATOM     40  C   UNL A   1      40.987  29.979  29.610  1.00  0.00     0.074 A 
ATOM     41  C   UNL A   1      40.553  27.721  28.697  1.00  0.00     0.049 A 
ATOM     42  N   UNL A   1      42.271  29.907  29.852  1.00  0.00    -0.248 NA
ATOM     43  C   UNL A   1      40.388  31.284  29.933  1.00  0.00     0.031 C 
ATOM     44  C   UNL A   1      39.778  26.642  28.077  1.00  0.00     0.029 A 
ATOM     45  N   UNL A   1      41.816  27.191  28.815  1.00  0.00    -0.354 N 
ATOM     46  C   UNL A   1      42.635  31.157  30.339  1.00  0.00     0.074 A 
ATOM     47  C   UNL A   1      41.448  31.984  30.312  1.00  0.00     0.031 C 
ATOM     48  C   UNL A   1      40.576  25.578  27.889  1.00  0.00     0.029 A 
ATOM     49  C   UNL A   1      41.925  25.907  28.335  1.00  0.00     0.049 A 
ATOM     50  H   UNL A   1      42.572  27.686  29.206  1.00  0.00     0.167 HD
ATOM     51  C   UNL A   1      43.843  31.570  30.791  1.00  0.00     0.037 A 
ATOM     52  C   UNL A   1      42.994  25.091  28.252  1.00  0.00     0.037 A 
ATOM     53  C   UNL A   1      45.013  30.732  30.844  1.00  0.00     0.049 A 
ATOM     54  C   UNL A   1      44.324  25.572  28.767  1.00  0.00     0.074 A 
ATOM     55  C   UNL A   1      46.265  31.036  31.348  1.00  0.00     0.029 A 
ATOM     56  N   UNL A   1      45.076  29.427  30.377  1.00  0.00    -0.354 N 
ATOM     57  N   UNL A   1      44.633  26.733  29.294  1.00  0.00    -0.248 NA
ATOM     58  C   UNL A   1      45.451  24.633  28.684  1.00  0.00     0.031 C 
ATOM     59  C   UNL A   1      47.100  29.934  31.142  1.00  0.00     0.029 A 
ATOM     60  C   UNL A   1      46.352  28.922  30.561  1.00  0.00     0.049 A 
ATOM     61  H   UNL A   1      44.326  28.933  29.975  1.00  0.00     0.167 HD
ATOM     62  C   UNL A   1      45.980  26.652  29.632  1.00  0.00     0.074 A 
ATOM     63  C   UNL A   1      46.422  25.324  29.262  1.00  0.00     0.031 C 
ATOM     64  C   UNL A   1      46.776  27.591  30.198  1.00  0.00     0.037 A 
BRANCH  51  65
ATOM     65  C   UNL A   1      43.966  32.990  31.275  1.00  0.00     0.058 A 
ATOM     66  C   UNL A   1      44.228  34.049  30.392  1.00  0.00     0.135 A 
ATOM     67  C   UNL A   1      43.758  33.302  32.628  1.00  0.00     0.135 A 
ATOM     68  F   UNL A   1      44.450  33.806  29.090  1.00  0.00    -0.206 F 
ATOM     69  C   UNL A   1      44.300  35.365  30.836  1.00  0.00     0.059 A 
ATOM     70  C   UNL A   1      43.797  34.615  33.090  1.00  0.00     0.059 A 
ATOM     71  F   UNL A   1      43.505  32.328  33.517  1.00  0.00    -0.206 F 
ATOM     72  C   UNL A   1      44.079  35.638  32.186  1.00  0.00     0.060 A 
BRANCH  72  73
ATOM     73  S   UNL A   1      44.151  37.356  32.738  1.00  0.00     0.124 S 
ATOM     74  O   UNL A   1      43.035  37.406  33.678  1.00  0.00    -0.237 OA
ATOM     75  O   UNL A   1      45.482  37.437  33.332  1.00  0.00    -0.237 OA
ATOM     76  O   UNL A   1      43.969  38.118  31.507  1.00  0.00    -0.744 OA
ENDBRANCH  72  73
ENDBRANCH  51  65
BRANCH  52  77
ATOM     77  C   UNL A   1      42.852  23.728  27.669  1.00  0.00     0.058 A 
ATOM     78  C   UNL A   1      43.065  23.500  26.301  1.00  0.00     0.135 A 
ATOM     79  C   UNL A   1      42.495  22.629  28.466  1.00  0.00     0.135 A 
ATOM     80  F   UNL A   1      43.403  24.519  25.496  1.00  0.00    -0.206 F 
ATOM     81  C   UNL A   1      42.904  22.238  25.738  1.00  0.00     0.059 A 
ATOM     82  C   UNL A   1      42.356  21.352  27.931  1.00  0.00     0.059 A 
ATOM     83  F   UNL A   1      42.298  22.788  29.783  1.00  0.00    -0.206 F 
ATOM     84  C   UNL A   1      42.548  21.169  26.562  1.00  0.00     0.060 A 
BRANCH  84  85
ATOM     85  S   UNL A   1      42.373  19.529  25.826  1.00  0.00     0.124 S 
ATOM     86  O   UNL A   1      42.796  18.669  26.925  1.00  0.00    -0.237 OA
ATOM     87  O   UNL A   1      40.952  19.492  25.495  1.00  0.00    -0.237 OA
ATOM     88  O   UNL A   1      43.275  19.579  24.678  1.00  0.00    -0.744 OA
ENDBRANCH  84  85
ENDBRANCH  52  77
BRANCH  64  89
ATOM     89  C   UNL A   1      48.201  27.209  30.492  1.00  0.00     0.058 A 
ATOM     90  C   UNL A   1      49.254  27.564  29.636  1.00  0.00     0.135 A 
ATOM     91  C   UNL A   1      48.520  26.525  31.677  1.00  0.00     0.135 A 
ATOM     92  F   UNL A   1      49.003  28.213  28.487  1.00  0.00    -0.206 F 
ATOM     93  C   UNL A   1      50.574  27.234  29.932  1.00  0.00     0.059 A 
ATOM     94  C   UNL A   1      49.835  26.212  32.008  1.00  0.00     0.059 A 
ATOM     95  F   UNL A   1      47.552  26.172  32.537  1.00  0.00    -0.206 F 
ATOM     96  C   UNL A   1      50.854  26.561  31.122  1.00  0.00     0.060 A 
BRANCH  96  97
ATOM     97  S   UNL A   1      52.573  26.170  31.511  1.00  0.00     0.124 S 
ATOM     98  O   UNL A   1      53.171  26.119  30.181  1.00  0.00    -0.237 OA
ATOM     99  O   UNL A   1      52.970  27.302  32.342  1.00  0.00    -0.237 OA
ATOM    100  O   UNL A   1      52.481  24.891  32.209  1.00  0.00    -0.744 OA
ENDBRANCH  96  97
ENDBRANCH  64  89
ENDBRANCH  38  39
ENDBRANCH  30  33
ENDBRANCH  28  29
ENDBRANCH  27  28
ENDBRANCH   1  27
TORSDOF 18
ENDMDL
MODEL 3
REMARK VINA RESULT:     -11.4      3.567      9.490
REMARK SMILES C[C@H]1CC[C@H](CNC(=O)NCc2ccc(C(=O)NCCCCNC(=O)c3ccc(-c4c5nc(c(-c6c(F)cc(S(=O)(=O)[O-])cc6F)c6ccc([nH]6)c(-c6c(F)cc(S(=O)(=O)[O-])cc6F)c6nc(c(-c7c(F)cc(S(=O)(=O)[O-])cc7F)c7ccc4[nH]7)C=C6)C=C5)cc3)o2)CC1
REMARK SMILES IDX 20 1 19 2 18 3 16 4 17 5 15 7 12 8 13 9 92 10 14 11 11 12
REMARK SMILES IDX 10 13 7 14 8 15 9 17 6 19 5 20 1 21 2 22 94 23 3 24 93 25
REMARK SMILES IDX 4 26 21 27 22 28 23 29 24 30 25 32 26 33 27 34 91 35 28 36
REMARK SMILES IDX 90 37 29 38 30 39 31 40 84 41 32 42 89 43 83 44 85 45 33 46
REMARK SMILES IDX 88 47 82 48 81 49 34 51 68 52 47 53 67 54 48 55 51 56 66 57
REMARK SMILES IDX 86 58 49 59 50 60 65 62 87 63 52 64 35 65 36 66 45 67 37 68
REMARK SMILES IDX 38 69 44 70 46 71 39 72 40 73 41 74 42 75 43 76 69 77 70 78
REMARK SMILES IDX 79 79 71 80 72 81 78 82 80 83 73 84 74 85 75 86 76 87 77 88
REMARK SMILES IDX 53 89 54 90 63 91 55 92 56 93 62 94 64 95 57 96 58 97 59 98
REMARK SMILES IDX 60 99 61 100
REMARK H PARENT 18 6 7 16 10 18 23 31 85 50 51 61
REMARK Flexibility Score: inf
ROOT
ATOM      1  C   UNL A   1      37.287  21.122  24.953  1.00  0.00     0.023 C 
ENDROOT
BRANCH   1   2
ATOM      2  C   UNL A   1      35.863  20.671  25.272  1.00  0.00     0.116 C 
BRANCH   2   3
ATOM      3  N   UNL A   1      35.355  21.318  26.463  1.00  0.00    -0.349 N 
ATOM      4  C   UNL A   1      34.638  22.482  26.618  1.00  0.00     0.286 C 
ATOM      5  O   UNL A   1      34.226  22.709  27.764  1.00  0.00    -0.266 OA
ATOM      6  H   UNL A   1      35.558  20.848  27.304  1.00  0.00     0.163 HD
BRANCH   4   7
ATOM      7  C   UNL A   1      34.376  23.372  25.500  1.00  0.00     0.191 A 
ATOM      8  C   UNL A   1      33.148  24.072  23.784  1.00  0.00     0.124 A 
ATOM      9  C   UNL A   1      34.236  24.914  23.855  1.00  0.00     0.048 A 
ATOM     10  O   UNL A   1      33.236  23.134  24.769  1.00  0.00    -0.454 OA
ATOM     11  C   UNL A   1      35.003  24.487  24.967  1.00  0.00     0.056 A 
BRANCH   8  12
ATOM     12  C   UNL A   1      31.985  24.017  22.856  1.00  0.00     0.193 C 
BRANCH  12  13
ATOM     13  N   UNL A   1      32.357  24.367  21.507  1.00  0.00    -0.331 N 
ATOM     14  N   UNL A   1      32.072  26.703  21.341  1.00  0.00    -0.338 N 
ATOM     15  C   UNL A   1      32.529  25.532  20.877  1.00  0.00     0.315 C 
ATOM     16  H   UNL A   1      32.490  27.483  20.911  1.00  0.00     0.165 HD
ATOM     17  O   UNL A   1      33.155  25.540  19.815  1.00  0.00    -0.249 OA
ATOM     18  H   UNL A   1      32.515  23.585  20.930  1.00  0.00     0.165 HD
BRANCH  14  19
ATOM     19  C   UNL A   1      31.087  27.055  22.346  1.00  0.00     0.121 C 
BRANCH  19  20
ATOM     20  C   UNL A   1      31.762  27.523  23.647  1.00  0.00     0.008 C 
ATOM     21  C   UNL A   1      32.493  29.929  27.251  1.00  0.00     0.007 C 
ATOM     22  C   UNL A   1      31.878  29.406  25.954  1.00  0.00    -0.014 C 
ATOM     23  C   UNL A   1      31.392  27.961  26.121  1.00  0.00     0.003 C 
ATOM     24  C   UNL A   1      32.882  29.501  24.801  1.00  0.00     0.003 C 
ATOM     25  C   UNL A   1      30.783  27.425  24.826  1.00  0.00     0.006 C 
ATOM     26  C   UNL A   1      32.292  28.962  23.499  1.00  0.00     0.006 C 
ENDBRANCH  19  20
ENDBRANCH  14  19
ENDBRANCH  12  13
ENDBRANCH   8  12
ENDBRANCH   4   7
ENDBRANCH   2   3
ENDBRANCH   1   2
BRANCH   1  27
ATOM     27  C   UNL A   1      38.333  20.004  25.025  1.00  0.00     0.023 C 
BRANCH  27  28
ATOM     28  C   UNL A   1      39.520  20.276  25.949  1.00  0.00     0.116 C 
BRANCH  28  29
ATOM     29  N   UNL A   1      40.478  19.182  25.999  1.00  0.00    -0.352 N 
ATOM     30  C   UNL A   1      41.844  19.245  26.148  1.00  0.00     0.251 C 
ATOM     31  H   UNL A   1      40.099  18.278  25.915  1.00  0.00     0.163 HD
ATOM     32  O   UNL A   1      42.520  18.224  26.061  1.00  0.00    -0.269 OA
BRANCH  30  33
ATOM     33  C   UNL A   1      42.490  20.555  26.372  1.00  0.00     0.039 A 
ATOM     34  C   UNL A   1      43.015  21.245  25.277  1.00  0.00     0.014 A 
ATOM     35  C   UNL A   1      42.540  21.116  27.651  1.00  0.00     0.014 A 
ATOM     36  C   UNL A   1      43.525  22.533  25.455  1.00  0.00     0.010 A 
ATOM     37  C   UNL A   1      42.983  22.427  27.812  1.00  0.00     0.010 A 
ATOM     38  C   UNL A   1      43.475  23.150  26.715  1.00  0.00    -0.014 A 
BRANCH  38  39
ATOM     39  C   UNL A   1      43.921  24.555  26.904  1.00  0.00     0.031 A 
ATOM     40  C   UNL A   1      45.370  24.920  26.722  1.00  0.00     0.074 A 
ATOM     41  C   UNL A   1      43.033  25.486  27.306  1.00  0.00     0.049 A 
ATOM     42  N   UNL A   1      45.960  26.072  26.912  1.00  0.00    -0.248 NA
ATOM     43  C   UNL A   1      46.280  23.843  26.297  1.00  0.00     0.031 C 
ATOM     44  C   UNL A   1      41.612  25.244  27.572  1.00  0.00     0.029 A 
ATOM     45  N   UNL A   1      43.194  26.823  27.579  1.00  0.00    -0.354 N 
ATOM     46  C   UNL A   1      47.307  25.856  26.646  1.00  0.00     0.074 A 
ATOM     47  C   UNL A   1      47.456  24.453  26.330  1.00  0.00     0.031 C 
ATOM     48  C   UNL A   1      41.031  26.395  27.948  1.00  0.00     0.029 A 
ATOM     49  C   UNL A   1      42.040  27.447  27.991  1.00  0.00     0.049 A 
ATOM     50  H   UNL A   1      44.056  27.291  27.488  1.00  0.00     0.167 HD
ATOM     51  C   UNL A   1      48.323  26.752  26.641  1.00  0.00     0.037 A 
ATOM     52  C   UNL A   1      41.821  28.722  28.373  1.00  0.00     0.037 A 
ATOM     53  C   UNL A   1      48.162  28.154  26.927  1.00  0.00     0.049 A 
ATOM     54  C   UNL A   1      42.966  29.698  28.353  1.00  0.00     0.074 A 
ATOM     55  C   UNL A   1      49.117  29.155  26.881  1.00  0.00     0.029 A 
ATOM     56  N   UNL A   1      46.971  28.754  27.311  1.00  0.00    -0.354 N 
ATOM     57  N   UNL A   1      44.220  29.492  28.026  1.00  0.00    -0.248 NA
ATOM     58  C   UNL A   1      42.669  31.083  28.746  1.00  0.00     0.031 C 
ATOM     59  C   UNL A   1      48.516  30.351  27.285  1.00  0.00     0.029 A 
ATOM     60  C   UNL A   1      47.174  30.107  27.527  1.00  0.00     0.049 A 
ATOM     61  H   UNL A   1      46.111  28.289  27.413  1.00  0.00     0.167 HD
ATOM     62  C   UNL A   1      44.852  30.725  28.145  1.00  0.00     0.074 A 
ATOM     63  C   UNL A   1      43.840  31.674  28.561  1.00  0.00     0.031 C 
ATOM     64  C   UNL A   1      46.152  31.043  27.930  1.00  0.00     0.037 A 
BRANCH  51  65
ATOM     65  C   UNL A   1      49.702  26.250  26.310  1.00  0.00     0.058 A 
ATOM     66  C   UNL A   1      50.247  26.385  25.024  1.00  0.00     0.135 A 
ATOM     67  C   UNL A   1      50.512  25.681  27.307  1.00  0.00     0.135 A 
ATOM     68  F   UNL A   1      49.512  26.907  24.029  1.00  0.00    -0.206 F 
ATOM     69  C   UNL A   1      51.537  25.956  24.731  1.00  0.00     0.059 A 
ATOM     70  C   UNL A   1      51.816  25.271  27.043  1.00  0.00     0.059 A 
ATOM     71  F   UNL A   1      50.041  25.526  28.554  1.00  0.00    -0.206 F 
ATOM     72  C   UNL A   1      52.315  25.404  25.749  1.00  0.00     0.060 A 
BRANCH  72  73
ATOM     73  S   UNL A   1      53.997  24.878  25.356  1.00  0.00     0.124 S 
ATOM     74  O   UNL A   1      54.687  25.145  26.614  1.00  0.00    -0.237 OA
ATOM     75  O   UNL A   1      53.813  23.469  25.022  1.00  0.00    -0.237 OA
ATOM     76  O   UNL A   1      54.372  25.740  24.239  1.00  0.00    -0.744 OA
ENDBRANCH  72  73
ENDBRANCH  51  65
BRANCH  52  77
ATOM     77  C   UNL A   1      40.460  29.153  28.794  1.00  0.00     0.058 A 
ATOM     78  C   UNL A   1      39.472  29.459  27.846  1.00  0.00     0.135 A 
ATOM     79  C   UNL A   1      40.122  29.275  30.151  1.00  0.00     0.135 A 
ATOM     80  F   UNL A   1      39.746  29.363  26.536  1.00  0.00    -0.206 F 
ATOM     81  C   UNL A   1      38.206  29.894  28.227  1.00  0.00     0.059 A 
ATOM     82  C   UNL A   1      38.854  29.680  30.556  1.00  0.00     0.059 A 
ATOM     83  F   UNL A   1      41.024  28.976  31.099  1.00  0.00    -0.206 F 
ATOM     84  C   UNL A   1      37.907  30.003  29.585  1.00  0.00     0.060 A 
BRANCH  84  85
ATOM     85  S   UNL A   1      36.251  30.538  30.068  1.00  0.00     0.124 S 
ATOM     86  O   UNL A   1      35.443  30.014  28.973  1.00  0.00    -0.237 OA
ATOM     87  O   UNL A   1      36.081  29.881  31.360  1.00  0.00    -0.237 OA
ATOM     88  O   UNL A   1      36.373  31.992  30.125  1.00  0.00    -0.744 OA
ENDBRANCH  84  85
ENDBRANCH  52  77
BRANCH  64  89
ATOM     89  C   UNL A   1      46.553  32.483  28.098  1.00  0.00     0.058 A 
ATOM     90  C   UNL A   1      47.140  32.954  29.283  1.00  0.00     0.135 A 
ATOM     91  C   UNL A   1      46.398  33.390  27.037  1.00  0.00     0.135 A 
ATOM     92  F   UNL A   1      47.305  32.129  30.330  1.00  0.00    -0.206 F 
ATOM     93  C   UNL A   1      47.537  34.281  29.419  1.00  0.00     0.059 A 
ATOM     94  C   UNL A   1      46.816  34.713  27.140  1.00  0.00     0.059 A 
ATOM     95  F   UNL A   1      45.853  32.989  25.878  1.00  0.00    -0.206 F 
ATOM     96  C   UNL A   1      47.374  35.152  28.340  1.00  0.00     0.060 A 
BRANCH  96  97
ATOM     97  S   UNL A   1      47.926  36.861  28.517  1.00  0.00     0.124 S 
ATOM     98  O   UNL A   1      48.007  37.290  27.125  1.00  0.00    -0.237 OA
ATOM     99  O   UNL A   1      46.851  37.457  29.303  1.00  0.00    -0.237 OA
ATOM    100  O   UNL A   1      49.205  36.735  29.211  1.00  0.00    -0.744 OA
ENDBRANCH  96  97
ENDBRANCH  64  89
ENDBRANCH  38  39
ENDBRANCH  30  33
ENDBRANCH  28  29
ENDBRANCH  27  28
ENDBRANCH   1  27
TORSDOF 18
ENDMDL
