MODEL 1
REMARK VINA RESULT:     -12.7      0.000      0.000
REMARK SMILES Cc1cccc(NC(=O)C[C@H]([NH2+]C(C)C)C(=O)NCCCCNC(=O)c2ccc(-c3c4nc(c(-c5c(F)cc(S(=O)(=O)[O-])cc5F)c5ccc([nH]5)c(-c5c(F)cc(S(=O)(=O)[O-])cc5F)c5nc(c(-c6c(F)cc(S(=O)(=O)[O-])cc6F)c6ccc3[nH]6)C=C5)C=C4)cc2)c1
REMARK SMILES IDX 20 1 19 2 18 3 16 4 17 5 11 7 10 8 8 9 7 10 9 12 6 13 1 14
REMARK SMILES IDX 2 15 3 16 92 17 4 18 5 19 12 20 13 23 14 24 15 25 21 26
REMARK SMILES IDX 22 27 23 28 24 29 25 31 26 32 27 33 91 34 28 35 90 36 29 37
REMARK SMILES IDX 30 38 31 39 84 40 32 41 89 42 83 43 85 44 33 45 88 46 82 47
REMARK SMILES IDX 81 48 34 50 68 51 47 52 67 53 48 54 51 55 66 56 86 57 49 58
REMARK SMILES IDX 50 59 65 61 87 62 52 63 35 64 36 65 45 66 37 67 38 68 44 69
REMARK SMILES IDX 46 70 39 71 40 72 41 73 42 74 43 75 69 76 70 77 79 78 71 79
REMARK SMILES IDX 72 80 78 81 80 82 73 83 74 84 75 85 76 86 77 87 53 88 54 89
REMARK SMILES IDX 63 90 55 91 56 92 62 93 64 94 57 95 58 96 59 97 60 98 61 99
REMARK H PARENT 18 6 7 11 12 21 12 22 23 30 85 49 51 60
REMARK Flexibility Score: inf
ROOT
ATOM      1  C   UNL A   1      35.673  22.196  26.382  1.00  0.00     0.023 C 
ENDROOT
BRANCH   1   2
ATOM      2  C   UNL A   1      34.299  22.709  27.354  1.00  0.00     0.116 C 
BRANCH   2   3
ATOM      3  N   UNL A   1      32.531  23.689  26.817  1.00  0.00    -0.351 N 
ATOM      4  C   UNL A   1      31.533  24.146  25.970  1.00  0.00     0.278 C 
ATOM      5  O   UNL A   1      30.508  24.499  26.592  1.00  0.00    -0.268 OA
ATOM      6  H   UNL A   1      32.223  24.031  27.688  1.00  0.00     0.163 HD
BRANCH   4   7
ATOM      7  C   UNL A   1      31.518  24.360  24.450  1.00  0.00     0.282 C 
BRANCH   7   8
ATOM      8  C   UNL A   1      30.809  25.637  23.928  1.00  0.00     0.175 C 
BRANCH   8   9
ATOM      9  C   UNL A   1      31.585  26.589  22.996  1.00  0.00     0.230 C 
ATOM     10  N   UNL A   1      32.151  27.765  23.422  1.00  0.00    -0.326 N 
ATOM     11  H   UNL A   1      32.521  28.362  22.732  1.00  0.00     0.169 HD
ATOM     12  O   UNL A   1      31.703  26.293  21.801  1.00  0.00    -0.274 OA
BRANCH  10  13
ATOM     13  C   UNL A   1      32.247  28.190  24.755  1.00  0.00     0.041 A 
ATOM     14  C   UNL A   1      31.390  32.181  26.672  1.00  0.00     0.044 C 
ATOM     15  C   UNL A   1      31.971  30.819  26.467  1.00  0.00    -0.049 A 
ATOM     16  C   UNL A   1      33.561  30.435  27.255  1.00  0.00     0.003 A 
ATOM     17  C   UNL A   1      31.340  29.709  25.164  1.00  0.00     0.029 A 
ATOM     18  C   UNL A   1      34.417  28.872  26.885  1.00  0.00     0.002 A 
ATOM     19  C   UNL A   1      33.749  27.737  25.667  1.00  0.00     0.026 A 
ENDBRANCH  10  13
ENDBRANCH   8   9
ENDBRANCH   7   8
BRANCH   7  20
ATOM     20  N   UNL A   1      31.248  23.078  23.688  1.00  0.00    -0.334 N 
ATOM     21  H   UNL A   1      30.647  23.304  22.896  1.00  0.00     0.347 HD
ATOM     22  H   UNL A   1      30.823  22.438  24.358  1.00  0.00     0.347 HD
BRANCH  20  23
ATOM     23  C   UNL A   1      32.451  22.381  23.165  1.00  0.00     0.176 C 
ATOM     24  C   UNL A   1      32.041  21.106  22.411  1.00  0.00     0.075 C 
ATOM     25  C   UNL A   1      33.446  23.199  22.352  1.00  0.00     0.075 C 
ENDBRANCH  20  23
ENDBRANCH   7  20
ENDBRANCH   4   7
ENDBRANCH   2   3
ENDBRANCH   1   2
BRANCH   1  26
ATOM     26  C   UNL A   1      36.048  22.979  25.110  1.00  0.00     0.023 C 
BRANCH  26  27
ATOM     27  C   UNL A   1      37.361  23.700  25.263  1.00  0.00     0.116 C 
BRANCH  27  28
ATOM     28  N   UNL A   1      38.339  22.976  26.042  1.00  0.00    -0.352 N 
ATOM     29  C   UNL A   1      39.476  23.534  26.594  1.00  0.00     0.251 C 
ATOM     30  H   UNL A   1      38.185  22.015  26.190  1.00  0.00     0.163 HD
ATOM     31  O   UNL A   1      40.519  22.929  26.794  1.00  0.00    -0.269 OA
BRANCH  29  32
ATOM     32  C   UNL A   1      39.306  24.914  27.084  1.00  0.00     0.039 A 
ATOM     33  C   UNL A   1      40.164  25.871  26.528  1.00  0.00     0.014 A 
ATOM     34  C   UNL A   1      38.677  25.103  28.314  1.00  0.00     0.014 A 
ATOM     35  C   UNL A   1      40.528  26.958  27.298  1.00  0.00     0.010 A 
ATOM     36  C   UNL A   1      39.184  26.065  29.141  1.00  0.00     0.010 A 
ATOM     37  C   UNL A   1      40.103  26.979  28.626  1.00  0.00    -0.014 A 
BRANCH  37  38
ATOM     38  C   UNL A   1      40.335  28.096  29.504  1.00  0.00     0.031 A 
ATOM     39  C   UNL A   1      39.394  29.199  29.262  1.00  0.00     0.074 A 
ATOM     40  C   UNL A   1      41.281  27.980  30.457  1.00  0.00     0.049 A 
ATOM     41  N   UNL A   1      39.692  30.442  29.284  1.00  0.00    -0.248 NA
ATOM     42  C   UNL A   1      38.021  28.963  28.793  1.00  0.00     0.031 C 
ATOM     43  C   UNL A   1      41.640  28.883  31.539  1.00  0.00     0.029 A 
ATOM     44  N   UNL A   1      42.313  27.028  30.452  1.00  0.00    -0.354 N 
ATOM     45  C   UNL A   1      38.488  31.122  29.277  1.00  0.00     0.074 A 
ATOM     46  C   UNL A   1      37.536  30.203  28.729  1.00  0.00     0.031 C 
ATOM     47  C   UNL A   1      42.939  28.681  31.844  1.00  0.00     0.029 A 
ATOM     48  C   UNL A   1      43.461  27.712  30.887  1.00  0.00     0.049 A 
ATOM     49  H   UNL A   1      42.246  26.079  30.197  1.00  0.00     0.167 HD
ATOM     50  C   UNL A   1      38.407  32.278  29.992  1.00  0.00     0.037 A 
ATOM     51  C   UNL A   1      44.448  27.961  29.976  1.00  0.00     0.037 A 
ATOM     52  C   UNL A   1      39.727  32.548  30.569  1.00  0.00     0.049 A 
ATOM     53  C   UNL A   1      44.555  29.442  29.668  1.00  0.00     0.074 A 
ATOM     54  C   UNL A   1      40.271  32.274  31.813  1.00  0.00     0.029 A 
ATOM     55  N   UNL A   1      40.801  32.740  29.708  1.00  0.00    -0.354 N 
ATOM     56  N   UNL A   1      43.573  30.301  29.766  1.00  0.00    -0.248 NA
ATOM     57  C   UNL A   1      45.826  30.078  29.343  1.00  0.00     0.031 C 
ATOM     58  C   UNL A   1      41.689  32.263  31.677  1.00  0.00     0.029 A 
ATOM     59  C   UNL A   1      42.003  32.528  30.353  1.00  0.00     0.049 A 
ATOM     60  H   UNL A   1      40.716  32.996  28.761  1.00  0.00     0.167 HD
ATOM     61  C   UNL A   1      44.051  31.578  29.563  1.00  0.00     0.074 A 
ATOM     62  C   UNL A   1      45.472  31.373  29.333  1.00  0.00     0.031 C 
ATOM     63  C   UNL A   1      43.258  32.698  29.624  1.00  0.00     0.037 A 
BRANCH  50  64
ATOM     64  C   UNL A   1      37.132  32.970  30.441  1.00  0.00     0.058 A 
ATOM     65  C   UNL A   1      36.314  33.606  29.481  1.00  0.00     0.135 A 
ATOM     66  C   UNL A   1      36.651  33.069  31.765  1.00  0.00     0.135 A 
ATOM     67  F   UNL A   1      36.609  33.569  28.174  1.00  0.00    -0.206 F 
ATOM     68  C   UNL A   1      35.152  34.309  29.805  1.00  0.00     0.059 A 
ATOM     69  C   UNL A   1      35.504  33.791  32.119  1.00  0.00     0.059 A 
ATOM     70  F   UNL A   1      37.235  32.435  32.786  1.00  0.00    -0.206 F 
ATOM     71  C   UNL A   1      34.755  34.403  31.130  1.00  0.00     0.060 A 
BRANCH  71  72
ATOM     72  S   UNL A   1      33.235  35.286  31.518  1.00  0.00     0.124 S 
ATOM     73  O   UNL A   1      32.751  34.559  32.687  1.00  0.00    -0.237 OA
ATOM     74  O   UNL A   1      33.724  36.638  31.767  1.00  0.00    -0.237 OA
ATOM     75  O   UNL A   1      32.429  35.128  30.310  1.00  0.00    -0.744 OA
ENDBRANCH  71  72
ENDBRANCH  50  64
BRANCH  51  76
ATOM     76  C   UNL A   1      44.653  26.815  29.032  1.00  0.00     0.058 A 
ATOM     77  C   UNL A   1      44.291  27.003  27.678  1.00  0.00     0.135 A 
ATOM     78  C   UNL A   1      45.507  25.741  29.310  1.00  0.00     0.135 A 
ATOM     79  F   UNL A   1      43.474  28.014  27.339  1.00  0.00    -0.206 F 
ATOM     80  C   UNL A   1      44.832  26.240  26.643  1.00  0.00     0.059 A 
ATOM     81  C   UNL A   1      46.059  24.957  28.286  1.00  0.00     0.059 A 
ATOM     82  F   UNL A   1      45.893  25.494  30.569  1.00  0.00    -0.206 F 
ATOM     83  C   UNL A   1      45.735  25.228  26.955  1.00  0.00     0.060 A 
BRANCH  83  84
ATOM     84  S   UNL A   1      46.514  24.322  25.599  1.00  0.00     0.124 S 
ATOM     85  O   UNL A   1      45.535  24.478  24.532  1.00  0.00    -0.237 OA
ATOM     86  O   UNL A   1      47.768  25.044  25.412  1.00  0.00    -0.237 OA
ATOM     87  O   UNL A   1      46.677  22.976  26.133  1.00  0.00    -0.744 OA
ENDBRANCH  83  84
ENDBRANCH  51  76
BRANCH  63  88
ATOM     88  C   UNL A   1      43.575  34.093  29.075  1.00  0.00     0.058 A 
ATOM     89  C   UNL A   1      43.710  35.256  29.850  1.00  0.00     0.135 A 
ATOM     90  C   UNL A   1      43.893  34.280  27.696  1.00  0.00     0.135 A 
ATOM     91  F   UNL A   1      43.587  35.250  31.179  1.00  0.00    -0.206 F 
ATOM     92  C   UNL A   1      44.036  36.499  29.303  1.00  0.00     0.059 A 
ATOM     93  C   UNL A   1      44.319  35.486  27.150  1.00  0.00     0.059 A 
ATOM     94  F   UNL A   1      43.819  33.290  26.797  1.00  0.00    -0.206 F 
ATOM     95  C   UNL A   1      44.350  36.604  27.955  1.00  0.00     0.060 A 
BRANCH  95  96
ATOM     96  S   UNL A   1      44.816  38.203  27.289  1.00  0.00     0.124 S 
ATOM     97  O   UNL A   1      45.219  38.913  28.498  1.00  0.00    -0.237 OA
ATOM     98  O   UNL A   1      45.896  37.852  26.371  1.00  0.00    -0.237 OA
ATOM     99  O   UNL A   1      43.592  38.682  26.656  1.00  0.00    -0.744 OA
ENDBRANCH  95  96
ENDBRANCH  63  88
ENDBRANCH  37  38
ENDBRANCH  29  32
ENDBRANCH  27  28
ENDBRANCH  26  27
ENDBRANCH   1  26
TORSDOF 19
ENDMDL
MODEL 2
REMARK VINA RESULT:     -12.1      1.539      2.328
REMARK SMILES Cc1cccc(NC(=O)C[C@H]([NH2+]C(C)C)C(=O)NCCCCNC(=O)c2ccc(-c3c4nc(c(-c5c(F)cc(S(=O)(=O)[O-])cc5F)c5ccc([nH]5)c(-c5c(F)cc(S(=O)(=O)[O-])cc5F)c5nc(c(-c6c(F)cc(S(=O)(=O)[O-])cc6F)c6ccc3[nH]6)C=C5)C=C4)cc2)c1
REMARK SMILES IDX 20 1 19 2 18 3 16 4 17 5 11 7 10 8 8 9 7 10 9 12 6 13 1 14
REMARK SMILES IDX 2 15 3 16 92 17 4 18 5 19 12 20 13 23 14 24 15 25 21 26
REMARK SMILES IDX 22 27 23 28 24 29 25 31 26 32 27 33 91 34 28 35 90 36 29 37
REMARK SMILES IDX 30 38 31 39 84 40 32 41 89 42 83 43 85 44 33 45 88 46 82 47
REMARK SMILES IDX 81 48 34 50 68 51 47 52 67 53 48 54 51 55 66 56 86 57 49 58
REMARK SMILES IDX 50 59 65 61 87 62 52 63 35 64 36 65 45 66 37 67 38 68 44 69
REMARK SMILES IDX 46 70 39 71 40 72 41 73 42 74 43 75 69 76 70 77 79 78 71 79
REMARK SMILES IDX 72 80 78 81 80 82 73 83 74 84 75 85 76 86 77 87 53 88 54 89
REMARK SMILES IDX 63 90 55 91 56 92 62 93 64 94 57 95 58 96 59 97 60 98 61 99
REMARK H PARENT 18 6 7 11 12 21 12 22 23 30 85 49 51 60
REMARK Flexibility Score: inf
ROOT
ATOM      1  C   UNL A   1      36.372  21.933  26.087  1.00  0.00     0.023 C 
ENDROOT
BRANCH   1   2
ATOM      2  C   UNL A   1      34.735  21.411  25.707  1.00  0.00     0.116 C 
BRANCH   2   3
ATOM      3  N   UNL A   1      33.478  21.900  24.109  1.00  0.00    -0.351 N 
ATOM      4  C   UNL A   1      32.737  22.724  23.275  1.00  0.00     0.278 C 
ATOM      5  O   UNL A   1      32.430  22.160  22.203  1.00  0.00    -0.268 OA
ATOM      6  H   UNL A   1      33.314  21.015  23.709  1.00  0.00     0.163 HD
BRANCH   4   7
ATOM      7  C   UNL A   1      32.180  24.138  23.487  1.00  0.00     0.282 C 
BRANCH   7   8
ATOM      8  C   UNL A   1      33.136  25.322  23.187  1.00  0.00     0.175 C 
BRANCH   8   9
ATOM      9  C   UNL A   1      33.150  25.924  21.767  1.00  0.00     0.230 C 
ATOM     10  N   UNL A   1      32.918  27.252  21.509  1.00  0.00    -0.326 N 
ATOM     11  H   UNL A   1      32.829  27.518  20.565  1.00  0.00     0.169 HD
ATOM     12  O   UNL A   1      33.371  25.180  20.804  1.00  0.00    -0.274 OA
BRANCH  10  13
ATOM     13  C   UNL A   1      32.797  28.263  22.474  1.00  0.00     0.041 A 
ATOM     14  C   UNL A   1      34.495  28.617  26.637  1.00  0.00     0.044 C 
ATOM     15  C   UNL A   1      33.592  28.838  25.467  1.00  0.00    -0.049 A 
ATOM     16  C   UNL A   1      31.881  29.356  25.788  1.00  0.00     0.003 A 
ATOM     17  C   UNL A   1      34.034  28.233  23.804  1.00  0.00     0.029 A 
ATOM     18  C   UNL A   1      30.677  29.448  24.427  1.00  0.00     0.002 A 
ATOM     19  C   UNL A   1      31.139  28.938  22.770  1.00  0.00     0.026 A 
ENDBRANCH  10  13
ENDBRANCH   8   9
ENDBRANCH   7   8
BRANCH   7  20
ATOM     20  N   UNL A   1      31.344  24.248  24.746  1.00  0.00    -0.334 N 
ATOM     21  H   UNL A   1      31.960  24.106  25.546  1.00  0.00     0.347 HD
ATOM     22  H   UNL A   1      30.613  23.542  24.660  1.00  0.00     0.347 HD
BRANCH  20  23
ATOM     23  C   UNL A   1      30.639  25.541  24.935  1.00  0.00     0.176 C 
ATOM     24  C   UNL A   1      29.674  25.797  23.767  1.00  0.00     0.075 C 
ATOM     25  C   UNL A   1      29.953  25.785  26.273  1.00  0.00     0.075 C 
ENDBRANCH  20  23
ENDBRANCH   7  20
ENDBRANCH   4   7
ENDBRANCH   2   3
ENDBRANCH   1   2
BRANCH   1  26
ATOM     26  C   UNL A   1      37.034  23.048  25.255  1.00  0.00     0.023 C 
BRANCH  26  27
ATOM     27  C   UNL A   1      37.730  24.060  26.127  1.00  0.00     0.116 C 
BRANCH  27  28
ATOM     28  N   UNL A   1      38.973  23.588  26.694  1.00  0.00    -0.352 N 
ATOM     29  C   UNL A   1      40.064  24.386  26.976  1.00  0.00     0.251 C 
ATOM     30  H   UNL A   1      39.048  22.627  26.894  1.00  0.00     0.163 HD
ATOM     31  O   UNL A   1      41.225  24.005  26.961  1.00  0.00    -0.269 OA
BRANCH  29  32
ATOM     32  C   UNL A   1      39.726  25.738  27.460  1.00  0.00     0.039 A 
ATOM     33  C   UNL A   1      40.272  26.803  26.732  1.00  0.00     0.014 A 
ATOM     34  C   UNL A   1      39.304  25.877  28.782  1.00  0.00     0.014 A 
ATOM     35  C   UNL A   1      40.556  27.980  27.397  1.00  0.00     0.010 A 
ATOM     36  C   UNL A   1      39.760  26.961  29.479  1.00  0.00     0.010 A 
ATOM     37  C   UNL A   1      40.381  27.996  28.780  1.00  0.00    -0.014 A 
BRANCH  37  38
ATOM     38  C   UNL A   1      40.551  29.185  29.576  1.00  0.00     0.031 A 
ATOM     39  C   UNL A   1      39.449  30.141  29.391  1.00  0.00     0.074 A 
ATOM     40  C   UNL A   1      41.599  29.249  30.420  1.00  0.00     0.049 A 
ATOM     41  N   UNL A   1      39.577  31.411  29.323  1.00  0.00    -0.248 NA
ATOM     42  C   UNL A   1      38.078  29.701  29.091  1.00  0.00     0.031 C 
ATOM     43  C   UNL A   1      41.944  30.255  31.413  1.00  0.00     0.029 A 
ATOM     44  N   UNL A   1      42.744  28.441  30.343  1.00  0.00    -0.354 N 
ATOM     45  C   UNL A   1      38.298  31.927  29.421  1.00  0.00     0.074 A 
ATOM     46  C   UNL A   1      37.427  30.861  29.025  1.00  0.00     0.031 C 
ATOM     47  C   UNL A   1      43.284  30.241  31.579  1.00  0.00     0.029 A 
ATOM     48  C   UNL A   1      43.829  29.293  30.614  1.00  0.00     0.049 A 
ATOM     49  H   UNL A   1      42.779  27.478  30.140  1.00  0.00     0.167 HD
ATOM     50  C   UNL A   1      38.137  33.104  30.088  1.00  0.00     0.037 A 
ATOM     51  C   UNL A   1      44.671  29.612  29.588  1.00  0.00     0.037 A 
ATOM     52  C   UNL A   1      39.462  33.576  30.499  1.00  0.00     0.049 A 
ATOM     53  C   UNL A   1      44.544  31.073  29.202  1.00  0.00     0.074 A 
ATOM     54  C   UNL A   1      40.166  33.450  31.686  1.00  0.00     0.029 A 
ATOM     55  N   UNL A   1      40.403  33.854  29.515  1.00  0.00    -0.354 N 
ATOM     56  N   UNL A   1      43.470  31.803  29.372  1.00  0.00    -0.248 NA
ATOM     57  C   UNL A   1      45.675  31.847  28.708  1.00  0.00     0.031 C 
ATOM     58  C   UNL A   1      41.550  33.615  31.391  1.00  0.00     0.029 A 
ATOM     59  C   UNL A   1      41.685  33.839  30.030  1.00  0.00     0.049 A 
ATOM     60  H   UNL A   1      40.185  34.040  28.573  1.00  0.00     0.167 HD
ATOM     61  C   UNL A   1      43.747  33.116  29.058  1.00  0.00     0.074 A 
ATOM     62  C   UNL A   1      45.150  33.084  28.680  1.00  0.00     0.031 C 
ATOM     63  C   UNL A   1      42.821  34.125  29.158  1.00  0.00     0.037 A 
BRANCH  50  64
ATOM     64  C   UNL A   1      36.835  33.650  30.645  1.00  0.00     0.058 A 
ATOM     65  C   UNL A   1      35.826  34.081  29.755  1.00  0.00     0.135 A 
ATOM     66  C   UNL A   1      36.501  33.798  32.010  1.00  0.00     0.135 A 
ATOM     67  F   UNL A   1      35.971  33.971  28.427  1.00  0.00    -0.206 F 
ATOM     68  C   UNL A   1      34.619  34.644  30.173  1.00  0.00     0.059 A 
ATOM     69  C   UNL A   1      35.309  34.383  32.455  1.00  0.00     0.059 A 
ATOM     70  F   UNL A   1      37.285  33.342  32.990  1.00  0.00    -0.206 F 
ATOM     71  C   UNL A   1      34.369  34.798  31.528  1.00  0.00     0.060 A 
BRANCH  71  72
ATOM     72  S   UNL A   1      32.791  35.494  32.044  1.00  0.00     0.124 S 
ATOM     73  O   UNL A   1      33.201  36.749  32.666  1.00  0.00    -0.237 OA
ATOM     74  O   UNL A   1      32.082  35.614  30.774  1.00  0.00    -0.237 OA
ATOM     75  O   UNL A   1      32.258  34.491  32.962  1.00  0.00    -0.744 OA
ENDBRANCH  71  72
ENDBRANCH  50  64
BRANCH  51  76
ATOM     76  C   UNL A   1      44.928  28.447  28.680  1.00  0.00     0.058 A 
ATOM     77  C   UNL A   1      44.313  28.456  27.406  1.00  0.00     0.135 A 
ATOM     78  C   UNL A   1      46.006  27.571  28.850  1.00  0.00     0.135 A 
ATOM     79  F   UNL A   1      43.273  29.274  27.171  1.00  0.00    -0.206 F 
ATOM     80  C   UNL A   1      44.807  27.721  26.328  1.00  0.00     0.059 A 
ATOM     81  C   UNL A   1      46.516  26.817  27.782  1.00  0.00     0.059 A 
ATOM     82  F   UNL A   1      46.639  27.501  30.030  1.00  0.00    -0.206 F 
ATOM     83  C   UNL A   1      45.926  26.916  26.521  1.00  0.00     0.060 A 
BRANCH  83  84
ATOM     84  S   UNL A   1      46.624  26.056  25.093  1.00  0.00     0.124 S 
ATOM     85  O   UNL A   1      45.569  25.103  24.771  1.00  0.00    -0.237 OA
ATOM     86  O   UNL A   1      46.810  27.136  24.130  1.00  0.00    -0.237 OA
ATOM     87  O   UNL A   1      47.867  25.492  25.603  1.00  0.00    -0.744 OA
ENDBRANCH  83  84
ENDBRANCH  51  76
BRANCH  63  88
ATOM     88  C   UNL A   1      42.887  35.515  28.514  1.00  0.00     0.058 A 
ATOM     89  C   UNL A   1      42.605  35.797  27.168  1.00  0.00     0.135 A 
ATOM     90  C   UNL A   1      43.125  36.676  29.309  1.00  0.00     0.135 A 
ATOM     91  F   UNL A   1      42.225  34.854  26.303  1.00  0.00    -0.206 F 
ATOM     92  C   UNL A   1      42.645  37.089  26.639  1.00  0.00     0.059 A 
ATOM     93  C   UNL A   1      43.068  37.979  28.823  1.00  0.00     0.059 A 
ATOM     94  F   UNL A   1      43.416  36.612  30.615  1.00  0.00    -0.206 F 
ATOM     95  C   UNL A   1      42.867  38.175  27.474  1.00  0.00     0.060 A 
BRANCH  95  96
ATOM     96  S   UNL A   1      42.861  39.828  26.777  1.00  0.00     0.124 S 
ATOM     97  O   UNL A   1      42.981  40.648  27.978  1.00  0.00    -0.237 OA
ATOM     98  O   UNL A   1      44.034  39.800  25.908  1.00  0.00    -0.237 OA
ATOM     99  O   UNL A   1      41.578  39.906  26.087  1.00  0.00    -0.744 OA
ENDBRANCH  95  96
ENDBRANCH  63  88
ENDBRANCH  37  38
ENDBRANCH  29  32
ENDBRANCH  27  28
ENDBRANCH  26  27
ENDBRANCH   1  26
TORSDOF 19
ENDMDL
MODEL 3
REMARK VINA RESULT:     -11.7      1.271      1.981
REMARK SMILES Cc1cccc(NC(=O)C[C@H]([NH2+]C(C)C)C(=O)NCCCCNC(=O)c2ccc(-c3c4nc(c(-c5c(F)cc(S(=O)(=O)[O-])cc5F)c5ccc([nH]5)c(-c5c(F)cc(S(=O)(=O)[O-])cc5F)c5nc(c(-c6c(F)cc(S(=O)(=O)[O-])cc6F)c6ccc3[nH]6)C=C5)C=C4)cc2)c1
REMARK SMILES IDX 20 1 19 2 18 3 16 4 17 5 11 7 10 8 8 9 7 10 9 12 6 13 1 14
REMARK SMILES IDX 2 15 3 16 92 17 4 18 5 19 12 20 13 23 14 24 15 25 21 26
REMARK SMILES IDX 22 27 23 28 24 29 25 31 26 32 27 33 91 34 28 35 90 36 29 37
REMARK SMILES IDX 30 38 31 39 84 40 32 41 89 42 83 43 85 44 33 45 88 46 82 47
REMARK SMILES IDX 81 48 34 50 68 51 47 52 67 53 48 54 51 55 66 56 86 57 49 58
REMARK SMILES IDX 50 59 65 61 87 62 52 63 35 64 36 65 45 66 37 67 38 68 44 69
REMARK SMILES IDX 46 70 39 71 40 72 41 73 42 74 43 75 69 76 70 77 79 78 71 79
REMARK SMILES IDX 72 80 78 81 80 82 73 83 74 84 75 85 76 86 77 87 53 88 54 89
REMARK SMILES IDX 63 90 55 91 56 92 62 93 64 94 57 95 58 96 59 97 60 98 61 99
REMARK H PARENT 18 6 7 11 12 21 12 22 23 30 85 49 51 60
REMARK Flexibility Score: inf
ROOT
ATOM      1  C   UNL A   1      35.826  22.309  26.323  1.00  0.00     0.023 C 
ENDROOT
BRANCH   1   2
ATOM      2  C   UNL A   1      34.363  21.404  25.956  1.00  0.00     0.116 C 
BRANCH   2   3
ATOM      3  N   UNL A   1      32.920  21.677  24.467  1.00  0.00    -0.351 N 
ATOM      4  C   UNL A   1      32.098  22.384  23.603  1.00  0.00     0.278 C 
ATOM      5  O   UNL A   1      31.638  21.663  22.691  1.00  0.00    -0.268 OA
ATOM      6  H   UNL A   1      32.681  20.747  24.250  1.00  0.00     0.163 HD
BRANCH   4   7
ATOM      7  C   UNL A   1      31.611  23.839  23.635  1.00  0.00     0.282 C 
BRANCH   7   8
ATOM      8  C   UNL A   1      30.531  24.195  24.689  1.00  0.00     0.175 C 
BRANCH   8   9
ATOM      9  C   UNL A   1      30.912  24.167  26.182  1.00  0.00     0.230 C 
ATOM     10  N   UNL A   1      31.502  25.224  26.830  1.00  0.00    -0.326 N 
ATOM     11  H   UNL A   1      31.817  25.069  27.750  1.00  0.00     0.169 HD
ATOM     12  O   UNL A   1      30.688  23.143  26.838  1.00  0.00    -0.274 OA
BRANCH  10  13
ATOM     13  C   UNL A   1      31.695  26.506  26.294  1.00  0.00     0.041 A 
ATOM     14  C   UNL A   1      29.849  28.542  22.719  1.00  0.00     0.044 C 
ATOM     15  C   UNL A   1      30.828  28.226  23.802  1.00  0.00    -0.049 A 
ATOM     16  C   UNL A   1      32.571  28.666  23.540  1.00  0.00     0.003 A 
ATOM     17  C   UNL A   1      30.400  27.088  25.162  1.00  0.00     0.029 A 
ATOM     18  C   UNL A   1      33.842  28.133  24.727  1.00  0.00     0.002 A 
ATOM     19  C   UNL A   1      33.405  27.086  26.118  1.00  0.00     0.026 A 
ENDBRANCH  10  13
ENDBRANCH   8   9
ENDBRANCH   7   8
BRANCH   7  20
ATOM     20  N   UNL A   1      31.416  24.414  22.246  1.00  0.00    -0.334 N 
ATOM     21  H   UNL A   1      30.474  24.802  22.196  1.00  0.00     0.347 HD
ATOM     22  H   UNL A   1      31.579  23.644  21.598  1.00  0.00     0.347 HD
BRANCH  20  23
ATOM     23  C   UNL A   1      32.371  25.483  21.858  1.00  0.00     0.176 C 
ATOM     24  C   UNL A   1      33.722  25.270  22.558  1.00  0.00     0.075 C 
ATOM     25  C   UNL A   1      32.565  25.753  20.371  1.00  0.00     0.075 C 
ENDBRANCH  20  23
ENDBRANCH   7  20
ENDBRANCH   4   7
ENDBRANCH   2   3
ENDBRANCH   1   2
BRANCH   1  26
ATOM     26  C   UNL A   1      36.793  22.695  25.188  1.00  0.00     0.023 C 
BRANCH  26  27
ATOM     27  C   UNL A   1      37.834  23.681  25.650  1.00  0.00     0.116 C 
BRANCH  27  28
ATOM     28  N   UNL A   1      38.938  23.079  26.359  1.00  0.00    -0.352 N 
ATOM     29  C   UNL A   1      40.052  23.761  26.810  1.00  0.00     0.251 C 
ATOM     30  H   UNL A   1      38.895  22.111  26.534  1.00  0.00     0.163 HD
ATOM     31  O   UNL A   1      41.163  23.268  26.935  1.00  0.00    -0.269 OA
BRANCH  29  32
ATOM     32  C   UNL A   1      39.780  25.128  27.291  1.00  0.00     0.039 A 
ATOM     33  C   UNL A   1      40.521  26.149  26.681  1.00  0.00     0.014 A 
ATOM     34  C   UNL A   1      39.196  25.279  28.547  1.00  0.00     0.014 A 
ATOM     35  C   UNL A   1      40.821  27.277  27.420  1.00  0.00     0.010 A 
ATOM     36  C   UNL A   1      39.652  26.297  29.337  1.00  0.00     0.010 A 
ATOM     37  C   UNL A   1      40.459  27.281  28.766  1.00  0.00    -0.014 A 
BRANCH  37  38
ATOM     38  C   UNL A   1      40.630  28.430  29.618  1.00  0.00     0.031 A 
ATOM     39  C   UNL A   1      39.638  29.480  29.343  1.00  0.00     0.074 A 
ATOM     40  C   UNL A   1      41.573  28.383  30.579  1.00  0.00     0.049 A 
ATOM     41  N   UNL A   1      39.874  30.736  29.336  1.00  0.00    -0.248 NA
ATOM     42  C   UNL A   1      38.281  29.165  28.872  1.00  0.00     0.031 C 
ATOM     43  C   UNL A   1      41.880  29.329  31.641  1.00  0.00     0.029 A 
ATOM     44  N   UNL A   1      42.651  27.483  30.604  1.00  0.00    -0.354 N 
ATOM     45  C   UNL A   1      38.639  31.355  29.306  1.00  0.00     0.074 A 
ATOM     46  C   UNL A   1      37.737  30.377  28.774  1.00  0.00     0.031 C 
ATOM     47  C   UNL A   1      43.185  29.198  31.958  1.00  0.00     0.029 A 
ATOM     48  C   UNL A   1      43.761  28.233  31.029  1.00  0.00     0.049 A 
ATOM     49  H   UNL A   1      42.632  26.526  30.372  1.00  0.00     0.167 HD
ATOM     50  C   UNL A   1      38.496  32.523  29.992  1.00  0.00     0.037 A 
ATOM     51  C   UNL A   1      44.741  28.508  30.118  1.00  0.00     0.037 A 
ATOM     52  C   UNL A   1      39.798  32.871  30.569  1.00  0.00     0.049 A 
ATOM     53  C   UNL A   1      44.778  29.984  29.774  1.00  0.00     0.074 A 
ATOM     54  C   UNL A   1      40.345  32.654  31.823  1.00  0.00     0.029 A 
ATOM     55  N   UNL A   1      40.867  33.095  29.711  1.00  0.00    -0.354 N 
ATOM     56  N   UNL A   1      43.754  30.797  29.845  1.00  0.00    -0.248 NA
ATOM     57  C   UNL A   1      46.018  30.673  29.441  1.00  0.00     0.031 C 
ATOM     58  C   UNL A   1      41.763  32.710  31.696  1.00  0.00     0.029 A 
ATOM     59  C   UNL A   1      42.074  32.958  30.368  1.00  0.00     0.049 A 
ATOM     60  H   UNL A   1      40.776  33.323  28.757  1.00  0.00     0.167 HD
ATOM     61  C   UNL A   1      44.171  32.090  29.613  1.00  0.00     0.074 A 
ATOM     62  C   UNL A   1      45.601  31.949  29.398  1.00  0.00     0.031 C 
ATOM     63  C   UNL A   1      43.324  33.171  29.643  1.00  0.00     0.037 A 
BRANCH  50  64
ATOM     64  C   UNL A   1      37.186  33.162  30.415  1.00  0.00     0.058 A 
ATOM     65  C   UNL A   1      36.324  33.694  29.431  1.00  0.00     0.135 A 
ATOM     66  C   UNL A   1      36.710  33.307  31.738  1.00  0.00     0.135 A 
ATOM     67  F   UNL A   1      36.610  33.601  28.125  1.00  0.00    -0.206 F 
ATOM     68  C   UNL A   1      35.124  34.344  29.728  1.00  0.00     0.059 A 
ATOM     69  C   UNL A   1      35.525  33.978  32.063  1.00  0.00     0.059 A 
ATOM     70  F   UNL A   1      37.339  32.767  32.785  1.00  0.00    -0.206 F 
ATOM     71  C   UNL A   1      34.734  34.489  31.050  1.00  0.00     0.060 A 
BRANCH  71  72
ATOM     72  S   UNL A   1      33.166  35.301  31.406  1.00  0.00     0.124 S 
ATOM     73  O   UNL A   1      32.709  34.576  32.587  1.00  0.00    -0.237 OA
ATOM     74  O   UNL A   1      33.583  36.681  31.628  1.00  0.00    -0.237 OA
ATOM     75  O   UNL A   1      32.381  35.074  30.196  1.00  0.00    -0.744 OA
ENDBRANCH  71  72
ENDBRANCH  50  64
BRANCH  51  76
ATOM     76  C   UNL A   1      45.008  27.350  29.204  1.00  0.00     0.058 A 
ATOM     77  C   UNL A   1      44.613  27.473  27.851  1.00  0.00     0.135 A 
ATOM     78  C   UNL A   1      45.937  26.345  29.497  1.00  0.00     0.135 A 
ATOM     79  F   UNL A   1      43.725  28.418  27.497  1.00  0.00    -0.206 F 
ATOM     80  C   UNL A   1      45.189  26.719  26.829  1.00  0.00     0.059 A 
ATOM     81  C   UNL A   1      46.525  25.570  28.486  1.00  0.00     0.059 A 
ATOM     82  F   UNL A   1      46.358  26.162  30.757  1.00  0.00    -0.206 F 
ATOM     83  C   UNL A   1      46.163  25.779  27.154  1.00  0.00     0.060 A 
BRANCH  83  84
ATOM     84  S   UNL A   1      46.981  24.887  25.812  1.00  0.00     0.124 S 
ATOM     85  O   UNL A   1      46.284  25.403  24.641  1.00  0.00    -0.237 OA
ATOM     86  O   UNL A   1      48.372  25.306  25.951  1.00  0.00    -0.237 OA
ATOM     87  O   UNL A   1      46.746  23.486  26.136  1.00  0.00    -0.744 OA
ENDBRANCH  83  84
ENDBRANCH  51  76
BRANCH  63  88
ATOM     88  C   UNL A   1      43.576  34.566  29.062  1.00  0.00     0.058 A 
ATOM     89  C   UNL A   1      43.641  34.873  27.694  1.00  0.00     0.135 A 
ATOM     90  C   UNL A   1      43.638  35.711  29.913  1.00  0.00     0.135 A 
ATOM     91  F   UNL A   1      43.465  33.952  26.743  1.00  0.00    -0.206 F 
ATOM     92  C   UNL A   1      43.839  36.171  27.215  1.00  0.00     0.059 A 
ATOM     93  C   UNL A   1      43.731  37.021  29.453  1.00  0.00     0.059 A 
ATOM     94  F   UNL A   1      43.597  35.622  31.249  1.00  0.00    -0.206 F 
ATOM     95  C   UNL A   1      43.872  37.239  28.100  1.00  0.00     0.060 A 
BRANCH  95  96
ATOM     96  S   UNL A   1      44.074  38.901  27.455  1.00  0.00     0.124 S 
ATOM     97  O   UNL A   1      45.347  38.785  26.752  1.00  0.00    -0.237 OA
ATOM     98  O   UNL A   1      42.894  39.049  26.608  1.00  0.00    -0.237 OA
ATOM     99  O   UNL A   1      44.089  39.735  28.652  1.00  0.00    -0.744 OA
ENDBRANCH  95  96
ENDBRANCH  63  88
ENDBRANCH  37  38
ENDBRANCH  29  32
ENDBRANCH  27  28
ENDBRANCH  26  27
ENDBRANCH   1  26
TORSDOF 19
ENDMDL
