MODEL 1
REMARK VINA RESULT:     -11.5      0.000      0.000
REMARK SMILES CCOC(=O)c1sc(NC(=O)CCC(=O)NCCCCNC(=O)c2ccc(-c3c4nc(c(-c5c(F)cc(S(=O)(=O)[O-])cc5F)c5ccc([nH]5)c(-c5c(F)cc(S(=O)(=O)[O-])cc5F)c5nc(c(-c6c(F)cc(S(=O)(=O)[O-])cc6F)c6ccc3[nH]6)C=C5)C=C4)cc2)c(C#N)c1C
REMARK SMILES IDX 17 1 16 2 14 3 15 4 13 6 12 7 10 8 9 9 11 11 8 12 6 13 7 14
REMARK SMILES IDX 93 15 90 16 94 17 4 18 5 19 3 20 2 21 1 22 91 23 92 24 18 25
REMARK SMILES IDX 19 26 20 27 21 28 22 29 23 31 24 32 25 33 89 34 26 35 88 36
REMARK SMILES IDX 27 37 28 38 29 39 82 40 30 41 87 42 81 43 83 44 31 45 86 46
REMARK SMILES IDX 80 47 79 48 32 50 66 51 45 52 65 53 46 54 49 55 64 56 84 57
REMARK SMILES IDX 47 58 48 59 63 61 85 62 50 63 33 64 34 65 43 66 35 67 36 68
REMARK SMILES IDX 42 69 44 70 37 71 38 72 39 73 40 74 41 75 67 76 68 77 77 78
REMARK SMILES IDX 69 79 70 80 76 81 78 82 71 83 72 84 73 85 74 86 75 87 51 88
REMARK SMILES IDX 52 89 61 90 53 91 54 92 60 93 62 94 55 95 56 96 57 97 58 98
REMARK SMILES IDX 59 99
REMARK H PARENT 16 5 9 10 21 30 83 49 49 60
REMARK Flexibility Score: inf
ROOT
ATOM      1  C   UNL A   1      35.269  23.702  23.952  1.00  0.00     0.116 C 
ENDROOT
BRANCH   1   2
ATOM      2  N   UNL A   1      34.063  23.778  23.149  1.00  0.00    -0.356 N 
ATOM      3  C   UNL A   1      32.758  23.640  23.502  1.00  0.00     0.220 C 
ATOM      4  O   UNL A   1      31.905  24.005  22.694  1.00  0.00    -0.275 OA
ATOM      5  H   UNL A   1      34.214  23.960  22.193  1.00  0.00     0.163 HD
BRANCH   3   6
ATOM      6  C   UNL A   1      32.370  23.036  24.829  1.00  0.00     0.110 C 
BRANCH   6   7
ATOM      7  C   UNL A   1      30.886  23.027  25.193  1.00  0.00     0.110 C 
BRANCH   7   8
ATOM      8  C   UNL A   1      30.410  23.872  26.363  1.00  0.00     0.225 C 
ATOM      9  N   UNL A   1      30.202  25.224  26.339  1.00  0.00    -0.317 N 
ATOM     10  H   UNL A   1      29.803  25.590  27.160  1.00  0.00     0.170 HD
ATOM     11  O   UNL A   1      30.147  23.292  27.428  1.00  0.00    -0.275 OA
BRANCH   9  12
ATOM     12  C   UNL A   1      30.456  26.164  25.358  1.00  0.00     0.114 A 
ATOM     13  C   UNL A   1      30.121  27.879  23.646  1.00  0.00     0.118 A 
ATOM     14  S   UNL A   1      29.274  26.512  24.196  1.00  0.00    -0.109 S 
ATOM     15  C   UNL A   1      31.388  27.969  24.196  1.00  0.00    -0.006 A 
ATOM     16  C   UNL A   1      31.627  26.845  25.068  1.00  0.00     0.091 A 
ATOM     17  C   UNL A   1      32.359  29.089  23.971  1.00  0.00     0.048 C 
BRANCH  13  18
ATOM     18  C   UNL A   1      29.467  28.702  22.665  1.00  0.00     0.348 C 
ATOM     19  O   UNL A   1      29.945  29.107  21.615  1.00  0.00    -0.245 OA
BRANCH  18  20
ATOM     20  O   UNL A   1      28.267  29.089  23.183  1.00  0.00    -0.462 OA
BRANCH  20  21
ATOM     21  C   UNL A   1      27.660  30.217  22.548  1.00  0.00     0.230 C 
ATOM     22  C   UNL A   1      27.579  31.403  23.497  1.00  0.00     0.049 C 
ENDBRANCH  20  21
ENDBRANCH  18  20
ENDBRANCH  13  18
BRANCH  16  23
ATOM     23  C   UNL A   1      32.904  26.587  25.663  1.00  0.00     0.103 C 
ATOM     24  N   UNL A   1      33.948  26.390  26.140  1.00  0.00    -0.192 NA
ENDBRANCH  16  23
ENDBRANCH   9  12
ENDBRANCH   7   8
ENDBRANCH   6   7
ENDBRANCH   3   6
ENDBRANCH   1   2
BRANCH   1  25
ATOM     25  C   UNL A   1      35.886  22.302  24.074  1.00  0.00     0.023 C 
BRANCH  25  26
ATOM     26  C   UNL A   1      37.384  22.236  24.370  1.00  0.00     0.023 C 
BRANCH  26  27
ATOM     27  C   UNL A   1      37.768  22.707  25.751  1.00  0.00     0.116 C 
BRANCH  27  28
ATOM     28  N   UNL A   1      38.863  21.918  26.328  1.00  0.00    -0.352 N 
ATOM     29  C   UNL A   1      40.092  22.369  26.786  1.00  0.00     0.251 C 
ATOM     30  H   UNL A   1      38.705  20.949  26.398  1.00  0.00     0.163 HD
ATOM     31  O   UNL A   1      41.051  21.613  26.874  1.00  0.00    -0.269 OA
BRANCH  29  32
ATOM     32  C   UNL A   1      40.197  23.782  27.188  1.00  0.00     0.039 A 
ATOM     33  C   UNL A   1      39.144  24.697  27.121  1.00  0.00     0.014 A 
ATOM     34  C   UNL A   1      41.409  24.146  27.749  1.00  0.00     0.014 A 
ATOM     35  C   UNL A   1      39.352  25.972  27.649  1.00  0.00     0.010 A 
ATOM     36  C   UNL A   1      41.428  25.193  28.607  1.00  0.00     0.010 A 
ATOM     37  C   UNL A   1      40.521  26.207  28.387  1.00  0.00    -0.014 A 
BRANCH  37  38
ATOM     38  C   UNL A   1      40.821  27.440  29.095  1.00  0.00     0.031 A 
ATOM     39  C   UNL A   1      41.908  28.194  28.434  1.00  0.00     0.074 A 
ATOM     40  C   UNL A   1      39.987  27.944  30.040  1.00  0.00     0.049 A 
ATOM     41  N   UNL A   1      43.146  28.257  28.795  1.00  0.00    -0.248 NA
ATOM     42  C   UNL A   1      41.671  28.694  27.065  1.00  0.00     0.031 C 
ATOM     43  C   UNL A   1      38.696  27.405  30.503  1.00  0.00     0.029 A 
ATOM     44  N   UNL A   1      40.065  29.118  30.728  1.00  0.00    -0.354 N 
ATOM     45  C   UNL A   1      43.742  29.104  27.869  1.00  0.00     0.074 A 
ATOM     46  C   UNL A   1      42.908  29.045  26.704  1.00  0.00     0.031 C 
ATOM     47  C   UNL A   1      38.023  28.348  31.203  1.00  0.00     0.029 A 
ATOM     48  C   UNL A   1      38.882  29.500  31.381  1.00  0.00     0.049 A 
ATOM     49  H   UNL A   1      40.887  29.659  30.763  1.00  0.00     0.167 HD
ATOM     50  C   UNL A   1      44.621  30.059  28.286  1.00  0.00     0.037 A 
ATOM     51  C   UNL A   1      38.649  30.698  31.991  1.00  0.00     0.037 A 
ATOM     52  C   UNL A   1      45.064  29.767  29.635  1.00  0.00     0.049 A 
ATOM     53  C   UNL A   1      39.990  31.298  32.251  1.00  0.00     0.074 A 
ATOM     54  C   UNL A   1      45.654  28.677  30.249  1.00  0.00     0.029 A 
ATOM     55  N   UNL A   1      44.509  30.511  30.651  1.00  0.00    -0.354 N 
ATOM     56  N   UNL A   1      40.868  30.768  33.062  1.00  0.00    -0.248 NA
ATOM     57  C   UNL A   1      40.538  32.151  31.208  1.00  0.00     0.031 C 
ATOM     58  C   UNL A   1      45.005  28.571  31.515  1.00  0.00     0.029 A 
ATOM     59  C   UNL A   1      44.148  29.662  31.663  1.00  0.00     0.049 A 
ATOM     60  H   UNL A   1      44.389  31.488  30.649  1.00  0.00     0.167 HD
ATOM     61  C   UNL A   1      42.074  30.846  32.377  1.00  0.00     0.074 A 
ATOM     62  C   UNL A   1      41.811  31.748  31.254  1.00  0.00     0.031 C 
ATOM     63  C   UNL A   1      43.071  29.936  32.592  1.00  0.00     0.037 A 
BRANCH  50  64
ATOM     64  C   UNL A   1      44.714  31.459  27.698  1.00  0.00     0.058 A 
ATOM     65  C   UNL A   1      45.880  31.801  26.980  1.00  0.00     0.135 A 
ATOM     66  C   UNL A   1      43.878  32.551  28.029  1.00  0.00     0.135 A 
ATOM     67  F   UNL A   1      46.742  30.852  26.580  1.00  0.00    -0.206 F 
ATOM     68  C   UNL A   1      46.245  33.122  26.719  1.00  0.00     0.059 A 
ATOM     69  C   UNL A   1      44.201  33.872  27.740  1.00  0.00     0.059 A 
ATOM     70  F   UNL A   1      42.737  32.425  28.713  1.00  0.00    -0.206 F 
ATOM     71  C   UNL A   1      45.405  34.152  27.125  1.00  0.00     0.060 A 
BRANCH  71  72
ATOM     72  S   UNL A   1      45.904  35.860  26.867  1.00  0.00     0.124 S 
ATOM     73  O   UNL A   1      46.528  35.784  25.551  1.00  0.00    -0.237 OA
ATOM     74  O   UNL A   1      44.624  36.557  26.934  1.00  0.00    -0.237 OA
ATOM     75  O   UNL A   1      46.810  36.116  27.984  1.00  0.00    -0.744 OA
ENDBRANCH  71  72
ENDBRANCH  50  64
BRANCH  51  76
ATOM     76  C   UNL A   1      37.398  31.519  31.986  1.00  0.00     0.058 A 
ATOM     77  C   UNL A   1      36.772  31.929  33.182  1.00  0.00     0.135 A 
ATOM     78  C   UNL A   1      36.957  32.168  30.817  1.00  0.00     0.135 A 
ATOM     79  F   UNL A   1      37.133  31.382  34.354  1.00  0.00    -0.206 F 
ATOM     80  C   UNL A   1      35.813  32.955  33.221  1.00  0.00     0.059 A 
ATOM     81  C   UNL A   1      36.002  33.187  30.828  1.00  0.00     0.059 A 
ATOM     82  F   UNL A   1      37.512  31.896  29.627  1.00  0.00    -0.206 F 
ATOM     83  C   UNL A   1      35.451  33.596  32.037  1.00  0.00     0.060 A 
BRANCH  83  84
ATOM     84  S   UNL A   1      34.352  35.036  32.089  1.00  0.00     0.124 S 
ATOM     85  O   UNL A   1      35.154  36.004  32.829  1.00  0.00    -0.237 OA
ATOM     86  O   UNL A   1      34.149  35.326  30.674  1.00  0.00    -0.237 OA
ATOM     87  O   UNL A   1      33.174  34.537  32.794  1.00  0.00    -0.744 OA
ENDBRANCH  83  84
ENDBRANCH  51  76
BRANCH  63  88
ATOM     88  C   UNL A   1      42.975  29.025  33.794  1.00  0.00     0.058 A 
ATOM     89  C   UNL A   1      42.361  27.758  33.813  1.00  0.00     0.135 A 
ATOM     90  C   UNL A   1      43.693  29.401  34.938  1.00  0.00     0.135 A 
ATOM     91  F   UNL A   1      41.740  27.277  32.728  1.00  0.00    -0.206 F 
ATOM     92  C   UNL A   1      42.427  26.925  34.935  1.00  0.00     0.059 A 
ATOM     93  C   UNL A   1      43.799  28.577  36.053  1.00  0.00     0.059 A 
ATOM     94  F   UNL A   1      44.353  30.570  34.962  1.00  0.00    -0.206 F 
ATOM     95  C   UNL A   1      43.150  27.345  36.053  1.00  0.00     0.060 A 
BRANCH  95  96
ATOM     96  S   UNL A   1      43.278  26.263  37.493  1.00  0.00     0.124 S 
ATOM     97  O   UNL A   1      43.829  25.043  36.913  1.00  0.00    -0.237 OA
ATOM     98  O   UNL A   1      44.175  27.008  38.372  1.00  0.00    -0.237 OA
ATOM     99  O   UNL A   1      41.899  26.160  37.966  1.00  0.00    -0.744 OA
ENDBRANCH  95  96
ENDBRANCH  63  88
ENDBRANCH  37  38
ENDBRANCH  29  32
ENDBRANCH  27  28
ENDBRANCH  26  27
ENDBRANCH  25  26
ENDBRANCH   1  25
TORSDOF 21
ENDMDL
MODEL 2
REMARK VINA RESULT:     -11.4      2.573      8.973
REMARK SMILES CCOC(=O)c1sc(NC(=O)CCC(=O)NCCCCNC(=O)c2ccc(-c3c4nc(c(-c5c(F)cc(S(=O)(=O)[O-])cc5F)c5ccc([nH]5)c(-c5c(F)cc(S(=O)(=O)[O-])cc5F)c5nc(c(-c6c(F)cc(S(=O)(=O)[O-])cc6F)c6ccc3[nH]6)C=C5)C=C4)cc2)c(C#N)c1C
REMARK SMILES IDX 17 1 16 2 14 3 15 4 13 6 12 7 10 8 9 9 11 11 8 12 6 13 7 14
REMARK SMILES IDX 93 15 90 16 94 17 4 18 5 19 3 20 2 21 1 22 91 23 92 24 18 25
REMARK SMILES IDX 19 26 20 27 21 28 22 29 23 31 24 32 25 33 89 34 26 35 88 36
REMARK SMILES IDX 27 37 28 38 29 39 82 40 30 41 87 42 81 43 83 44 31 45 86 46
REMARK SMILES IDX 80 47 79 48 32 50 66 51 45 52 65 53 46 54 49 55 64 56 84 57
REMARK SMILES IDX 47 58 48 59 63 61 85 62 50 63 33 64 34 65 43 66 35 67 36 68
REMARK SMILES IDX 42 69 44 70 37 71 38 72 39 73 40 74 41 75 67 76 68 77 77 78
REMARK SMILES IDX 69 79 70 80 76 81 78 82 71 83 72 84 73 85 74 86 75 87 51 88
REMARK SMILES IDX 52 89 61 90 53 91 54 92 60 93 62 94 55 95 56 96 57 97 58 98
REMARK SMILES IDX 59 99
REMARK H PARENT 16 5 9 10 21 30 83 49 49 60
REMARK Flexibility Score: inf
ROOT
ATOM      1  C   UNL A   1      35.107  30.738  27.954  1.00  0.00     0.116 C 
ENDROOT
BRANCH   1   2
ATOM      2  N   UNL A   1      33.697  30.509  27.698  1.00  0.00    -0.356 N 
ATOM      3  C   UNL A   1      33.070  29.478  27.074  1.00  0.00     0.220 C 
ATOM      4  O   UNL A   1      31.851  29.383  27.211  1.00  0.00    -0.275 OA
ATOM      5  H   UNL A   1      33.097  31.215  28.033  1.00  0.00     0.163 HD
BRANCH   3   6
ATOM      6  C   UNL A   1      33.840  28.500  26.221  1.00  0.00     0.110 C 
BRANCH   6   7
ATOM      7  C   UNL A   1      33.283  27.083  26.097  1.00  0.00     0.110 C 
BRANCH   7   8
ATOM      8  C   UNL A   1      33.368  26.373  24.756  1.00  0.00     0.225 C 
ATOM      9  N   UNL A   1      32.497  26.534  23.713  1.00  0.00    -0.317 N 
ATOM     10  H   UNL A   1      32.759  26.066  22.887  1.00  0.00     0.170 HD
ATOM     11  O   UNL A   1      34.324  25.606  24.564  1.00  0.00    -0.275 OA
BRANCH   9  12
ATOM     12  C   UNL A   1      31.314  27.242  23.617  1.00  0.00     0.114 A 
ATOM     13  C   UNL A   1      29.580  28.765  22.805  1.00  0.00     0.118 A 
ATOM     14  S   UNL A   1      31.279  28.721  22.794  1.00  0.00    -0.109 S 
ATOM     15  C   UNL A   1      29.034  27.770  23.598  1.00  0.00    -0.006 A 
ATOM     16  C   UNL A   1      30.086  26.995  24.210  1.00  0.00     0.091 A 
ATOM     17  C   UNL A   1      27.570  27.494  23.766  1.00  0.00     0.048 C 
BRANCH  13  18
ATOM     18  C   UNL A   1      28.948  29.828  22.072  1.00  0.00     0.348 C 
ATOM     19  O   UNL A   1      28.218  29.710  21.098  1.00  0.00    -0.245 OA
BRANCH  18  20
ATOM     20  O   UNL A   1      29.433  31.007  22.554  1.00  0.00    -0.462 OA
BRANCH  20  21
ATOM     21  C   UNL A   1      28.813  32.184  22.028  1.00  0.00     0.230 C 
ATOM     22  C   UNL A   1      28.886  33.332  23.023  1.00  0.00     0.049 C 
ENDBRANCH  20  21
ENDBRANCH  18  20
ENDBRANCH  13  18
BRANCH  16  23
ATOM     23  C   UNL A   1      29.831  25.993  25.200  1.00  0.00     0.103 C 
ATOM     24  N   UNL A   1      29.631  25.186  26.017  1.00  0.00    -0.192 NA
ENDBRANCH  16  23
ENDBRANCH   9  12
ENDBRANCH   7   8
ENDBRANCH   6   7
ENDBRANCH   3   6
ENDBRANCH   1   2
BRANCH   1  25
ATOM     25  C   UNL A   1      35.549  32.207  27.908  1.00  0.00     0.023 C 
BRANCH  25  26
ATOM     26  C   UNL A   1      34.510  33.249  28.323  1.00  0.00     0.023 C 
BRANCH  26  27
ATOM     27  C   UNL A   1      35.093  34.559  28.792  1.00  0.00     0.116 C 
BRANCH  27  28
ATOM     28  N   UNL A   1      34.566  34.972  30.098  1.00  0.00    -0.352 N 
ATOM     29  C   UNL A   1      34.644  34.293  31.305  1.00  0.00     0.251 C 
ATOM     30  H   UNL A   1      34.100  35.839  30.120  1.00  0.00     0.163 HD
ATOM     31  O   UNL A   1      33.856  34.525  32.214  1.00  0.00    -0.269 OA
BRANCH  29  32
ATOM     32  C   UNL A   1      35.721  33.302  31.466  1.00  0.00     0.039 A 
ATOM     33  C   UNL A   1      35.512  31.924  31.560  1.00  0.00     0.014 A 
ATOM     34  C   UNL A   1      37.005  33.816  31.415  1.00  0.00     0.014 A 
ATOM     35  C   UNL A   1      36.634  31.094  31.587  1.00  0.00     0.010 A 
ATOM     36  C   UNL A   1      38.007  32.996  31.015  1.00  0.00     0.010 A 
ATOM     37  C   UNL A   1      37.890  31.659  31.322  1.00  0.00    -0.014 A 
BRANCH  37  38
ATOM     38  C   UNL A   1      39.127  30.906  31.197  1.00  0.00     0.031 A 
ATOM     39  C   UNL A   1      39.752  30.670  32.516  1.00  0.00     0.074 A 
ATOM     40  C   UNL A   1      39.460  30.262  30.050  1.00  0.00     0.049 A 
ATOM     41  N   UNL A   1      40.756  31.300  33.028  1.00  0.00    -0.248 NA
ATOM     42  C   UNL A   1      39.012  29.852  33.497  1.00  0.00     0.031 C 
ATOM     43  C   UNL A   1      38.697  30.176  28.793  1.00  0.00     0.029 A 
ATOM     44  N   UNL A   1      40.522  29.446  29.791  1.00  0.00    -0.354 N 
ATOM     45  C   UNL A   1      40.967  30.689  34.258  1.00  0.00     0.074 A 
ATOM     46  C   UNL A   1      39.711  30.091  34.608  1.00  0.00     0.031 C 
ATOM     47  C   UNL A   1      39.195  29.189  28.012  1.00  0.00     0.029 A 
ATOM     48  C   UNL A   1      40.402  28.674  28.625  1.00  0.00     0.049 A 
ATOM     49  H   UNL A   1      41.311  29.402  30.377  1.00  0.00     0.167 HD
ATOM     50  C   UNL A   1      42.236  30.398  34.666  1.00  0.00     0.037 A 
ATOM     51  C   UNL A   1      41.239  27.669  28.235  1.00  0.00     0.037 A 
ATOM     52  C   UNL A   1      43.192  31.138  33.867  1.00  0.00     0.049 A 
ATOM     53  C   UNL A   1      42.512  27.874  28.986  1.00  0.00     0.074 A 
ATOM     54  C   UNL A   1      43.383  32.476  33.572  1.00  0.00     0.029 A 
ATOM     55  N   UNL A   1      43.858  30.441  32.885  1.00  0.00    -0.354 N 
ATOM     56  N   UNL A   1      43.280  28.921  28.824  1.00  0.00    -0.248 NA
ATOM     57  C   UNL A   1      42.624  27.211  30.276  1.00  0.00     0.031 C 
ATOM     58  C   UNL A   1      43.721  32.503  32.187  1.00  0.00     0.029 A 
ATOM     59  C   UNL A   1      43.842  31.188  31.736  1.00  0.00     0.049 A 
ATOM     60  H   UNL A   1      44.275  29.556  32.989  1.00  0.00     0.167 HD
ATOM     61  C   UNL A   1      43.623  29.310  30.113  1.00  0.00     0.074 A 
ATOM     62  C   UNL A   1      43.220  28.188  30.965  1.00  0.00     0.031 C 
ATOM     63  C   UNL A   1      43.903  30.615  30.408  1.00  0.00     0.037 A 
BRANCH  50  64
ATOM     64  C   UNL A   1      42.629  29.141  35.425  1.00  0.00     0.058 A 
ATOM     65  C   UNL A   1      43.492  29.276  36.534  1.00  0.00     0.135 A 
ATOM     66  C   UNL A   1      42.445  27.812  34.973  1.00  0.00     0.135 A 
ATOM     67  F   UNL A   1      43.725  30.482  37.076  1.00  0.00    -0.206 F 
ATOM     68  C   UNL A   1      44.206  28.204  37.069  1.00  0.00     0.059 A 
ATOM     69  C   UNL A   1      43.113  26.723  35.521  1.00  0.00     0.059 A 
ATOM     70  F   UNL A   1      41.673  27.487  33.934  1.00  0.00    -0.206 F 
ATOM     71  C   UNL A   1      44.023  26.932  36.539  1.00  0.00     0.060 A 
BRANCH  71  72
ATOM     72  S   UNL A   1      44.998  25.559  37.168  1.00  0.00     0.124 S 
ATOM     73  O   UNL A   1      43.956  24.602  37.523  1.00  0.00    -0.237 OA
ATOM     74  O   UNL A   1      45.815  25.220  36.007  1.00  0.00    -0.237 OA
ATOM     75  O   UNL A   1      45.725  26.150  38.288  1.00  0.00    -0.744 OA
ENDBRANCH  71  72
ENDBRANCH  50  64
BRANCH  51  76
ATOM     76  C   UNL A   1      40.891  26.357  27.605  1.00  0.00     0.058 A 
ATOM     77  C   UNL A   1      41.716  25.757  26.631  1.00  0.00     0.135 A 
ATOM     78  C   UNL A   1      39.899  25.524  28.158  1.00  0.00     0.135 A 
ATOM     79  F   UNL A   1      42.702  26.463  26.055  1.00  0.00    -0.206 F 
ATOM     80  C   UNL A   1      41.600  24.403  26.272  1.00  0.00     0.059 A 
ATOM     81  C   UNL A   1      39.761  24.177  27.815  1.00  0.00     0.059 A 
ATOM     82  F   UNL A   1      39.086  25.970  29.127  1.00  0.00    -0.206 F 
ATOM     83  C   UNL A   1      40.631  23.613  26.889  1.00  0.00     0.060 A 
BRANCH  83  84
ATOM     84  S   UNL A   1      40.583  21.830  26.571  1.00  0.00     0.124 S 
ATOM     85  O   UNL A   1      41.744  21.644  25.707  1.00  0.00    -0.237 OA
ATOM     86  O   UNL A   1      40.691  21.270  27.913  1.00  0.00    -0.237 OA
ATOM     87  O   UNL A   1      39.289  21.637  25.922  1.00  0.00    -0.744 OA
ENDBRANCH  83  84
ENDBRANCH  51  76
BRANCH  63  88
ATOM     88  C   UNL A   1      44.133  31.582  29.271  1.00  0.00     0.058 A 
ATOM     89  C   UNL A   1      45.275  31.622  28.448  1.00  0.00     0.135 A 
ATOM     90  C   UNL A   1      43.057  32.403  28.904  1.00  0.00     0.135 A 
ATOM     91  F   UNL A   1      46.310  30.799  28.665  1.00  0.00    -0.206 F 
ATOM     92  C   UNL A   1      45.352  32.468  27.336  1.00  0.00     0.059 A 
ATOM     93  C   UNL A   1      43.099  33.229  27.786  1.00  0.00     0.059 A 
ATOM     94  F   UNL A   1      41.916  32.368  29.611  1.00  0.00    -0.206 F 
ATOM     95  C   UNL A   1      44.256  33.270  27.014  1.00  0.00     0.060 A 
BRANCH  95  96
ATOM     96  S   UNL A   1      44.327  34.337  25.559  1.00  0.00     0.124 S 
ATOM     97  O   UNL A   1      43.005  34.956  25.568  1.00  0.00    -0.237 OA
ATOM     98  O   UNL A   1      45.444  35.224  25.870  1.00  0.00    -0.237 OA
ATOM     99  O   UNL A   1      44.569  33.404  24.461  1.00  0.00    -0.744 OA
ENDBRANCH  95  96
ENDBRANCH  63  88
ENDBRANCH  37  38
ENDBRANCH  29  32
ENDBRANCH  27  28
ENDBRANCH  26  27
ENDBRANCH  25  26
ENDBRANCH   1  25
TORSDOF 21
ENDMDL
MODEL 3
REMARK VINA RESULT:     -11.3      1.768      2.821
REMARK SMILES CCOC(=O)c1sc(NC(=O)CCC(=O)NCCCCNC(=O)c2ccc(-c3c4nc(c(-c5c(F)cc(S(=O)(=O)[O-])cc5F)c5ccc([nH]5)c(-c5c(F)cc(S(=O)(=O)[O-])cc5F)c5nc(c(-c6c(F)cc(S(=O)(=O)[O-])cc6F)c6ccc3[nH]6)C=C5)C=C4)cc2)c(C#N)c1C
REMARK SMILES IDX 17 1 16 2 14 3 15 4 13 6 12 7 10 8 9 9 11 11 8 12 6 13 7 14
REMARK SMILES IDX 93 15 90 16 94 17 4 18 5 19 3 20 2 21 1 22 91 23 92 24 18 25
REMARK SMILES IDX 19 26 20 27 21 28 22 29 23 31 24 32 25 33 89 34 26 35 88 36
REMARK SMILES IDX 27 37 28 38 29 39 82 40 30 41 87 42 81 43 83 44 31 45 86 46
REMARK SMILES IDX 80 47 79 48 32 50 66 51 45 52 65 53 46 54 49 55 64 56 84 57
REMARK SMILES IDX 47 58 48 59 63 61 85 62 50 63 33 64 34 65 43 66 35 67 36 68
REMARK SMILES IDX 42 69 44 70 37 71 38 72 39 73 40 74 41 75 67 76 68 77 77 78
REMARK SMILES IDX 69 79 70 80 76 81 78 82 71 83 72 84 73 85 74 86 75 87 51 88
REMARK SMILES IDX 52 89 61 90 53 91 54 92 60 93 62 94 55 95 56 96 57 97 58 98
REMARK SMILES IDX 59 99
REMARK H PARENT 16 5 9 10 21 30 83 49 49 60
REMARK Flexibility Score: inf
ROOT
ATOM      1  C   UNL A   1      34.205  21.517  24.485  1.00  0.00     0.116 C 
ENDROOT
BRANCH   1   2
ATOM      2  N   UNL A   1      33.209  22.482  24.915  1.00  0.00    -0.356 N 
ATOM      3  C   UNL A   1      32.414  23.312  24.190  1.00  0.00     0.220 C 
ATOM      4  O   UNL A   1      31.468  23.847  24.768  1.00  0.00    -0.275 OA
ATOM      5  H   UNL A   1      33.089  22.544  25.891  1.00  0.00     0.163 HD
BRANCH   3   6
ATOM      6  C   UNL A   1      32.698  23.588  22.734  1.00  0.00     0.110 C 
BRANCH   6   7
ATOM      7  C   UNL A   1      31.920  24.720  22.067  1.00  0.00     0.110 C 
BRANCH   7   8
ATOM      8  C   UNL A   1      32.688  25.841  21.387  1.00  0.00     0.225 C 
ATOM      9  N   UNL A   1      33.002  27.048  21.950  1.00  0.00    -0.317 N 
ATOM     10  H   UNL A   1      33.585  27.616  21.397  1.00  0.00     0.170 HD
ATOM     11  O   UNL A   1      33.104  25.645  20.235  1.00  0.00    -0.275 OA
BRANCH   9  12
ATOM     12  C   UNL A   1      32.642  27.606  23.162  1.00  0.00     0.114 A 
ATOM     13  C   UNL A   1      32.715  28.319  25.501  1.00  0.00     0.118 A 
ATOM     14  S   UNL A   1      33.308  27.006  24.599  1.00  0.00    -0.109 S 
ATOM     15  C   UNL A   1      31.849  29.112  24.768  1.00  0.00    -0.006 A 
ATOM     16  C   UNL A   1      31.683  28.567  23.443  1.00  0.00     0.091 A 
ATOM     17  C   UNL A   1      31.210  30.380  25.249  1.00  0.00     0.048 C 
BRANCH  13  18
ATOM     18  C   UNL A   1      33.119  28.401  26.879  1.00  0.00     0.348 C 
ATOM     19  O   UNL A   1      32.385  28.519  27.849  1.00  0.00    -0.245 OA
BRANCH  18  20
ATOM     20  O   UNL A   1      34.479  28.484  26.907  1.00  0.00    -0.462 OA
BRANCH  20  21
ATOM     21  C   UNL A   1      35.007  29.752  27.303  1.00  0.00     0.230 C 
ATOM     22  C   UNL A   1      35.942  29.608  28.494  1.00  0.00     0.049 C 
ENDBRANCH  20  21
ENDBRANCH  18  20
ENDBRANCH  13  18
BRANCH  16  23
ATOM     23  C   UNL A   1      30.732  29.086  22.507  1.00  0.00     0.103 C 
ATOM     24  N   UNL A   1      29.951  29.494  21.746  1.00  0.00    -0.192 NA
ENDBRANCH  16  23
ENDBRANCH   9  12
ENDBRANCH   7   8
ENDBRANCH   6   7
ENDBRANCH   3   6
ENDBRANCH   1   2
BRANCH   1  25
ATOM     25  C   UNL A   1      35.530  21.559  25.258  1.00  0.00     0.023 C 
BRANCH  25  26
ATOM     26  C   UNL A   1      36.112  22.943  25.546  1.00  0.00     0.023 C 
BRANCH  26  27
ATOM     27  C   UNL A   1      37.606  23.041  25.363  1.00  0.00     0.116 C 
BRANCH  27  28
ATOM     28  N   UNL A   1      38.341  22.119  26.237  1.00  0.00    -0.352 N 
ATOM     29  C   UNL A   1      39.489  22.371  26.974  1.00  0.00     0.251 C 
ATOM     30  H   UNL A   1      37.973  21.208  26.309  1.00  0.00     0.163 HD
ATOM     31  O   UNL A   1      40.219  21.458  27.339  1.00  0.00    -0.269 OA
BRANCH  29  32
ATOM     32  C   UNL A   1      39.785  23.770  27.324  1.00  0.00     0.039 A 
ATOM     33  C   UNL A   1      38.820  24.777  27.417  1.00  0.00     0.014 A 
ATOM     34  C   UNL A   1      41.101  24.025  27.668  1.00  0.00     0.014 A 
ATOM     35  C   UNL A   1      39.227  26.030  27.877  1.00  0.00     0.010 A 
ATOM     36  C   UNL A   1      41.357  25.070  28.490  1.00  0.00     0.010 A 
ATOM     37  C   UNL A   1      40.520  26.161  28.405  1.00  0.00    -0.014 A 
BRANCH  37  38
ATOM     38  C   UNL A   1      41.042  27.365  29.028  1.00  0.00     0.031 A 
ATOM     39  C   UNL A   1      42.229  27.876  28.309  1.00  0.00     0.074 A 
ATOM     40  C   UNL A   1      40.327  28.063  29.947  1.00  0.00     0.049 A 
ATOM     41  N   UNL A   1      43.466  27.746  28.654  1.00  0.00    -0.248 NA
ATOM     42  C   UNL A   1      42.053  28.324  26.913  1.00  0.00     0.031 C 
ATOM     43  C   UNL A   1      38.973  27.787  30.456  1.00  0.00     0.029 A 
ATOM     44  N   UNL A   1      40.620  29.247  30.556  1.00  0.00    -0.354 N 
ATOM     45  C   UNL A   1      44.180  28.418  27.669  1.00  0.00     0.074 A 
ATOM     46  C   UNL A   1      43.324  28.432  26.518  1.00  0.00     0.031 C 
ATOM     47  C   UNL A   1      38.487  28.874  31.100  1.00  0.00     0.029 A 
ATOM     48  C   UNL A   1      39.535  29.868  31.195  1.00  0.00     0.049 A 
ATOM     49  H   UNL A   1      41.524  29.638  30.548  1.00  0.00     0.167 HD
ATOM     50  C   UNL A   1      45.219  29.231  28.014  1.00  0.00     0.037 A 
ATOM     51  C   UNL A   1      39.525  31.124  31.728  1.00  0.00     0.037 A 
ATOM     52  C   UNL A   1      45.633  28.950  29.374  1.00  0.00     0.049 A 
ATOM     53  C   UNL A   1      40.955  31.498  31.936  1.00  0.00     0.074 A 
ATOM     54  C   UNL A   1      46.038  27.814  30.052  1.00  0.00     0.029 A 
ATOM     55  N   UNL A   1      45.235  29.841  30.345  1.00  0.00    -0.354 N 
ATOM     56  N   UNL A   1      41.745  30.875  32.771  1.00  0.00    -0.248 NA
ATOM     57  C   UNL A   1      41.620  32.176  30.834  1.00  0.00     0.031 C 
ATOM     58  C   UNL A   1      45.408  27.901  31.328  1.00  0.00     0.029 A 
ATOM     59  C   UNL A   1      44.755  29.131  31.414  1.00  0.00     0.049 A 
ATOM     60  H   UNL A   1      45.286  30.822  30.282  1.00  0.00     0.167 HD
ATOM     61  C   UNL A   1      42.932  30.699  32.070  1.00  0.00     0.074 A 
ATOM     62  C   UNL A   1      42.805  31.562  30.893  1.00  0.00     0.031 C 
ATOM     63  C   UNL A   1      43.761  29.645  32.334  1.00  0.00     0.037 A 
BRANCH  50  64
ATOM     64  C   UNL A   1      45.540  30.553  27.336  1.00  0.00     0.058 A 
ATOM     65  C   UNL A   1      46.873  30.787  26.934  1.00  0.00     0.135 A 
ATOM     66  C   UNL A   1      44.702  31.694  27.312  1.00  0.00     0.135 A 
ATOM     67  F   UNL A   1      47.760  29.781  26.884  1.00  0.00    -0.206 F 
ATOM     68  C   UNL A   1      47.362  32.063  26.651  1.00  0.00     0.059 A 
ATOM     69  C   UNL A   1      45.159  32.966  26.991  1.00  0.00     0.059 A 
ATOM     70  F   UNL A   1      43.415  31.670  27.666  1.00  0.00    -0.206 F 
ATOM     71  C   UNL A   1      46.497  33.150  26.704  1.00  0.00     0.060 A 
BRANCH  71  72
ATOM     72  S   UNL A   1      47.136  34.807  26.422  1.00  0.00     0.124 S 
ATOM     73  O   UNL A   1      46.096  35.377  25.573  1.00  0.00    -0.237 OA
ATOM     74  O   UNL A   1      47.215  35.330  27.782  1.00  0.00    -0.237 OA
ATOM     75  O   UNL A   1      48.421  34.564  25.774  1.00  0.00    -0.744 OA
ENDBRANCH  71  72
ENDBRANCH  50  64
BRANCH  51  76
ATOM     76  C   UNL A   1      38.434  32.147  31.683  1.00  0.00     0.058 A 
ATOM     77  C   UNL A   1      37.675  32.375  30.516  1.00  0.00     0.135 A 
ATOM     78  C   UNL A   1      37.916  32.712  32.864  1.00  0.00     0.135 A 
ATOM     79  F   UNL A   1      38.076  31.865  29.341  1.00  0.00    -0.206 F 
ATOM     80  C   UNL A   1      36.454  33.070  30.532  1.00  0.00     0.059 A 
ATOM     81  C   UNL A   1      36.707  33.410  32.905  1.00  0.00     0.059 A 
ATOM     82  F   UNL A   1      38.526  32.522  34.044  1.00  0.00    -0.206 F 
ATOM     83  C   UNL A   1      35.965  33.564  31.741  1.00  0.00     0.060 A 
BRANCH  83  84
ATOM     84  S   UNL A   1      34.312  34.304  31.811  1.00  0.00     0.124 S 
ATOM     85  O   UNL A   1      33.610  33.396  32.713  1.00  0.00    -0.237 OA
ATOM     86  O   UNL A   1      34.589  35.636  32.338  1.00  0.00    -0.237 OA
ATOM     87  O   UNL A   1      33.866  34.269  30.421  1.00  0.00    -0.744 OA
ENDBRANCH  83  84
ENDBRANCH  51  76
BRANCH  63  88
ATOM     88  C   UNL A   1      43.535  28.841  33.593  1.00  0.00     0.058 A 
ATOM     89  C   UNL A   1      42.623  27.777  33.731  1.00  0.00     0.135 A 
ATOM     90  C   UNL A   1      44.413  29.069  34.662  1.00  0.00     0.135 A 
ATOM     91  F   UNL A   1      41.816  27.425  32.721  1.00  0.00    -0.206 F 
ATOM     92  C   UNL A   1      42.567  27.002  34.895  1.00  0.00     0.059 A 
ATOM     93  C   UNL A   1      44.397  28.293  35.816  1.00  0.00     0.059 A 
ATOM     94  F   UNL A   1      45.347  30.030  34.570  1.00  0.00    -0.206 F 
ATOM     95  C   UNL A   1      43.460  27.270  35.934  1.00  0.00     0.060 A 
BRANCH  95  96
ATOM     96  S   UNL A   1      43.425  26.254  37.427  1.00  0.00     0.124 S 
ATOM     97  O   UNL A   1      44.126  25.049  36.994  1.00  0.00    -0.237 OA
ATOM     98  O   UNL A   1      44.133  27.086  38.395  1.00  0.00    -0.237 OA
ATOM     99  O   UNL A   1      41.998  26.083  37.690  1.00  0.00    -0.744 OA
ENDBRANCH  95  96
ENDBRANCH  63  88
ENDBRANCH  37  38
ENDBRANCH  29  32
ENDBRANCH  27  28
ENDBRANCH  26  27
ENDBRANCH  25  26
ENDBRANCH   1  25
TORSDOF 21
ENDMDL
