MODEL 1
REMARK VINA RESULT:     -13.0      0.000      0.000
REMARK SMILES O=C(NCCCCNC(=O)[C@H](CO)NC(=O)[C@H](Cc1c[nH]c2ccccc12)NC(=O)c1ccc(F)cc1)c1ccc(-c2c3nc(c(-c4c(F)cc(S(=O)(=O)[O-])cc4F)c4ccc([nH]4)c(-c4c(F)cc(S(=O)(=O)[O-])cc4F)c4nc(c(-c5c(F)cc(S(=O)(=O)[O-])cc5F)c5ccc2[nH]5)C=C4)C=C3)cc1
REMARK SMILES IDX 6 1 5 2 4 3 3 4 1 5 2 6 38 8 39 9 103 10 40 11 102 12 41 13
REMARK SMILES IDX 42 14 43 15 96 16 44 17 101 18 95 19 97 20 45 21 100 22
REMARK SMILES IDX 94 23 93 24 46 26 80 27 59 28 79 29 60 30 63 31 78 32 98 33
REMARK SMILES IDX 61 34 62 35 77 37 99 38 64 39 47 40 48 41 57 42 49 43 50 44
REMARK SMILES IDX 56 45 58 46 51 47 52 48 53 49 54 50 55 51 81 52 82 53 91 54
REMARK SMILES IDX 83 55 84 56 90 57 92 58 85 59 86 60 87 61 88 62 89 63 65 64
REMARK SMILES IDX 66 65 75 66 67 67 68 68 74 69 76 70 69 71 70 72 71 73 72 74
REMARK SMILES IDX 73 75 7 76 8 77 9 78 10 80 11 81 14 82 15 83 16 85 17 86
REMARK SMILES IDX 28 87 29 88 30 90 31 91 32 92 37 93 33 94 36 95 34 96 35 97
REMARK SMILES IDX 18 98 19 99 20 100 27 101 21 102 22 103 26 104 23 106 25 107
REMARK SMILES IDX 24 108 12 109 13 110
REMARK H PARENT 3 7 97 25 63 36 8 79 14 84 28 89 21 105 13 111
REMARK Flexibility Score: inf
ROOT
ATOM      1  C   UNL A   1      35.941  24.078  25.672  1.00  0.00     0.023 C 
ENDROOT
BRANCH   1   2
ATOM      2  C   UNL A   1      37.408  23.736  25.415  1.00  0.00     0.023 C 
BRANCH   2   3
ATOM      3  C   UNL A   1      38.382  24.128  26.521  1.00  0.00     0.116 C 
BRANCH   3   4
ATOM      4  N   UNL A   1      39.773  24.067  26.105  1.00  0.00    -0.352 N 
ATOM      5  O   UNL A   1      41.917  24.741  25.936  1.00  0.00    -0.269 OA
ATOM      6  C   UNL A   1      40.836  24.851  26.499  1.00  0.00     0.251 C 
ATOM      7  H   UNL A   1      39.988  23.368  25.447  1.00  0.00     0.163 HD
BRANCH   6   8
ATOM      8  C   UNL A   1      40.657  25.840  27.586  1.00  0.00     0.039 A 
ATOM      9  C   UNL A   1      41.484  26.962  27.674  1.00  0.00     0.014 A 
ATOM     10  C   UNL A   1      39.645  25.638  28.531  1.00  0.00     0.014 A 
ATOM     11  C   UNL A   1      41.393  27.801  28.779  1.00  0.00     0.010 A 
ATOM     12  C   UNL A   1      39.505  26.529  29.600  1.00  0.00     0.010 A 
ATOM     13  C   UNL A   1      40.397  27.601  29.749  1.00  0.00    -0.014 A 
BRANCH  13  14
ATOM     14  C   UNL A   1      40.274  28.566  30.872  1.00  0.00     0.031 A 
ATOM     15  C   UNL A   1      41.186  28.497  32.065  1.00  0.00     0.074 A 
ATOM     16  C   UNL A   1      39.346  29.541  30.782  1.00  0.00     0.049 A 
ATOM     17  N   UNL A   1      41.218  29.276  33.117  1.00  0.00    -0.248 NA
ATOM     18  C   UNL A   1      42.187  27.419  32.089  1.00  0.00     0.031 C 
ATOM     19  C   UNL A   1      38.402  29.702  29.672  1.00  0.00     0.029 A 
ATOM     20  N   UNL A   1      39.057  30.590  31.615  1.00  0.00    -0.354 N 
ATOM     21  C   UNL A   1      42.230  28.780  33.932  1.00  0.00     0.074 A 
ATOM     22  C   UNL A   1      42.774  27.617  33.262  1.00  0.00     0.031 C 
ATOM     23  C   UNL A   1      37.676  30.810  29.868  1.00  0.00     0.029 A 
ATOM     24  C   UNL A   1      38.057  31.406  31.144  1.00  0.00     0.049 A 
ATOM     25  H   UNL A   1      39.521  30.743  32.470  1.00  0.00     0.167 HD
ATOM     26  C   UNL A   1      42.666  29.258  35.120  1.00  0.00     0.037 A 
ATOM     27  C   UNL A   1      37.494  32.506  31.681  1.00  0.00     0.037 A 
ATOM     28  C   UNL A   1      42.131  30.428  35.769  1.00  0.00     0.049 A 
ATOM     29  C   UNL A   1      37.982  32.998  33.012  1.00  0.00     0.074 A 
ATOM     30  C   UNL A   1      42.526  31.004  36.966  1.00  0.00     0.029 A 
ATOM     31  N   UNL A   1      41.090  31.203  35.280  1.00  0.00    -0.354 N 
ATOM     32  N   UNL A   1      38.945  32.518  33.760  1.00  0.00    -0.248 NA
ATOM     33  C   UNL A   1      37.303  34.172  33.576  1.00  0.00     0.031 C 
ATOM     34  C   UNL A   1      41.701  32.106  37.217  1.00  0.00     0.029 A 
ATOM     35  C   UNL A   1      40.818  32.240  36.159  1.00  0.00     0.049 A 
ATOM     36  H   UNL A   1      40.614  31.041  34.434  1.00  0.00     0.167 HD
ATOM     37  C   UNL A   1      38.990  33.332  34.885  1.00  0.00     0.074 A 
ATOM     38  C   UNL A   1      37.973  34.349  34.707  1.00  0.00     0.031 C 
ATOM     39  C   UNL A   1      39.798  33.241  35.969  1.00  0.00     0.037 A 
BRANCH  26  40
ATOM     40  C   UNL A   1      43.781  28.528  35.816  1.00  0.00     0.058 A 
ATOM     41  C   UNL A   1      45.121  28.855  35.551  1.00  0.00     0.135 A 
ATOM     42  C   UNL A   1      43.528  27.438  36.663  1.00  0.00     0.135 A 
ATOM     43  F   UNL A   1      45.419  29.893  34.753  1.00  0.00    -0.206 F 
ATOM     44  C   UNL A   1      46.171  28.114  36.085  1.00  0.00     0.059 A 
ATOM     45  C   UNL A   1      44.563  26.693  37.223  1.00  0.00     0.059 A 
ATOM     46  F   UNL A   1      42.266  27.097  36.963  1.00  0.00    -0.206 F 
ATOM     47  C   UNL A   1      45.881  27.029  36.913  1.00  0.00     0.060 A 
BRANCH  47  48
ATOM     48  S   UNL A   1      47.254  26.079  37.603  1.00  0.00     0.124 S 
ATOM     49  O   UNL A   1      47.996  27.105  38.327  1.00  0.00    -0.237 OA
ATOM     50  O   UNL A   1      46.562  25.092  38.426  1.00  0.00    -0.237 OA
ATOM     51  O   UNL A   1      47.917  25.538  36.419  1.00  0.00    -0.744 OA
ENDBRANCH  47  48
ENDBRANCH  26  40
BRANCH  27  52
ATOM     52  C   UNL A   1      36.403  33.200  30.953  1.00  0.00     0.058 A 
ATOM     53  C   UNL A   1      36.674  33.993  29.827  1.00  0.00     0.135 A 
ATOM     54  C   UNL A   1      35.075  33.122  31.396  1.00  0.00     0.135 A 
ATOM     55  F   UNL A   1      37.931  34.108  29.371  1.00  0.00    -0.206 F 
ATOM     56  C   UNL A   1      35.673  34.709  29.184  1.00  0.00     0.059 A 
ATOM     57  C   UNL A   1      34.051  33.810  30.753  1.00  0.00     0.059 A 
ATOM     58  F   UNL A   1      34.768  32.367  32.462  1.00  0.00    -0.206 F 
ATOM     59  C   UNL A   1      34.364  34.617  29.660  1.00  0.00     0.060 A 
BRANCH  59  60
ATOM     60  S   UNL A   1      33.077  35.564  28.818  1.00  0.00     0.124 S 
ATOM     61  O   UNL A   1      32.437  34.529  28.013  1.00  0.00    -0.237 OA
ATOM     62  O   UNL A   1      32.291  36.076  29.935  1.00  0.00    -0.237 OA
ATOM     63  O   UNL A   1      33.832  36.566  28.074  1.00  0.00    -0.744 OA
ENDBRANCH  59  60
ENDBRANCH  27  52
BRANCH  39  64
ATOM     64  C   UNL A   1      39.619  34.266  37.050  1.00  0.00     0.058 A 
ATOM     65  C   UNL A   1      40.237  35.521  36.953  1.00  0.00     0.135 A 
ATOM     66  C   UNL A   1      38.888  33.978  38.214  1.00  0.00     0.135 A 
ATOM     67  F   UNL A   1      40.948  35.843  35.861  1.00  0.00    -0.206 F 
ATOM     68  C   UNL A   1      40.150  36.453  37.981  1.00  0.00     0.059 A 
ATOM     69  C   UNL A   1      38.770  34.904  39.246  1.00  0.00     0.059 A 
ATOM     70  F   UNL A   1      38.269  32.795  38.346  1.00  0.00    -0.206 F 
ATOM     71  C   UNL A   1      39.419  36.133  39.126  1.00  0.00     0.060 A 
BRANCH  71  72
ATOM     72  S   UNL A   1      39.303  37.358  40.447  1.00  0.00     0.124 S 
ATOM     73  O   UNL A   1      38.385  38.333  39.869  1.00  0.00    -0.237 OA
ATOM     74  O   UNL A   1      38.776  36.570  41.557  1.00  0.00    -0.237 OA
ATOM     75  O   UNL A   1      40.682  37.811  40.611  1.00  0.00    -0.744 OA
ENDBRANCH  71  72
ENDBRANCH  39  64
ENDBRANCH  13  14
ENDBRANCH   6   8
ENDBRANCH   3   4
ENDBRANCH   2   3
ENDBRANCH   1   2
BRANCH   1  76
ATOM     76  C   UNL A   1      35.171  23.065  26.511  1.00  0.00     0.116 C 
BRANCH  76  77
ATOM     77  N   UNL A   1      35.262  21.711  25.987  1.00  0.00    -0.354 N 
ATOM     78  C   UNL A   1      34.492  21.076  25.055  1.00  0.00     0.244 C 
ATOM     79  H   UNL A   1      35.993  21.168  26.363  1.00  0.00     0.163 HD
ATOM     80  O   UNL A   1      34.833  19.949  24.692  1.00  0.00    -0.273 OA
BRANCH  78  81
ATOM     81  C   UNL A   1      33.194  21.721  24.546  1.00  0.00     0.197 C 
BRANCH  81  82
ATOM     82  N   UNL A   1      33.495  22.523  23.352  1.00  0.00    -0.340 N 
ATOM     83  C   UNL A   1      33.129  23.763  22.936  1.00  0.00     0.243 C 
ATOM     84  H   UNL A   1      34.090  22.062  22.717  1.00  0.00     0.164 HD
ATOM     85  O   UNL A   1      33.586  24.122  21.842  1.00  0.00    -0.273 OA
BRANCH  83  86
ATOM     86  C   UNL A   1      32.304  24.778  23.770  1.00  0.00     0.176 C 
BRANCH  86  87
ATOM     87  N   UNL A   1      31.924  24.357  25.115  1.00  0.00    -0.340 N 
ATOM     88  C   UNL A   1      31.854  25.007  26.313  1.00  0.00     0.251 C 
ATOM     89  H   UNL A   1      31.663  23.410  25.169  1.00  0.00     0.164 HD
ATOM     90  O   UNL A   1      31.446  24.386  27.293  1.00  0.00    -0.269 OA
BRANCH  88  91
ATOM     91  C   UNL A   1      32.317  26.399  26.483  1.00  0.00     0.040 A 
ATOM     92  C   UNL A   1      33.653  26.785  26.336  1.00  0.00     0.017 A 
ATOM     93  C   UNL A   1      31.332  27.366  26.739  1.00  0.00     0.017 A 
ATOM     94  C   UNL A   1      34.005  28.129  26.498  1.00  0.00     0.040 A 
ATOM     95  C   UNL A   1      31.686  28.707  26.893  1.00  0.00     0.040 A 
ATOM     96  C   UNL A   1      33.021  29.075  26.779  1.00  0.00     0.123 A 
ATOM     97  F   UNL A   1      33.364  30.360  26.931  1.00  0.00    -0.207 F 
ENDBRANCH  88  91
ENDBRANCH  86  87
BRANCH  86  98
ATOM     98  C   UNL A   1      33.043  26.149  23.700  1.00  0.00     0.072 C 
BRANCH  98  99
ATOM     99  C   UNL A   1      32.285  27.318  23.137  1.00  0.00    -0.020 A 
ATOM    100  C   UNL A   1      32.801  28.347  22.372  1.00  0.00     0.087 A 
ATOM    101  C   UNL A   1      30.866  27.534  23.190  1.00  0.00     0.003 A 
ATOM    102  N   UNL A   1      31.805  29.250  22.125  1.00  0.00    -0.361 N 
ATOM    103  C   UNL A   1      30.604  28.759  22.577  1.00  0.00     0.046 A 
ATOM    104  C   UNL A   1      29.771  26.792  23.685  1.00  0.00     0.010 A 
ATOM    105  H   UNL A   1      31.929  30.124  21.688  1.00  0.00     0.166 HD
ATOM    106  C   UNL A   1      29.319  29.301  22.466  1.00  0.00     0.026 A 
ATOM    107  C   UNL A   1      28.473  27.298  23.543  1.00  0.00     0.001 A 
ATOM    108  C   UNL A   1      28.254  28.539  22.952  1.00  0.00     0.002 A 
ENDBRANCH  98  99
ENDBRANCH  86  98
ENDBRANCH  83  86
ENDBRANCH  81  82
BRANCH  81 109
ATOM    109  C   UNL A   1      32.200  20.590  24.224  1.00  0.00     0.191 C 
BRANCH 109 110
ATOM    110  O   UNL A   1      32.018  19.730  25.350  1.00  0.00    -0.394 OA
ATOM    111  H   UNL A   1      31.866  18.822  25.042  1.00  0.00     0.210 HD
ENDBRANCH 109 110
ENDBRANCH  81 109
ENDBRANCH  78  81
ENDBRANCH  76  77
ENDBRANCH   1  76
TORSDOF 22
ENDMDL
MODEL 2
REMARK VINA RESULT:     -12.9      1.447      2.915
REMARK SMILES O=C(NCCCCNC(=O)[C@H](CO)NC(=O)[C@H](Cc1c[nH]c2ccccc12)NC(=O)c1ccc(F)cc1)c1ccc(-c2c3nc(c(-c4c(F)cc(S(=O)(=O)[O-])cc4F)c4ccc([nH]4)c(-c4c(F)cc(S(=O)(=O)[O-])cc4F)c4nc(c(-c5c(F)cc(S(=O)(=O)[O-])cc5F)c5ccc2[nH]5)C=C4)C=C3)cc1
REMARK SMILES IDX 6 1 5 2 4 3 3 4 1 5 2 6 38 8 39 9 103 10 40 11 102 12 41 13
REMARK SMILES IDX 42 14 43 15 96 16 44 17 101 18 95 19 97 20 45 21 100 22
REMARK SMILES IDX 94 23 93 24 46 26 80 27 59 28 79 29 60 30 63 31 78 32 98 33
REMARK SMILES IDX 61 34 62 35 77 37 99 38 64 39 47 40 48 41 57 42 49 43 50 44
REMARK SMILES IDX 56 45 58 46 51 47 52 48 53 49 54 50 55 51 81 52 82 53 91 54
REMARK SMILES IDX 83 55 84 56 90 57 92 58 85 59 86 60 87 61 88 62 89 63 65 64
REMARK SMILES IDX 66 65 75 66 67 67 68 68 74 69 76 70 69 71 70 72 71 73 72 74
REMARK SMILES IDX 73 75 7 76 8 77 9 78 10 80 11 81 14 82 15 83 16 85 17 86
REMARK SMILES IDX 28 87 29 88 30 90 31 91 32 92 37 93 33 94 36 95 34 96 35 97
REMARK SMILES IDX 18 98 19 99 20 100 27 101 21 102 22 103 26 104 23 106 25 107
REMARK SMILES IDX 24 108 12 109 13 110
REMARK H PARENT 3 7 97 25 63 36 8 79 14 84 28 89 21 105 13 111
REMARK Flexibility Score: inf
ROOT
ATOM      1  C   UNL A   1      36.882  23.314  24.733  1.00  0.00     0.023 C 
ENDROOT
BRANCH   1   2
ATOM      2  C   UNL A   1      37.665  23.065  26.022  1.00  0.00     0.023 C 
BRANCH   2   3
ATOM      3  C   UNL A   1      38.525  24.226  26.509  1.00  0.00     0.116 C 
BRANCH   3   4
ATOM      4  N   UNL A   1      39.917  24.113  26.108  1.00  0.00    -0.352 N 
ATOM      5  O   UNL A   1      42.085  24.710  25.956  1.00  0.00    -0.269 OA
ATOM      6  C   UNL A   1      41.003  24.863  26.506  1.00  0.00     0.251 C 
ATOM      7  H   UNL A   1      40.114  23.400  25.458  1.00  0.00     0.163 HD
BRANCH   6   8
ATOM      8  C   UNL A   1      40.848  25.866  27.583  1.00  0.00     0.039 A 
ATOM      9  C   UNL A   1      41.696  26.973  27.655  1.00  0.00     0.014 A 
ATOM     10  C   UNL A   1      39.835  25.695  28.534  1.00  0.00     0.014 A 
ATOM     11  C   UNL A   1      41.626  27.825  28.752  1.00  0.00     0.010 A 
ATOM     12  C   UNL A   1      39.717  26.600  29.594  1.00  0.00     0.010 A 
ATOM     13  C   UNL A   1      40.630  27.655  29.727  1.00  0.00    -0.014 A 
BRANCH  13  14
ATOM     14  C   UNL A   1      40.530  28.635  30.840  1.00  0.00     0.031 A 
ATOM     15  C   UNL A   1      41.481  28.595  32.005  1.00  0.00     0.074 A 
ATOM     16  C   UNL A   1      39.587  29.596  30.767  1.00  0.00     0.049 A 
ATOM     17  N   UNL A   1      41.537  29.389  33.044  1.00  0.00    -0.248 NA
ATOM     18  C   UNL A   1      42.497  27.530  32.011  1.00  0.00     0.031 C 
ATOM     19  C   UNL A   1      38.606  29.729  29.686  1.00  0.00     0.029 A 
ATOM     20  N   UNL A   1      39.311  30.653  31.594  1.00  0.00    -0.354 N 
ATOM     21  C   UNL A   1      42.581  28.918  33.832  1.00  0.00     0.074 A 
ATOM     22  C   UNL A   1      43.120  27.753  33.161  1.00  0.00     0.031 C 
ATOM     23  C   UNL A   1      37.871  30.830  29.891  1.00  0.00     0.029 A 
ATOM     24  C   UNL A   1      38.285  31.449  31.145  1.00  0.00     0.049 A 
ATOM     25  H   UNL A   1      39.800  30.825  32.432  1.00  0.00     0.167 HD
ATOM     26  C   UNL A   1      43.049  29.418  34.999  1.00  0.00     0.037 A 
ATOM     27  C   UNL A   1      37.726  32.549  31.685  1.00  0.00     0.037 A 
ATOM     28  C   UNL A   1      42.519  30.591  35.649  1.00  0.00     0.049 A 
ATOM     29  C   UNL A   1      38.250  33.067  32.992  1.00  0.00     0.074 A 
ATOM     30  C   UNL A   1      42.946  31.189  36.823  1.00  0.00     0.029 A 
ATOM     31  N   UNL A   1      41.453  31.345  35.183  1.00  0.00    -0.354 N 
ATOM     32  N   UNL A   1      39.243  32.610  33.715  1.00  0.00    -0.248 NA
ATOM     33  C   UNL A   1      37.574  34.240  33.562  1.00  0.00     0.031 C 
ATOM     34  C   UNL A   1      42.115  32.283  37.086  1.00  0.00     0.029 A 
ATOM     35  C   UNL A   1      41.196  32.391  36.055  1.00  0.00     0.049 A 
ATOM     36  H   UNL A   1      40.952  31.165  34.355  1.00  0.00     0.167 HD
ATOM     37  C   UNL A   1      39.313  33.441  34.826  1.00  0.00     0.074 A 
ATOM     38  C   UNL A   1      38.277  34.441  34.668  1.00  0.00     0.031 C 
ATOM     39  C   UNL A   1      40.156  33.375  35.885  1.00  0.00     0.037 A 
BRANCH  26  40
ATOM     40  C   UNL A   1      44.196  28.713  35.668  1.00  0.00     0.058 A 
ATOM     41  C   UNL A   1      45.521  29.028  35.328  1.00  0.00     0.135 A 
ATOM     42  C   UNL A   1      43.983  27.657  36.566  1.00  0.00     0.135 A 
ATOM     43  F   UNL A   1      45.782  30.033  34.477  1.00  0.00    -0.206 F 
ATOM     44  C   UNL A   1      46.596  28.305  35.839  1.00  0.00     0.059 A 
ATOM     45  C   UNL A   1      45.044  26.932  37.105  1.00  0.00     0.059 A 
ATOM     46  F   UNL A   1      42.736  27.330  36.940  1.00  0.00    -0.206 F 
ATOM     47  C   UNL A   1      46.345  27.253  36.720  1.00  0.00     0.060 A 
BRANCH  47  48
ATOM     48  S   UNL A   1      47.750  26.327  37.380  1.00  0.00     0.124 S 
ATOM     49  O   UNL A   1      47.522  24.999  36.823  1.00  0.00    -0.237 OA
ATOM     50  O   UNL A   1      48.886  27.062  36.833  1.00  0.00    -0.237 OA
ATOM     51  O   UNL A   1      47.579  26.443  38.826  1.00  0.00    -0.744 OA
ENDBRANCH  47  48
ENDBRANCH  26  40
BRANCH  27  52
ATOM     52  C   UNL A   1      36.602  33.219  30.983  1.00  0.00     0.058 A 
ATOM     53  C   UNL A   1      36.829  34.018  29.852  1.00  0.00     0.135 A 
ATOM     54  C   UNL A   1      35.287  33.110  31.456  1.00  0.00     0.135 A 
ATOM     55  F   UNL A   1      38.072  34.163  29.368  1.00  0.00    -0.206 F 
ATOM     56  C   UNL A   1      35.797  34.712  29.233  1.00  0.00     0.059 A 
ATOM     57  C   UNL A   1      34.233  33.774  30.838  1.00  0.00     0.059 A 
ATOM     58  F   UNL A   1      35.022  32.347  32.528  1.00  0.00    -0.206 F 
ATOM     59  C   UNL A   1      34.502  34.589  29.739  1.00  0.00     0.060 A 
BRANCH  59  60
ATOM     60  S   UNL A   1      33.174  35.507  28.929  1.00  0.00     0.124 S 
ATOM     61  O   UNL A   1      33.931  36.427  28.087  1.00  0.00    -0.237 OA
ATOM     62  O   UNL A   1      32.452  34.450  28.227  1.00  0.00    -0.237 OA
ATOM     63  O   UNL A   1      32.460  36.116  30.046  1.00  0.00    -0.744 OA
ENDBRANCH  59  60
ENDBRANCH  27  52
BRANCH  39  64
ATOM     64  C   UNL A   1      40.000  34.414  36.957  1.00  0.00     0.058 A 
ATOM     65  C   UNL A   1      39.067  34.239  37.990  1.00  0.00     0.135 A 
ATOM     66  C   UNL A   1      40.730  35.612  36.923  1.00  0.00     0.135 A 
ATOM     67  F   UNL A   1      38.343  33.111  38.065  1.00  0.00    -0.206 F 
ATOM     68  C   UNL A   1      38.850  35.225  38.945  1.00  0.00     0.059 A 
ATOM     69  C   UNL A   1      40.544  36.604  37.881  1.00  0.00     0.059 A 
ATOM     70  F   UNL A   1      41.644  35.818  35.961  1.00  0.00    -0.206 F 
ATOM     71  C   UNL A   1      39.590  36.407  38.879  1.00  0.00     0.060 A 
BRANCH  71  72
ATOM     72  S   UNL A   1      39.307  37.673  40.135  1.00  0.00     0.124 S 
ATOM     73  O   UNL A   1      38.164  38.391  39.581  1.00  0.00    -0.237 OA
ATOM     74  O   UNL A   1      39.039  36.874  41.326  1.00  0.00    -0.237 OA
ATOM     75  O   UNL A   1      40.565  38.414  40.157  1.00  0.00    -0.744 OA
ENDBRANCH  71  72
ENDBRANCH  39  64
ENDBRANCH  13  14
ENDBRANCH   6   8
ENDBRANCH   3   4
ENDBRANCH   2   3
ENDBRANCH   1   2
BRANCH   1  76
ATOM     76  C   UNL A   1      35.383  23.526  24.909  1.00  0.00     0.116 C 
BRANCH  76  77
ATOM     77  N   UNL A   1      34.586  22.509  24.241  1.00  0.00    -0.354 N 
ATOM     78  C   UNL A   1      33.354  22.601  23.658  1.00  0.00     0.244 C 
ATOM     79  H   UNL A   1      34.998  21.615  24.205  1.00  0.00     0.163 HD
ATOM     80  O   UNL A   1      32.924  21.615  23.055  1.00  0.00    -0.273 OA
BRANCH  78  81
ATOM     81  C   UNL A   1      32.504  23.868  23.828  1.00  0.00     0.197 C 
BRANCH  81  82
ATOM     82  N   UNL A   1      32.906  24.853  22.814  1.00  0.00    -0.340 N 
ATOM     83  C   UNL A   1      32.618  26.166  22.613  1.00  0.00     0.243 C 
ATOM     84  H   UNL A   1      33.514  24.483  22.135  1.00  0.00     0.164 HD
ATOM     85  O   UNL A   1      33.151  26.689  21.625  1.00  0.00    -0.273 OA
BRANCH  83  86
ATOM     86  C   UNL A   1      31.794  27.058  23.578  1.00  0.00     0.176 C 
BRANCH  86  87
ATOM     87  N   UNL A   1      30.426  26.629  23.851  1.00  0.00    -0.340 N 
ATOM     88  C   UNL A   1      29.204  27.160  23.555  1.00  0.00     0.251 C 
ATOM     89  H   UNL A   1      30.373  25.782  24.349  1.00  0.00     0.164 HD
ATOM     90  O   UNL A   1      28.198  26.534  23.885  1.00  0.00    -0.269 OA
BRANCH  88  91
ATOM     91  C   UNL A   1      29.052  28.485  22.922  1.00  0.00     0.040 A 
ATOM     92  C   UNL A   1      30.060  29.093  22.167  1.00  0.00     0.017 A 
ATOM     93  C   UNL A   1      27.799  29.107  23.048  1.00  0.00     0.017 A 
ATOM     94  C   UNL A   1      29.827  30.345  21.586  1.00  0.00     0.040 A 
ATOM     95  C   UNL A   1      27.569  30.351  22.462  1.00  0.00     0.040 A 
ATOM     96  C   UNL A   1      28.588  30.962  21.742  1.00  0.00     0.123 A 
ATOM     97  F   UNL A   1      28.371  32.159  21.182  1.00  0.00    -0.207 F 
ENDBRANCH  88  91
ENDBRANCH  86  87
BRANCH  86  98
ATOM     98  C   UNL A   1      32.666  27.302  24.847  1.00  0.00     0.072 C 
BRANCH  98  99
ATOM     99  C   UNL A   1      32.553  28.641  25.520  1.00  0.00    -0.020 A 
ATOM    100  C   UNL A   1      31.449  29.473  25.527  1.00  0.00     0.087 A 
ATOM    101  C   UNL A   1      33.526  29.263  26.374  1.00  0.00     0.003 A 
ATOM    102  N   UNL A   1      31.776  30.628  26.182  1.00  0.00    -0.361 N 
ATOM    103  C   UNL A   1      33.024  30.511  26.745  1.00  0.00     0.046 A 
ATOM    104  C   UNL A   1      34.783  28.875  26.887  1.00  0.00     0.010 A 
ATOM    105  H   UNL A   1      31.203  31.426  26.241  1.00  0.00     0.166 HD
ATOM    106  C   UNL A   1      33.722  31.405  27.564  1.00  0.00     0.026 A 
ATOM    107  C   UNL A   1      35.477  29.739  27.744  1.00  0.00     0.001 A 
ATOM    108  C   UNL A   1      34.956  30.989  28.067  1.00  0.00     0.002 A 
ENDBRANCH  98  99
ENDBRANCH  86  98
ENDBRANCH  83  86
ENDBRANCH  81  82
BRANCH  81 109
ATOM    109  C   UNL A   1      31.025  23.470  23.665  1.00  0.00     0.191 C 
BRANCH 109 110
ATOM    110  O   UNL A   1      30.271  23.806  24.831  1.00  0.00    -0.394 OA
ATOM    111  H   UNL A   1      30.514  24.698  25.126  1.00  0.00     0.210 HD
ENDBRANCH 109 110
ENDBRANCH  81 109
ENDBRANCH  78  81
ENDBRANCH  76  77
ENDBRANCH   1  76
TORSDOF 22
ENDMDL
MODEL 3
REMARK VINA RESULT:     -12.8      0.895      7.906
REMARK SMILES O=C(NCCCCNC(=O)[C@H](CO)NC(=O)[C@H](Cc1c[nH]c2ccccc12)NC(=O)c1ccc(F)cc1)c1ccc(-c2c3nc(c(-c4c(F)cc(S(=O)(=O)[O-])cc4F)c4ccc([nH]4)c(-c4c(F)cc(S(=O)(=O)[O-])cc4F)c4nc(c(-c5c(F)cc(S(=O)(=O)[O-])cc5F)c5ccc2[nH]5)C=C4)C=C3)cc1
REMARK SMILES IDX 6 1 5 2 4 3 3 4 1 5 2 6 38 8 39 9 103 10 40 11 102 12 41 13
REMARK SMILES IDX 42 14 43 15 96 16 44 17 101 18 95 19 97 20 45 21 100 22
REMARK SMILES IDX 94 23 93 24 46 26 80 27 59 28 79 29 60 30 63 31 78 32 98 33
REMARK SMILES IDX 61 34 62 35 77 37 99 38 64 39 47 40 48 41 57 42 49 43 50 44
REMARK SMILES IDX 56 45 58 46 51 47 52 48 53 49 54 50 55 51 81 52 82 53 91 54
REMARK SMILES IDX 83 55 84 56 90 57 92 58 85 59 86 60 87 61 88 62 89 63 65 64
REMARK SMILES IDX 66 65 75 66 67 67 68 68 74 69 76 70 69 71 70 72 71 73 72 74
REMARK SMILES IDX 73 75 7 76 8 77 9 78 10 80 11 81 14 82 15 83 16 85 17 86
REMARK SMILES IDX 28 87 29 88 30 90 31 91 32 92 37 93 33 94 36 95 34 96 35 97
REMARK SMILES IDX 18 98 19 99 20 100 27 101 21 102 22 103 26 104 23 106 25 107
REMARK SMILES IDX 24 108 12 109 13 110
REMARK H PARENT 3 7 97 25 63 36 8 79 14 84 28 89 21 105 13 111
REMARK Flexibility Score: inf
ROOT
ATOM      1  C   UNL A   1      37.438  24.006  26.068  1.00  0.00     0.023 C 
ENDROOT
BRANCH   1   2
ATOM      2  C   UNL A   1      38.553  22.992  26.324  1.00  0.00     0.023 C 
BRANCH   2   3
ATOM      3  C   UNL A   1      39.814  23.546  26.978  1.00  0.00     0.116 C 
BRANCH   3   4
ATOM      4  N   UNL A   1      40.754  24.107  26.023  1.00  0.00    -0.352 N 
ATOM      5  O   UNL A   1      42.056  25.687  25.080  1.00  0.00    -0.269 OA
ATOM      6  C   UNL A   1      41.398  25.325  26.047  1.00  0.00     0.251 C 
ATOM      7  H   UNL A   1      40.959  23.538  25.247  1.00  0.00     0.163 HD
BRANCH   6   8
ATOM      8  C   UNL A   1      41.272  26.201  27.234  1.00  0.00     0.039 A 
ATOM      9  C   UNL A   1      40.305  25.948  28.208  1.00  0.00     0.014 A 
ATOM     10  C   UNL A   1      42.138  27.291  27.371  1.00  0.00     0.014 A 
ATOM     11  C   UNL A   1      40.108  26.859  29.239  1.00  0.00     0.010 A 
ATOM     12  C   UNL A   1      41.989  28.165  28.454  1.00  0.00     0.010 A 
ATOM     13  C   UNL A   1      40.954  27.972  29.380  1.00  0.00    -0.014 A 
BRANCH  13  14
ATOM     14  C   UNL A   1      40.771  28.880  30.542  1.00  0.00     0.031 A 
ATOM     15  C   UNL A   1      39.682  29.917  30.559  1.00  0.00     0.074 A 
ATOM     16  C   UNL A   1      41.581  28.729  31.609  1.00  0.00     0.049 A 
ATOM     17  N   UNL A   1      39.379  30.772  31.504  1.00  0.00    -0.248 NA
ATOM     18  C   UNL A   1      38.823  30.015  29.368  1.00  0.00     0.031 C 
ATOM     19  C   UNL A   1      42.676  27.759  31.701  1.00  0.00     0.029 A 
ATOM     20  N   UNL A   1      41.599  29.363  32.824  1.00  0.00    -0.354 N 
ATOM     21  C   UNL A   1      38.308  31.515  31.022  1.00  0.00     0.074 A 
ATOM     22  C   UNL A   1      38.024  31.025  29.689  1.00  0.00     0.031 C 
ATOM     23  C   UNL A   1      43.225  27.828  32.922  1.00  0.00     0.029 A 
ATOM     24  C   UNL A   1      42.564  28.886  33.679  1.00  0.00     0.049 A 
ATOM     25  H   UNL A   1      40.981  30.092  33.062  1.00  0.00     0.167 HD
ATOM     26  C   UNL A   1      37.622  32.504  31.640  1.00  0.00     0.037 A 
ATOM     27  C   UNL A   1      42.895  29.263  34.928  1.00  0.00     0.037 A 
ATOM     28  C   UNL A   1      37.899  32.971  32.975  1.00  0.00     0.049 A 
ATOM     29  C   UNL A   1      42.133  30.380  35.579  1.00  0.00     0.074 A 
ATOM     30  C   UNL A   1      37.241  33.954  33.696  1.00  0.00     0.029 A 
ATOM     31  N   UNL A   1      38.911  32.490  33.792  1.00  0.00    -0.354 N 
ATOM     32  N   UNL A   1      41.118  31.062  35.108  1.00  0.00    -0.248 NA
ATOM     33  C   UNL A   1      42.565  30.785  36.923  1.00  0.00     0.031 C 
ATOM     34  C   UNL A   1      37.877  34.092  34.934  1.00  0.00     0.029 A 
ATOM     35  C   UNL A   1      38.907  33.169  35.001  1.00  0.00     0.049 A 
ATOM     36  H   UNL A   1      39.541  31.774  33.550  1.00  0.00     0.167 HD
ATOM     37  C   UNL A   1      40.787  31.978  36.098  1.00  0.00     0.074 A 
ATOM     38  C   UNL A   1      41.695  31.747  37.203  1.00  0.00     0.031 C 
ATOM     39  C   UNL A   1      39.822  32.929  36.089  1.00  0.00     0.037 A 
BRANCH  26  40
ATOM     40  C   UNL A   1      36.496  33.164  30.894  1.00  0.00     0.058 A 
ATOM     41  C   UNL A   1      36.764  34.089  29.872  1.00  0.00     0.135 A 
ATOM     42  C   UNL A   1      35.157  32.960  31.258  1.00  0.00     0.135 A 
ATOM     43  F   UNL A   1      38.028  34.318  29.480  1.00  0.00    -0.206 F 
ATOM     44  C   UNL A   1      35.744  34.805  29.251  1.00  0.00     0.059 A 
ATOM     45  C   UNL A   1      34.119  33.651  30.638  1.00  0.00     0.059 A 
ATOM     46  F   UNL A   1      34.846  32.071  32.214  1.00  0.00    -0.206 F 
ATOM     47  C   UNL A   1      34.425  34.585  29.648  1.00  0.00     0.060 A 
BRANCH  47  48
ATOM     48  S   UNL A   1      33.111  35.518  28.831  1.00  0.00     0.124 S 
ATOM     49  O   UNL A   1      32.445  34.480  28.052  1.00  0.00    -0.237 OA
ATOM     50  O   UNL A   1      32.359  36.046  29.965  1.00  0.00    -0.237 OA
ATOM     51  O   UNL A   1      33.841  36.518  28.056  1.00  0.00    -0.744 OA
ENDBRANCH  47  48
ENDBRANCH  26  40
BRANCH  27  52
ATOM     52  C   UNL A   1      44.008  28.575  35.630  1.00  0.00     0.058 A 
ATOM     53  C   UNL A   1      43.760  27.506  36.505  1.00  0.00     0.135 A 
ATOM     54  C   UNL A   1      45.334  29.003  35.477  1.00  0.00     0.135 A 
ATOM     55  F   UNL A   1      42.506  27.067  36.694  1.00  0.00    -0.206 F 
ATOM     56  C   UNL A   1      44.783  26.905  37.227  1.00  0.00     0.059 A 
ATOM     57  C   UNL A   1      46.379  28.400  36.169  1.00  0.00     0.059 A 
ATOM     58  F   UNL A   1      45.618  30.015  34.642  1.00  0.00    -0.206 F 
ATOM     59  C   UNL A   1      46.090  27.365  37.057  1.00  0.00     0.060 A 
BRANCH  59  60
ATOM     60  S   UNL A   1      47.406  26.579  38.011  1.00  0.00     0.124 S 
ATOM     61  O   UNL A   1      46.786  26.476  39.328  1.00  0.00    -0.237 OA
ATOM     62  O   UNL A   1      47.597  25.321  37.297  1.00  0.00    -0.237 OA
ATOM     63  O   UNL A   1      48.508  27.530  37.906  1.00  0.00    -0.744 OA
ENDBRANCH  59  60
ENDBRANCH  27  52
BRANCH  39  64
ATOM     64  C   UNL A   1      39.692  33.793  37.310  1.00  0.00     0.058 A 
ATOM     65  C   UNL A   1      38.806  33.445  38.339  1.00  0.00     0.135 A 
ATOM     66  C   UNL A   1      40.401  34.999  37.427  1.00  0.00     0.135 A 
ATOM     67  F   UNL A   1      38.105  32.303  38.272  1.00  0.00    -0.206 F 
ATOM     68  C   UNL A   1      38.613  34.273  39.439  1.00  0.00     0.059 A 
ATOM     69  C   UNL A   1      40.239  35.832  38.530  1.00  0.00     0.059 A 
ATOM     70  F   UNL A   1      41.271  35.366  36.473  1.00  0.00    -0.206 F 
ATOM     71  C   UNL A   1      39.330  35.467  39.522  1.00  0.00     0.060 A 
BRANCH  71  72
ATOM     72  S   UNL A   1      39.079  36.526  40.963  1.00  0.00     0.124 S 
ATOM     73  O   UNL A   1      38.591  37.755  40.348  1.00  0.00    -0.237 OA
ATOM     74  O   UNL A   1      38.097  35.771  41.736  1.00  0.00    -0.237 OA
ATOM     75  O   UNL A   1      40.408  36.605  41.561  1.00  0.00    -0.744 OA
ENDBRANCH  71  72
ENDBRANCH  39  64
ENDBRANCH  13  14
ENDBRANCH   6   8
ENDBRANCH   3   4
ENDBRANCH   2   3
ENDBRANCH   1   2
BRANCH   1  76
ATOM     76  C   UNL A   1      36.019  23.455  26.161  1.00  0.00     0.116 C 
BRANCH  76  77
ATOM     77  N   UNL A   1      35.923  22.068  25.733  1.00  0.00    -0.354 N 
ATOM     78  C   UNL A   1      34.927  21.425  25.055  1.00  0.00     0.244 C 
ATOM     79  H   UNL A   1      36.696  21.505  25.971  1.00  0.00     0.163 HD
ATOM     80  O   UNL A   1      35.122  20.258  24.710  1.00  0.00    -0.273 OA
BRANCH  78  81
ATOM     81  C   UNL A   1      33.577  22.116  24.811  1.00  0.00     0.197 C 
BRANCH  81  82
ATOM     82  N   UNL A   1      33.704  23.021  23.661  1.00  0.00    -0.340 N 
ATOM     83  C   UNL A   1      32.885  23.948  23.099  1.00  0.00     0.243 C 
ATOM     84  H   UNL A   1      34.569  22.938  23.197  1.00  0.00     0.164 HD
ATOM     85  O   UNL A   1      33.336  24.535  22.107  1.00  0.00    -0.273 OA
BRANCH  83  86
ATOM     86  C   UNL A   1      31.514  24.394  23.673  1.00  0.00     0.176 C 
BRANCH  86  87
ATOM     87  N   UNL A   1      31.264  24.081  25.076  1.00  0.00    -0.340 N 
ATOM     88  C   UNL A   1      31.435  24.782  26.234  1.00  0.00     0.251 C 
ATOM     89  H   UNL A   1      30.896  23.179  25.216  1.00  0.00     0.164 HD
ATOM     90  O   UNL A   1      31.085  24.260  27.291  1.00  0.00    -0.269 OA
BRANCH  88  91
ATOM     91  C   UNL A   1      32.087  26.107  26.266  1.00  0.00     0.040 A 
ATOM     92  C   UNL A   1      31.412  27.285  26.600  1.00  0.00     0.017 A 
ATOM     93  C   UNL A   1      33.467  26.138  26.008  1.00  0.00     0.017 A 
ATOM     94  C   UNL A   1      32.110  28.497  26.623  1.00  0.00     0.040 A 
ATOM     95  C   UNL A   1      34.161  27.348  26.038  1.00  0.00     0.040 A 
ATOM     96  C   UNL A   1      33.474  28.518  26.338  1.00  0.00     0.123 A 
ATOM     97  F   UNL A   1      34.136  29.681  26.364  1.00  0.00    -0.207 F 
ENDBRANCH  88  91
ENDBRANCH  86  87
BRANCH  86  98
ATOM     98  C   UNL A   1      31.315  25.892  23.293  1.00  0.00     0.072 C 
BRANCH  98  99
ATOM     99  C   UNL A   1      29.929  26.461  23.416  1.00  0.00    -0.020 A 
ATOM    100  C   UNL A   1      28.836  25.857  24.006  1.00  0.00     0.087 A 
ATOM    101  C   UNL A   1      29.503  27.781  23.044  1.00  0.00     0.003 A 
ATOM    102  N   UNL A   1      27.747  26.667  23.842  1.00  0.00    -0.361 N 
ATOM    103  C   UNL A   1      28.133  27.866  23.295  1.00  0.00     0.046 A 
ATOM    104  C   UNL A   1      30.156  28.925  22.534  1.00  0.00     0.010 A 
ATOM    105  H   UNL A   1      26.822  26.427  24.081  1.00  0.00     0.166 HD
ATOM    106  C   UNL A   1      27.375  29.013  23.030  1.00  0.00     0.026 A 
ATOM    107  C   UNL A   1      29.421  30.095  22.303  1.00  0.00     0.001 A 
ATOM    108  C   UNL A   1      28.049  30.132  22.539  1.00  0.00     0.002 A 
ENDBRANCH  98  99
ENDBRANCH  86  98
ENDBRANCH  83  86
ENDBRANCH  81  82
BRANCH  81 109
ATOM    109  C   UNL A   1      32.527  21.021  24.550  1.00  0.00     0.191 C 
BRANCH 109 110
ATOM    110  O   UNL A   1      31.563  20.971  25.603  1.00  0.00    -0.394 OA
ATOM    111  H   UNL A   1      31.099  21.822  25.657  1.00  0.00     0.210 HD
ENDBRANCH 109 110
ENDBRANCH  81 109
ENDBRANCH  78  81
ENDBRANCH  76  77
ENDBRANCH   1  76
TORSDOF 22
ENDMDL
