MODEL 1
REMARK VINA RESULT:     -12.4      0.000      0.000
REMARK SMILES Cc1nn(CC(F)F)c2c1c(C(F)(F)F)cc(=O)n2CC(=O)NCCCCNC(=O)c1ccc(-c2c3nc(c(-c4c(F)cc(S(=O)(=O)[O-])cc4F)c4ccc([nH]4)c(-c4c(F)cc(S(=O)(=O)[O-])cc4F)c4nc(c(-c5c(F)cc(S(=O)(=O)[O-])cc5F)c5ccc2[nH]5)C=C4)C=C3)cc1
REMARK SMILES IDX 25 1 24 2 23 3 21 4 22 5 20 7 19 8 1 9 2 10 3 11 10 12 4 13
REMARK SMILES IDX 9 14 11 15 16 16 17 17 18 18 5 19 6 20 7 21 8 22 12 23 13 24
REMARK SMILES IDX 14 25 15 26 26 27 27 28 28 29 29 30 30 32 31 33 32 34 96 35
REMARK SMILES IDX 33 36 95 37 34 38 35 39 36 40 89 41 37 42 94 43 88 44 90 45
REMARK SMILES IDX 38 46 93 47 87 48 86 49 39 51 73 52 52 53 72 54 53 55 56 56
REMARK SMILES IDX 71 57 91 58 54 59 55 60 70 62 92 63 57 64 40 65 41 66 50 67
REMARK SMILES IDX 42 68 43 69 49 70 51 71 44 72 45 73 46 74 47 75 48 76 74 77
REMARK SMILES IDX 75 78 84 79 76 80 77 81 83 82 85 83 78 84 79 85 80 86 81 87
REMARK SMILES IDX 82 88 58 89 59 90 68 91 60 92 61 93 67 94 69 95 62 96 63 97
REMARK SMILES IDX 64 98 65 99 66 100
REMARK H PARENT 23 6 28 31 90 50 56 61
REMARK Flexibility Score: inf
ROOT
ATOM      1  C   UNL A   1      37.052  22.271  24.194  1.00  0.00     0.023 C 
ENDROOT
BRANCH   1   2
ATOM      2  C   UNL A   1      36.186  23.214  25.020  1.00  0.00     0.116 C 
BRANCH   2   3
ATOM      3  N   UNL A   1      35.326  22.510  25.945  1.00  0.00    -0.355 N 
ATOM      4  C   UNL A   1      34.071  22.028  25.742  1.00  0.00     0.240 C 
ATOM      5  O   UNL A   1      33.665  21.168  26.532  1.00  0.00    -0.273 OA
ATOM      6  H   UNL A   1      35.700  22.357  26.843  1.00  0.00     0.163 HD
BRANCH   4   7
ATOM      7  C   UNL A   1      33.232  22.420  24.522  1.00  0.00     0.227 C 
BRANCH   7   8
ATOM      8  N   UNL A   1      33.138  23.847  24.206  1.00  0.00    -0.283 N 
ATOM      9  C   UNL A   1      31.891  28.347  26.070  1.00  0.00     0.069 C 
ATOM     10  C   UNL A   1      32.042  26.894  25.789  1.00  0.00     0.069 A 
ATOM     11  N   UNL A   1      31.536  26.018  26.661  1.00  0.00    -0.175 NA
ATOM     12  C   UNL A   1      32.647  26.217  24.707  1.00  0.00     0.053 A 
ATOM     13  N   UNL A   1      31.899  24.801  26.203  1.00  0.00    -0.243 N 
ATOM     14  C   UNL A   1      32.592  24.864  25.013  1.00  0.00     0.142 A 
ATOM     15  C   UNL A   1      33.264  26.623  23.488  1.00  0.00     0.074 A 
ATOM     16  C   UNL A   1      33.716  25.687  22.637  1.00  0.00     0.085 A 
ATOM     17  C   UNL A   1      33.625  24.237  22.948  1.00  0.00     0.253 A 
ATOM     18  O   UNL A   1      34.025  23.454  22.087  1.00  0.00    -0.269 OA
BRANCH  13  19
ATOM     19  C   UNL A   1      31.482  23.686  27.017  1.00  0.00     0.219 C 
BRANCH  19  20
ATOM     20  C   UNL A   1      30.171  23.091  26.572  1.00  0.00     0.363 C 
ATOM     21  F   UNL A   1      30.350  21.901  25.947  1.00  0.00    -0.208 F 
ATOM     22  F   UNL A   1      29.409  22.821  27.667  1.00  0.00    -0.208 F 
ENDBRANCH  19  20
ENDBRANCH  13  19
BRANCH  15  23
ATOM     23  C   UNL A   1      33.364  28.082  23.174  1.00  0.00     0.417 C 
ATOM     24  F   UNL A   1      32.146  28.668  23.061  1.00  0.00    -0.166 F 
ATOM     25  F   UNL A   1      34.067  28.765  24.108  1.00  0.00    -0.166 F 
ATOM     26  F   UNL A   1      33.994  28.303  21.986  1.00  0.00    -0.166 F 
ENDBRANCH  15  23
ENDBRANCH   7   8
ENDBRANCH   4   7
ENDBRANCH   2   3
ENDBRANCH   1   2
BRANCH   1  27
ATOM     27  C   UNL A   1      37.815  21.219  25.010  1.00  0.00     0.023 C 
BRANCH  27  28
ATOM     28  C   UNL A   1      38.761  21.780  26.074  1.00  0.00     0.116 C 
BRANCH  28  29
ATOM     29  N   UNL A   1      40.146  21.865  25.656  1.00  0.00    -0.352 N 
ATOM     30  C   UNL A   1      41.197  22.681  25.975  1.00  0.00     0.251 C 
ATOM     31  H   UNL A   1      40.385  21.180  24.991  1.00  0.00     0.163 HD
ATOM     32  O   UNL A   1      42.300  22.323  25.551  1.00  0.00    -0.269 OA
BRANCH  30  33
ATOM     33  C   UNL A   1      41.095  23.966  26.719  1.00  0.00     0.039 A 
ATOM     34  C   UNL A   1      40.232  25.013  26.407  1.00  0.00     0.014 A 
ATOM     35  C   UNL A   1      42.003  24.140  27.784  1.00  0.00     0.014 A 
ATOM     36  C   UNL A   1      40.338  26.231  27.068  1.00  0.00     0.010 A 
ATOM     37  C   UNL A   1      42.101  25.352  28.463  1.00  0.00     0.010 A 
ATOM     38  C   UNL A   1      41.294  26.413  28.073  1.00  0.00    -0.014 A 
BRANCH  38  39
ATOM     39  C   UNL A   1      41.292  27.696  28.770  1.00  0.00     0.031 A 
ATOM     40  C   UNL A   1      42.406  28.600  28.363  1.00  0.00     0.074 A 
ATOM     41  C   UNL A   1      40.358  28.090  29.658  1.00  0.00     0.049 A 
ATOM     42  N   UNL A   1      43.426  28.971  29.065  1.00  0.00    -0.248 NA
ATOM     43  C   UNL A   1      42.472  29.006  26.951  1.00  0.00     0.031 C 
ATOM     44  C   UNL A   1      39.080  27.449  29.972  1.00  0.00     0.029 A 
ATOM     45  N   UNL A   1      40.331  29.217  30.429  1.00  0.00    -0.354 N 
ATOM     46  C   UNL A   1      44.154  29.837  28.252  1.00  0.00     0.074 A 
ATOM     47  C   UNL A   1      43.620  29.684  26.925  1.00  0.00     0.031 C 
ATOM     48  C   UNL A   1      38.319  28.299  30.700  1.00  0.00     0.029 A 
ATOM     49  C   UNL A   1      39.101  29.479  31.025  1.00  0.00     0.049 A 
ATOM     50  H   UNL A   1      41.117  29.796  30.554  1.00  0.00     0.167 HD
ATOM     51  C   UNL A   1      44.988  30.774  28.783  1.00  0.00     0.037 A 
ATOM     52  C   UNL A   1      38.747  30.604  31.702  1.00  0.00     0.037 A 
ATOM     53  C   UNL A   1      45.340  30.443  30.140  1.00  0.00     0.049 A 
ATOM     54  C   UNL A   1      40.003  31.250  32.158  1.00  0.00     0.074 A 
ATOM     55  C   UNL A   1      45.998  29.394  30.753  1.00  0.00     0.029 A 
ATOM     56  N   UNL A   1      44.687  31.115  31.144  1.00  0.00    -0.354 N 
ATOM     57  N   UNL A   1      40.805  30.743  33.052  1.00  0.00    -0.248 NA
ATOM     58  C   UNL A   1      40.584  32.286  31.317  1.00  0.00     0.031 C 
ATOM     59  C   UNL A   1      45.340  29.221  32.006  1.00  0.00     0.029 A 
ATOM     60  C   UNL A   1      44.354  30.204  32.112  1.00  0.00     0.049 A 
ATOM     61  H   UNL A   1      44.493  32.080  31.165  1.00  0.00     0.167 HD
ATOM     62  C   UNL A   1      42.077  31.072  32.615  1.00  0.00     0.074 A 
ATOM     63  C   UNL A   1      41.874  32.109  31.608  1.00  0.00     0.031 C 
ATOM     64  C   UNL A   1      43.150  30.282  32.913  1.00  0.00     0.037 A 
BRANCH  51  65
ATOM     65  C   UNL A   1      45.166  32.172  28.222  1.00  0.00     0.058 A 
ATOM     66  C   UNL A   1      46.456  32.599  27.835  1.00  0.00     0.135 A 
ATOM     67  C   UNL A   1      44.199  33.197  28.323  1.00  0.00     0.135 A 
ATOM     68  F   UNL A   1      47.458  31.716  27.696  1.00  0.00    -0.206 F 
ATOM     69  C   UNL A   1      46.781  33.946  27.662  1.00  0.00     0.059 A 
ATOM     70  C   UNL A   1      44.490  34.540  28.105  1.00  0.00     0.059 A 
ATOM     71  F   UNL A   1      42.946  32.970  28.730  1.00  0.00    -0.206 F 
ATOM     72  C   UNL A   1      45.792  34.910  27.820  1.00  0.00     0.060 A 
BRANCH  72  73
ATOM     73  S   UNL A   1      46.229  36.653  27.712  1.00  0.00     0.124 S 
ATOM     74  O   UNL A   1      45.979  36.929  26.303  1.00  0.00    -0.237 OA
ATOM     75  O   UNL A   1      45.297  37.255  28.660  1.00  0.00    -0.237 OA
ATOM     76  O   UNL A   1      47.631  36.673  28.122  1.00  0.00    -0.744 OA
ENDBRANCH  72  73
ENDBRANCH  51  65
BRANCH  52  77
ATOM     77  C   UNL A   1      37.445  31.328  31.701  1.00  0.00     0.058 A 
ATOM     78  C   UNL A   1      36.769  31.608  32.906  1.00  0.00     0.135 A 
ATOM     79  C   UNL A   1      36.990  32.027  30.566  1.00  0.00     0.135 A 
ATOM     80  F   UNL A   1      37.136  30.998  34.045  1.00  0.00    -0.206 F 
ATOM     81  C   UNL A   1      35.758  32.573  32.994  1.00  0.00     0.059 A 
ATOM     82  C   UNL A   1      35.978  32.986  30.627  1.00  0.00     0.059 A 
ATOM     83  F   UNL A   1      37.584  31.871  29.374  1.00  0.00    -0.206 F 
ATOM     84  C   UNL A   1      35.389  33.278  31.851  1.00  0.00     0.060 A 
BRANCH  84  85
ATOM     85  S   UNL A   1      34.228  34.658  31.993  1.00  0.00     0.124 S 
ATOM     86  O   UNL A   1      33.148  34.067  32.776  1.00  0.00    -0.237 OA
ATOM     87  O   UNL A   1      35.032  35.666  32.677  1.00  0.00    -0.237 OA
ATOM     88  O   UNL A   1      33.895  34.968  30.605  1.00  0.00    -0.744 OA
ENDBRANCH  84  85
ENDBRANCH  52  77
BRANCH  64  89
ATOM     89  C   UNL A   1      43.003  29.258  34.008  1.00  0.00     0.058 A 
ATOM     90  C   UNL A   1      43.148  29.527  35.381  1.00  0.00     0.135 A 
ATOM     91  C   UNL A   1      42.536  27.983  33.652  1.00  0.00     0.135 A 
ATOM     92  F   UNL A   1      43.502  30.746  35.813  1.00  0.00    -0.206 F 
ATOM     93  C   UNL A   1      42.861  28.564  36.351  1.00  0.00     0.059 A 
ATOM     94  C   UNL A   1      42.211  27.019  34.603  1.00  0.00     0.059 A 
ATOM     95  F   UNL A   1      42.327  27.681  32.360  1.00  0.00    -0.206 F 
ATOM     96  C   UNL A   1      42.382  27.315  35.953  1.00  0.00     0.060 A 
BRANCH  96  97
ATOM     97  S   UNL A   1      41.905  26.109  37.210  1.00  0.00     0.124 S 
ATOM     98  O   UNL A   1      42.969  26.260  38.201  1.00  0.00    -0.237 OA
ATOM     99  O   UNL A   1      40.586  26.590  37.623  1.00  0.00    -0.237 OA
ATOM    100  O   UNL A   1      41.899  24.845  36.489  1.00  0.00    -0.744 OA
ENDBRANCH  96  97
ENDBRANCH  64  89
ENDBRANCH  38  39
ENDBRANCH  30  33
ENDBRANCH  28  29
ENDBRANCH  27  28
ENDBRANCH   1  27
TORSDOF 18
ENDMDL
MODEL 2
REMARK VINA RESULT:     -12.3      2.036      2.909
REMARK SMILES Cc1nn(CC(F)F)c2c1c(C(F)(F)F)cc(=O)n2CC(=O)NCCCCNC(=O)c1ccc(-c2c3nc(c(-c4c(F)cc(S(=O)(=O)[O-])cc4F)c4ccc([nH]4)c(-c4c(F)cc(S(=O)(=O)[O-])cc4F)c4nc(c(-c5c(F)cc(S(=O)(=O)[O-])cc5F)c5ccc2[nH]5)C=C4)C=C3)cc1
REMARK SMILES IDX 25 1 24 2 23 3 21 4 22 5 20 7 19 8 1 9 2 10 3 11 10 12 4 13
REMARK SMILES IDX 9 14 11 15 16 16 17 17 18 18 5 19 6 20 7 21 8 22 12 23 13 24
REMARK SMILES IDX 14 25 15 26 26 27 27 28 28 29 29 30 30 32 31 33 32 34 96 35
REMARK SMILES IDX 33 36 95 37 34 38 35 39 36 40 89 41 37 42 94 43 88 44 90 45
REMARK SMILES IDX 38 46 93 47 87 48 86 49 39 51 73 52 52 53 72 54 53 55 56 56
REMARK SMILES IDX 71 57 91 58 54 59 55 60 70 62 92 63 57 64 40 65 41 66 50 67
REMARK SMILES IDX 42 68 43 69 49 70 51 71 44 72 45 73 46 74 47 75 48 76 74 77
REMARK SMILES IDX 75 78 84 79 76 80 77 81 83 82 85 83 78 84 79 85 80 86 81 87
REMARK SMILES IDX 82 88 58 89 59 90 68 91 60 92 61 93 67 94 69 95 62 96 63 97
REMARK SMILES IDX 64 98 65 99 66 100
REMARK H PARENT 23 6 28 31 90 50 56 61
REMARK Flexibility Score: inf
ROOT
ATOM      1  C   UNL A   1      34.799  22.026  24.728  1.00  0.00     0.023 C 
ENDROOT
BRANCH   1   2
ATOM      2  C   UNL A   1      33.622  22.943  24.417  1.00  0.00     0.116 C 
BRANCH   2   3
ATOM      3  N   UNL A   1      33.052  23.535  25.606  1.00  0.00    -0.355 N 
ATOM      4  C   UNL A   1      32.708  24.832  25.830  1.00  0.00     0.240 C 
ATOM      5  O   UNL A   1      31.928  25.054  26.763  1.00  0.00    -0.273 OA
ATOM      6  H   UNL A   1      32.890  22.918  26.356  1.00  0.00     0.163 HD
BRANCH   4   7
ATOM      7  C   UNL A   1      33.149  25.967  24.900  1.00  0.00     0.227 C 
BRANCH   7   8
ATOM      8  N   UNL A   1      32.128  26.939  24.501  1.00  0.00    -0.283 N 
ATOM      9  C   UNL A   1      30.507  31.646  25.196  1.00  0.00     0.069 C 
ATOM     10  C   UNL A   1      31.142  30.307  25.319  1.00  0.00     0.069 A 
ATOM     11  N   UNL A   1      31.991  30.092  26.328  1.00  0.00    -0.175 NA
ATOM     12  C   UNL A   1      31.009  29.141  24.532  1.00  0.00     0.053 A 
ATOM     13  N   UNL A   1      32.474  28.846  26.135  1.00  0.00    -0.243 N 
ATOM     14  C   UNL A   1      31.914  28.221  25.042  1.00  0.00     0.142 A 
ATOM     15  C   UNL A   1      30.212  28.775  23.409  1.00  0.00     0.074 A 
ATOM     16  C   UNL A   1      30.308  27.530  22.913  1.00  0.00     0.085 A 
ATOM     17  C   UNL A   1      31.252  26.533  23.480  1.00  0.00     0.253 A 
ATOM     18  O   UNL A   1      31.237  25.405  22.989  1.00  0.00    -0.269 OA
BRANCH  13  19
ATOM     19  C   UNL A   1      33.448  28.406  27.103  1.00  0.00     0.219 C 
BRANCH  19  20
ATOM     20  C   UNL A   1      34.493  29.450  27.401  1.00  0.00     0.363 C 
ATOM     21  F   UNL A   1      35.228  29.123  28.493  1.00  0.00    -0.208 F 
ATOM     22  F   UNL A   1      35.375  29.508  26.367  1.00  0.00    -0.208 F 
ENDBRANCH  19  20
ENDBRANCH  13  19
BRANCH  15  23
ATOM     23  C   UNL A   1      29.265  29.778  22.829  1.00  0.00     0.417 C 
ATOM     24  F   UNL A   1      28.413  30.277  23.759  1.00  0.00    -0.166 F 
ATOM     25  F   UNL A   1      29.907  30.822  22.254  1.00  0.00    -0.166 F 
ATOM     26  F   UNL A   1      28.480  29.232  21.859  1.00  0.00    -0.166 F 
ENDBRANCH  15  23
ENDBRANCH   7   8
ENDBRANCH   4   7
ENDBRANCH   2   3
ENDBRANCH   1   2
BRANCH   1  27
ATOM     27  C   UNL A   1      35.901  22.662  25.584  1.00  0.00     0.023 C 
BRANCH  27  28
ATOM     28  C   UNL A   1      37.248  22.847  24.881  1.00  0.00     0.116 C 
BRANCH  28  29
ATOM     29  N   UNL A   1      38.325  22.055  25.439  1.00  0.00    -0.352 N 
ATOM     30  C   UNL A   1      39.254  22.256  26.424  1.00  0.00     0.251 C 
ATOM     31  H   UNL A   1      38.409  21.173  25.012  1.00  0.00     0.163 HD
ATOM     32  O   UNL A   1      39.903  21.261  26.758  1.00  0.00    -0.269 OA
BRANCH  30  33
ATOM     33  C   UNL A   1      39.570  23.567  27.054  1.00  0.00     0.039 A 
ATOM     34  C   UNL A   1      38.828  24.736  26.903  1.00  0.00     0.014 A 
ATOM     35  C   UNL A   1      40.761  23.622  27.807  1.00  0.00     0.014 A 
ATOM     36  C   UNL A   1      39.308  25.942  27.401  1.00  0.00     0.010 A 
ATOM     37  C   UNL A   1      41.237  24.824  28.326  1.00  0.00     0.010 A 
ATOM     38  C   UNL A   1      40.528  25.993  28.084  1.00  0.00    -0.014 A 
BRANCH  38  39
ATOM     39  C   UNL A   1      40.926  27.283  28.641  1.00  0.00     0.031 A 
ATOM     40  C   UNL A   1      42.173  27.835  28.040  1.00  0.00     0.074 A 
ATOM     41  C   UNL A   1      40.229  27.971  29.567  1.00  0.00     0.049 A 
ATOM     42  N   UNL A   1      43.328  27.983  28.602  1.00  0.00    -0.248 NA
ATOM     43  C   UNL A   1      42.173  28.101  26.594  1.00  0.00     0.031 C 
ATOM     44  C   UNL A   1      38.877  27.706  30.063  1.00  0.00     0.029 A 
ATOM     45  N   UNL A   1      40.572  29.122  30.216  1.00  0.00    -0.354 N 
ATOM     46  C   UNL A   1      44.148  28.568  27.640  1.00  0.00     0.074 A 
ATOM     47  C   UNL A   1      43.443  28.456  26.391  1.00  0.00     0.031 C 
ATOM     48  C   UNL A   1      38.441  28.777  30.768  1.00  0.00     0.029 A 
ATOM     49  C   UNL A   1      39.524  29.737  30.894  1.00  0.00     0.049 A 
ATOM     50  H   UNL A   1      41.486  29.486  30.206  1.00  0.00     0.167 HD
ATOM     51  C   UNL A   1      45.245  29.295  27.990  1.00  0.00     0.037 A 
ATOM     52  C   UNL A   1      39.541  30.964  31.481  1.00  0.00     0.037 A 
ATOM     53  C   UNL A   1      45.660  28.990  29.336  1.00  0.00     0.049 A 
ATOM     54  C   UNL A   1      40.963  31.297  31.748  1.00  0.00     0.074 A 
ATOM     55  C   UNL A   1      46.103  27.857  29.990  1.00  0.00     0.029 A 
ATOM     56  N   UNL A   1      45.316  29.882  30.321  1.00  0.00    -0.354 N 
ATOM     57  N   UNL A   1      41.712  30.670  32.611  1.00  0.00    -0.248 NA
ATOM     58  C   UNL A   1      41.680  32.080  30.753  1.00  0.00     0.031 C 
ATOM     59  C   UNL A   1      45.574  27.956  31.310  1.00  0.00     0.029 A 
ATOM     60  C   UNL A   1      44.882  29.165  31.405  1.00  0.00     0.049 A 
ATOM     61  H   UNL A   1      45.371  30.863  30.260  1.00  0.00     0.167 HD
ATOM     62  C   UNL A   1      42.967  30.626  32.026  1.00  0.00     0.074 A 
ATOM     63  C   UNL A   1      42.911  31.600  30.939  1.00  0.00     0.031 C 
ATOM     64  C   UNL A   1      43.837  29.611  32.302  1.00  0.00     0.037 A 
BRANCH  51  65
ATOM     65  C   UNL A   1      45.697  30.553  27.273  1.00  0.00     0.058 A 
ATOM     66  C   UNL A   1      47.068  30.719  26.973  1.00  0.00     0.135 A 
ATOM     67  C   UNL A   1      44.908  31.716  27.135  1.00  0.00     0.135 A 
ATOM     68  F   UNL A   1      47.919  29.683  27.060  1.00  0.00    -0.206 F 
ATOM     69  C   UNL A   1      47.624  31.961  26.662  1.00  0.00     0.059 A 
ATOM     70  C   UNL A   1      45.433  32.953  26.775  1.00  0.00     0.059 A 
ATOM     71  F   UNL A   1      43.604  31.743  27.432  1.00  0.00    -0.206 F 
ATOM     72  C   UNL A   1      46.797  33.077  26.585  1.00  0.00     0.060 A 
BRANCH  72  73
ATOM     73  S   UNL A   1      47.523  34.699  26.297  1.00  0.00     0.124 S 
ATOM     74  O   UNL A   1      46.340  35.499  26.006  1.00  0.00    -0.237 OA
ATOM     75  O   UNL A   1      48.180  34.963  27.573  1.00  0.00    -0.237 OA
ATOM     76  O   UNL A   1      48.424  34.467  25.171  1.00  0.00    -0.744 OA
ENDBRANCH  72  73
ENDBRANCH  51  65
BRANCH  52  77
ATOM     77  C   UNL A   1      38.468  31.997  31.526  1.00  0.00     0.058 A 
ATOM     78  C   UNL A   1      37.744  32.342  30.367  1.00  0.00     0.135 A 
ATOM     79  C   UNL A   1      37.922  32.439  32.746  1.00  0.00     0.135 A 
ATOM     80  F   UNL A   1      38.181  31.957  29.157  1.00  0.00    -0.206 F 
ATOM     81  C   UNL A   1      36.519  33.017  30.420  1.00  0.00     0.059 A 
ATOM     82  C   UNL A   1      36.707  33.123  32.823  1.00  0.00     0.059 A 
ATOM     83  F   UNL A   1      38.502  32.135  33.915  1.00  0.00    -0.206 F 
ATOM     84  C   UNL A   1      35.995  33.379  31.659  1.00  0.00     0.060 A 
BRANCH  84  85
ATOM     85  S   UNL A   1      34.326  34.074  31.750  1.00  0.00     0.124 S 
ATOM     86  O   UNL A   1      33.904  34.035  30.354  1.00  0.00    -0.237 OA
ATOM     87  O   UNL A   1      33.653  33.138  32.644  1.00  0.00    -0.237 OA
ATOM     88  O   UNL A   1      34.543  35.409  32.299  1.00  0.00    -0.744 OA
ENDBRANCH  84  85
ENDBRANCH  52  77
BRANCH  64  89
ATOM     89  C   UNL A   1      43.570  28.747  33.507  1.00  0.00     0.058 A 
ATOM     90  C   UNL A   1      43.935  29.074  34.825  1.00  0.00     0.135 A 
ATOM     91  C   UNL A   1      42.762  27.612  33.330  1.00  0.00     0.135 A 
ATOM     92  F   UNL A   1      44.629  30.189  35.093  1.00  0.00    -0.206 F 
ATOM     93  C   UNL A   1      43.533  28.294  35.912  1.00  0.00     0.059 A 
ATOM     94  C   UNL A   1      42.322  26.840  34.401  1.00  0.00     0.059 A 
ATOM     95  F   UNL A   1      42.335  27.276  32.101  1.00  0.00    -0.206 F 
ATOM     96  C   UNL A   1      42.717  27.184  35.691  1.00  0.00     0.060 A 
BRANCH  96  97
ATOM     97  S   UNL A   1      42.105  26.242  37.106  1.00  0.00     0.124 S 
ATOM     98  O   UNL A   1      42.046  24.883  36.568  1.00  0.00    -0.237 OA
ATOM     99  O   UNL A   1      43.140  26.477  38.113  1.00  0.00    -0.237 OA
ATOM    100  O   UNL A   1      40.817  26.853  37.396  1.00  0.00    -0.744 OA
ENDBRANCH  96  97
ENDBRANCH  64  89
ENDBRANCH  38  39
ENDBRANCH  30  33
ENDBRANCH  28  29
ENDBRANCH  27  28
ENDBRANCH   1  27
TORSDOF 18
ENDMDL
MODEL 3
REMARK VINA RESULT:     -12.1      2.936      9.397
REMARK SMILES Cc1nn(CC(F)F)c2c1c(C(F)(F)F)cc(=O)n2CC(=O)NCCCCNC(=O)c1ccc(-c2c3nc(c(-c4c(F)cc(S(=O)(=O)[O-])cc4F)c4ccc([nH]4)c(-c4c(F)cc(S(=O)(=O)[O-])cc4F)c4nc(c(-c5c(F)cc(S(=O)(=O)[O-])cc5F)c5ccc2[nH]5)C=C4)C=C3)cc1
REMARK SMILES IDX 25 1 24 2 23 3 21 4 22 5 20 7 19 8 1 9 2 10 3 11 10 12 4 13
REMARK SMILES IDX 9 14 11 15 16 16 17 17 18 18 5 19 6 20 7 21 8 22 12 23 13 24
REMARK SMILES IDX 14 25 15 26 26 27 27 28 28 29 29 30 30 32 31 33 32 34 96 35
REMARK SMILES IDX 33 36 95 37 34 38 35 39 36 40 89 41 37 42 94 43 88 44 90 45
REMARK SMILES IDX 38 46 93 47 87 48 86 49 39 51 73 52 52 53 72 54 53 55 56 56
REMARK SMILES IDX 71 57 91 58 54 59 55 60 70 62 92 63 57 64 40 65 41 66 50 67
REMARK SMILES IDX 42 68 43 69 49 70 51 71 44 72 45 73 46 74 47 75 48 76 74 77
REMARK SMILES IDX 75 78 84 79 76 80 77 81 83 82 85 83 78 84 79 85 80 86 81 87
REMARK SMILES IDX 82 88 58 89 59 90 68 91 60 92 61 93 67 94 69 95 62 96 63 97
REMARK SMILES IDX 64 98 65 99 66 100
REMARK H PARENT 23 6 28 31 90 50 56 61
REMARK Flexibility Score: inf
ROOT
ATOM      1  C   UNL A   1      33.444  28.012  26.917  1.00  0.00     0.023 C 
ENDROOT
BRANCH   1   2
ATOM      2  C   UNL A   1      32.929  27.103  25.808  1.00  0.00     0.116 C 
BRANCH   2   3
ATOM      3  N   UNL A   1      31.949  26.151  26.282  1.00  0.00    -0.355 N 
ATOM      4  C   UNL A   1      32.107  24.826  26.544  1.00  0.00     0.240 C 
ATOM      5  O   UNL A   1      31.255  24.289  27.260  1.00  0.00    -0.273 OA
ATOM      6  H   UNL A   1      31.045  26.510  26.437  1.00  0.00     0.163 HD
BRANCH   4   7
ATOM      7  C   UNL A   1      33.345  24.045  26.092  1.00  0.00     0.227 C 
BRANCH   7   8
ATOM      8  N   UNL A   1      33.155  22.637  25.737  1.00  0.00    -0.283 N 
ATOM      9  C   UNL A   1      32.133  19.504  21.941  1.00  0.00     0.069 C 
ATOM     10  C   UNL A   1      32.273  20.676  22.845  1.00  0.00     0.069 A 
ATOM     11  N   UNL A   1      31.957  21.887  22.375  1.00  0.00    -0.175 NA
ATOM     12  C   UNL A   1      32.694  20.766  24.190  1.00  0.00     0.053 A 
ATOM     13  N   UNL A   1      32.266  22.751  23.365  1.00  0.00    -0.243 N 
ATOM     14  C   UNL A   1      32.733  22.119  24.497  1.00  0.00     0.142 A 
ATOM     15  C   UNL A   1      33.071  19.821  25.188  1.00  0.00     0.074 A 
ATOM     16  C   UNL A   1      33.390  20.257  26.418  1.00  0.00     0.085 A 
ATOM     17  C   UNL A   1      33.398  21.703  26.758  1.00  0.00     0.253 A 
ATOM     18  O   UNL A   1      33.659  22.002  27.923  1.00  0.00    -0.269 OA
BRANCH  13  19
ATOM     19  C   UNL A   1      32.034  24.142  23.064  1.00  0.00     0.219 C 
BRANCH  19  20
ATOM     20  C   UNL A   1      30.586  24.538  23.198  1.00  0.00     0.363 C 
ATOM     21  F   UNL A   1      30.025  24.008  24.313  1.00  0.00    -0.208 F 
ATOM     22  F   UNL A   1      30.506  25.888  23.352  1.00  0.00    -0.208 F 
ENDBRANCH  19  20
ENDBRANCH  13  19
BRANCH  15  23
ATOM     23  C   UNL A   1      33.072  18.364  24.848  1.00  0.00     0.417 C 
ATOM     24  F   UNL A   1      33.388  17.588  25.914  1.00  0.00    -0.166 F 
ATOM     25  F   UNL A   1      31.876  17.944  24.372  1.00  0.00    -0.166 F 
ATOM     26  F   UNL A   1      33.991  18.069  23.887  1.00  0.00    -0.166 F 
ENDBRANCH  15  23
ENDBRANCH   7   8
ENDBRANCH   4   7
ENDBRANCH   2   3
ENDBRANCH   1   2
BRANCH   1  27
ATOM     27  C   UNL A   1      32.675  29.330  27.077  1.00  0.00     0.023 C 
BRANCH  27  28
ATOM     28  C   UNL A   1      33.513  30.599  26.903  1.00  0.00     0.116 C 
BRANCH  28  29
ATOM     29  N   UNL A   1      33.648  31.393  28.107  1.00  0.00    -0.352 N 
ATOM     30  C   UNL A   1      34.688  31.700  28.943  1.00  0.00     0.251 C 
ATOM     31  H   UNL A   1      32.800  31.804  28.389  1.00  0.00     0.163 HD
ATOM     32  O   UNL A   1      34.460  32.580  29.779  1.00  0.00    -0.269 OA
BRANCH  30  33
ATOM     33  C   UNL A   1      36.012  31.021  28.956  1.00  0.00     0.039 A 
ATOM     34  C   UNL A   1      36.225  29.663  28.730  1.00  0.00     0.014 A 
ATOM     35  C   UNL A   1      37.119  31.826  29.292  1.00  0.00     0.014 A 
ATOM     36  C   UNL A   1      37.483  29.107  28.931  1.00  0.00     0.010 A 
ATOM     37  C   UNL A   1      38.386  31.278  29.476  1.00  0.00     0.010 A 
ATOM     38  C   UNL A   1      38.557  29.907  29.337  1.00  0.00    -0.014 A 
BRANCH  38  39
ATOM     39  C   UNL A   1      39.862  29.262  29.453  1.00  0.00     0.031 A 
ATOM     40  C   UNL A   1      40.291  29.031  30.862  1.00  0.00     0.074 A 
ATOM     41  C   UNL A   1      40.611  28.843  28.414  1.00  0.00     0.049 A 
ATOM     42  N   UNL A   1      41.256  29.605  31.503  1.00  0.00    -0.248 NA
ATOM     43  C   UNL A   1      39.439  28.178  31.703  1.00  0.00     0.031 C 
ATOM     44  C   UNL A   1      40.232  28.754  27.003  1.00  0.00     0.029 A 
ATOM     45  N   UNL A   1      41.876  28.329  28.423  1.00  0.00    -0.354 N 
ATOM     46  C   UNL A   1      41.272  29.024  32.769  1.00  0.00     0.074 A 
ATOM     47  C   UNL A   1      40.040  28.291  32.889  1.00  0.00     0.031 C 
ATOM     48  C   UNL A   1      41.159  28.029  26.335  1.00  0.00     0.029 A 
ATOM     49  C   UNL A   1      42.262  27.725  27.231  1.00  0.00     0.049 A 
ATOM     50  H   UNL A   1      42.467  28.383  29.208  1.00  0.00     0.167 HD
ATOM     51  C   UNL A   1      42.402  29.013  33.530  1.00  0.00     0.037 A 
ATOM     52  C   UNL A   1      43.390  26.997  27.013  1.00  0.00     0.037 A 
ATOM     53  C   UNL A   1      43.336  30.014  33.082  1.00  0.00     0.049 A 
ATOM     54  C   UNL A   1      44.370  27.393  28.055  1.00  0.00     0.074 A 
ATOM     55  C   UNL A   1      43.322  31.391  32.982  1.00  0.00     0.029 A 
ATOM     56  N   UNL A   1      44.395  29.593  32.315  1.00  0.00    -0.354 N 
ATOM     57  N   UNL A   1      44.924  28.572  28.129  1.00  0.00    -0.248 NA
ATOM     58  C   UNL A   1      44.435  26.597  29.271  1.00  0.00     0.031 C 
ATOM     59  C   UNL A   1      44.074  31.689  31.808  1.00  0.00     0.029 A 
ATOM     60  C   UNL A   1      44.550  30.484  31.287  1.00  0.00     0.049 A 
ATOM     61  H   UNL A   1      44.945  28.792  32.476  1.00  0.00     0.167 HD
ATOM     62  C   UNL A   1      45.020  28.834  29.485  1.00  0.00     0.074 A 
ATOM     63  C   UNL A   1      44.806  27.544  30.136  1.00  0.00     0.031 C 
ATOM     64  C   UNL A   1      44.992  30.114  29.959  1.00  0.00     0.037 A 
BRANCH  51  65
ATOM     65  C   UNL A   1      42.824  27.852  34.411  1.00  0.00     0.058 A 
ATOM     66  C   UNL A   1      42.967  28.060  35.801  1.00  0.00     0.135 A 
ATOM     67  C   UNL A   1      43.373  26.645  33.925  1.00  0.00     0.135 A 
ATOM     68  F   UNL A   1      42.478  29.168  36.382  1.00  0.00    -0.206 F 
ATOM     69  C   UNL A   1      43.686  27.189  36.621  1.00  0.00     0.059 A 
ATOM     70  C   UNL A   1      44.049  25.737  34.734  1.00  0.00     0.059 A 
ATOM     71  F   UNL A   1      43.371  26.321  32.627  1.00  0.00    -0.206 F 
ATOM     72  C   UNL A   1      44.240  26.038  36.071  1.00  0.00     0.060 A 
BRANCH  72  73
ATOM     73  S   UNL A   1      45.264  24.971  37.097  1.00  0.00     0.124 S 
ATOM     74  O   UNL A   1      44.401  24.764  38.252  1.00  0.00    -0.237 OA
ATOM     75  O   UNL A   1      45.459  23.816  36.226  1.00  0.00    -0.237 OA
ATOM     76  O   UNL A   1      46.457  25.779  37.334  1.00  0.00    -0.744 OA
ENDBRANCH  72  73
ENDBRANCH  51  65
BRANCH  52  77
ATOM     77  C   UNL A   1      43.567  25.765  26.193  1.00  0.00     0.058 A 
ATOM     78  C   UNL A   1      44.703  25.596  25.375  1.00  0.00     0.135 A 
ATOM     79  C   UNL A   1      42.799  24.608  26.425  1.00  0.00     0.135 A 
ATOM     80  F   UNL A   1      45.503  26.640  25.104  1.00  0.00    -0.206 F 
ATOM     81  C   UNL A   1      45.092  24.346  24.880  1.00  0.00     0.059 A 
ATOM     82  C   UNL A   1      43.162  23.353  25.934  1.00  0.00     0.059 A 
ATOM     83  F   UNL A   1      41.721  24.641  27.220  1.00  0.00    -0.206 F 
ATOM     84  C   UNL A   1      44.328  23.223  25.190  1.00  0.00     0.060 A 
BRANCH  84  85
ATOM     85  S   UNL A   1      44.929  21.581  24.723  1.00  0.00     0.124 S 
ATOM     86  O   UNL A   1      44.668  21.560  23.288  1.00  0.00    -0.237 OA
ATOM     87  O   UNL A   1      46.333  21.646  25.114  1.00  0.00    -0.237 OA
ATOM     88  O   UNL A   1      44.104  20.678  25.520  1.00  0.00    -0.744 OA
ENDBRANCH  84  85
ENDBRANCH  52  77
BRANCH  64  89
ATOM     89  C   UNL A   1      45.215  31.242  28.985  1.00  0.00     0.058 A 
ATOM     90  C   UNL A   1      46.473  31.652  28.509  1.00  0.00     0.135 A 
ATOM     91  C   UNL A   1      44.085  31.824  28.388  1.00  0.00     0.135 A 
ATOM     92  F   UNL A   1      47.602  31.084  28.959  1.00  0.00    -0.206 F 
ATOM     93  C   UNL A   1      46.599  32.613  27.502  1.00  0.00     0.059 A 
ATOM     94  C   UNL A   1      44.186  32.757  27.360  1.00  0.00     0.059 A 
ATOM     95  F   UNL A   1      42.854  31.436  28.762  1.00  0.00    -0.206 F 
ATOM     96  C   UNL A   1      45.449  33.152  26.926  1.00  0.00     0.060 A 
BRANCH  96  97
ATOM     97  S   UNL A   1      45.609  34.308  25.547  1.00  0.00     0.124 S 
ATOM     98  O   UNL A   1      47.059  34.371  25.366  1.00  0.00    -0.237 OA
ATOM     99  O   UNL A   1      44.869  33.633  24.481  1.00  0.00    -0.237 OA
ATOM    100  O   UNL A   1      44.991  35.527  26.047  1.00  0.00    -0.744 OA
ENDBRANCH  96  97
ENDBRANCH  64  89
ENDBRANCH  38  39
ENDBRANCH  30  33
ENDBRANCH  28  29
ENDBRANCH  27  28
ENDBRANCH   1  27
TORSDOF 18
ENDMDL
