MODEL 1
REMARK VINA RESULT:     -10.6      0.000      0.000
REMARK SMILES COCCCNC(=O)/C(C#N)=C/c1ccc(C(=O)NCCCCNC(=O)c2ccc(-c3c4nc(c(-c5c(F)cc(S(=O)(=O)[O-])cc5F)c5ccc([nH]5)c(-c5c(F)cc(S(=O)(=O)[O-])cc5F)c5nc(c(-c6c(F)cc(S(=O)(=O)[O-])cc6F)c6ccc3[nH]6)C=C5)C=C4)cc2)cc1
REMARK SMILES IDX 20 1 19 2 17 3 18 4 16 6 13 7 14 8 94 9 15 10 93 11 12 12
REMARK SMILES IDX 9 13 7 14 6 15 8 17 5 18 4 19 3 20 2 21 1 22 10 23 11 24
REMARK SMILES IDX 21 25 22 26 23 27 24 28 25 29 26 31 27 32 28 33 92 34 29 35
REMARK SMILES IDX 91 36 30 37 31 38 32 39 85 40 33 41 90 42 84 43 86 44 34 45
REMARK SMILES IDX 89 46 83 47 82 48 35 50 69 51 48 52 68 53 49 54 52 55 67 56
REMARK SMILES IDX 87 57 50 58 51 59 66 61 88 62 53 63 36 64 37 65 46 66 38 67
REMARK SMILES IDX 39 68 45 69 47 70 40 71 41 72 42 73 43 74 44 75 70 76 71 77
REMARK SMILES IDX 80 78 72 79 73 80 79 81 81 82 74 83 75 84 76 85 77 86 78 87
REMARK SMILES IDX 54 88 55 89 64 90 56 91 57 92 63 93 65 94 58 95 59 96 60 97
REMARK SMILES IDX 61 98 62 99
REMARK H PARENT 19 5 6 16 24 30 86 49 52 60
REMARK Flexibility Score: inf
ROOT
ATOM      1  C   UNL A   1      31.133  28.422  24.975  1.00  0.00     0.116 C 
ENDROOT
BRANCH   1   2
ATOM      2  N   UNL A   1      30.873  28.203  23.562  1.00  0.00    -0.352 N 
ATOM      3  C   UNL A   1      31.093  27.120  22.749  1.00  0.00     0.251 C 
ATOM      4  O   UNL A   1      30.723  27.185  21.577  1.00  0.00    -0.269 OA
ATOM      5  H   UNL A   1      30.464  28.973  23.105  1.00  0.00     0.163 HD
BRANCH   3   6
ATOM      6  C   UNL A   1      31.693  25.851  23.243  1.00  0.00     0.039 A 
ATOM      7  C   UNL A   1      32.950  23.419  23.861  1.00  0.00    -0.024 A 
ATOM      8  C   UNL A   1      33.722  24.532  23.527  1.00  0.00     0.009 A 
ATOM      9  C   UNL A   1      31.567  23.563  24.017  1.00  0.00     0.009 A 
ATOM     10  C   UNL A   1      33.092  25.743  23.220  1.00  0.00     0.014 A 
ATOM     11  C   UNL A   1      30.947  24.774  23.721  1.00  0.00     0.014 A 
BRANCH   7  12
ATOM     12  C   UNL A   1      33.540  22.077  23.916  1.00  0.00     0.033 C 
ATOM     13  C   UNL A   1      34.136  21.606  25.036  1.00  0.00     0.117 C 
BRANCH  13  14
ATOM     14  C   UNL A   1      34.788  20.263  24.944  1.00  0.00     0.261 C 
ATOM     15  N   UNL A   1      34.108  19.084  25.007  1.00  0.00    -0.351 N 
ATOM     16  H   UNL A   1      34.687  18.294  24.904  1.00  0.00     0.163 HD
ATOM     17  O   UNL A   1      36.014  20.172  24.826  1.00  0.00    -0.268 OA
BRANCH  15  18
ATOM     18  C   UNL A   1      32.703  18.750  25.195  1.00  0.00     0.118 C 
BRANCH  18  19
ATOM     19  C   UNL A   1      32.386  17.276  24.970  1.00  0.00     0.050 C 
BRANCH  19  20
ATOM     20  C   UNL A   1      33.348  16.263  25.580  1.00  0.00     0.161 C 
BRANCH  20  21
ATOM     21  O   UNL A   1      34.441  15.927  24.733  1.00  0.00    -0.385 OA
ATOM     22  C   UNL A   1      35.679  15.747  25.400  1.00  0.00     0.194 C 
ENDBRANCH  20  21
ENDBRANCH  19  20
ENDBRANCH  18  19
ENDBRANCH  15  18
ENDBRANCH  13  14
BRANCH  13  23
ATOM     23  C   UNL A   1      34.167  22.400  26.218  1.00  0.00     0.105 C 
ATOM     24  N   UNL A   1      34.211  23.071  27.164  1.00  0.00    -0.192 NA
ENDBRANCH  13  23
ENDBRANCH   7  12
ENDBRANCH   3   6
ENDBRANCH   1   2
BRANCH   1  25
ATOM     25  C   UNL A   1      32.428  29.215  25.167  1.00  0.00     0.023 C 
BRANCH  25  26
ATOM     26  C   UNL A   1      33.588  28.387  25.723  1.00  0.00     0.023 C 
BRANCH  26  27
ATOM     27  C   UNL A   1      33.787  28.508  27.227  1.00  0.00     0.116 C 
BRANCH  27  28
ATOM     28  N   UNL A   1      33.677  29.878  27.706  1.00  0.00    -0.352 N 
ATOM     29  C   UNL A   1      34.624  30.629  28.360  1.00  0.00     0.251 C 
ATOM     30  H   UNL A   1      32.815  30.323  27.540  1.00  0.00     0.163 HD
ATOM     31  O   UNL A   1      34.331  31.721  28.836  1.00  0.00    -0.269 OA
BRANCH  29  32
ATOM     32  C   UNL A   1      35.988  30.082  28.509  1.00  0.00     0.039 A 
ATOM     33  C   UNL A   1      36.856  30.116  27.418  1.00  0.00     0.014 A 
ATOM     34  C   UNL A   1      36.421  29.595  29.746  1.00  0.00     0.014 A 
ATOM     35  C   UNL A   1      38.182  29.720  27.586  1.00  0.00     0.010 A 
ATOM     36  C   UNL A   1      37.764  29.291  29.933  1.00  0.00     0.010 A 
ATOM     37  C   UNL A   1      38.659  29.344  28.854  1.00  0.00    -0.014 A 
BRANCH  37  38
ATOM     38  C   UNL A   1      40.089  29.007  29.069  1.00  0.00     0.031 A 
ATOM     39  C   UNL A   1      41.035  30.043  29.614  1.00  0.00     0.074 A 
ATOM     40  C   UNL A   1      40.546  27.787  28.724  1.00  0.00     0.049 A 
ATOM     41  N   UNL A   1      42.320  29.952  29.834  1.00  0.00    -0.248 NA
ATOM     42  C   UNL A   1      40.466  31.364  29.932  1.00  0.00     0.031 C 
ATOM     43  C   UNL A   1      39.736  26.714  28.141  1.00  0.00     0.029 A 
ATOM     44  N   UNL A   1      41.803  27.241  28.806  1.00  0.00    -0.354 N 
ATOM     45  C   UNL A   1      42.715  31.199  30.304  1.00  0.00     0.074 A 
ATOM     46  C   UNL A   1      41.545  32.049  30.280  1.00  0.00     0.031 C 
ATOM     47  C   UNL A   1      40.506  25.631  27.954  1.00  0.00     0.029 A 
ATOM     48  C   UNL A   1      41.876  25.945  28.349  1.00  0.00     0.049 A 
ATOM     49  H   UNL A   1      42.580  27.733  29.158  1.00  0.00     0.167 HD
ATOM     50  C   UNL A   1      43.935  31.593  30.739  1.00  0.00     0.037 A 
ATOM     51  C   UNL A   1      42.927  25.109  28.252  1.00  0.00     0.037 A 
ATOM     52  C   UNL A   1      45.092  30.735  30.767  1.00  0.00     0.049 A 
ATOM     53  C   UNL A   1      44.280  25.580  28.714  1.00  0.00     0.074 A 
ATOM     54  C   UNL A   1      46.360  31.020  31.241  1.00  0.00     0.029 A 
ATOM     55  N   UNL A   1      45.126  29.430  30.294  1.00  0.00    -0.354 N 
ATOM     56  N   UNL A   1      44.619  26.739  29.226  1.00  0.00    -0.248 NA
ATOM     57  C   UNL A   1      45.393  24.630  28.590  1.00  0.00     0.031 C 
ATOM     58  C   UNL A   1      47.179  29.916  30.987  1.00  0.00     0.029 A 
ATOM     59  C   UNL A   1      46.403  28.911  30.430  1.00  0.00     0.049 A 
ATOM     60  H   UNL A   1      44.356  28.945  29.917  1.00  0.00     0.167 HD
ATOM     61  C   UNL A   1      45.976  26.644  29.517  1.00  0.00     0.074 A 
ATOM     62  C   UNL A   1      46.391  25.310  29.137  1.00  0.00     0.031 C 
ATOM     63  C   UNL A   1      46.803  27.577  30.054  1.00  0.00     0.037 A 
BRANCH  50  64
ATOM     64  C   UNL A   1      44.089  33.015  31.209  1.00  0.00     0.058 A 
ATOM     65  C   UNL A   1      44.449  34.053  30.333  1.00  0.00     0.135 A 
ATOM     66  C   UNL A   1      43.830  33.354  32.548  1.00  0.00     0.135 A 
ATOM     67  F   UNL A   1      44.724  33.788  29.045  1.00  0.00    -0.206 F 
ATOM     68  C   UNL A   1      44.575  35.367  30.772  1.00  0.00     0.059 A 
ATOM     69  C   UNL A   1      43.915  34.668  33.001  1.00  0.00     0.059 A 
ATOM     70  F   UNL A   1      43.485  32.405  33.431  1.00  0.00    -0.206 F 
ATOM     71  C   UNL A   1      44.301  35.665  32.108  1.00  0.00     0.060 A 
BRANCH  71  72
ATOM     72  S   UNL A   1      44.455  37.378  32.655  1.00  0.00     0.124 S 
ATOM     73  O   UNL A   1      43.388  37.464  33.646  1.00  0.00    -0.237 OA
ATOM     74  O   UNL A   1      45.815  37.411  33.184  1.00  0.00    -0.237 OA
ATOM     75  O   UNL A   1      44.240  38.148  31.434  1.00  0.00    -0.744 OA
ENDBRANCH  71  72
ENDBRANCH  50  64
BRANCH  51  76
ATOM     76  C   UNL A   1      42.741  23.734  27.709  1.00  0.00     0.058 A 
ATOM     77  C   UNL A   1      42.828  23.479  26.332  1.00  0.00     0.135 A 
ATOM     78  C   UNL A   1      42.472  22.646  28.556  1.00  0.00     0.135 A 
ATOM     79  F   UNL A   1      43.075  24.485  25.479  1.00  0.00    -0.206 F 
ATOM     80  C   UNL A   1      42.636  22.204  25.811  1.00  0.00     0.059 A 
ATOM     81  C   UNL A   1      42.309  21.356  28.062  1.00  0.00     0.059 A 
ATOM     82  F   UNL A   1      42.393  22.829  29.883  1.00  0.00    -0.206 F 
ATOM     83  C   UNL A   1      42.381  21.147  26.686  1.00  0.00     0.060 A 
BRANCH  83  84
ATOM     84  S   UNL A   1      42.178  19.488  26.001  1.00  0.00     0.124 S 
ATOM     85  O   UNL A   1      40.735  19.426  25.802  1.00  0.00    -0.237 OA
ATOM     86  O   UNL A   1      42.988  19.560  24.789  1.00  0.00    -0.237 OA
ATOM     87  O   UNL A   1      42.709  18.623  27.051  1.00  0.00    -0.744 OA
ENDBRANCH  83  84
ENDBRANCH  51  76
BRANCH  63  88
ATOM     88  C   UNL A   1      48.232  27.178  30.308  1.00  0.00     0.058 A 
ATOM     89  C   UNL A   1      49.264  27.481  29.405  1.00  0.00     0.135 A 
ATOM     90  C   UNL A   1      48.583  26.529  31.505  1.00  0.00     0.135 A 
ATOM     91  F   UNL A   1      48.987  28.094  28.243  1.00  0.00    -0.206 F 
ATOM     92  C   UNL A   1      50.585  27.131  29.665  1.00  0.00     0.059 A 
ATOM     93  C   UNL A   1      49.902  26.204  31.803  1.00  0.00     0.059 A 
ATOM     94  F   UNL A   1      47.640  26.225  32.410  1.00  0.00    -0.206 F 
ATOM     95  C   UNL A   1      50.895  26.497  30.871  1.00  0.00     0.060 A 
BRANCH  95  96
ATOM     96  S   UNL A   1      52.618  26.083  31.210  1.00  0.00     0.124 S 
ATOM     97  O   UNL A   1      53.034  27.208  32.043  1.00  0.00    -0.237 OA
ATOM     98  O   UNL A   1      52.500  24.799  31.894  1.00  0.00    -0.237 OA
ATOM     99  O   UNL A   1      53.225  26.029  29.883  1.00  0.00    -0.744 OA
ENDBRANCH  95  96
ENDBRANCH  63  88
ENDBRANCH  37  38
ENDBRANCH  29  32
ENDBRANCH  27  28
ENDBRANCH  26  27
ENDBRANCH  25  26
ENDBRANCH   1  25
TORSDOF 21
ENDMDL
MODEL 2
REMARK VINA RESULT:     -10.4      2.722      3.547
REMARK SMILES COCCCNC(=O)/C(C#N)=C/c1ccc(C(=O)NCCCCNC(=O)c2ccc(-c3c4nc(c(-c5c(F)cc(S(=O)(=O)[O-])cc5F)c5ccc([nH]5)c(-c5c(F)cc(S(=O)(=O)[O-])cc5F)c5nc(c(-c6c(F)cc(S(=O)(=O)[O-])cc6F)c6ccc3[nH]6)C=C5)C=C4)cc2)cc1
REMARK SMILES IDX 20 1 19 2 17 3 18 4 16 6 13 7 14 8 94 9 15 10 93 11 12 12
REMARK SMILES IDX 9 13 7 14 6 15 8 17 5 18 4 19 3 20 2 21 1 22 10 23 11 24
REMARK SMILES IDX 21 25 22 26 23 27 24 28 25 29 26 31 27 32 28 33 92 34 29 35
REMARK SMILES IDX 91 36 30 37 31 38 32 39 85 40 33 41 90 42 84 43 86 44 34 45
REMARK SMILES IDX 89 46 83 47 82 48 35 50 69 51 48 52 68 53 49 54 52 55 67 56
REMARK SMILES IDX 87 57 50 58 51 59 66 61 88 62 53 63 36 64 37 65 46 66 38 67
REMARK SMILES IDX 39 68 45 69 47 70 40 71 41 72 42 73 43 74 44 75 70 76 71 77
REMARK SMILES IDX 80 78 72 79 73 80 79 81 81 82 74 83 75 84 76 85 77 86 78 87
REMARK SMILES IDX 54 88 55 89 64 90 56 91 57 92 63 93 65 94 58 95 59 96 60 97
REMARK SMILES IDX 61 98 62 99
REMARK H PARENT 19 5 6 16 24 30 86 49 52 60
REMARK Flexibility Score: inf
ROOT
ATOM      1  C   UNL A   1      32.588  29.840  27.286  1.00  0.00     0.116 C 
ENDROOT
BRANCH   1   2
ATOM      2  N   UNL A   1      31.872  29.937  26.026  1.00  0.00    -0.352 N 
ATOM      3  C   UNL A   1      31.670  29.030  25.016  1.00  0.00     0.251 C 
ATOM      4  O   UNL A   1      30.965  29.363  24.064  1.00  0.00    -0.269 OA
ATOM      5  H   UNL A   1      31.454  30.815  25.867  1.00  0.00     0.163 HD
BRANCH   3   6
ATOM      6  C   UNL A   1      32.208  27.644  25.061  1.00  0.00     0.039 A 
ATOM      7  C   UNL A   1      33.194  25.050  25.484  1.00  0.00    -0.024 A 
ATOM      8  C   UNL A   1      31.875  25.353  25.821  1.00  0.00     0.009 A 
ATOM      9  C   UNL A   1      33.969  26.004  24.812  1.00  0.00     0.009 A 
ATOM     10  C   UNL A   1      31.386  26.647  25.609  1.00  0.00     0.014 A 
ATOM     11  C   UNL A   1      33.473  27.286  24.594  1.00  0.00     0.014 A 
BRANCH   7  12
ATOM     12  C   UNL A   1      33.827  23.807  25.938  1.00  0.00     0.033 C 
ATOM     13  C   UNL A   1      34.020  22.759  25.103  1.00  0.00     0.117 C 
BRANCH  13  14
ATOM     14  C   UNL A   1      34.584  21.510  25.703  1.00  0.00     0.261 C 
ATOM     15  N   UNL A   1      33.943  20.307  25.692  1.00  0.00    -0.351 N 
ATOM     16  H   UNL A   1      34.466  19.583  26.108  1.00  0.00     0.163 HD
ATOM     17  O   UNL A   1      35.680  21.531  26.271  1.00  0.00    -0.268 OA
BRANCH  15  18
ATOM     18  C   UNL A   1      32.647  19.870  25.192  1.00  0.00     0.118 C 
BRANCH  18  19
ATOM     19  C   UNL A   1      32.645  18.444  24.653  1.00  0.00     0.050 C 
BRANCH  19  20
ATOM     20  C   UNL A   1      32.473  18.277  23.149  1.00  0.00     0.161 C 
BRANCH  20  21
ATOM     21  O   UNL A   1      33.092  17.106  22.626  1.00  0.00    -0.385 OA
ATOM     22  C   UNL A   1      34.147  16.585  23.417  1.00  0.00     0.194 C 
ENDBRANCH  20  21
ENDBRANCH  19  20
ENDBRANCH  18  19
ENDBRANCH  15  18
ENDBRANCH  13  14
BRANCH  13  23
ATOM     23  C   UNL A   1      33.647  22.858  23.733  1.00  0.00     0.105 C 
ATOM     24  N   UNL A   1      33.351  22.903  22.612  1.00  0.00    -0.192 NA
ENDBRANCH  13  23
ENDBRANCH   7  12
ENDBRANCH   3   6
ENDBRANCH   1   2
BRANCH   1  25
ATOM     25  C   UNL A   1      34.074  30.147  27.085  1.00  0.00     0.023 C 
BRANCH  25  26
ATOM     26  C   UNL A   1      34.538  31.442  27.753  1.00  0.00     0.023 C 
BRANCH  26  27
ATOM     27  C   UNL A   1      35.847  31.324  28.521  1.00  0.00     0.116 C 
BRANCH  27  28
ATOM     28  N   UNL A   1      35.661  30.880  29.894  1.00  0.00    -0.352 N 
ATOM     29  C   UNL A   1      36.560  30.234  30.708  1.00  0.00     0.251 C 
ATOM     30  H   UNL A   1      34.779  31.066  30.290  1.00  0.00     0.163 HD
ATOM     31  O   UNL A   1      36.205  29.788  31.794  1.00  0.00    -0.269 OA
BRANCH  29  32
ATOM     32  C   UNL A   1      37.948  30.056  30.236  1.00  0.00     0.039 A 
ATOM     33  C   UNL A   1      38.965  29.877  31.173  1.00  0.00     0.014 A 
ATOM     34  C   UNL A   1      38.226  30.005  28.867  1.00  0.00     0.014 A 
ATOM     35  C   UNL A   1      40.255  29.580  30.734  1.00  0.00     0.010 A 
ATOM     36  C   UNL A   1      39.489  29.618  28.436  1.00  0.00     0.010 A 
ATOM     37  C   UNL A   1      40.520  29.407  29.364  1.00  0.00    -0.014 A 
BRANCH  37  38
ATOM     38  C   UNL A   1      41.867  29.003  28.887  1.00  0.00     0.031 A 
ATOM     39  C   UNL A   1      42.974  30.018  28.802  1.00  0.00     0.074 A 
ATOM     40  C   UNL A   1      42.077  27.735  28.480  1.00  0.00     0.049 A 
ATOM     41  N   UNL A   1      44.201  29.868  28.376  1.00  0.00    -0.248 NA
ATOM     42  C   UNL A   1      42.655  31.391  29.230  1.00  0.00     0.031 C 
ATOM     43  C   UNL A   1      41.069  26.672  28.471  1.00  0.00     0.029 A 
ATOM     44  N   UNL A   1      43.205  27.123  27.991  1.00  0.00    -0.354 N 
ATOM     45  C   UNL A   1      44.794  31.121  28.474  1.00  0.00     0.074 A 
ATOM     46  C   UNL A   1      43.776  32.035  28.941  1.00  0.00     0.031 C 
ATOM     47  C   UNL A   1      41.633  25.534  28.035  1.00  0.00     0.029 A 
ATOM     48  C   UNL A   1      43.025  25.795  27.683  1.00  0.00     0.049 A 
ATOM     49  H   UNL A   1      44.062  27.592  27.873  1.00  0.00     0.167 HD
ATOM     50  C   UNL A   1      46.077  31.473  28.220  1.00  0.00     0.037 A 
ATOM     51  C   UNL A   1      43.880  24.892  27.166  1.00  0.00     0.037 A 
ATOM     52  C   UNL A   1      47.085  30.552  27.763  1.00  0.00     0.049 A 
ATOM     53  C   UNL A   1      45.293  25.315  26.864  1.00  0.00     0.074 A 
ATOM     54  C   UNL A   1      48.427  30.795  27.530  1.00  0.00     0.029 A 
ATOM     55  N   UNL A   1      46.863  29.216  27.459  1.00  0.00    -0.354 N 
ATOM     56  N   UNL A   1      45.857  26.487  27.033  1.00  0.00    -0.248 NA
ATOM     57  C   UNL A   1      46.188  24.293  26.304  1.00  0.00     0.031 C 
ATOM     58  C   UNL A   1      49.000  29.628  27.016  1.00  0.00     0.029 A 
ATOM     59  C   UNL A   1      48.036  28.633  27.005  1.00  0.00     0.049 A 
ATOM     60  H   UNL A   1      46.001  28.751  27.553  1.00  0.00     0.167 HD
ATOM     61  C   UNL A   1      47.182  26.334  26.634  1.00  0.00     0.074 A 
ATOM     62  C   UNL A   1      47.336  24.952  26.229  1.00  0.00     0.031 C 
ATOM     63  C   UNL A   1      48.179  27.253  26.610  1.00  0.00     0.037 A 
BRANCH  50  64
ATOM     64  C   UNL A   1      46.463  32.915  28.419  1.00  0.00     0.058 A 
ATOM     65  C   UNL A   1      46.959  33.390  29.644  1.00  0.00     0.135 A 
ATOM     66  C   UNL A   1      46.378  33.827  27.354  1.00  0.00     0.135 A 
ATOM     67  F   UNL A   1      47.048  32.569  30.704  1.00  0.00    -0.206 F 
ATOM     68  C   UNL A   1      47.328  34.720  29.815  1.00  0.00     0.059 A 
ATOM     69  C   UNL A   1      46.775  35.154  27.492  1.00  0.00     0.059 A 
ATOM     70  F   UNL A   1      45.909  33.431  26.160  1.00  0.00    -0.206 F 
ATOM     71  C   UNL A   1      47.237  35.594  28.731  1.00  0.00     0.060 A 
BRANCH  71  72
ATOM     72  S   UNL A   1      47.734  37.313  28.968  1.00  0.00     0.124 S 
ATOM     73  O   UNL A   1      49.136  37.269  28.567  1.00  0.00    -0.237 OA
ATOM     74  O   UNL A   1      46.837  38.021  28.060  1.00  0.00    -0.237 OA
ATOM     75  O   UNL A   1      47.496  37.544  30.389  1.00  0.00    -0.744 OA
ENDBRANCH  71  72
ENDBRANCH  50  64
BRANCH  51  76
ATOM     76  C   UNL A   1      43.431  23.494  26.915  1.00  0.00     0.058 A 
ATOM     77  C   UNL A   1      43.198  23.028  25.612  1.00  0.00     0.135 A 
ATOM     78  C   UNL A   1      43.226  22.593  27.973  1.00  0.00     0.135 A 
ATOM     79  F   UNL A   1      43.372  23.851  24.566  1.00  0.00    -0.206 F 
ATOM     80  C   UNL A   1      42.759  21.732  25.366  1.00  0.00     0.059 A 
ATOM     81  C   UNL A   1      42.819  21.282  27.751  1.00  0.00     0.059 A 
ATOM     82  F   UNL A   1      43.448  22.979  29.239  1.00  0.00    -0.206 F 
ATOM     83  C   UNL A   1      42.577  20.864  26.444  1.00  0.00     0.060 A 
BRANCH  83  84
ATOM     84  S   UNL A   1      42.049  19.169  26.108  1.00  0.00     0.124 S 
ATOM     85  O   UNL A   1      42.827  18.849  24.917  1.00  0.00    -0.237 OA
ATOM     86  O   UNL A   1      42.442  18.481  27.334  1.00  0.00    -0.237 OA
ATOM     87  O   UNL A   1      40.609  19.300  25.905  1.00  0.00    -0.744 OA
ENDBRANCH  83  84
ENDBRANCH  51  76
BRANCH  63  88
ATOM     88  C   UNL A   1      49.544  26.790  26.173  1.00  0.00     0.058 A 
ATOM     89  C   UNL A   1      49.977  26.898  24.842  1.00  0.00     0.135 A 
ATOM     90  C   UNL A   1      50.453  26.279  27.116  1.00  0.00     0.135 A 
ATOM     91  F   UNL A   1      49.150  27.372  23.897  1.00  0.00    -0.206 F 
ATOM     92  C   UNL A   1      51.251  26.491  24.456  1.00  0.00     0.059 A 
ATOM     93  C   UNL A   1      51.744  25.903  26.760  1.00  0.00     0.059 A 
ATOM     94  F   UNL A   1      50.096  26.163  28.405  1.00  0.00    -0.206 F 
ATOM     95  C   UNL A   1      52.129  26.000  25.425  1.00  0.00     0.060 A 
BRANCH  95  96
ATOM     96  S   UNL A   1      53.791  25.512  24.916  1.00  0.00     0.124 S 
ATOM     97  O   UNL A   1      54.586  25.925  26.069  1.00  0.00    -0.237 OA
ATOM     98  O   UNL A   1      53.647  24.071  24.730  1.00  0.00    -0.237 OA
ATOM     99  O   UNL A   1      54.014  26.279  23.695  1.00  0.00    -0.744 OA
ENDBRANCH  95  96
ENDBRANCH  63  88
ENDBRANCH  37  38
ENDBRANCH  29  32
ENDBRANCH  27  28
ENDBRANCH  26  27
ENDBRANCH  25  26
ENDBRANCH   1  25
TORSDOF 21
ENDMDL
MODEL 3
REMARK VINA RESULT:     -10.0      3.063      4.051
REMARK SMILES COCCCNC(=O)/C(C#N)=C/c1ccc(C(=O)NCCCCNC(=O)c2ccc(-c3c4nc(c(-c5c(F)cc(S(=O)(=O)[O-])cc5F)c5ccc([nH]5)c(-c5c(F)cc(S(=O)(=O)[O-])cc5F)c5nc(c(-c6c(F)cc(S(=O)(=O)[O-])cc6F)c6ccc3[nH]6)C=C5)C=C4)cc2)cc1
REMARK SMILES IDX 20 1 19 2 17 3 18 4 16 6 13 7 14 8 94 9 15 10 93 11 12 12
REMARK SMILES IDX 9 13 7 14 6 15 8 17 5 18 4 19 3 20 2 21 1 22 10 23 11 24
REMARK SMILES IDX 21 25 22 26 23 27 24 28 25 29 26 31 27 32 28 33 92 34 29 35
REMARK SMILES IDX 91 36 30 37 31 38 32 39 85 40 33 41 90 42 84 43 86 44 34 45
REMARK SMILES IDX 89 46 83 47 82 48 35 50 69 51 48 52 68 53 49 54 52 55 67 56
REMARK SMILES IDX 87 57 50 58 51 59 66 61 88 62 53 63 36 64 37 65 46 66 38 67
REMARK SMILES IDX 39 68 45 69 47 70 40 71 41 72 42 73 43 74 44 75 70 76 71 77
REMARK SMILES IDX 80 78 72 79 73 80 79 81 81 82 74 83 75 84 76 85 77 86 78 87
REMARK SMILES IDX 54 88 55 89 64 90 56 91 57 92 63 93 65 94 58 95 59 96 60 97
REMARK SMILES IDX 61 98 62 99
REMARK H PARENT 19 5 6 16 24 30 86 49 52 60
REMARK Flexibility Score: inf
ROOT
ATOM      1  C   UNL A   1      33.875  31.071  27.690  1.00  0.00     0.116 C 
ENDROOT
BRANCH   1   2
ATOM      2  N   UNL A   1      32.722  31.291  26.834  1.00  0.00    -0.352 N 
ATOM      3  C   UNL A   1      32.012  30.445  26.021  1.00  0.00     0.251 C 
ATOM      4  O   UNL A   1      31.026  30.889  25.434  1.00  0.00    -0.269 OA
ATOM      5  H   UNL A   1      32.389  32.218  26.839  1.00  0.00     0.163 HD
BRANCH   3   6
ATOM      6  C   UNL A   1      32.344  29.001  25.877  1.00  0.00     0.039 A 
ATOM      7  C   UNL A   1      33.084  26.294  25.924  1.00  0.00    -0.024 A 
ATOM      8  C   UNL A   1      32.069  26.749  26.765  1.00  0.00     0.009 A 
ATOM      9  C   UNL A   1      33.627  27.162  24.970  1.00  0.00     0.009 A 
ATOM     10  C   UNL A   1      31.701  28.099  26.740  1.00  0.00     0.014 A 
ATOM     11  C   UNL A   1      33.250  28.502  24.942  1.00  0.00     0.014 A 
BRANCH   7  12
ATOM     12  C   UNL A   1      33.687  24.970  26.111  1.00  0.00     0.033 C 
ATOM     13  C   UNL A   1      33.142  23.856  25.569  1.00  0.00     0.117 C 
BRANCH  13  14
ATOM     14  C   UNL A   1      33.789  22.551  25.910  1.00  0.00     0.261 C 
ATOM     15  N   UNL A   1      34.816  22.004  25.198  1.00  0.00    -0.351 N 
ATOM     16  H   UNL A   1      35.140  21.154  25.574  1.00  0.00     0.163 HD
ATOM     17  O   UNL A   1      33.385  21.886  26.869  1.00  0.00    -0.268 OA
BRANCH  15  18
ATOM     18  C   UNL A   1      35.532  22.418  23.999  1.00  0.00     0.118 C 
BRANCH  18  19
ATOM     19  C   UNL A   1      37.021  22.656  24.225  1.00  0.00     0.050 C 
BRANCH  19  20
ATOM     20  C   UNL A   1      37.756  21.644  25.095  1.00  0.00     0.161 C 
BRANCH  20  21
ATOM     21  O   UNL A   1      38.552  22.235  26.116  1.00  0.00    -0.385 OA
ATOM     22  C   UNL A   1      38.355  23.628  26.295  1.00  0.00     0.194 C 
ENDBRANCH  20  21
ENDBRANCH  19  20
ENDBRANCH  18  19
ENDBRANCH  15  18
ENDBRANCH  13  14
BRANCH  13  23
ATOM     23  C   UNL A   1      31.977  23.952  24.756  1.00  0.00     0.105 C 
ATOM     24  N   UNL A   1      31.009  24.012  24.119  1.00  0.00    -0.192 NA
ENDBRANCH  13  23
ENDBRANCH   7  12
ENDBRANCH   3   6
ENDBRANCH   1   2
BRANCH   1  25
ATOM     25  C   UNL A   1      34.385  32.397  28.259  1.00  0.00     0.023 C 
BRANCH  25  26
ATOM     26  C   UNL A   1      35.867  32.660  27.990  1.00  0.00     0.023 C 
BRANCH  26  27
ATOM     27  C   UNL A   1      36.748  32.645  29.231  1.00  0.00     0.116 C 
BRANCH  27  28
ATOM     28  N   UNL A   1      36.170  31.880  30.327  1.00  0.00    -0.352 N 
ATOM     29  C   UNL A   1      36.591  30.676  30.838  1.00  0.00     0.251 C 
ATOM     30  H   UNL A   1      35.378  32.276  30.756  1.00  0.00     0.163 HD
ATOM     31  O   UNL A   1      35.909  30.080  31.666  1.00  0.00    -0.269 OA
BRANCH  29  32
ATOM     32  C   UNL A   1      37.857  30.097  30.346  1.00  0.00     0.039 A 
ATOM     33  C   UNL A   1      38.054  29.968  28.971  1.00  0.00     0.014 A 
ATOM     34  C   UNL A   1      38.866  29.741  31.245  1.00  0.00     0.014 A 
ATOM     35  C   UNL A   1      39.294  29.543  28.495  1.00  0.00     0.010 A 
ATOM     36  C   UNL A   1      40.127  29.407  30.765  1.00  0.00     0.010 A 
ATOM     37  C   UNL A   1      40.354  29.298  29.385  1.00  0.00    -0.014 A 
BRANCH  37  38
ATOM     38  C   UNL A   1      41.706  28.933  28.889  1.00  0.00     0.031 A 
ATOM     39  C   UNL A   1      42.782  29.979  28.791  1.00  0.00     0.074 A 
ATOM     40  C   UNL A   1      41.947  27.671  28.479  1.00  0.00     0.049 A 
ATOM     41  N   UNL A   1      44.007  29.864  28.348  1.00  0.00    -0.248 NA
ATOM     42  C   UNL A   1      42.430  31.342  29.224  1.00  0.00     0.031 C 
ATOM     43  C   UNL A   1      40.969  26.580  28.482  1.00  0.00     0.029 A 
ATOM     44  N   UNL A   1      43.084  27.092  27.975  1.00  0.00    -0.354 N 
ATOM     45  C   UNL A   1      44.565  31.133  28.440  1.00  0.00     0.074 A 
ATOM     46  C   UNL A   1      43.528  32.018  28.922  1.00  0.00     0.031 C 
ATOM     47  C   UNL A   1      41.559  25.459  28.038  1.00  0.00     0.029 A 
ATOM     48  C   UNL A   1      42.938  25.759  27.667  1.00  0.00     0.049 A 
ATOM     49  H   UNL A   1      43.927  27.586  27.845  1.00  0.00     0.167 HD
ATOM     50  C   UNL A   1      45.834  31.521  28.170  1.00  0.00     0.037 A 
ATOM     51  C   UNL A   1      43.812  24.881  27.138  1.00  0.00     0.037 A 
ATOM     52  C   UNL A   1      46.863  30.630  27.699  1.00  0.00     0.049 A 
ATOM     53  C   UNL A   1      45.208  25.345  26.818  1.00  0.00     0.074 A 
ATOM     54  C   UNL A   1      48.194  30.912  27.449  1.00  0.00     0.029 A 
ATOM     55  N   UNL A   1      46.675  29.288  27.397  1.00  0.00    -0.354 N 
ATOM     56  N   UNL A   1      45.741  26.532  26.981  1.00  0.00    -0.248 NA
ATOM     57  C   UNL A   1      46.125  24.349  26.246  1.00  0.00     0.031 C 
ATOM     58  C   UNL A   1      48.793  29.762  26.926  1.00  0.00     0.029 A 
ATOM     59  C   UNL A   1      47.857  28.739  26.927  1.00  0.00     0.049 A 
ATOM     60  H   UNL A   1      45.827  28.799  27.501  1.00  0.00     0.167 HD
ATOM     61  C   UNL A   1      47.064  26.417  26.565  1.00  0.00     0.074 A 
ATOM     62  C   UNL A   1      47.252  25.040  26.156  1.00  0.00     0.031 C 
ATOM     63  C   UNL A   1      48.035  27.364  26.529  1.00  0.00     0.037 A 
BRANCH  50  64
ATOM     64  C   UNL A   1      46.182  32.974  28.365  1.00  0.00     0.058 A 
ATOM     65  C   UNL A   1      45.954  33.933  27.364  1.00  0.00     0.135 A 
ATOM     66  C   UNL A   1      46.711  33.421  29.587  1.00  0.00     0.135 A 
ATOM     67  F   UNL A   1      45.466  33.564  26.169  1.00  0.00    -0.206 F 
ATOM     68  C   UNL A   1      46.265  35.276  27.557  1.00  0.00     0.059 A 
ATOM     69  C   UNL A   1      46.995  34.765  29.815  1.00  0.00     0.059 A 
ATOM     70  F   UNL A   1      46.952  32.550  30.579  1.00  0.00    -0.206 F 
ATOM     71  C   UNL A   1      46.781  35.682  28.789  1.00  0.00     0.060 A 
BRANCH  71  72
ATOM     72  S   UNL A   1      47.163  37.430  29.025  1.00  0.00     0.124 S 
ATOM     73  O   UNL A   1      46.395  37.736  30.228  1.00  0.00    -0.237 OA
ATOM     74  O   UNL A   1      48.613  37.409  29.188  1.00  0.00    -0.237 OA
ATOM     75  O   UNL A   1      46.680  38.055  27.798  1.00  0.00    -0.744 OA
ENDBRANCH  71  72
ENDBRANCH  50  64
BRANCH  51  76
ATOM     76  C   UNL A   1      43.400  23.471  26.892  1.00  0.00     0.058 A 
ATOM     77  C   UNL A   1      43.043  23.032  25.608  1.00  0.00     0.135 A 
ATOM     78  C   UNL A   1      43.354  22.532  27.936  1.00  0.00     0.135 A 
ATOM     79  F   UNL A   1      43.062  23.892  24.578  1.00  0.00    -0.206 F 
ATOM     80  C   UNL A   1      42.637  21.724  25.369  1.00  0.00     0.059 A 
ATOM     81  C   UNL A   1      42.983  21.210  27.717  1.00  0.00     0.059 A 
ATOM     82  F   UNL A   1      43.699  22.893  29.182  1.00  0.00    -0.206 F 
ATOM     83  C   UNL A   1      42.614  20.818  26.431  1.00  0.00     0.060 A 
BRANCH  83  84
ATOM     84  S   UNL A   1      42.127  19.111  26.099  1.00  0.00     0.124 S 
ATOM     85  O   UNL A   1      40.721  19.268  25.749  1.00  0.00    -0.237 OA
ATOM     86  O   UNL A   1      43.023  18.747  25.005  1.00  0.00    -0.237 OA
ATOM     87  O   UNL A   1      42.390  18.434  27.366  1.00  0.00    -0.744 OA
ENDBRANCH  83  84
ENDBRANCH  51  76
BRANCH  63  88
ATOM     88  C   UNL A   1      49.406  26.940  26.074  1.00  0.00     0.058 A 
ATOM     89  C   UNL A   1      50.308  26.289  26.930  1.00  0.00     0.135 A 
ATOM     90  C   UNL A   1      49.802  27.140  24.740  1.00  0.00     0.135 A 
ATOM     91  F   UNL A   1      49.987  26.077  28.216  1.00  0.00    -0.206 F 
ATOM     92  C   UNL A   1      51.563  25.878  26.490  1.00  0.00     0.059 A 
ATOM     93  C   UNL A   1      51.035  26.703  24.267  1.00  0.00     0.059 A 
ATOM     94  F   UNL A   1      48.975  27.747  23.873  1.00  0.00    -0.206 F 
ATOM     95  C   UNL A   1      51.914  26.085  25.154  1.00  0.00     0.060 A 
BRANCH  95  96
ATOM     96  S   UNL A   1      53.529  25.512  24.588  1.00  0.00     0.124 S 
ATOM     97  O   UNL A   1      53.478  24.095  24.935  1.00  0.00    -0.237 OA
ATOM     98  O   UNL A   1      53.484  25.817  23.161  1.00  0.00    -0.237 OA
ATOM     99  O   UNL A   1      54.469  26.314  25.366  1.00  0.00    -0.744 OA
ENDBRANCH  95  96
ENDBRANCH  63  88
ENDBRANCH  37  38
ENDBRANCH  29  32
ENDBRANCH  27  28
ENDBRANCH  26  27
ENDBRANCH  25  26
ENDBRANCH   1  25
TORSDOF 21
ENDMDL
