MODEL 1
REMARK VINA RESULT:     -11.2      0.000      0.000
REMARK SMILES O=C(NCCCCNC(=O)c1csc(CNc2ccc(-n3cccn3)nc2)c1)c1ccc(-c2c3nc(c(-c4c(F)cc(S(=O)(=O)[O-])cc4F)c4ccc([nH]4)c(-c4c(F)cc(S(=O)(=O)[O-])cc4F)c4nc(c(-c5c(F)cc(S(=O)(=O)[O-])cc5F)c5ccc2[nH]5)C=C4)C=C3)cc1
REMARK SMILES IDX 6 1 5 2 4 3 3 4 1 5 2 6 29 8 30 9 94 10 31 11 93 12 32 13
REMARK SMILES IDX 33 14 34 15 87 16 35 17 92 18 86 19 88 20 36 21 91 22 85 23
REMARK SMILES IDX 84 24 37 26 71 27 50 28 70 29 51 30 54 31 69 32 89 33 52 34
REMARK SMILES IDX 53 35 68 37 90 38 55 39 38 40 39 41 48 42 40 43 41 44 47 45
REMARK SMILES IDX 49 46 42 47 43 48 44 49 45 50 46 51 72 52 73 53 82 54 74 55
REMARK SMILES IDX 75 56 81 57 83 58 76 59 77 60 78 61 79 62 80 63 56 64 57 65
REMARK SMILES IDX 66 66 58 67 59 68 65 69 67 70 60 71 61 72 62 73 63 74 64 75
REMARK SMILES IDX 7 76 8 77 9 78 10 80 11 81 12 82 28 83 13 84 14 85 15 86
REMARK SMILES IDX 16 87 17 89 18 90 27 91 19 92 26 93 20 94 21 95 22 96 25 97
REMARK SMILES IDX 23 98 24 99
REMARK H PARENT 3 7 88 25 54 36 8 79 16 88
REMARK Flexibility Score: inf
ROOT
ATOM      1  C   UNL A   1      33.990  35.963  29.025  1.00  0.00     0.023 C 
ENDROOT
BRANCH   1   2
ATOM      2  C   UNL A   1      34.436  34.514  29.255  1.00  0.00     0.023 C 
BRANCH   2   3
ATOM      3  C   UNL A   1      35.050  33.815  28.043  1.00  0.00     0.116 C 
BRANCH   3   4
ATOM      4  N   UNL A   1      34.454  32.535  27.724  1.00  0.00    -0.352 N 
ATOM      5  O   UNL A   1      33.955  30.391  27.665  1.00  0.00    -0.269 OA
ATOM      6  C   UNL A   1      34.831  31.231  27.895  1.00  0.00     0.251 C 
ATOM      7  H   UNL A   1      33.578  32.623  27.285  1.00  0.00     0.163 HD
BRANCH   6   8
ATOM      8  C   UNL A   1      36.196  30.766  28.270  1.00  0.00     0.039 A 
ATOM      9  C   UNL A   1      37.234  31.569  28.742  1.00  0.00     0.014 A 
ATOM     10  C   UNL A   1      36.449  29.394  28.072  1.00  0.00     0.014 A 
ATOM     11  C   UNL A   1      38.510  31.042  28.926  1.00  0.00     0.010 A 
ATOM     12  C   UNL A   1      37.717  28.858  28.267  1.00  0.00     0.010 A 
ATOM     13  C   UNL A   1      38.758  29.695  28.657  1.00  0.00    -0.014 A 
BRANCH  13  14
ATOM     14  C   UNL A   1      40.103  29.179  28.908  1.00  0.00     0.031 A 
ATOM     15  C   UNL A   1      40.487  29.080  30.349  1.00  0.00     0.074 A 
ATOM     16  C   UNL A   1      40.889  28.677  27.934  1.00  0.00     0.049 A 
ATOM     17  N   UNL A   1      41.483  29.629  30.967  1.00  0.00    -0.248 NA
ATOM     18  C   UNL A   1      39.574  28.339  31.238  1.00  0.00     0.031 C 
ATOM     19  C   UNL A   1      40.536  28.416  26.537  1.00  0.00     0.029 A 
ATOM     20  N   UNL A   1      42.157  28.183  28.026  1.00  0.00    -0.354 N 
ATOM     21  C   UNL A   1      41.437  29.151  32.279  1.00  0.00     0.074 A 
ATOM     22  C   UNL A   1      40.170  28.483  32.421  1.00  0.00     0.031 C 
ATOM     23  C   UNL A   1      41.471  27.611  25.984  1.00  0.00     0.029 A 
ATOM     24  C   UNL A   1      42.546  27.410  26.940  1.00  0.00     0.049 A 
ATOM     25  H   UNL A   1      42.745  28.359  28.795  1.00  0.00     0.167 HD
ATOM     26  C   UNL A   1      42.526  29.166  33.100  1.00  0.00     0.037 A 
ATOM     27  C   UNL A   1      43.632  26.597  26.869  1.00  0.00     0.037 A 
ATOM     28  C   UNL A   1      43.517  30.104  32.641  1.00  0.00     0.049 A 
ATOM     29  C   UNL A   1      44.582  27.031  27.925  1.00  0.00     0.074 A 
ATOM     30  C   UNL A   1      43.541  31.468  32.431  1.00  0.00     0.029 A 
ATOM     31  N   UNL A   1      44.629  29.613  32.003  1.00  0.00    -0.354 N 
ATOM     32  N   UNL A   1      45.204  28.179  27.928  1.00  0.00    -0.248 NA
ATOM     33  C   UNL A   1      44.512  26.358  29.213  1.00  0.00     0.031 C 
ATOM     34  C   UNL A   1      44.359  31.649  31.279  1.00  0.00     0.029 A 
ATOM     35  C   UNL A   1      44.821  30.390  30.890  1.00  0.00     0.049 A 
ATOM     36  H   UNL A   1      45.182  28.850  32.289  1.00  0.00     0.167 HD
ATOM     37  C   UNL A   1      45.236  28.565  29.259  1.00  0.00     0.074 A 
ATOM     38  C   UNL A   1      44.873  27.365  30.011  1.00  0.00     0.031 C 
ATOM     39  C   UNL A   1      45.287  29.881  29.620  1.00  0.00     0.037 A 
BRANCH  26  40
ATOM     40  C   UNL A   1      42.845  28.095  34.122  1.00  0.00     0.058 A 
ATOM     41  C   UNL A   1      42.917  28.440  35.490  1.00  0.00     0.135 A 
ATOM     42  C   UNL A   1      43.373  26.827  33.792  1.00  0.00     0.135 A 
ATOM     43  F   UNL A   1      42.437  29.616  35.926  1.00  0.00    -0.206 F 
ATOM     44  C   UNL A   1      43.557  27.636  36.435  1.00  0.00     0.059 A 
ATOM     45  C   UNL A   1      43.967  25.986  34.727  1.00  0.00     0.059 A 
ATOM     46  F   UNL A   1      43.430  26.382  32.532  1.00  0.00    -0.206 F 
ATOM     47  C   UNL A   1      44.104  26.421  36.034  1.00  0.00     0.060 A 
BRANCH  47  48
ATOM     48  S   UNL A   1      45.062  25.450  37.210  1.00  0.00     0.124 S 
ATOM     49  O   UNL A   1      44.316  25.671  38.443  1.00  0.00    -0.237 OA
ATOM     50  O   UNL A   1      44.974  24.110  36.641  1.00  0.00    -0.237 OA
ATOM     51  O   UNL A   1      46.385  26.064  37.152  1.00  0.00    -0.744 OA
ENDBRANCH  47  48
ENDBRANCH  26  40
BRANCH  27  52
ATOM     52  C   UNL A   1      43.723  25.266  26.207  1.00  0.00     0.058 A 
ATOM     53  C   UNL A   1      44.713  24.987  25.247  1.00  0.00     0.135 A 
ATOM     54  C   UNL A   1      43.012  24.153  26.702  1.00  0.00     0.135 A 
ATOM     55  F   UNL A   1      45.462  25.980  24.742  1.00  0.00    -0.206 F 
ATOM     56  C   UNL A   1      45.003  23.681  24.830  1.00  0.00     0.059 A 
ATOM     57  C   UNL A   1      43.273  22.847  26.293  1.00  0.00     0.059 A 
ATOM     58  F   UNL A   1      42.097  24.294  27.673  1.00  0.00    -0.206 F 
ATOM     59  C   UNL A   1      44.287  22.615  25.373  1.00  0.00     0.060 A 
BRANCH  59  60
ATOM     60  S   UNL A   1      44.759  20.917  24.963  1.00  0.00     0.124 S 
ATOM     61  O   UNL A   1      46.125  20.853  25.470  1.00  0.00    -0.237 OA
ATOM     62  O   UNL A   1      43.769  20.136  25.696  1.00  0.00    -0.237 OA
ATOM     63  O   UNL A   1      44.631  20.870  23.509  1.00  0.00    -0.744 OA
ENDBRANCH  59  60
ENDBRANCH  27  52
BRANCH  39  64
ATOM     64  C   UNL A   1      45.598  30.908  28.563  1.00  0.00     0.058 A 
ATOM     65  C   UNL A   1      44.652  31.414  27.654  1.00  0.00     0.135 A 
ATOM     66  C   UNL A   1      46.850  31.540  28.604  1.00  0.00     0.135 A 
ATOM     67  F   UNL A   1      43.400  30.935  27.622  1.00  0.00    -0.206 F 
ATOM     68  C   UNL A   1      44.947  32.485  26.808  1.00  0.00     0.059 A 
ATOM     69  C   UNL A   1      47.155  32.629  27.790  1.00  0.00     0.059 A 
ATOM     70  F   UNL A   1      47.775  31.143  29.494  1.00  0.00    -0.206 F 
ATOM     71  C   UNL A   1      46.199  33.093  26.890  1.00  0.00     0.060 A 
BRANCH  71  72
ATOM     72  S   UNL A   1      46.534  34.554  25.882  1.00  0.00     0.124 S 
ATOM     73  O   UNL A   1      46.340  35.639  26.838  1.00  0.00    -0.237 OA
ATOM     74  O   UNL A   1      47.911  34.330  25.448  1.00  0.00    -0.237 OA
ATOM     75  O   UNL A   1      45.536  34.471  24.819  1.00  0.00    -0.744 OA
ENDBRANCH  71  72
ENDBRANCH  39  64
ENDBRANCH  13  14
ENDBRANCH   6   8
ENDBRANCH   3   4
ENDBRANCH   2   3
ENDBRANCH   1   2
BRANCH   1  76
ATOM     76  C   UNL A   1      32.843  36.457  29.905  1.00  0.00     0.116 C 
BRANCH  76  77
ATOM     77  N   UNL A   1      33.272  37.464  30.865  1.00  0.00    -0.352 N 
ATOM     78  C   UNL A   1      33.786  37.301  32.117  1.00  0.00     0.252 C 
ATOM     79  H   UNL A   1      33.177  38.398  30.567  1.00  0.00     0.163 HD
ATOM     80  O   UNL A   1      33.913  38.302  32.848  1.00  0.00    -0.269 OA
BRANCH  78  81
ATOM     81  C   UNL A   1      34.159  35.981  32.593  1.00  0.00     0.050 A 
ATOM     82  C   UNL A   1      33.277  34.927  32.758  1.00  0.00     0.079 A 
ATOM     83  C   UNL A   1      35.502  35.561  32.881  1.00  0.00     0.031 A 
ATOM     84  S   UNL A   1      34.039  33.503  33.314  1.00  0.00    -0.146 S 
ATOM     85  C   UNL A   1      35.580  34.254  33.320  1.00  0.00     0.024 A 
BRANCH  85  86
ATOM     86  C   UNL A   1      36.790  33.485  33.775  1.00  0.00     0.159 C 
BRANCH  86  87
ATOM     87  N   UNL A   1      37.363  32.664  32.718  1.00  0.00    -0.379 N 
ATOM     88  H   UNL A   1      37.018  31.755  32.570  1.00  0.00     0.160 HD
BRANCH  87  89
ATOM     89  C   UNL A   1      38.385  33.143  31.917  1.00  0.00     0.053 A 
ATOM     90  C   UNL A   1      39.688  32.659  31.993  1.00  0.00     0.031 A 
ATOM     91  C   UNL A   1      38.172  34.197  31.027  1.00  0.00     0.139 A 
ATOM     92  C   UNL A   1      40.685  33.175  31.161  1.00  0.00     0.051 A 
ATOM     93  N   UNL A   1      39.124  34.768  30.251  1.00  0.00    -0.235 NA
ATOM     94  C   UNL A   1      40.366  34.228  30.303  1.00  0.00     0.153 A 
BRANCH  94  95
ATOM     95  N   UNL A   1      41.379  34.754  29.445  1.00  0.00    -0.223 N 
ATOM     96  C   UNL A   1      41.221  35.712  28.458  1.00  0.00     0.117 A 
ATOM     97  N   UNL A   1      42.674  34.339  29.515  1.00  0.00    -0.175 NA
ATOM     98  C   UNL A   1      42.446  35.886  27.862  1.00  0.00     0.042 A 
ATOM     99  C   UNL A   1      43.291  34.989  28.531  1.00  0.00     0.135 A 
ENDBRANCH  94  95
ENDBRANCH  87  89
ENDBRANCH  86  87
ENDBRANCH  85  86
ENDBRANCH  78  81
ENDBRANCH  76  77
ENDBRANCH   1  76
TORSDOF 18
ENDMDL
MODEL 2
REMARK VINA RESULT:     -11.2      3.744      6.648
REMARK SMILES O=C(NCCCCNC(=O)c1csc(CNc2ccc(-n3cccn3)nc2)c1)c1ccc(-c2c3nc(c(-c4c(F)cc(S(=O)(=O)[O-])cc4F)c4ccc([nH]4)c(-c4c(F)cc(S(=O)(=O)[O-])cc4F)c4nc(c(-c5c(F)cc(S(=O)(=O)[O-])cc5F)c5ccc2[nH]5)C=C4)C=C3)cc1
REMARK SMILES IDX 6 1 5 2 4 3 3 4 1 5 2 6 29 8 30 9 94 10 31 11 93 12 32 13
REMARK SMILES IDX 33 14 34 15 87 16 35 17 92 18 86 19 88 20 36 21 91 22 85 23
REMARK SMILES IDX 84 24 37 26 71 27 50 28 70 29 51 30 54 31 69 32 89 33 52 34
REMARK SMILES IDX 53 35 68 37 90 38 55 39 38 40 39 41 48 42 40 43 41 44 47 45
REMARK SMILES IDX 49 46 42 47 43 48 44 49 45 50 46 51 72 52 73 53 82 54 74 55
REMARK SMILES IDX 75 56 81 57 83 58 76 59 77 60 78 61 79 62 80 63 56 64 57 65
REMARK SMILES IDX 66 66 58 67 59 68 65 69 67 70 60 71 61 72 62 73 63 74 64 75
REMARK SMILES IDX 7 76 8 77 9 78 10 80 11 81 12 82 28 83 13 84 14 85 15 86
REMARK SMILES IDX 16 87 17 89 18 90 27 91 19 92 26 93 20 94 21 95 22 96 25 97
REMARK SMILES IDX 23 98 24 99
REMARK H PARENT 3 7 88 25 54 36 8 79 16 88
REMARK Flexibility Score: inf
ROOT
ATOM      1  C   UNL A   1      32.765  29.691  24.873  1.00  0.00     0.023 C 
ENDROOT
BRANCH   1   2
ATOM      2  C   UNL A   1      33.519  28.812  25.878  1.00  0.00     0.023 C 
BRANCH   2   3
ATOM      3  C   UNL A   1      33.223  29.093  27.351  1.00  0.00     0.116 C 
BRANCH   3   4
ATOM      4  N   UNL A   1      33.429  30.469  27.751  1.00  0.00    -0.352 N 
ATOM      5  O   UNL A   1      34.307  32.454  28.123  1.00  0.00    -0.269 OA
ATOM      6  C   UNL A   1      34.530  31.248  27.981  1.00  0.00     0.251 C 
ATOM      7  H   UNL A   1      32.584  30.955  27.888  1.00  0.00     0.163 HD
BRANCH   6   8
ATOM      8  C   UNL A   1      35.927  30.750  28.128  1.00  0.00     0.039 A 
ATOM      9  C   UNL A   1      36.394  29.494  27.741  1.00  0.00     0.014 A 
ATOM     10  C   UNL A   1      36.825  31.630  28.764  1.00  0.00     0.014 A 
ATOM     11  C   UNL A   1      37.689  29.091  28.058  1.00  0.00     0.010 A 
ATOM     12  C   UNL A   1      38.124  31.240  29.070  1.00  0.00     0.010 A 
ATOM     13  C   UNL A   1      38.542  29.952  28.750  1.00  0.00    -0.014 A 
BRANCH  13  14
ATOM     14  C   UNL A   1      39.906  29.500  29.019  1.00  0.00     0.031 A 
ATOM     15  C   UNL A   1      40.232  29.287  30.463  1.00  0.00     0.074 A 
ATOM     16  C   UNL A   1      40.766  29.144  28.044  1.00  0.00     0.049 A 
ATOM     17  N   UNL A   1      41.160  29.837  31.178  1.00  0.00    -0.248 NA
ATOM     18  C   UNL A   1      39.333  28.409  31.232  1.00  0.00     0.031 C 
ATOM     19  C   UNL A   1      40.493  28.996  26.613  1.00  0.00     0.029 A 
ATOM     20  N   UNL A   1      42.059  28.724  28.153  1.00  0.00    -0.354 N 
ATOM     21  C   UNL A   1      41.090  29.233  32.436  1.00  0.00     0.074 A 
ATOM     22  C   UNL A   1      39.866  28.477  32.452  1.00  0.00     0.031 C 
ATOM     23  C   UNL A   1      41.503  28.309  26.035  1.00  0.00     0.029 A 
ATOM     24  C   UNL A   1      42.547  28.084  27.020  1.00  0.00     0.049 A 
ATOM     25  H   UNL A   1      42.599  28.863  28.963  1.00  0.00     0.167 HD
ATOM     26  C   UNL A   1      42.138  29.239  33.308  1.00  0.00     0.037 A 
ATOM     27  C   UNL A   1      43.687  27.352  26.929  1.00  0.00     0.037 A 
ATOM     28  C   UNL A   1      43.083  30.276  32.988  1.00  0.00     0.049 A 
ATOM     29  C   UNL A   1      44.558  27.742  28.067  1.00  0.00     0.074 A 
ATOM     30  C   UNL A   1      43.023  31.653  32.907  1.00  0.00     0.029 A 
ATOM     31  N   UNL A   1      44.252  29.920  32.364  1.00  0.00    -0.354 N 
ATOM     32  N   UNL A   1      45.101  28.922  28.207  1.00  0.00    -0.248 NA
ATOM     33  C   UNL A   1      44.477  26.946  29.282  1.00  0.00     0.031 C 
ATOM     34  C   UNL A   1      43.878  31.995  31.819  1.00  0.00     0.029 A 
ATOM     35  C   UNL A   1      44.440  30.811  31.338  1.00  0.00     0.049 A 
ATOM     36  H   UNL A   1      44.842  29.170  32.605  1.00  0.00     0.167 HD
ATOM     37  C   UNL A   1      45.048  29.179  29.569  1.00  0.00     0.074 A 
ATOM     38  C   UNL A   1      44.735  27.893  30.187  1.00  0.00     0.031 C 
ATOM     39  C   UNL A   1      44.994  30.456  30.052  1.00  0.00     0.037 A 
BRANCH  26  40
ATOM     40  C   UNL A   1      42.483  28.097  34.242  1.00  0.00     0.058 A 
ATOM     41  C   UNL A   1      42.468  28.313  35.637  1.00  0.00     0.135 A 
ATOM     42  C   UNL A   1      43.112  26.903  33.822  1.00  0.00     0.135 A 
ATOM     43  F   UNL A   1      41.889  29.408  36.155  1.00  0.00    -0.206 F 
ATOM     44  C   UNL A   1      43.119  27.464  36.535  1.00  0.00     0.059 A 
ATOM     45  C   UNL A   1      43.720  26.016  34.705  1.00  0.00     0.059 A 
ATOM     46  F   UNL A   1      43.258  26.586  32.531  1.00  0.00    -0.206 F 
ATOM     47  C   UNL A   1      43.766  26.331  36.052  1.00  0.00     0.060 A 
BRANCH  47  48
ATOM     48  S   UNL A   1      44.735  25.315  37.181  1.00  0.00     0.124 S 
ATOM     49  O   UNL A   1      44.497  23.981  36.645  1.00  0.00    -0.237 OA
ATOM     50  O   UNL A   1      46.080  25.850  36.992  1.00  0.00    -0.237 OA
ATOM     51  O   UNL A   1      44.134  25.593  38.482  1.00  0.00    -0.744 OA
ENDBRANCH  47  48
ENDBRANCH  26  40
BRANCH  27  52
ATOM     52  C   UNL A   1      43.897  26.100  26.152  1.00  0.00     0.058 A 
ATOM     53  C   UNL A   1      45.098  25.852  25.463  1.00  0.00     0.135 A 
ATOM     54  C   UNL A   1      43.029  24.997  26.294  1.00  0.00     0.135 A 
ATOM     55  F   UNL A   1      46.000  26.834  25.306  1.00  0.00    -0.206 F 
ATOM     56  C   UNL A   1      45.433  24.581  24.976  1.00  0.00     0.059 A 
ATOM     57  C   UNL A   1      43.334  23.727  25.808  1.00  0.00     0.059 A 
ATOM     58  F   UNL A   1      41.890  25.100  26.996  1.00  0.00    -0.206 F 
ATOM     59  C   UNL A   1      44.549  23.520  25.169  1.00  0.00     0.060 A 
BRANCH  59  60
ATOM     60  S   UNL A   1      45.040  21.846  24.688  1.00  0.00     0.124 S 
ATOM     61  O   UNL A   1      44.276  21.028  25.622  1.00  0.00    -0.237 OA
ATOM     62  O   UNL A   1      44.615  21.789  23.294  1.00  0.00    -0.237 OA
ATOM     63  O   UNL A   1      46.486  21.844  24.895  1.00  0.00    -0.744 OA
ENDBRANCH  59  60
ENDBRANCH  27  52
BRANCH  39  64
ATOM     64  C   UNL A   1      45.281  31.597  29.112  1.00  0.00     0.058 A 
ATOM     65  C   UNL A   1      46.573  32.068  28.815  1.00  0.00     0.135 A 
ATOM     66  C   UNL A   1      44.222  32.098  28.338  1.00  0.00     0.135 A 
ATOM     67  F   UNL A   1      47.649  31.567  29.436  1.00  0.00    -0.206 F 
ATOM     68  C   UNL A   1      46.797  33.012  27.811  1.00  0.00     0.059 A 
ATOM     69  C   UNL A   1      44.428  33.017  27.312  1.00  0.00     0.059 A 
ATOM     70  F   UNL A   1      42.974  31.640  28.531  1.00  0.00    -0.206 F 
ATOM     71  C   UNL A   1      45.718  33.474  27.057  1.00  0.00     0.060 A 
BRANCH  71  72
ATOM     72  S   UNL A   1      46.028  34.601  25.680  1.00  0.00     0.124 S 
ATOM     73  O   UNL A   1      45.701  35.898  26.265  1.00  0.00    -0.237 OA
ATOM     74  O   UNL A   1      47.442  34.372  25.394  1.00  0.00    -0.237 OA
ATOM     75  O   UNL A   1      45.109  34.134  24.644  1.00  0.00    -0.744 OA
ENDBRANCH  71  72
ENDBRANCH  39  64
ENDBRANCH  13  14
ENDBRANCH   6   8
ENDBRANCH   3   4
ENDBRANCH   2   3
ENDBRANCH   1   2
BRANCH   1  76
ATOM     76  C   UNL A   1      31.244  29.711  25.011  1.00  0.00     0.116 C 
BRANCH  76  77
ATOM     77  N   UNL A   1      30.572  29.908  23.735  1.00  0.00    -0.352 N 
ATOM     78  C   UNL A   1      30.323  29.009  22.740  1.00  0.00     0.252 C 
ATOM     79  H   UNL A   1      30.251  30.824  23.565  1.00  0.00     0.163 HD
ATOM     80  O   UNL A   1      29.899  29.427  21.646  1.00  0.00    -0.269 OA
BRANCH  78  81
ATOM     81  C   UNL A   1      30.567  27.593  22.952  1.00  0.00     0.050 A 
ATOM     82  C   UNL A   1      29.727  26.748  23.657  1.00  0.00     0.079 A 
ATOM     83  C   UNL A   1      31.667  26.856  22.395  1.00  0.00     0.031 A 
ATOM     84  S   UNL A   1      30.292  25.137  23.705  1.00  0.00    -0.146 S 
ATOM     85  C   UNL A   1      31.664  25.523  22.754  1.00  0.00     0.024 A 
BRANCH  85  86
ATOM     86  C   UNL A   1      32.675  24.458  22.425  1.00  0.00     0.159 C 
BRANCH  86  87
ATOM     87  N   UNL A   1      32.844  23.493  23.502  1.00  0.00    -0.379 N 
ATOM     88  H   UNL A   1      32.058  23.017  23.854  1.00  0.00     0.160 HD
BRANCH  87  89
ATOM     89  C   UNL A   1      34.093  23.233  24.038  1.00  0.00     0.053 A 
ATOM     90  C   UNL A   1      34.622  21.948  24.121  1.00  0.00     0.031 A 
ATOM     91  C   UNL A   1      34.869  24.253  24.592  1.00  0.00     0.139 A 
ATOM     92  C   UNL A   1      35.890  21.738  24.671  1.00  0.00     0.051 A 
ATOM     93  N   UNL A   1      36.072  24.082  25.190  1.00  0.00    -0.235 NA
ATOM     94  C   UNL A   1      36.585  22.828  25.194  1.00  0.00     0.153 A 
BRANCH  94  95
ATOM     95  N   UNL A   1      37.884  22.620  25.750  1.00  0.00    -0.223 N 
ATOM     96  C   UNL A   1      38.652  21.472  25.666  1.00  0.00     0.117 A 
ATOM     97  N   UNL A   1      38.529  23.586  26.460  1.00  0.00    -0.175 NA
ATOM     98  C   UNL A   1      39.807  21.705  26.373  1.00  0.00     0.042 A 
ATOM     99  C   UNL A   1      39.658  23.009  26.867  1.00  0.00     0.135 A 
ENDBRANCH  94  95
ENDBRANCH  87  89
ENDBRANCH  86  87
ENDBRANCH  85  86
ENDBRANCH  78  81
ENDBRANCH  76  77
ENDBRANCH   1  76
TORSDOF 18
ENDMDL
MODEL 3
REMARK VINA RESULT:     -11.1      4.769      7.705
REMARK SMILES O=C(NCCCCNC(=O)c1csc(CNc2ccc(-n3cccn3)nc2)c1)c1ccc(-c2c3nc(c(-c4c(F)cc(S(=O)(=O)[O-])cc4F)c4ccc([nH]4)c(-c4c(F)cc(S(=O)(=O)[O-])cc4F)c4nc(c(-c5c(F)cc(S(=O)(=O)[O-])cc5F)c5ccc2[nH]5)C=C4)C=C3)cc1
REMARK SMILES IDX 6 1 5 2 4 3 3 4 1 5 2 6 29 8 30 9 94 10 31 11 93 12 32 13
REMARK SMILES IDX 33 14 34 15 87 16 35 17 92 18 86 19 88 20 36 21 91 22 85 23
REMARK SMILES IDX 84 24 37 26 71 27 50 28 70 29 51 30 54 31 69 32 89 33 52 34
REMARK SMILES IDX 53 35 68 37 90 38 55 39 38 40 39 41 48 42 40 43 41 44 47 45
REMARK SMILES IDX 49 46 42 47 43 48 44 49 45 50 46 51 72 52 73 53 82 54 74 55
REMARK SMILES IDX 75 56 81 57 83 58 76 59 77 60 78 61 79 62 80 63 56 64 57 65
REMARK SMILES IDX 66 66 58 67 59 68 65 69 67 70 60 71 61 72 62 73 63 74 64 75
REMARK SMILES IDX 7 76 8 77 9 78 10 80 11 81 12 82 28 83 13 84 14 85 15 86
REMARK SMILES IDX 16 87 17 89 18 90 27 91 19 92 26 93 20 94 21 95 22 96 25 97
REMARK SMILES IDX 23 98 24 99
REMARK H PARENT 3 7 88 25 54 36 8 79 16 88
REMARK Flexibility Score: inf
ROOT
ATOM      1  C   UNL A   1      32.750  29.689  25.001  1.00  0.00     0.023 C 
ENDROOT
BRANCH   1   2
ATOM      2  C   UNL A   1      33.447  28.649  25.885  1.00  0.00     0.023 C 
BRANCH   2   3
ATOM      3  C   UNL A   1      33.563  29.014  27.364  1.00  0.00     0.116 C 
BRANCH   3   4
ATOM      4  N   UNL A   1      33.745  30.427  27.620  1.00  0.00    -0.352 N 
ATOM      5  O   UNL A   1      34.608  32.439  27.860  1.00  0.00    -0.269 OA
ATOM      6  C   UNL A   1      34.824  31.223  27.893  1.00  0.00     0.251 C 
ATOM      7  H   UNL A   1      32.899  30.931  27.589  1.00  0.00     0.163 HD
BRANCH   6   8
ATOM      8  C   UNL A   1      36.181  30.741  28.273  1.00  0.00     0.039 A 
ATOM      9  C   UNL A   1      37.195  31.512  28.842  1.00  0.00     0.014 A 
ATOM     10  C   UNL A   1      36.455  29.392  27.974  1.00  0.00     0.014 A 
ATOM     11  C   UNL A   1      38.470  30.982  29.024  1.00  0.00     0.010 A 
ATOM     12  C   UNL A   1      37.722  28.852  28.167  1.00  0.00     0.010 A 
ATOM     13  C   UNL A   1      38.741  29.664  28.657  1.00  0.00    -0.014 A 
BRANCH  13  14
ATOM     14  C   UNL A   1      40.082  29.140  28.909  1.00  0.00     0.031 A 
ATOM     15  C   UNL A   1      40.463  29.035  30.351  1.00  0.00     0.074 A 
ATOM     16  C   UNL A   1      40.869  28.637  27.936  1.00  0.00     0.049 A 
ATOM     17  N   UNL A   1      41.460  29.577  30.973  1.00  0.00    -0.248 NA
ATOM     18  C   UNL A   1      39.544  28.296  31.235  1.00  0.00     0.031 C 
ATOM     19  C   UNL A   1      40.517  28.382  26.537  1.00  0.00     0.029 A 
ATOM     20  N   UNL A   1      42.133  28.136  28.029  1.00  0.00    -0.354 N 
ATOM     21  C   UNL A   1      41.409  29.095  32.283  1.00  0.00     0.074 A 
ATOM     22  C   UNL A   1      40.138  28.434  32.420  1.00  0.00     0.031 C 
ATOM     23  C   UNL A   1      41.449  27.574  25.984  1.00  0.00     0.029 A 
ATOM     24  C   UNL A   1      42.521  27.364  26.941  1.00  0.00     0.049 A 
ATOM     25  H   UNL A   1      42.720  28.307  28.800  1.00  0.00     0.167 HD
ATOM     26  C   UNL A   1      42.496  29.103  33.106  1.00  0.00     0.037 A 
ATOM     27  C   UNL A   1      43.603  26.546  26.870  1.00  0.00     0.037 A 
ATOM     28  C   UNL A   1      43.493  30.036  32.653  1.00  0.00     0.049 A 
ATOM     29  C   UNL A   1      44.553  26.972  27.931  1.00  0.00     0.074 A 
ATOM     30  C   UNL A   1      43.524  31.401  32.446  1.00  0.00     0.029 A 
ATOM     31  N   UNL A   1      44.604  29.542  32.016  1.00  0.00    -0.354 N 
ATOM     32  N   UNL A   1      45.181  28.117  27.937  1.00  0.00    -0.248 NA
ATOM     33  C   UNL A   1      44.476  26.296  29.216  1.00  0.00     0.031 C 
ATOM     34  C   UNL A   1      44.346  31.581  31.297  1.00  0.00     0.029 A 
ATOM     35  C   UNL A   1      44.802  30.321  30.905  1.00  0.00     0.049 A 
ATOM     36  H   UNL A   1      45.152  28.776  32.301  1.00  0.00     0.167 HD
ATOM     37  C   UNL A   1      45.212  28.498  29.270  1.00  0.00     0.074 A 
ATOM     38  C   UNL A   1      44.841  27.299  30.018  1.00  0.00     0.031 C 
ATOM     39  C   UNL A   1      45.268  29.813  29.635  1.00  0.00     0.037 A 
BRANCH  26  40
ATOM     40  C   UNL A   1      42.807  28.027  34.127  1.00  0.00     0.058 A 
ATOM     41  C   UNL A   1      42.877  28.368  35.495  1.00  0.00     0.135 A 
ATOM     42  C   UNL A   1      43.330  26.757  33.793  1.00  0.00     0.135 A 
ATOM     43  F   UNL A   1      42.402  29.545  35.934  1.00  0.00    -0.206 F 
ATOM     44  C   UNL A   1      43.511  27.558  36.439  1.00  0.00     0.059 A 
ATOM     45  C   UNL A   1      43.918  25.911  34.728  1.00  0.00     0.059 A 
ATOM     46  F   UNL A   1      43.388  26.315  32.532  1.00  0.00    -0.206 F 
ATOM     47  C   UNL A   1      44.053  26.341  36.037  1.00  0.00     0.060 A 
BRANCH  47  48
ATOM     48  S   UNL A   1      45.004  25.362  37.212  1.00  0.00     0.124 S 
ATOM     49  O   UNL A   1      44.879  24.026  36.643  1.00  0.00    -0.237 OA
ATOM     50  O   UNL A   1      46.324  25.976  37.120  1.00  0.00    -0.237 OA
ATOM     51  O   UNL A   1      44.304  25.581  38.474  1.00  0.00    -0.744 OA
ENDBRANCH  47  48
ENDBRANCH  26  40
BRANCH  27  52
ATOM     52  C   UNL A   1      43.689  25.216  26.205  1.00  0.00     0.058 A 
ATOM     53  C   UNL A   1      44.695  24.927  25.265  1.00  0.00     0.135 A 
ATOM     54  C   UNL A   1      42.951  24.112  26.680  1.00  0.00     0.135 A 
ATOM     55  F   UNL A   1      45.468  25.910  24.780  1.00  0.00    -0.206 F 
ATOM     56  C   UNL A   1      44.975  23.618  24.849  1.00  0.00     0.059 A 
ATOM     57  C   UNL A   1      43.202  22.804  26.272  1.00  0.00     0.059 A 
ATOM     58  F   UNL A   1      42.018  24.262  27.632  1.00  0.00    -0.206 F 
ATOM     59  C   UNL A   1      44.232  22.560  25.372  1.00  0.00     0.060 A 
BRANCH  59  60
ATOM     60  S   UNL A   1      44.688  20.857  24.964  1.00  0.00     0.124 S 
ATOM     61  O   UNL A   1      44.528  20.840  23.515  1.00  0.00    -0.237 OA
ATOM     62  O   UNL A   1      46.059  20.779  25.456  1.00  0.00    -0.237 OA
ATOM     63  O   UNL A   1      43.717  20.059  25.708  1.00  0.00    -0.744 OA
ENDBRANCH  59  60
ENDBRANCH  27  52
BRANCH  39  64
ATOM     64  C   UNL A   1      45.587  30.842  28.582  1.00  0.00     0.058 A 
ATOM     65  C   UNL A   1      44.648  31.346  27.663  1.00  0.00     0.135 A 
ATOM     66  C   UNL A   1      46.837  31.478  28.635  1.00  0.00     0.135 A 
ATOM     67  F   UNL A   1      43.399  30.863  27.618  1.00  0.00    -0.206 F 
ATOM     68  C   UNL A   1      44.949  32.417  26.821  1.00  0.00     0.059 A 
ATOM     69  C   UNL A   1      47.146  32.567  27.826  1.00  0.00     0.059 A 
ATOM     70  F   UNL A   1      47.754  31.083  29.535  1.00  0.00    -0.206 F 
ATOM     71  C   UNL A   1      46.199  33.030  26.916  1.00  0.00     0.060 A 
BRANCH  71  72
ATOM     72  S   UNL A   1      46.540  34.492  25.912  1.00  0.00     0.124 S 
ATOM     73  O   UNL A   1      47.881  34.213  25.408  1.00  0.00    -0.237 OA
ATOM     74  O   UNL A   1      45.469  34.452  24.919  1.00  0.00    -0.237 OA
ATOM     75  O   UNL A   1      46.448  35.591  26.869  1.00  0.00    -0.744 OA
ENDBRANCH  71  72
ENDBRANCH  39  64
ENDBRANCH  13  14
ENDBRANCH   6   8
ENDBRANCH   3   4
ENDBRANCH   2   3
ENDBRANCH   1   2
BRANCH   1  76
ATOM     76  C   UNL A   1      31.223  29.689  25.044  1.00  0.00     0.116 C 
BRANCH  76  77
ATOM     77  N   UNL A   1      30.629  29.776  23.719  1.00  0.00    -0.352 N 
ATOM     78  C   UNL A   1      30.483  28.808  22.770  1.00  0.00     0.252 C 
ATOM     79  H   UNL A   1      30.281  30.664  23.471  1.00  0.00     0.163 HD
ATOM     80  O   UNL A   1      30.114  29.138  21.627  1.00  0.00    -0.269 OA
BRANCH  78  81
ATOM     81  C   UNL A   1      30.770  27.420  23.086  1.00  0.00     0.050 A 
ATOM     82  C   UNL A   1      29.905  26.571  23.755  1.00  0.00     0.079 A 
ATOM     83  C   UNL A   1      31.954  26.714  22.683  1.00  0.00     0.031 A 
ATOM     84  S   UNL A   1      30.538  24.997  23.951  1.00  0.00    -0.146 S 
ATOM     85  C   UNL A   1      31.979  25.403  23.118  1.00  0.00     0.024 A 
BRANCH  85  86
ATOM     86  C   UNL A   1      33.066  24.377  22.951  1.00  0.00     0.159 C 
BRANCH  86  87
ATOM     87  N   UNL A   1      33.489  23.796  24.217  1.00  0.00    -0.379 N 
ATOM     88  H   UNL A   1      33.721  24.388  24.968  1.00  0.00     0.160 HD
BRANCH  87  89
ATOM     89  C   UNL A   1      33.568  22.424  24.382  1.00  0.00     0.053 A 
ATOM     90  C   UNL A   1      34.756  21.774  24.703  1.00  0.00     0.031 A 
ATOM     91  C   UNL A   1      32.458  21.605  24.166  1.00  0.00     0.139 A 
ATOM     92  C   UNL A   1      34.783  20.385  24.860  1.00  0.00     0.051 A 
ATOM     93  N   UNL A   1      32.459  20.253  24.245  1.00  0.00    -0.235 NA
ATOM     94  C   UNL A   1      33.616  19.659  24.624  1.00  0.00     0.153 A 
BRANCH  94  95
ATOM     95  N   UNL A   1      33.636  18.241  24.790  1.00  0.00    -0.223 N 
ATOM     96  C   UNL A   1      32.645  17.453  25.349  1.00  0.00     0.117 A 
ATOM     97  N   UNL A   1      34.696  17.482  24.396  1.00  0.00    -0.175 NA
ATOM     98  C   UNL A   1      33.103  16.158  25.339  1.00  0.00     0.042 A 
ATOM     99  C   UNL A   1      34.383  16.243  24.773  1.00  0.00     0.135 A 
ENDBRANCH  94  95
ENDBRANCH  87  89
ENDBRANCH  86  87
ENDBRANCH  85  86
ENDBRANCH  78  81
ENDBRANCH  76  77
ENDBRANCH   1  76
TORSDOF 18
ENDMDL
