MODEL 1
REMARK VINA RESULT:     -12.5      0.000      0.000
REMARK SMILES O=C(NCCCCNC(=O)c1ccc(F)cc1-c1ccc(F)c(Cl)c1)c1ccc(-c2c3nc(c(-c4c(F)cc(S(=O)(=O)[O-])cc4F)c4ccc([nH]4)c(-c4c(F)cc(S(=O)(=O)[O-])cc4F)c4nc(c(-c5c(F)cc(S(=O)(=O)[O-])cc5F)c5ccc2[nH]5)C=C4)C=C3)cc1
REMARK SMILES IDX 4 1 3 2 1 3 2 4 26 6 27 7 91 8 28 9 90 10 29 11 30 12 31 13
REMARK SMILES IDX 84 14 32 15 89 16 83 17 85 18 33 19 88 20 82 21 81 22 34 24
REMARK SMILES IDX 68 25 47 26 67 27 48 28 51 29 66 30 86 31 49 32 50 33 65 35
REMARK SMILES IDX 87 36 52 37 35 38 36 39 45 40 37 41 38 42 44 43 46 44 39 45
REMARK SMILES IDX 40 46 41 47 42 48 43 49 69 50 70 51 79 52 71 53 72 54 78 55
REMARK SMILES IDX 80 56 73 57 74 58 75 59 76 60 77 61 53 62 54 63 63 64 55 65
REMARK SMILES IDX 56 66 62 67 64 68 57 69 58 70 59 71 60 72 61 73 5 74 6 75
REMARK SMILES IDX 7 76 8 77 9 78 10 80 11 81 12 82 17 83 13 84 16 85 14 86
REMARK SMILES IDX 15 87 18 88 19 89 25 90 20 91 23 92 21 93 24 94 22 95
REMARK H PARENT 3 5 85 23 51 34 8 79
REMARK Flexibility Score: inf
ROOT
ATOM      1  C   UNL A   1      38.115  24.072  26.546  1.00  0.00     0.116 C 
ENDROOT
BRANCH   1   2
ATOM      2  N   UNL A   1      39.500  23.960  26.115  1.00  0.00    -0.352 N 
ATOM      3  O   UNL A   1      41.667  24.543  25.919  1.00  0.00    -0.269 OA
ATOM      4  C   UNL A   1      40.594  24.708  26.489  1.00  0.00     0.251 C 
ATOM      5  H   UNL A   1      39.681  23.247  25.461  1.00  0.00     0.163 HD
BRANCH   4   6
ATOM      6  C   UNL A   1      40.462  25.727  27.554  1.00  0.00     0.039 A 
ATOM      7  C   UNL A   1      41.278  26.860  27.564  1.00  0.00     0.014 A 
ATOM      8  C   UNL A   1      39.512  25.540  28.564  1.00  0.00     0.014 A 
ATOM      9  C   UNL A   1      41.253  27.720  28.656  1.00  0.00     0.010 A 
ATOM     10  C   UNL A   1      39.428  26.455  29.618  1.00  0.00     0.010 A 
ATOM     11  C   UNL A   1      40.321  27.536  29.690  1.00  0.00    -0.014 A 
BRANCH  11  12
ATOM     12  C   UNL A   1      40.260  28.523  30.798  1.00  0.00     0.031 A 
ATOM     13  C   UNL A   1      41.224  28.468  31.950  1.00  0.00     0.074 A 
ATOM     14  C   UNL A   1      39.337  29.504  30.733  1.00  0.00     0.049 A 
ATOM     15  N   UNL A   1      41.314  29.266  32.983  1.00  0.00    -0.248 NA
ATOM     16  C   UNL A   1      42.211  27.377  31.950  1.00  0.00     0.031 C 
ATOM     17  C   UNL A   1      38.344  29.652  29.666  1.00  0.00     0.029 A 
ATOM     18  N   UNL A   1      39.093  30.569  31.562  1.00  0.00    -0.354 N 
ATOM     19  C   UNL A   1      42.352  28.770  33.763  1.00  0.00     0.074 A 
ATOM     20  C   UNL A   1      42.849  27.585  33.096  1.00  0.00     0.031 C 
ATOM     21  C   UNL A   1      37.636  30.771  29.876  1.00  0.00     0.029 A 
ATOM     22  C   UNL A   1      38.077  31.384  31.123  1.00  0.00     0.049 A 
ATOM     23  H   UNL A   1      39.598  30.734  32.391  1.00  0.00     0.167 HD
ATOM     24  C   UNL A   1      42.848  29.265  34.924  1.00  0.00     0.037 A 
ATOM     25  C   UNL A   1      37.544  32.494  31.668  1.00  0.00     0.037 A 
ATOM     26  C   UNL A   1      42.357  30.458  35.569  1.00  0.00     0.049 A 
ATOM     27  C   UNL A   1      38.096  33.008  32.963  1.00  0.00     0.074 A 
ATOM     28  C   UNL A   1      42.817  31.056  36.730  1.00  0.00     0.029 A 
ATOM     29  N   UNL A   1      41.299  31.231  35.116  1.00  0.00    -0.354 N 
ATOM     30  N   UNL A   1      39.088  32.533  33.678  1.00  0.00    -0.248 NA
ATOM     31  C   UNL A   1      37.453  34.198  33.536  1.00  0.00     0.031 C 
ATOM     32  C   UNL A   1      42.011  32.166  37.000  1.00  0.00     0.029 A 
ATOM     33  C   UNL A   1      41.076  32.287  35.985  1.00  0.00     0.049 A 
ATOM     34  H   UNL A   1      40.781  31.055  34.297  1.00  0.00     0.167 HD
ATOM     35  C   UNL A   1      39.194  33.368  34.782  1.00  0.00     0.074 A 
ATOM     36  C   UNL A   1      38.178  34.391  34.632  1.00  0.00     0.031 C 
ATOM     37  C   UNL A   1      40.053  33.292  35.827  1.00  0.00     0.037 A 
BRANCH  24  38
ATOM     38  C   UNL A   1      43.976  28.522  35.586  1.00  0.00     0.058 A 
ATOM     39  C   UNL A   1      45.308  28.779  35.222  1.00  0.00     0.135 A 
ATOM     40  C   UNL A   1      43.738  27.504  36.522  1.00  0.00     0.135 A 
ATOM     41  F   UNL A   1      45.593  29.744  34.334  1.00  0.00    -0.206 F 
ATOM     42  C   UNL A   1      46.363  28.043  35.752  1.00  0.00     0.059 A 
ATOM     43  C   UNL A   1      44.781  26.769  37.083  1.00  0.00     0.059 A 
ATOM     44  F   UNL A   1      42.486  27.231  36.919  1.00  0.00    -0.206 F 
ATOM     45  C   UNL A   1      46.089  27.037  36.680  1.00  0.00     0.060 A 
BRANCH  45  46
ATOM     46  S   UNL A   1      47.472  26.113  37.384  1.00  0.00     0.124 S 
ATOM     47  O   UNL A   1      48.567  26.489  36.498  1.00  0.00    -0.237 OA
ATOM     48  O   UNL A   1      47.538  26.646  38.742  1.00  0.00    -0.237 OA
ATOM     49  O   UNL A   1      47.031  24.723  37.289  1.00  0.00    -0.744 OA
ENDBRANCH  45  46
ENDBRANCH  24  38
BRANCH  25  50
ATOM     50  C   UNL A   1      36.426  33.179  30.970  1.00  0.00     0.058 A 
ATOM     51  C   UNL A   1      36.657  33.969  29.833  1.00  0.00     0.135 A 
ATOM     52  C   UNL A   1      35.117  33.117  31.470  1.00  0.00     0.135 A 
ATOM     53  F   UNL A   1      37.895  34.069  29.324  1.00  0.00    -0.206 F 
ATOM     54  C   UNL A   1      35.640  34.707  29.241  1.00  0.00     0.059 A 
ATOM     55  C   UNL A   1      34.077  33.826  30.879  1.00  0.00     0.059 A 
ATOM     56  F   UNL A   1      34.847  32.366  32.549  1.00  0.00    -0.206 F 
ATOM     57  C   UNL A   1      34.355  34.637  29.779  1.00  0.00     0.060 A 
BRANCH  57  58
ATOM     58  S   UNL A   1      33.054  35.632  29.018  1.00  0.00     0.124 S 
ATOM     59  O   UNL A   1      32.408  34.651  28.152  1.00  0.00    -0.237 OA
ATOM     60  O   UNL A   1      32.280  36.064  30.177  1.00  0.00    -0.237 OA
ATOM     61  O   UNL A   1      33.794  36.687  28.332  1.00  0.00    -0.744 OA
ENDBRANCH  57  58
ENDBRANCH  25  50
BRANCH  37  62
ATOM     62  C   UNL A   1      39.938  34.341  36.895  1.00  0.00     0.058 A 
ATOM     63  C   UNL A   1      39.120  34.132  38.016  1.00  0.00     0.135 A 
ATOM     64  C   UNL A   1      40.583  35.582  36.773  1.00  0.00     0.135 A 
ATOM     65  F   UNL A   1      38.481  32.963  38.179  1.00  0.00    -0.206 F 
ATOM     66  C   UNL A   1      38.930  35.124  38.971  1.00  0.00     0.059 A 
ATOM     67  C   UNL A   1      40.425  36.581  37.729  1.00  0.00     0.059 A 
ATOM     68  F   UNL A   1      41.387  35.825  35.725  1.00  0.00    -0.206 F 
ATOM     69  C   UNL A   1      39.583  36.348  38.816  1.00  0.00     0.060 A 
BRANCH  69  70
ATOM     70  S   UNL A   1      39.331  37.624  40.068  1.00  0.00     0.124 S 
ATOM     71  O   UNL A   1      39.007  36.827  41.245  1.00  0.00    -0.237 OA
ATOM     72  O   UNL A   1      40.629  38.293  40.092  1.00  0.00    -0.237 OA
ATOM     73  O   UNL A   1      38.235  38.421  39.525  1.00  0.00    -0.744 OA
ENDBRANCH  69  70
ENDBRANCH  37  62
ENDBRANCH  11  12
ENDBRANCH   4   6
ENDBRANCH   1   2
BRANCH   1  74
ATOM     74  C   UNL A   1      37.116  23.713  25.454  1.00  0.00     0.023 C 
BRANCH  74  75
ATOM     75  C   UNL A   1      37.275  22.321  24.847  1.00  0.00     0.023 C 
BRANCH  75  76
ATOM     76  C   UNL A   1      36.454  21.218  25.507  1.00  0.00     0.116 C 
BRANCH  76  77
ATOM     77  N   UNL A   1      35.471  21.722  26.455  1.00  0.00    -0.352 N 
ATOM     78  C   UNL A   1      34.112  21.524  26.486  1.00  0.00     0.251 C 
ATOM     79  H   UNL A   1      35.832  22.285  27.177  1.00  0.00     0.163 HD
ATOM     80  O   UNL A   1      33.426  22.015  27.376  1.00  0.00    -0.269 OA
BRANCH  78  81
ATOM     81  C   UNL A   1      33.480  20.703  25.431  1.00  0.00     0.047 A 
ATOM     82  C   UNL A   1      33.348  19.322  25.669  1.00  0.00     0.017 A 
ATOM     83  C   UNL A   1      32.999  21.288  24.240  1.00  0.00    -0.003 A 
ATOM     84  C   UNL A   1      32.815  18.493  24.687  1.00  0.00     0.040 A 
ATOM     85  C   UNL A   1      32.466  20.424  23.265  1.00  0.00     0.048 A 
ATOM     86  C   UNL A   1      32.391  19.050  23.489  1.00  0.00     0.123 A 
ATOM     87  F   UNL A   1      31.890  18.255  22.535  1.00  0.00    -0.207 F 
BRANCH  83  88
ATOM     88  C   UNL A   1      32.998  22.740  23.987  1.00  0.00    -0.016 A 
ATOM     89  C   UNL A   1      34.079  23.387  23.364  1.00  0.00     0.012 A 
ATOM     90  C   UNL A   1      31.889  23.516  24.377  1.00  0.00     0.032 A 
ATOM     91  C   UNL A   1      34.055  24.768  23.144  1.00  0.00     0.041 A 
ATOM     92  C   UNL A   1      31.865  24.894  24.152  1.00  0.00     0.077 A 
ATOM     93  C   UNL A   1      32.948  25.513  23.537  1.00  0.00     0.141 A 
ATOM     94  Cl  UNL A   1      30.484  25.804  24.632  1.00  0.00    -0.081 Cl
ATOM     95  F   UNL A   1      32.941  26.834  23.306  1.00  0.00    -0.205 F 
ENDBRANCH  83  88
ENDBRANCH  78  81
ENDBRANCH  76  77
ENDBRANCH  75  76
ENDBRANCH  74  75
ENDBRANCH   1  74
TORSDOF 15
ENDMDL
MODEL 2
REMARK VINA RESULT:     -12.3      5.149      9.803
REMARK SMILES O=C(NCCCCNC(=O)c1ccc(F)cc1-c1ccc(F)c(Cl)c1)c1ccc(-c2c3nc(c(-c4c(F)cc(S(=O)(=O)[O-])cc4F)c4ccc([nH]4)c(-c4c(F)cc(S(=O)(=O)[O-])cc4F)c4nc(c(-c5c(F)cc(S(=O)(=O)[O-])cc5F)c5ccc2[nH]5)C=C4)C=C3)cc1
REMARK SMILES IDX 4 1 3 2 1 3 2 4 26 6 27 7 91 8 28 9 90 10 29 11 30 12 31 13
REMARK SMILES IDX 84 14 32 15 89 16 83 17 85 18 33 19 88 20 82 21 81 22 34 24
REMARK SMILES IDX 68 25 47 26 67 27 48 28 51 29 66 30 86 31 49 32 50 33 65 35
REMARK SMILES IDX 87 36 52 37 35 38 36 39 45 40 37 41 38 42 44 43 46 44 39 45
REMARK SMILES IDX 40 46 41 47 42 48 43 49 69 50 70 51 79 52 71 53 72 54 78 55
REMARK SMILES IDX 80 56 73 57 74 58 75 59 76 60 77 61 53 62 54 63 63 64 55 65
REMARK SMILES IDX 56 66 62 67 64 68 57 69 58 70 59 71 60 72 61 73 5 74 6 75
REMARK SMILES IDX 7 76 8 77 9 78 10 80 11 81 12 82 17 83 13 84 16 85 14 86
REMARK SMILES IDX 15 87 18 88 19 89 25 90 20 91 23 92 21 93 24 94 22 95
REMARK H PARENT 3 5 85 23 51 34 8 79
REMARK Flexibility Score: inf
ROOT
ATOM      1  C   UNL A   1      33.874  28.228  26.946  1.00  0.00     0.116 C 
ENDROOT
BRANCH   1   2
ATOM      2  N   UNL A   1      33.658  29.568  27.471  1.00  0.00    -0.352 N 
ATOM      3  O   UNL A   1      34.120  31.443  28.630  1.00  0.00    -0.269 OA
ATOM      4  C   UNL A   1      34.527  30.388  28.154  1.00  0.00     0.251 C 
ATOM      5  H   UNL A   1      32.760  29.941  27.315  1.00  0.00     0.163 HD
BRANCH   4   6
ATOM      6  C   UNL A   1      35.937  29.979  28.340  1.00  0.00     0.039 A 
ATOM      7  C   UNL A   1      36.382  29.483  29.567  1.00  0.00     0.014 A 
ATOM      8  C   UNL A   1      36.829  30.102  27.269  1.00  0.00     0.014 A 
ATOM      9  C   UNL A   1      37.739  29.260  29.770  1.00  0.00     0.010 A 
ATOM     10  C   UNL A   1      38.181  29.792  27.451  1.00  0.00     0.010 A 
ATOM     11  C   UNL A   1      38.653  29.399  28.713  1.00  0.00    -0.014 A 
BRANCH  11  12
ATOM     12  C   UNL A   1      40.083  29.066  28.940  1.00  0.00     0.031 A 
ATOM     13  C   UNL A   1      40.642  27.722  28.566  1.00  0.00     0.074 A 
ATOM     14  C   UNL A   1      40.888  30.014  29.460  1.00  0.00     0.049 A 
ATOM     15  N   UNL A   1      41.870  27.284  28.682  1.00  0.00    -0.248 NA
ATOM     16  C   UNL A   1      39.709  26.739  27.994  1.00  0.00     0.031 C 
ATOM     17  C   UNL A   1      40.453  31.353  29.868  1.00  0.00     0.029 A 
ATOM     18  N   UNL A   1      42.235  30.013  29.716  1.00  0.00    -0.354 N 
ATOM     19  C   UNL A   1      41.857  25.975  28.214  1.00  0.00     0.074 A 
ATOM     20  C   UNL A   1      40.492  25.680  27.832  1.00  0.00     0.031 C 
ATOM     21  C   UNL A   1      41.518  32.058  30.271  1.00  0.00     0.029 A 
ATOM     22  C   UNL A   1      42.700  31.206  30.214  1.00  0.00     0.049 A 
ATOM     23  H   UNL A   1      42.813  29.232  29.557  1.00  0.00     0.167 HD
ATOM     24  C   UNL A   1      42.892  25.106  28.105  1.00  0.00     0.037 A 
ATOM     25  C   UNL A   1      43.937  31.575  30.598  1.00  0.00     0.037 A 
ATOM     26  C   UNL A   1      44.251  25.418  28.470  1.00  0.00     0.049 A 
ATOM     27  C   UNL A   1      45.059  30.588  30.490  1.00  0.00     0.074 A 
ATOM     28  C   UNL A   1      45.373  24.614  28.366  1.00  0.00     0.029 A 
ATOM     29  N   UNL A   1      44.674  26.623  29.011  1.00  0.00    -0.354 N 
ATOM     30  N   UNL A   1      45.030  29.360  30.030  1.00  0.00    -0.248 NA
ATOM     31  C   UNL A   1      46.380  31.025  30.960  1.00  0.00     0.031 C 
ATOM     32  C   UNL A   1      46.466  25.318  28.882  1.00  0.00     0.029 A 
ATOM     33  C   UNL A   1      46.035  26.577  29.267  1.00  0.00     0.049 A 
ATOM     34  H   UNL A   1      44.093  27.398  29.189  1.00  0.00     0.167 HD
ATOM     35  C   UNL A   1      46.326  28.878  30.150  1.00  0.00     0.074 A 
ATOM     36  C   UNL A   1      47.122  29.954  30.707  1.00  0.00     0.031 C 
ATOM     37  C   UNL A   1      46.812  27.654  29.831  1.00  0.00     0.037 A 
BRANCH  24  38
ATOM     38  C   UNL A   1      42.605  23.726  27.579  1.00  0.00     0.058 A 
ATOM     39  C   UNL A   1      42.371  22.661  28.464  1.00  0.00     0.135 A 
ATOM     40  C   UNL A   1      42.638  23.440  26.205  1.00  0.00     0.135 A 
ATOM     41  F   UNL A   1      42.324  22.879  29.787  1.00  0.00    -0.206 F 
ATOM     42  C   UNL A   1      42.193  21.359  28.006  1.00  0.00     0.059 A 
ATOM     43  C   UNL A   1      42.442  22.148  25.723  1.00  0.00     0.059 A 
ATOM     44  F   UNL A   1      42.839  24.425  25.315  1.00  0.00    -0.206 F 
ATOM     45  C   UNL A   1      42.234  21.112  26.633  1.00  0.00     0.060 A 
BRANCH  45  46
ATOM     46  S   UNL A   1      41.969  19.421  26.053  1.00  0.00     0.124 S 
ATOM     47  O   UNL A   1      42.357  18.639  27.221  1.00  0.00    -0.237 OA
ATOM     48  O   UNL A   1      40.545  19.427  25.732  1.00  0.00    -0.237 OA
ATOM     49  O   UNL A   1      42.860  19.318  24.899  1.00  0.00    -0.744 OA
ENDBRANCH  45  46
ENDBRANCH  24  38
BRANCH  25  50
ATOM     50  C   UNL A   1      44.154  32.949  31.119  1.00  0.00     0.058 A 
ATOM     51  C   UNL A   1      43.952  33.250  32.475  1.00  0.00     0.135 A 
ATOM     52  C   UNL A   1      44.494  34.002  30.257  1.00  0.00     0.135 A 
ATOM     53  F   UNL A   1      43.614  32.279  33.337  1.00  0.00    -0.206 F 
ATOM     54  C   UNL A   1      44.039  34.553  32.951  1.00  0.00     0.059 A 
ATOM     55  C   UNL A   1      44.613  35.310  30.715  1.00  0.00     0.059 A 
ATOM     56  F   UNL A   1      44.707  33.758  28.954  1.00  0.00    -0.206 F 
ATOM     57  C   UNL A   1      44.359  35.577  32.060  1.00  0.00     0.060 A 
BRANCH  57  58
ATOM     58  S   UNL A   1      44.431  37.268  32.691  1.00  0.00     0.124 S 
ATOM     59  O   UNL A   1      43.484  37.203  33.800  1.00  0.00    -0.237 OA
ATOM     60  O   UNL A   1      45.836  37.398  33.062  1.00  0.00    -0.237 OA
ATOM     61  O   UNL A   1      44.009  38.072  31.549  1.00  0.00    -0.744 OA
ENDBRANCH  57  58
ENDBRANCH  25  50
BRANCH  37  62
ATOM     62  C   UNL A   1      48.273  27.405  30.073  1.00  0.00     0.058 A 
ATOM     63  C   UNL A   1      48.712  26.853  31.287  1.00  0.00     0.135 A 
ATOM     64  C   UNL A   1      49.244  27.779  29.130  1.00  0.00     0.135 A 
ATOM     65  F   UNL A   1      47.824  26.480  32.221  1.00  0.00    -0.206 F 
ATOM     66  C   UNL A   1      50.065  26.697  31.565  1.00  0.00     0.059 A 
ATOM     67  C   UNL A   1      50.603  27.611  29.379  1.00  0.00     0.059 A 
ATOM     68  F   UNL A   1      48.873  28.299  27.949  1.00  0.00    -0.206 F 
ATOM     69  C   UNL A   1      51.003  27.084  30.607  1.00  0.00     0.060 A 
BRANCH  69  70
ATOM     70  S   UNL A   1      52.756  26.869  30.982  1.00  0.00     0.124 S 
ATOM     71  O   UNL A   1      52.722  25.782  31.955  1.00  0.00    -0.237 OA
ATOM     72  O   UNL A   1      53.313  26.532  29.675  1.00  0.00    -0.237 OA
ATOM     73  O   UNL A   1      53.153  28.171  31.506  1.00  0.00    -0.744 OA
ENDBRANCH  69  70
ENDBRANCH  37  62
ENDBRANCH  11  12
ENDBRANCH   4   6
ENDBRANCH   1   2
BRANCH   1  74
ATOM     74  C   UNL A   1      33.921  28.179  25.425  1.00  0.00     0.023 C 
BRANCH  74  75
ATOM     75  C   UNL A   1      34.035  26.784  24.814  1.00  0.00     0.023 C 
BRANCH  75  76
ATOM     76  C   UNL A   1      33.324  26.592  23.478  1.00  0.00     0.116 C 
BRANCH  76  77
ATOM     77  N   UNL A   1      33.836  25.464  22.712  1.00  0.00    -0.352 N 
ATOM     78  C   UNL A   1      33.660  24.118  22.924  1.00  0.00     0.251 C 
ATOM     79  H   UNL A   1      34.386  25.700  21.931  1.00  0.00     0.163 HD
ATOM     80  O   UNL A   1      34.155  23.293  22.164  1.00  0.00    -0.269 OA
BRANCH  78  81
ATOM     81  C   UNL A   1      32.860  23.670  24.084  1.00  0.00     0.047 A 
ATOM     82  C   UNL A   1      31.460  23.779  23.993  1.00  0.00     0.017 A 
ATOM     83  C   UNL A   1      33.477  23.126  25.231  1.00  0.00    -0.003 A 
ATOM     84  C   UNL A   1      30.662  23.427  25.076  1.00  0.00     0.040 A 
ATOM     85  C   UNL A   1      32.643  22.781  26.312  1.00  0.00     0.048 A 
ATOM     86  C   UNL A   1      31.261  22.945  26.230  1.00  0.00     0.123 A 
ATOM     87  F   UNL A   1      30.499  22.619  27.282  1.00  0.00    -0.207 F 
BRANCH  83  88
ATOM     88  C   UNL A   1      34.926  22.875  25.337  1.00  0.00    -0.016 A 
ATOM     89  C   UNL A   1      35.832  23.888  25.695  1.00  0.00     0.012 A 
ATOM     90  C   UNL A   1      35.432  21.588  25.072  1.00  0.00     0.032 A 
ATOM     91  C   UNL A   1      37.203  23.624  25.779  1.00  0.00     0.041 A 
ATOM     92  C   UNL A   1      36.802  21.325  25.161  1.00  0.00     0.077 A 
ATOM     93  C   UNL A   1      37.679  22.344  25.514  1.00  0.00     0.141 A 
ATOM     94  Cl  UNL A   1      37.378  19.734  24.842  1.00  0.00    -0.081 Cl
ATOM     95  F   UNL A   1      38.996  22.110  25.611  1.00  0.00    -0.205 F 
ENDBRANCH  83  88
ENDBRANCH  78  81
ENDBRANCH  76  77
ENDBRANCH  75  76
ENDBRANCH  74  75
ENDBRANCH   1  74
TORSDOF 15
ENDMDL
MODEL 3
REMARK VINA RESULT:     -12.2      6.870     12.200
REMARK SMILES O=C(NCCCCNC(=O)c1ccc(F)cc1-c1ccc(F)c(Cl)c1)c1ccc(-c2c3nc(c(-c4c(F)cc(S(=O)(=O)[O-])cc4F)c4ccc([nH]4)c(-c4c(F)cc(S(=O)(=O)[O-])cc4F)c4nc(c(-c5c(F)cc(S(=O)(=O)[O-])cc5F)c5ccc2[nH]5)C=C4)C=C3)cc1
REMARK SMILES IDX 4 1 3 2 1 3 2 4 26 6 27 7 91 8 28 9 90 10 29 11 30 12 31 13
REMARK SMILES IDX 84 14 32 15 89 16 83 17 85 18 33 19 88 20 82 21 81 22 34 24
REMARK SMILES IDX 68 25 47 26 67 27 48 28 51 29 66 30 86 31 49 32 50 33 65 35
REMARK SMILES IDX 87 36 52 37 35 38 36 39 45 40 37 41 38 42 44 43 46 44 39 45
REMARK SMILES IDX 40 46 41 47 42 48 43 49 69 50 70 51 79 52 71 53 72 54 78 55
REMARK SMILES IDX 80 56 73 57 74 58 75 59 76 60 77 61 53 62 54 63 63 64 55 65
REMARK SMILES IDX 56 66 62 67 64 68 57 69 58 70 59 71 60 72 61 73 5 74 6 75
REMARK SMILES IDX 7 76 8 77 9 78 10 80 11 81 12 82 17 83 13 84 16 85 14 86
REMARK SMILES IDX 15 87 18 88 19 89 25 90 20 91 23 92 21 93 24 94 22 95
REMARK H PARENT 3 5 85 23 51 34 8 79
REMARK Flexibility Score: inf
ROOT
ATOM      1  C   UNL A   1      35.834  31.614  28.746  1.00  0.00     0.116 C 
ENDROOT
BRANCH   1   2
ATOM      2  N   UNL A   1      35.695  31.154  30.119  1.00  0.00    -0.352 N 
ATOM      3  O   UNL A   1      36.234  30.037  31.999  1.00  0.00    -0.269 OA
ATOM      4  C   UNL A   1      36.583  30.445  30.896  1.00  0.00     0.251 C 
ATOM      5  H   UNL A   1      34.842  31.382  30.555  1.00  0.00     0.163 HD
BRANCH   4   6
ATOM      6  C   UNL A   1      37.941  30.153  30.386  1.00  0.00     0.039 A 
ATOM      7  C   UNL A   1      38.261  30.365  29.044  1.00  0.00     0.014 A 
ATOM      8  C   UNL A   1      38.905  29.651  31.266  1.00  0.00     0.014 A 
ATOM      9  C   UNL A   1      39.486  29.932  28.550  1.00  0.00     0.010 A 
ATOM     10  C   UNL A   1      40.170  29.298  30.783  1.00  0.00     0.010 A 
ATOM     11  C   UNL A   1      40.460  29.405  29.414  1.00  0.00    -0.014 A 
BRANCH  11  12
ATOM     12  C   UNL A   1      41.792  29.036  28.869  1.00  0.00     0.031 A 
ATOM     13  C   UNL A   1      42.923  30.025  28.831  1.00  0.00     0.074 A 
ATOM     14  C   UNL A   1      41.981  27.773  28.437  1.00  0.00     0.049 A 
ATOM     15  N   UNL A   1      44.149  29.852  28.406  1.00  0.00    -0.248 NA
ATOM     16  C   UNL A   1      42.650  31.382  29.329  1.00  0.00     0.031 C 
ATOM     17  C   UNL A   1      40.951  26.730  28.419  1.00  0.00     0.029 A 
ATOM     18  N   UNL A   1      43.098  27.143  27.953  1.00  0.00    -0.354 N 
ATOM     19  C   UNL A   1      44.788  31.075  28.568  1.00  0.00     0.074 A 
ATOM     20  C   UNL A   1      43.808  31.992  29.111  1.00  0.00     0.031 C 
ATOM     21  C   UNL A   1      41.498  25.580  27.999  1.00  0.00     0.029 A 
ATOM     22  C   UNL A   1      42.894  25.816  27.656  1.00  0.00     0.049 A 
ATOM     23  H   UNL A   1      43.963  27.598  27.830  1.00  0.00     0.167 HD
ATOM     24  C   UNL A   1      46.077  31.398  28.297  1.00  0.00     0.037 A 
ATOM     25  C   UNL A   1      43.732  24.892  27.150  1.00  0.00     0.037 A 
ATOM     26  C   UNL A   1      47.050  30.471  27.774  1.00  0.00     0.049 A 
ATOM     27  C   UNL A   1      45.146  25.280  26.837  1.00  0.00     0.074 A 
ATOM     28  C   UNL A   1      48.388  30.697  27.498  1.00  0.00     0.029 A 
ATOM     29  N   UNL A   1      46.794  29.148  27.447  1.00  0.00    -0.354 N 
ATOM     30  N   UNL A   1      45.735  26.439  27.011  1.00  0.00    -0.248 NA
ATOM     31  C   UNL A   1      46.006  24.246  26.248  1.00  0.00     0.031 C 
ATOM     32  C   UNL A   1      48.929  29.523  26.965  1.00  0.00     0.029 A 
ATOM     33  C   UNL A   1      47.941  28.551  26.951  1.00  0.00     0.049 A 
ATOM     34  H   UNL A   1      45.924  28.698  27.551  1.00  0.00     0.167 HD
ATOM     35  C   UNL A   1      47.037  26.273  26.560  1.00  0.00     0.074 A 
ATOM     36  C   UNL A   1      47.157  24.897  26.123  1.00  0.00     0.031 C 
ATOM     37  C   UNL A   1      48.042  27.182  26.510  1.00  0.00     0.037 A 
BRANCH  24  38
ATOM     38  C   UNL A   1      46.520  32.814  28.548  1.00  0.00     0.058 A 
ATOM     39  C   UNL A   1      46.460  33.771  27.521  1.00  0.00     0.135 A 
ATOM     40  C   UNL A   1      47.075  33.206  29.776  1.00  0.00     0.135 A 
ATOM     41  F   UNL A   1      45.935  33.452  26.328  1.00  0.00    -0.206 F 
ATOM     42  C   UNL A   1      46.947  35.062  27.700  1.00  0.00     0.059 A 
ATOM     43  C   UNL A   1      47.548  34.499  29.984  1.00  0.00     0.059 A 
ATOM     44  F   UNL A   1      47.138  32.336  30.796  1.00  0.00    -0.206 F 
ATOM     45  C   UNL A   1      47.493  35.416  28.934  1.00  0.00     0.060 A 
BRANCH  45  46
ATOM     46  S   UNL A   1      48.091  37.106  29.160  1.00  0.00     0.124 S 
ATOM     47  O   UNL A   1      47.704  37.380  30.539  1.00  0.00    -0.237 OA
ATOM     48  O   UNL A   1      49.524  36.959  28.917  1.00  0.00    -0.237 OA
ATOM     49  O   UNL A   1      47.368  37.859  28.139  1.00  0.00    -0.744 OA
ENDBRANCH  45  46
ENDBRANCH  24  38
BRANCH  25  50
ATOM     50  C   UNL A   1      43.232  23.512  26.916  1.00  0.00     0.058 A 
ATOM     51  C   UNL A   1      43.068  22.612  27.980  1.00  0.00     0.135 A 
ATOM     52  C   UNL A   1      42.983  23.045  25.617  1.00  0.00     0.135 A 
ATOM     53  F   UNL A   1      43.306  23.008  29.240  1.00  0.00    -0.206 F 
ATOM     54  C   UNL A   1      42.714  21.286  27.763  1.00  0.00     0.059 A 
ATOM     55  C   UNL A   1      42.601  21.729  25.376  1.00  0.00     0.059 A 
ATOM     56  F   UNL A   1      43.117  23.874  24.570  1.00  0.00    -0.206 F 
ATOM     57  C   UNL A   1      42.493  20.852  26.456  1.00  0.00     0.060 A 
BRANCH  57  58
ATOM     58  S   UNL A   1      42.070  19.117  26.190  1.00  0.00     0.124 S 
ATOM     59  O   UNL A   1      42.280  18.560  27.524  1.00  0.00    -0.237 OA
ATOM     60  O   UNL A   1      40.682  19.203  25.750  1.00  0.00    -0.237 OA
ATOM     61  O   UNL A   1      43.024  18.688  25.172  1.00  0.00    -0.744 OA
ENDBRANCH  57  58
ENDBRANCH  25  50
BRANCH  37  62
ATOM     62  C   UNL A   1      49.363  26.722  25.963  1.00  0.00     0.058 A 
ATOM     63  C   UNL A   1      50.290  26.070  26.792  1.00  0.00     0.135 A 
ATOM     64  C   UNL A   1      49.739  26.989  24.638  1.00  0.00     0.135 A 
ATOM     65  F   UNL A   1      49.980  25.793  28.068  1.00  0.00    -0.206 F 
ATOM     66  C   UNL A   1      51.553  25.716  26.330  1.00  0.00     0.059 A 
ATOM     67  C   UNL A   1      50.989  26.623  24.147  1.00  0.00     0.059 A 
ATOM     68  F   UNL A   1      48.881  27.598  23.802  1.00  0.00    -0.206 F 
ATOM     69  C   UNL A   1      51.895  26.001  25.007  1.00  0.00     0.060 A 
BRANCH  69  70
ATOM     70  S   UNL A   1      53.535  25.528  24.420  1.00  0.00     0.124 S 
ATOM     71  O   UNL A   1      53.526  24.086  24.637  1.00  0.00    -0.237 OA
ATOM     72  O   UNL A   1      53.501  25.960  23.026  1.00  0.00    -0.237 OA
ATOM     73  O   UNL A   1      54.436  26.289  25.281  1.00  0.00    -0.744 OA
ENDBRANCH  69  70
ENDBRANCH  37  62
ENDBRANCH  11  12
ENDBRANCH   4   6
ENDBRANCH   1   2
BRANCH   1  74
ATOM     74  C   UNL A   1      34.899  30.903  27.776  1.00  0.00     0.023 C 
BRANCH  74  75
ATOM     75  C   UNL A   1      35.386  29.550  27.264  1.00  0.00     0.023 C 
BRANCH  75  76
ATOM     76  C   UNL A   1      34.318  28.662  26.634  1.00  0.00     0.116 C 
BRANCH  76  77
ATOM     77  N   UNL A   1      33.178  28.426  27.508  1.00  0.00    -0.352 N 
ATOM     78  C   UNL A   1      31.869  28.170  27.180  1.00  0.00     0.251 C 
ATOM     79  H   UNL A   1      33.373  28.454  28.472  1.00  0.00     0.163 HD
ATOM     80  O   UNL A   1      31.028  27.978  28.052  1.00  0.00    -0.269 OA
BRANCH  78  81
ATOM     81  C   UNL A   1      31.479  28.124  25.754  1.00  0.00     0.047 A 
ATOM     82  C   UNL A   1      31.187  29.345  25.117  1.00  0.00     0.017 A 
ATOM     83  C   UNL A   1      31.428  26.903  25.049  1.00  0.00    -0.003 A 
ATOM     84  C   UNL A   1      30.759  29.356  23.794  1.00  0.00     0.040 A 
ATOM     85  C   UNL A   1      30.990  26.945  23.711  1.00  0.00     0.048 A 
ATOM     86  C   UNL A   1      30.651  28.155  23.108  1.00  0.00     0.123 A 
ATOM     87  F   UNL A   1      30.225  28.159  21.838  1.00  0.00    -0.207 F 
BRANCH  83  88
ATOM     88  C   UNL A   1      31.839  25.610  25.626  1.00  0.00    -0.016 A 
ATOM     89  C   UNL A   1      30.914  24.731  26.215  1.00  0.00     0.012 A 
ATOM     90  C   UNL A   1      33.195  25.231  25.596  1.00  0.00     0.032 A 
ATOM     91  C   UNL A   1      31.332  23.515  26.763  1.00  0.00     0.041 A 
ATOM     92  C   UNL A   1      33.610  24.013  26.140  1.00  0.00     0.077 A 
ATOM     93  C   UNL A   1      32.677  23.161  26.720  1.00  0.00     0.141 A 
ATOM     94  Cl  UNL A   1      35.276  23.581  26.070  1.00  0.00    -0.081 Cl
ATOM     95  F   UNL A   1      33.055  21.985  27.242  1.00  0.00    -0.205 F 
ENDBRANCH  83  88
ENDBRANCH  78  81
ENDBRANCH  76  77
ENDBRANCH  75  76
ENDBRANCH  74  75
ENDBRANCH   1  74
TORSDOF 15
ENDMDL
