MODEL 1
REMARK VINA RESULT:     -13.4      0.000      0.000
REMARK SMILES COc1ccc(-c2[nH]nc3nc(-c4ccc(C(F)(F)F)cc4)cc(C(=O)NCCCCNC(=O)c4ccc(-c5c6nc(c(-c7c(F)cc(S(=O)(=O)[O-])cc7F)c7ccc([nH]7)c(-c7c(F)cc(S(=O)(=O)[O-])cc7F)c7nc(c(-c8c(F)cc(S(=O)(=O)[O-])cc8F)c8ccc5[nH]8)C=C7)C=C6)cc4)c23)cc1
REMARK SMILES IDX 30 1 29 2 28 3 27 4 25 5 26 6 24 8 7 9 8 10 101 11 9 12
REMARK SMILES IDX 10 14 11 15 23 16 12 17 6 18 3 19 4 20 103 21 5 22 102 23
REMARK SMILES IDX 2 24 1 25 13 26 14 27 22 28 15 29 21 30 16 31 17 32 18 33
REMARK SMILES IDX 19 34 20 35 31 36 32 37 33 38 34 40 35 41 36 42 100 43 37 44
REMARK SMILES IDX 99 45 38 46 39 47 40 48 93 49 41 50 98 51 92 52 94 53 42 54
REMARK SMILES IDX 97 55 91 56 90 57 43 59 77 60 56 61 76 62 57 63 60 64 75 65
REMARK SMILES IDX 95 66 58 67 59 68 74 70 96 71 61 72 44 73 45 74 54 75 46 76
REMARK SMILES IDX 47 77 53 78 55 79 48 80 49 81 50 82 51 83 52 84 78 85 79 86
REMARK SMILES IDX 88 87 80 88 81 89 87 90 89 91 82 92 83 93 84 94 85 95 86 96
REMARK SMILES IDX 62 97 63 98 72 99 64 100 65 101 71 102 73 103 66 104 67 105
REMARK SMILES IDX 68 106 69 107 70 108
REMARK H PARENT 27 7 8 13 32 39 94 58 60 69
REMARK Flexibility Score: inf
ROOT
ATOM      1  C   UNL A   1      36.653  20.881  25.069  1.00  0.00     0.023 C 
ENDROOT
BRANCH   1   2
ATOM      2  C   UNL A   1      35.874  21.790  26.038  1.00  0.00     0.023 C 
BRANCH   2   3
ATOM      3  C   UNL A   1      36.051  23.286  25.786  1.00  0.00     0.116 C 
BRANCH   3   4
ATOM      4  N   UNL A   1      35.438  23.710  24.545  1.00  0.00    -0.352 N 
ATOM      5  C   UNL A   1      34.414  24.544  24.180  1.00  0.00     0.252 C 
ATOM      6  O   UNL A   1      34.366  24.755  22.974  1.00  0.00    -0.269 OA
ATOM      7  H   UNL A   1      35.865  23.292  23.764  1.00  0.00     0.163 HD
BRANCH   5   8
ATOM      8  C   UNL A   1      33.467  25.210  25.109  1.00  0.00     0.055 A 
ATOM      9  C   UNL A   1      31.549  23.547  25.276  1.00  0.00     0.075 A 
ATOM     10  N   UNL A   1      30.285  23.710  25.791  1.00  0.00    -0.275 N 
ATOM     11  C   UNL A   1      32.173  24.772  25.468  1.00  0.00     0.059 A 
ATOM     12  N   UNL A   1      30.063  24.889  26.390  1.00  0.00    -0.154 NA
ATOM     13  H   UNL A   1      29.593  23.012  25.725  1.00  0.00     0.190 HD
ATOM     14  C   UNL A   1      31.204  25.553  26.203  1.00  0.00     0.182 A 
ATOM     15  N   UNL A   1      31.449  26.814  26.643  1.00  0.00    -0.226 NA
ATOM     16  C   UNL A   1      33.701  26.459  25.695  1.00  0.00     0.043 A 
ATOM     17  C   UNL A   1      32.707  27.225  26.354  1.00  0.00     0.074 A 
BRANCH   9  18
ATOM     18  C   UNL A   1      31.964  22.251  24.755  1.00  0.00     0.001 A 
ATOM     19  C   UNL A   1      32.541  19.695  23.735  1.00  0.00     0.118 A 
ATOM     20  C   UNL A   1      32.575  19.936  25.110  1.00  0.00     0.047 A 
ATOM     21  C   UNL A   1      32.246  20.744  22.864  1.00  0.00     0.047 A 
ATOM     22  C   UNL A   1      32.298  21.208  25.622  1.00  0.00     0.014 A 
ATOM     23  C   UNL A   1      31.971  22.019  23.372  1.00  0.00     0.014 A 
BRANCH  19  24
ATOM     24  O   UNL A   1      32.767  18.394  23.376  1.00  0.00    -0.497 OA
ATOM     25  C   UNL A   1      33.923  17.768  23.910  1.00  0.00     0.278 C 
ENDBRANCH  19  24
ENDBRANCH   9  18
BRANCH  17  26
ATOM     26  C   UNL A   1      33.041  28.622  26.685  1.00  0.00     0.000 A 
ATOM     27  C   UNL A   1      32.082  29.639  26.657  1.00  0.00     0.011 A 
ATOM     28  C   UNL A   1      34.340  28.941  27.130  1.00  0.00     0.011 A 
ATOM     29  C   UNL A   1      32.399  30.928  27.107  1.00  0.00     0.014 A 
ATOM     30  C   UNL A   1      34.659  30.225  27.577  1.00  0.00     0.014 A 
ATOM     31  C   UNL A   1      33.687  31.230  27.581  1.00  0.00     0.056 A 
BRANCH  31  32
ATOM     32  C   UNL A   1      34.006  32.616  28.086  1.00  0.00     0.416 C 
ATOM     33  F   UNL A   1      33.039  33.522  27.773  1.00  0.00    -0.166 F 
ATOM     34  F   UNL A   1      34.131  32.659  29.442  1.00  0.00    -0.166 F 
ATOM     35  F   UNL A   1      35.169  33.126  27.592  1.00  0.00    -0.166 F 
ENDBRANCH  31  32
ENDBRANCH  17  26
ENDBRANCH   5   8
ENDBRANCH   3   4
ENDBRANCH   2   3
ENDBRANCH   1   2
BRANCH   1  36
ATOM     36  C   UNL A   1      38.169  21.080  25.066  1.00  0.00     0.116 C 
BRANCH  36  37
ATOM     37  N   UNL A   1      38.900  19.862  25.401  1.00  0.00    -0.352 N 
ATOM     38  C   UNL A   1      40.219  19.740  25.803  1.00  0.00     0.251 C 
ATOM     39  H   UNL A   1      38.392  19.021  25.335  1.00  0.00     0.163 HD
ATOM     40  O   UNL A   1      40.819  18.688  25.644  1.00  0.00    -0.269 OA
BRANCH  38  41
ATOM     41  C   UNL A   1      40.880  20.892  26.445  1.00  0.00     0.039 A 
ATOM     42  C   UNL A   1      41.474  21.908  25.692  1.00  0.00     0.014 A 
ATOM     43  C   UNL A   1      40.900  20.942  27.837  1.00  0.00     0.014 A 
ATOM     44  C   UNL A   1      42.008  23.011  26.356  1.00  0.00     0.010 A 
ATOM     45  C   UNL A   1      41.312  22.079  28.487  1.00  0.00     0.010 A 
ATOM     46  C   UNL A   1      41.903  23.101  27.756  1.00  0.00    -0.014 A 
BRANCH  46  47
ATOM     47  C   UNL A   1      42.241  24.339  28.453  1.00  0.00     0.031 A 
ATOM     48  C   UNL A   1      41.194  25.390  28.322  1.00  0.00     0.074 A 
ATOM     49  C   UNL A   1      43.272  24.449  29.323  1.00  0.00     0.049 A 
ATOM     50  N   UNL A   1      41.262  26.478  27.629  1.00  0.00    -0.248 NA
ATOM     51  C   UNL A   1      39.847  25.115  28.852  1.00  0.00     0.031 C 
ATOM     52  C   UNL A   1      44.190  23.396  29.772  1.00  0.00     0.029 A 
ATOM     53  N   UNL A   1      43.662  25.514  30.079  1.00  0.00    -0.354 N 
ATOM     54  C   UNL A   1      40.069  27.154  27.871  1.00  0.00     0.074 A 
ATOM     55  C   UNL A   1      39.166  26.177  28.413  1.00  0.00     0.031 C 
ATOM     56  C   UNL A   1      44.857  23.810  30.873  1.00  0.00     0.029 A 
ATOM     57  C   UNL A   1      44.539  25.205  31.120  1.00  0.00     0.049 A 
ATOM     58  H   UNL A   1      43.349  26.431  29.904  1.00  0.00     0.167 HD
ATOM     59  C   UNL A   1      40.031  28.516  27.874  1.00  0.00     0.037 A 
ATOM     60  C   UNL A   1      44.955  26.032  32.118  1.00  0.00     0.037 A 
ATOM     61  C   UNL A   1      41.228  29.058  27.270  1.00  0.00     0.049 A 
ATOM     62  C   UNL A   1      44.721  27.421  31.645  1.00  0.00     0.074 A 
ATOM     63  C   UNL A   1      41.843  28.928  26.040  1.00  0.00     0.029 A 
ATOM     64  N   UNL A   1      42.187  29.555  28.122  1.00  0.00    -0.354 N 
ATOM     65  N   UNL A   1      45.368  27.962  30.649  1.00  0.00    -0.248 NA
ATOM     66  C   UNL A   1      43.440  28.034  31.961  1.00  0.00     0.031 C 
ATOM     67  C   UNL A   1      43.238  28.888  26.330  1.00  0.00     0.029 A 
ATOM     68  C   UNL A   1      43.405  29.089  27.700  1.00  0.00     0.049 A 
ATOM     69  H   UNL A   1      42.027  30.142  28.895  1.00  0.00     0.167 HD
ATOM     70  C   UNL A   1      44.401  28.657  29.938  1.00  0.00     0.074 A 
ATOM     71  C   UNL A   1      43.252  28.735  30.840  1.00  0.00     0.031 C 
ATOM     72  C   UNL A   1      44.517  28.838  28.589  1.00  0.00     0.037 A 
BRANCH  59  73
ATOM     73  C   UNL A   1      39.151  29.359  28.775  1.00  0.00     0.058 A 
ATOM     74  C   UNL A   1      38.244  30.264  28.182  1.00  0.00     0.135 A 
ATOM     75  C   UNL A   1      39.358  29.536  30.162  1.00  0.00     0.135 A 
ATOM     76  F   UNL A   1      37.963  30.192  26.870  1.00  0.00    -0.206 F 
ATOM     77  C   UNL A   1      37.664  31.318  28.888  1.00  0.00     0.059 A 
ATOM     78  C   UNL A   1      38.748  30.547  30.896  1.00  0.00     0.059 A 
ATOM     79  F   UNL A   1      40.228  28.801  30.862  1.00  0.00    -0.206 F 
ATOM     80  C   UNL A   1      37.936  31.458  30.244  1.00  0.00     0.060 A 
BRANCH  80  81
ATOM     81  S   UNL A   1      37.253  32.862  31.142  1.00  0.00     0.124 S 
ATOM     82  O   UNL A   1      38.348  33.188  32.047  1.00  0.00    -0.237 OA
ATOM     83  O   UNL A   1      37.007  33.813  30.063  1.00  0.00    -0.237 OA
ATOM     84  O   UNL A   1      36.057  32.309  31.767  1.00  0.00    -0.744 OA
ENDBRANCH  80  81
ENDBRANCH  59  73
BRANCH  60  85
ATOM     85  C   UNL A   1      45.232  25.724  33.553  1.00  0.00     0.058 A 
ATOM     86  C   UNL A   1      44.185  25.428  34.450  1.00  0.00     0.135 A 
ATOM     87  C   UNL A   1      46.530  25.411  34.003  1.00  0.00     0.135 A 
ATOM     88  F   UNL A   1      42.912  25.684  34.111  1.00  0.00    -0.206 F 
ATOM     89  C   UNL A   1      44.405  24.793  35.681  1.00  0.00     0.059 A 
ATOM     90  C   UNL A   1      46.774  24.786  35.227  1.00  0.00     0.059 A 
ATOM     91  F   UNL A   1      47.600  25.615  33.221  1.00  0.00    -0.206 F 
ATOM     92  C   UNL A   1      45.704  24.449  36.048  1.00  0.00     0.060 A 
BRANCH  92  93
ATOM     93  S   UNL A   1      45.978  23.442  37.529  1.00  0.00     0.124 S 
ATOM     94  O   UNL A   1      47.399  23.653  37.780  1.00  0.00    -0.237 OA
ATOM     95  O   UNL A   1      45.064  24.048  38.490  1.00  0.00    -0.237 OA
ATOM     96  O   UNL A   1      45.616  22.095  37.094  1.00  0.00    -0.744 OA
ENDBRANCH  92  93
ENDBRANCH  60  85
BRANCH  72  97
ATOM     97  C   UNL A   1      45.851  28.571  27.941  1.00  0.00     0.058 A 
ATOM     98  C   UNL A   1      46.277  27.326  27.444  1.00  0.00     0.135 A 
ATOM     99  C   UNL A   1      46.674  29.678  27.680  1.00  0.00     0.135 A 
ATOM    100  F   UNL A   1      45.507  26.235  27.557  1.00  0.00    -0.206 F 
ATOM    101  C   UNL A   1      47.487  27.184  26.758  1.00  0.00     0.059 A 
ATOM    102  C   UNL A   1      47.863  29.566  26.970  1.00  0.00     0.059 A 
ATOM    103  F   UNL A   1      46.294  30.904  28.075  1.00  0.00    -0.206 F 
ATOM    104  C   UNL A   1      48.274  28.312  26.526  1.00  0.00     0.060 A 
BRANCH 104 105
ATOM    105  S   UNL A   1      49.808  28.145  25.589  1.00  0.00     0.124 S 
ATOM    106  O   UNL A   1      50.433  26.992  26.229  1.00  0.00    -0.237 OA
ATOM    107  O   UNL A   1      49.327  27.931  24.227  1.00  0.00    -0.237 OA
ATOM    108  O   UNL A   1      50.483  29.422  25.809  1.00  0.00    -0.744 OA
ENDBRANCH 104 105
ENDBRANCH  72  97
ENDBRANCH  46  47
ENDBRANCH  38  41
ENDBRANCH  36  37
ENDBRANCH   1  36
TORSDOF 18
ENDMDL
MODEL 2
REMARK VINA RESULT:     -13.2      3.454      8.456
REMARK SMILES COc1ccc(-c2[nH]nc3nc(-c4ccc(C(F)(F)F)cc4)cc(C(=O)NCCCCNC(=O)c4ccc(-c5c6nc(c(-c7c(F)cc(S(=O)(=O)[O-])cc7F)c7ccc([nH]7)c(-c7c(F)cc(S(=O)(=O)[O-])cc7F)c7nc(c(-c8c(F)cc(S(=O)(=O)[O-])cc8F)c8ccc5[nH]8)C=C7)C=C6)cc4)c23)cc1
REMARK SMILES IDX 30 1 29 2 28 3 27 4 25 5 26 6 24 8 7 9 8 10 101 11 9 12
REMARK SMILES IDX 10 14 11 15 23 16 12 17 6 18 3 19 4 20 103 21 5 22 102 23
REMARK SMILES IDX 2 24 1 25 13 26 14 27 22 28 15 29 21 30 16 31 17 32 18 33
REMARK SMILES IDX 19 34 20 35 31 36 32 37 33 38 34 40 35 41 36 42 100 43 37 44
REMARK SMILES IDX 99 45 38 46 39 47 40 48 93 49 41 50 98 51 92 52 94 53 42 54
REMARK SMILES IDX 97 55 91 56 90 57 43 59 77 60 56 61 76 62 57 63 60 64 75 65
REMARK SMILES IDX 95 66 58 67 59 68 74 70 96 71 61 72 44 73 45 74 54 75 46 76
REMARK SMILES IDX 47 77 53 78 55 79 48 80 49 81 50 82 51 83 52 84 78 85 79 86
REMARK SMILES IDX 88 87 80 88 81 89 87 90 89 91 82 92 83 93 84 94 85 95 86 96
REMARK SMILES IDX 62 97 63 98 72 99 64 100 65 101 71 102 73 103 66 104 67 105
REMARK SMILES IDX 68 106 69 107 70 108
REMARK H PARENT 27 7 8 13 32 39 94 58 60 69
REMARK Flexibility Score: inf
ROOT
ATOM      1  C   UNL A   1      33.131  30.399  27.341  1.00  0.00     0.023 C 
ENDROOT
BRANCH   1   2
ATOM      2  C   UNL A   1      33.574  29.029  26.796  1.00  0.00     0.023 C 
BRANCH   2   3
ATOM      3  C   UNL A   1      32.615  28.410  25.780  1.00  0.00     0.116 C 
BRANCH   3   4
ATOM      4  N   UNL A   1      32.035  27.173  26.256  1.00  0.00    -0.352 N 
ATOM      5  C   UNL A   1      32.241  25.836  26.046  1.00  0.00     0.252 C 
ATOM      6  O   UNL A   1      31.626  25.119  26.827  1.00  0.00    -0.269 OA
ATOM      7  H   UNL A   1      31.303  27.334  26.895  1.00  0.00     0.163 HD
BRANCH   5   8
ATOM      8  C   UNL A   1      33.158  25.250  25.035  1.00  0.00     0.055 A 
ATOM      9  C   UNL A   1      31.876  25.533  22.856  1.00  0.00     0.075 A 
ATOM     10  N   UNL A   1      32.104  24.971  21.622  1.00  0.00    -0.275 N 
ATOM     11  C   UNL A   1      32.895  25.046  23.663  1.00  0.00     0.059 A 
ATOM     12  N   UNL A   1      33.230  24.248  21.525  1.00  0.00    -0.154 NA
ATOM     13  H   UNL A   1      31.486  25.090  20.864  1.00  0.00     0.190 HD
ATOM     14  C   UNL A   1      33.727  24.281  22.761  1.00  0.00     0.182 A 
ATOM     15  N   UNL A   1      34.879  23.675  23.150  1.00  0.00    -0.226 NA
ATOM     16  C   UNL A   1      34.411  24.710  25.342  1.00  0.00     0.043 A 
ATOM     17  C   UNL A   1      35.171  23.910  24.452  1.00  0.00     0.074 A 
BRANCH   9  18
ATOM     18  C   UNL A   1      30.781  26.476  23.038  1.00  0.00     0.001 A 
ATOM     19  C   UNL A   1      28.570  28.205  23.201  1.00  0.00     0.118 A 
ATOM     20  C   UNL A   1      29.759  28.626  22.600  1.00  0.00     0.047 A 
ATOM     21  C   UNL A   1      28.496  26.925  23.749  1.00  0.00     0.047 A 
ATOM     22  C   UNL A   1      30.864  27.773  22.525  1.00  0.00     0.014 A 
ATOM     23  C   UNL A   1      29.602  26.068  23.678  1.00  0.00     0.014 A 
BRANCH  19  24
ATOM     24  O   UNL A   1      27.549  29.114  23.148  1.00  0.00    -0.497 OA
ATOM     25  C   UNL A   1      27.742  30.255  22.326  1.00  0.00     0.278 C 
ENDBRANCH  19  24
ENDBRANCH   9  18
BRANCH  17  26
ATOM     26  C   UNL A   1      36.339  23.205  25.008  1.00  0.00     0.000 A 
ATOM     27  C   UNL A   1      36.630  21.878  24.676  1.00  0.00     0.011 A 
ATOM     28  C   UNL A   1      37.249  23.902  25.829  1.00  0.00     0.011 A 
ATOM     29  C   UNL A   1      37.819  21.280  25.114  1.00  0.00     0.014 A 
ATOM     30  C   UNL A   1      38.433  23.308  26.268  1.00  0.00     0.014 A 
ATOM     31  C   UNL A   1      38.737  21.992  25.904  1.00  0.00     0.056 A 
BRANCH  31  32
ATOM     32  C   UNL A   1      40.026  21.343  26.347  1.00  0.00     0.416 C 
ATOM     33  F   UNL A   1      41.105  21.795  25.650  1.00  0.00    -0.166 F 
ATOM     34  F   UNL A   1      40.303  21.583  27.659  1.00  0.00    -0.166 F 
ATOM     35  F   UNL A   1      40.033  19.988  26.209  1.00  0.00    -0.166 F 
ENDBRANCH  31  32
ENDBRANCH  17  26
ENDBRANCH   5   8
ENDBRANCH   3   4
ENDBRANCH   2   3
ENDBRANCH   1   2
BRANCH   1  36
ATOM     36  C   UNL A   1      34.260  31.405  27.570  1.00  0.00     0.116 C 
BRANCH  36  37
ATOM     37  N   UNL A   1      34.149  32.098  28.851  1.00  0.00    -0.352 N 
ATOM     38  C   UNL A   1      34.944  31.952  29.974  1.00  0.00     0.251 C 
ATOM     39  H   UNL A   1      33.417  32.753  28.925  1.00  0.00     0.163 HD
ATOM     40  O   UNL A   1      34.514  32.249  31.078  1.00  0.00    -0.269 OA
BRANCH  38  41
ATOM     41  C   UNL A   1      36.324  31.455  29.813  1.00  0.00     0.039 A 
ATOM     42  C   UNL A   1      37.422  32.316  29.869  1.00  0.00     0.014 A 
ATOM     43  C   UNL A   1      36.507  30.091  29.600  1.00  0.00     0.014 A 
ATOM     44  C   UNL A   1      38.705  31.775  29.794  1.00  0.00     0.010 A 
ATOM     45  C   UNL A   1      37.764  29.541  29.651  1.00  0.00     0.010 A 
ATOM     46  C   UNL A   1      38.869  30.380  29.708  1.00  0.00    -0.014 A 
BRANCH  46  47
ATOM     47  C   UNL A   1      40.188  29.772  29.861  1.00  0.00     0.031 A 
ATOM     48  C   UNL A   1      40.560  29.531  31.282  1.00  0.00     0.074 A 
ATOM     49  C   UNL A   1      40.898  29.258  28.829  1.00  0.00     0.049 A 
ATOM     50  N   UNL A   1      41.445  30.166  31.976  1.00  0.00    -0.248 NA
ATOM     51  C   UNL A   1      39.724  28.623  32.088  1.00  0.00     0.031 C 
ATOM     52  C   UNL A   1      40.500  29.157  27.421  1.00  0.00     0.029 A 
ATOM     53  N   UNL A   1      42.101  28.618  28.836  1.00  0.00    -0.354 N 
ATOM     54  C   UNL A   1      41.469  29.542  33.220  1.00  0.00     0.074 A 
ATOM     55  C   UNL A   1      40.248  28.787  33.305  1.00  0.00     0.031 C 
ATOM     56  C   UNL A   1      41.321  28.300  26.774  1.00  0.00     0.029 A 
ATOM     57  C   UNL A   1      42.395  27.911  27.669  1.00  0.00     0.049 A 
ATOM     58  H   UNL A   1      42.714  28.650  29.606  1.00  0.00     0.167 HD
ATOM     59  C   UNL A   1      42.624  29.472  33.941  1.00  0.00     0.037 A 
ATOM     60  C   UNL A   1      43.436  27.057  27.465  1.00  0.00     0.037 A 
ATOM     61  C   UNL A   1      43.606  30.393  33.414  1.00  0.00     0.049 A 
ATOM     62  C   UNL A   1      44.459  27.379  28.494  1.00  0.00     0.074 A 
ATOM     63  C   UNL A   1      43.645  31.757  33.198  1.00  0.00     0.029 A 
ATOM     64  N   UNL A   1      44.612  29.859  32.643  1.00  0.00    -0.354 N 
ATOM     65  N   UNL A   1      45.120  28.503  28.526  1.00  0.00    -0.248 NA
ATOM     66  C   UNL A   1      44.393  26.658  29.756  1.00  0.00     0.031 C 
ATOM     67  C   UNL A   1      44.335  31.913  31.961  1.00  0.00     0.029 A 
ATOM     68  C   UNL A   1      44.759  30.654  31.536  1.00  0.00     0.049 A 
ATOM     69  H   UNL A   1      45.133  29.051  32.849  1.00  0.00     0.167 HD
ATOM     70  C   UNL A   1      45.154  28.852  29.868  1.00  0.00     0.074 A 
ATOM     71  C   UNL A   1      44.766  27.637  30.585  1.00  0.00     0.031 C 
ATOM     72  C   UNL A   1      45.201  30.163  30.251  1.00  0.00     0.037 A 
BRANCH  59  73
ATOM     73  C   UNL A   1      43.026  28.310  34.827  1.00  0.00     0.058 A 
ATOM     74  C   UNL A   1      43.427  28.577  36.154  1.00  0.00     0.135 A 
ATOM     75  C   UNL A   1      43.319  27.009  34.359  1.00  0.00     0.135 A 
ATOM     76  F   UNL A   1      43.199  29.779  36.710  1.00  0.00    -0.206 F 
ATOM     77  C   UNL A   1      44.145  27.659  36.921  1.00  0.00     0.059 A 
ATOM     78  C   UNL A   1      43.986  26.061  35.127  1.00  0.00     0.059 A 
ATOM     79  F   UNL A   1      43.059  26.615  33.109  1.00  0.00    -0.206 F 
ATOM     80  C   UNL A   1      44.431  26.407  36.391  1.00  0.00     0.060 A 
BRANCH  80  81
ATOM     81  S   UNL A   1      45.425  25.249  37.346  1.00  0.00     0.124 S 
ATOM     82  O   UNL A   1      46.671  25.991  37.497  1.00  0.00    -0.237 OA
ATOM     83  O   UNL A   1      44.621  25.092  38.553  1.00  0.00    -0.237 OA
ATOM     84  O   UNL A   1      45.488  24.073  36.484  1.00  0.00    -0.744 OA
ENDBRANCH  80  81
ENDBRANCH  59  73
BRANCH  60  85
ATOM     85  C   UNL A   1      43.484  25.791  26.674  1.00  0.00     0.058 A 
ATOM     86  C   UNL A   1      44.271  25.689  25.509  1.00  0.00     0.135 A 
ATOM     87  C   UNL A   1      43.012  24.573  27.202  1.00  0.00     0.135 A 
ATOM     88  F   UNL A   1      44.771  26.793  24.932  1.00  0.00    -0.206 F 
ATOM     89  C   UNL A   1      44.631  24.455  24.948  1.00  0.00     0.059 A 
ATOM     90  C   UNL A   1      43.350  23.333  26.657  1.00  0.00     0.059 A 
ATOM     91  F   UNL A   1      42.284  24.544  28.328  1.00  0.00    -0.206 F 
ATOM     92  C   UNL A   1      44.188  23.279  25.549  1.00  0.00     0.060 A 
BRANCH  92  93
ATOM     93  S   UNL A   1      44.817  21.684  24.965  1.00  0.00     0.124 S 
ATOM     94  O   UNL A   1      46.215  21.741  25.374  1.00  0.00    -0.237 OA
ATOM     95  O   UNL A   1      43.979  20.735  25.690  1.00  0.00    -0.237 OA
ATOM     96  O   UNL A   1      44.586  21.736  23.523  1.00  0.00    -0.744 OA
ENDBRANCH  92  93
ENDBRANCH  60  85
BRANCH  72  97
ATOM     97  C   UNL A   1      45.549  31.201  29.215  1.00  0.00     0.058 A 
ATOM     98  C   UNL A   1      44.624  31.861  28.385  1.00  0.00     0.135 A 
ATOM     99  C   UNL A   1      46.878  31.652  29.176  1.00  0.00     0.135 A 
ATOM    100  F   UNL A   1      43.318  31.566  28.432  1.00  0.00    -0.206 F 
ATOM    101  C   UNL A   1      45.015  32.890  27.524  1.00  0.00     0.059 A 
ATOM    102  C   UNL A   1      47.281  32.697  28.354  1.00  0.00     0.059 A 
ATOM    103  F   UNL A   1      47.797  31.104  29.988  1.00  0.00    -0.206 F 
ATOM    104  C   UNL A   1      46.348  33.302  27.517  1.00  0.00     0.060 A 
BRANCH 104 105
ATOM    105  S   UNL A   1      46.846  34.672  26.451  1.00  0.00     0.124 S 
ATOM    106  O   UNL A   1      46.481  34.178  25.127  1.00  0.00    -0.237 OA
ATOM    107  O   UNL A   1      46.042  35.779  26.959  1.00  0.00    -0.237 OA
ATOM    108  O   UNL A   1      48.282  34.791  26.698  1.00  0.00    -0.744 OA
ENDBRANCH 104 105
ENDBRANCH  72  97
ENDBRANCH  46  47
ENDBRANCH  38  41
ENDBRANCH  36  37
ENDBRANCH   1  36
TORSDOF 18
ENDMDL
MODEL 3
REMARK VINA RESULT:     -13.0      3.350      7.720
REMARK SMILES COc1ccc(-c2[nH]nc3nc(-c4ccc(C(F)(F)F)cc4)cc(C(=O)NCCCCNC(=O)c4ccc(-c5c6nc(c(-c7c(F)cc(S(=O)(=O)[O-])cc7F)c7ccc([nH]7)c(-c7c(F)cc(S(=O)(=O)[O-])cc7F)c7nc(c(-c8c(F)cc(S(=O)(=O)[O-])cc8F)c8ccc5[nH]8)C=C7)C=C6)cc4)c23)cc1
REMARK SMILES IDX 30 1 29 2 28 3 27 4 25 5 26 6 24 8 7 9 8 10 101 11 9 12
REMARK SMILES IDX 10 14 11 15 23 16 12 17 6 18 3 19 4 20 103 21 5 22 102 23
REMARK SMILES IDX 2 24 1 25 13 26 14 27 22 28 15 29 21 30 16 31 17 32 18 33
REMARK SMILES IDX 19 34 20 35 31 36 32 37 33 38 34 40 35 41 36 42 100 43 37 44
REMARK SMILES IDX 99 45 38 46 39 47 40 48 93 49 41 50 98 51 92 52 94 53 42 54
REMARK SMILES IDX 97 55 91 56 90 57 43 59 77 60 56 61 76 62 57 63 60 64 75 65
REMARK SMILES IDX 95 66 58 67 59 68 74 70 96 71 61 72 44 73 45 74 54 75 46 76
REMARK SMILES IDX 47 77 53 78 55 79 48 80 49 81 50 82 51 83 52 84 78 85 79 86
REMARK SMILES IDX 88 87 80 88 81 89 87 90 89 91 82 92 83 93 84 94 85 95 86 96
REMARK SMILES IDX 62 97 63 98 72 99 64 100 65 101 71 102 73 103 66 104 67 105
REMARK SMILES IDX 68 106 69 107 70 108
REMARK H PARENT 27 7 8 13 32 39 94 58 60 69
REMARK Flexibility Score: inf
ROOT
ATOM      1  C   UNL A   1      37.147  23.368  24.747  1.00  0.00     0.023 C 
ENDROOT
BRANCH   1   2
ATOM      2  C   UNL A   1      36.276  22.255  24.136  1.00  0.00     0.023 C 
BRANCH   2   3
ATOM      3  C   UNL A   1      36.344  20.919  24.874  1.00  0.00     0.116 C 
BRANCH   3   4
ATOM      4  N   UNL A   1      35.463  20.880  26.021  1.00  0.00    -0.352 N 
ATOM      5  C   UNL A   1      34.162  21.220  26.284  1.00  0.00     0.252 C 
ATOM      6  O   UNL A   1      33.768  20.826  27.376  1.00  0.00    -0.269 OA
ATOM      7  H   UNL A   1      35.914  20.517  26.817  1.00  0.00     0.163 HD
BRANCH   5   8
ATOM      8  C   UNL A   1      33.249  21.932  25.355  1.00  0.00     0.055 A 
ATOM      9  C   UNL A   1      32.650  20.146  23.646  1.00  0.00     0.075 A 
ATOM     10  N   UNL A   1      32.039  20.269  22.420  1.00  0.00    -0.275 N 
ATOM     11  C   UNL A   1      32.702  21.438  24.151  1.00  0.00     0.059 A 
ATOM     12  N   UNL A   1      31.598  21.502  22.127  1.00  0.00    -0.154 NA
ATOM     13  H   UNL A   1      31.933  19.510  21.803  1.00  0.00     0.190 HD
ATOM     14  C   UNL A   1      31.994  22.231  23.171  1.00  0.00     0.182 A 
ATOM     15  N   UNL A   1      31.769  23.561  23.318  1.00  0.00    -0.226 NA
ATOM     16  C   UNL A   1      32.878  23.272  25.505  1.00  0.00     0.043 A 
ATOM     17  C   UNL A   1      32.240  24.037  24.496  1.00  0.00     0.074 A 
BRANCH   9  18
ATOM     18  C   UNL A   1      33.016  18.828  24.149  1.00  0.00     0.001 A 
ATOM     19  C   UNL A   1      33.573  16.197  24.970  1.00  0.00     0.118 A 
ATOM     20  C   UNL A   1      32.667  16.987  25.680  1.00  0.00     0.047 A 
ATOM     21  C   UNL A   1      34.226  16.736  23.861  1.00  0.00     0.047 A 
ATOM     22  C   UNL A   1      32.394  18.299  25.282  1.00  0.00     0.014 A 
ATOM     23  C   UNL A   1      33.958  18.050  23.460  1.00  0.00     0.014 A 
BRANCH  19  24
ATOM     24  O   UNL A   1      33.697  14.915  25.429  1.00  0.00    -0.497 OA
ATOM     25  C   UNL A   1      32.498  14.205  25.693  1.00  0.00     0.278 C 
ENDBRANCH  19  24
ENDBRANCH   9  18
BRANCH  17  26
ATOM     26  C   UNL A   1      32.152  25.493  24.707  1.00  0.00     0.000 A 
ATOM     27  C   UNL A   1      31.075  26.246  24.230  1.00  0.00     0.011 A 
ATOM     28  C   UNL A   1      33.127  26.144  25.489  1.00  0.00     0.011 A 
ATOM     29  C   UNL A   1      30.953  27.602  24.563  1.00  0.00     0.014 A 
ATOM     30  C   UNL A   1      33.009  27.495  25.821  1.00  0.00     0.014 A 
ATOM     31  C   UNL A   1      31.912  28.236  25.371  1.00  0.00     0.056 A 
BRANCH  31  32
ATOM     32  C   UNL A   1      31.753  29.690  25.742  1.00  0.00     0.416 C 
ATOM     33  F   UNL A   1      30.776  30.309  25.023  1.00  0.00    -0.166 F 
ATOM     34  F   UNL A   1      31.413  29.857  27.051  1.00  0.00    -0.166 F 
ATOM     35  F   UNL A   1      32.880  30.431  25.555  1.00  0.00    -0.166 F 
ENDBRANCH  31  32
ENDBRANCH  17  26
ENDBRANCH   5   8
ENDBRANCH   3   4
ENDBRANCH   2   3
ENDBRANCH   1   2
BRANCH   1  36
ATOM     36  C   UNL A   1      37.590  23.130  26.191  1.00  0.00     0.116 C 
BRANCH  36  37
ATOM     37  N   UNL A   1      38.760  22.261  26.288  1.00  0.00    -0.352 N 
ATOM     38  C   UNL A   1      40.092  22.627  26.368  1.00  0.00     0.251 C 
ATOM     39  H   UNL A   1      38.578  21.294  26.300  1.00  0.00     0.163 HD
ATOM     40  O   UNL A   1      40.968  21.849  26.023  1.00  0.00    -0.269 OA
BRANCH  38  41
ATOM     41  C   UNL A   1      40.437  23.961  26.896  1.00  0.00     0.039 A 
ATOM     42  C   UNL A   1      39.918  25.128  26.331  1.00  0.00     0.014 A 
ATOM     43  C   UNL A   1      41.305  24.029  27.983  1.00  0.00     0.014 A 
ATOM     44  C   UNL A   1      40.214  26.352  26.928  1.00  0.00     0.010 A 
ATOM     45  C   UNL A   1      41.498  25.216  28.646  1.00  0.00     0.010 A 
ATOM     46  C   UNL A   1      40.989  26.387  28.101  1.00  0.00    -0.014 A 
BRANCH  46  47
ATOM     47  C   UNL A   1      41.121  27.620  28.873  1.00  0.00     0.031 A 
ATOM     48  C   UNL A   1      42.192  28.519  28.360  1.00  0.00     0.074 A 
ATOM     49  C   UNL A   1      40.222  28.021  29.802  1.00  0.00     0.049 A 
ATOM     50  N   UNL A   1      43.332  28.771  28.912  1.00  0.00    -0.248 NA
ATOM     51  C   UNL A   1      42.075  29.045  26.989  1.00  0.00     0.031 C 
ATOM     52  C   UNL A   1      38.962  27.371  30.177  1.00  0.00     0.029 A 
ATOM     53  N   UNL A   1      40.191  29.161  30.546  1.00  0.00    -0.354 N 
ATOM     54  C   UNL A   1      43.951  29.707  28.089  1.00  0.00     0.074 A 
ATOM     55  C   UNL A   1      43.257  29.647  26.832  1.00  0.00     0.031 C 
ATOM     56  C   UNL A   1      38.196  28.231  30.884  1.00  0.00     0.029 A 
ATOM     57  C   UNL A   1      38.964  29.434  31.152  1.00  0.00     0.049 A 
ATOM     58  H   UNL A   1      40.975  29.749  30.648  1.00  0.00     0.167 HD
ATOM     59  C   UNL A   1      44.786  30.648  28.614  1.00  0.00     0.037 A 
ATOM     60  C   UNL A   1      38.604  30.572  31.807  1.00  0.00     0.037 A 
ATOM     61  C   UNL A   1      45.166  30.293  29.962  1.00  0.00     0.049 A 
ATOM     62  C   UNL A   1      39.865  31.257  32.194  1.00  0.00     0.074 A 
ATOM     63  C   UNL A   1      45.783  29.203  30.546  1.00  0.00     0.029 A 
ATOM     64  N   UNL A   1      44.538  30.964  30.985  1.00  0.00    -0.354 N 
ATOM     65  N   UNL A   1      40.707  30.776  33.067  1.00  0.00    -0.248 NA
ATOM     66  C   UNL A   1      40.419  32.224  31.261  1.00  0.00     0.031 C 
ATOM     67  C   UNL A   1      45.098  29.011  31.780  1.00  0.00     0.029 A 
ATOM     68  C   UNL A   1      44.169  30.041  31.928  1.00  0.00     0.049 A 
ATOM     69  H   UNL A   1      44.382  31.935  31.032  1.00  0.00     0.167 HD
ATOM     70  C   UNL A   1      41.958  31.017  32.517  1.00  0.00     0.074 A 
ATOM     71  C   UNL A   1      41.720  31.986  31.447  1.00  0.00     0.031 C 
ATOM     72  C   UNL A   1      43.011  30.188  32.782  1.00  0.00     0.037 A 
BRANCH  59  73
ATOM     73  C   UNL A   1      44.926  32.068  28.102  1.00  0.00     0.058 A 
ATOM     74  C   UNL A   1      46.195  32.511  27.669  1.00  0.00     0.135 A 
ATOM     75  C   UNL A   1      43.964  33.087  28.291  1.00  0.00     0.135 A 
ATOM     76  F   UNL A   1      47.189  31.634  27.451  1.00  0.00    -0.206 F 
ATOM     77  C   UNL A   1      46.511  33.862  27.528  1.00  0.00     0.059 A 
ATOM     78  C   UNL A   1      44.244  34.436  28.103  1.00  0.00     0.059 A 
ATOM     79  F   UNL A   1      42.734  32.843  28.753  1.00  0.00    -0.206 F 
ATOM     80  C   UNL A   1      45.530  34.818  27.762  1.00  0.00     0.060 A 
BRANCH  80  81
ATOM     81  S   UNL A   1      45.954  36.564  27.658  1.00  0.00     0.124 S 
ATOM     82  O   UNL A   1      44.638  37.176  27.529  1.00  0.00    -0.237 OA
ATOM     83  O   UNL A   1      46.641  36.779  28.927  1.00  0.00    -0.237 OA
ATOM     84  O   UNL A   1      46.803  36.632  26.472  1.00  0.00    -0.744 OA
ENDBRANCH  80  81
ENDBRANCH  59  73
BRANCH  60  85
ATOM     85  C   UNL A   1      37.284  31.270  31.842  1.00  0.00     0.058 A 
ATOM     86  C   UNL A   1      36.717  31.696  33.061  1.00  0.00     0.135 A 
ATOM     87  C   UNL A   1      36.702  31.805  30.676  1.00  0.00     0.135 A 
ATOM     88  F   UNL A   1      37.206  31.247  34.227  1.00  0.00    -0.206 F 
ATOM     89  C   UNL A   1      35.690  32.649  33.121  1.00  0.00     0.059 A 
ATOM     90  C   UNL A   1      35.673  32.749  30.711  1.00  0.00     0.059 A 
ATOM     91  F   UNL A   1      37.181  31.499  29.462  1.00  0.00    -0.206 F 
ATOM     92  C   UNL A   1      35.194  33.192  31.938  1.00  0.00     0.060 A 
BRANCH  92  93
ATOM     93  S   UNL A   1      34.024  34.573  32.009  1.00  0.00     0.124 S 
ATOM     94  O   UNL A   1      33.015  34.069  32.934  1.00  0.00    -0.237 OA
ATOM     95  O   UNL A   1      34.857  35.662  32.506  1.00  0.00    -0.237 OA
ATOM     96  O   UNL A   1      33.582  34.714  30.623  1.00  0.00    -0.744 OA
ENDBRANCH  92  93
ENDBRANCH  60  85
BRANCH  72  97
ATOM     97  C   UNL A   1      42.890  29.215  33.926  1.00  0.00     0.058 A 
ATOM     98  C   UNL A   1      43.092  29.529  35.283  1.00  0.00     0.135 A 
ATOM     99  C   UNL A   1      42.396  27.934  33.634  1.00  0.00     0.135 A 
ATOM    100  F   UNL A   1      43.463  30.759  35.661  1.00  0.00    -0.206 F 
ATOM    101  C   UNL A   1      42.854  28.595  36.295  1.00  0.00     0.059 A 
ATOM    102  C   UNL A   1      42.119  27.002  34.627  1.00  0.00     0.059 A 
ATOM    103  F   UNL A   1      42.125  27.593  32.363  1.00  0.00    -0.206 F 
ATOM    104  C   UNL A   1      42.367  27.333  35.957  1.00  0.00     0.060 A 
BRANCH 104 105
ATOM    105  S   UNL A   1      42.002  26.143  37.265  1.00  0.00     0.124 S 
ATOM    106  O   UNL A   1      43.062  26.414  38.230  1.00  0.00    -0.237 OA
ATOM    107  O   UNL A   1      40.655  26.527  37.677  1.00  0.00    -0.237 OA
ATOM    108  O   UNL A   1      42.091  24.852  36.586  1.00  0.00    -0.744 OA
ENDBRANCH 104 105
ENDBRANCH  72  97
ENDBRANCH  46  47
ENDBRANCH  38  41
ENDBRANCH  36  37
ENDBRANCH   1  36
TORSDOF 18
ENDMDL
