MODEL 1
REMARK VINA RESULT:     -10.9      0.000      0.000
REMARK SMILES CC[N@@H+](C)CCNC(=O)N1CCC(CC(=O)NCCCCNC(=O)c2ccc(-c3c4nc(c(-c5c(F)cc(S(=O)(=O)[O-])cc5F)c5ccc([nH]5)c(-c5c(F)cc(S(=O)(=O)[O-])cc5F)c5nc(c(-c6c(F)cc(S(=O)(=O)[O-])cc6F)c6ccc3[nH]6)C=C5)C=C4)cc2)CC1
REMARK SMILES IDX 18 1 17 2 15 3 16 4 14 6 13 7 7 8 8 9 9 11 10 12 11 13 92 14
REMARK SMILES IDX 12 15 91 16 6 17 5 18 3 19 4 20 2 22 1 23 19 24 20 25 21 26
REMARK SMILES IDX 22 27 23 28 24 30 25 31 26 32 90 33 27 34 89 35 28 36 29 37
REMARK SMILES IDX 30 38 83 39 31 40 88 41 82 42 84 43 32 44 87 45 81 46 80 47
REMARK SMILES IDX 33 49 67 50 46 51 66 52 47 53 50 54 65 55 85 56 48 57 49 58
REMARK SMILES IDX 64 60 86 61 51 62 34 63 35 64 44 65 36 66 37 67 43 68 45 69
REMARK SMILES IDX 38 70 39 71 40 72 41 73 42 74 68 75 69 76 78 77 70 78 71 79
REMARK SMILES IDX 77 80 79 81 72 82 73 83 74 84 75 85 76 86 52 87 53 88 62 89
REMARK SMILES IDX 54 90 55 91 61 92 63 93 56 94 57 95 58 96 59 97 60 98
REMARK H PARENT 17 5 7 10 3 21 22 29 84 48 50 59
REMARK Flexibility Score: inf
ROOT
ATOM      1  C   UNL A   1      31.272  30.010  24.919  1.00  0.00     0.116 C 
ENDROOT
BRANCH   1   2
ATOM      2  N   UNL A   1      30.812  29.662  23.583  1.00  0.00    -0.356 N 
ATOM      3  C   UNL A   1      30.278  28.501  23.104  1.00  0.00     0.220 C 
ATOM      4  O   UNL A   1      29.990  28.436  21.906  1.00  0.00    -0.275 OA
ATOM      5  H   UNL A   1      30.901  30.381  22.916  1.00  0.00     0.163 HD
BRANCH   3   6
ATOM      6  C   UNL A   1      30.057  27.302  24.014  1.00  0.00     0.103 C 
BRANCH   6   7
ATOM      7  C   UNL A   1      30.585  25.977  23.423  1.00  0.00     0.002 C 
ATOM      8  N   UNL A   1      33.263  22.108  25.202  1.00  0.00    -0.332 N 
ATOM      9  C   UNL A   1      33.266  23.407  24.798  1.00  0.00     0.317 C 
ATOM     10  H   UNL A   1      33.467  21.923  26.147  1.00  0.00     0.165 HD
ATOM     11  O   UNL A   1      34.048  24.202  25.313  1.00  0.00    -0.249 OA
ATOM     12  N   UNL A   1      32.404  23.731  23.780  1.00  0.00    -0.325 N 
ATOM     13  C   UNL A   1      32.776  24.757  22.835  1.00  0.00     0.121 C 
ATOM     14  C   UNL A   1      30.969  23.507  23.910  1.00  0.00     0.121 C 
ATOM     15  C   UNL A   1      32.088  26.066  23.160  1.00  0.00     0.026 C 
ATOM     16  C   UNL A   1      30.268  24.795  24.357  1.00  0.00     0.026 C 
BRANCH   8  17
ATOM     17  C   UNL A   1      32.983  20.972  24.341  1.00  0.00     0.179 C 
BRANCH  17  18
ATOM     18  C   UNL A   1      32.770  19.655  25.125  1.00  0.00     0.283 C 
BRANCH  18  19
ATOM     19  N   UNL A   1      32.979  18.371  24.431  1.00  0.00    -0.336 N 
ATOM     20  C   UNL A   1      32.452  18.386  23.069  1.00  0.00     0.332 C 
ATOM     21  H   UNL A   1      33.996  18.296  24.399  1.00  0.00     0.347 HD
BRANCH  19  22
ATOM     22  C   UNL A   1      32.545  17.167  25.146  1.00  0.00     0.258 C 
ATOM     23  C   UNL A   1      33.616  16.091  25.289  1.00  0.00     0.071 C 
ENDBRANCH  19  22
ENDBRANCH  18  19
ENDBRANCH  17  18
ENDBRANCH   8  17
ENDBRANCH   6   7
ENDBRANCH   3   6
ENDBRANCH   1   2
BRANCH   1  24
ATOM     24  C   UNL A   1      32.691  29.501  25.194  1.00  0.00     0.023 C 
BRANCH  24  25
ATOM     25  C   UNL A   1      32.788  28.279  26.087  1.00  0.00     0.023 C 
BRANCH  25  26
ATOM     26  C   UNL A   1      33.518  28.526  27.390  1.00  0.00     0.116 C 
BRANCH  26  27
ATOM     27  N   UNL A   1      33.497  29.923  27.814  1.00  0.00    -0.352 N 
ATOM     28  C   UNL A   1      34.526  30.670  28.343  1.00  0.00     0.251 C 
ATOM     29  H   UNL A   1      32.637  30.390  27.707  1.00  0.00     0.163 HD
ATOM     30  O   UNL A   1      34.336  31.810  28.741  1.00  0.00    -0.269 OA
BRANCH  28  31
ATOM     31  C   UNL A   1      35.855  30.038  28.464  1.00  0.00     0.039 A 
ATOM     32  C   UNL A   1      36.731  30.086  27.379  1.00  0.00     0.014 A 
ATOM     33  C   UNL A   1      36.263  29.509  29.689  1.00  0.00     0.014 A 
ATOM     34  C   UNL A   1      38.055  29.679  27.554  1.00  0.00     0.010 A 
ATOM     35  C   UNL A   1      37.602  29.214  29.890  1.00  0.00     0.010 A 
ATOM     36  C   UNL A   1      38.511  29.287  28.823  1.00  0.00    -0.014 A 
BRANCH  36  37
ATOM     37  C   UNL A   1      39.927  28.918  29.066  1.00  0.00     0.031 A 
ATOM     38  C   UNL A   1      40.869  29.951  29.626  1.00  0.00     0.074 A 
ATOM     39  C   UNL A   1      40.382  27.703  28.696  1.00  0.00     0.049 A 
ATOM     40  N   UNL A   1      42.162  29.882  29.796  1.00  0.00    -0.248 NA
ATOM     41  C   UNL A   1      40.286  31.250  30.002  1.00  0.00     0.031 C 
ATOM     42  C   UNL A   1      39.579  26.645  28.074  1.00  0.00     0.029 A 
ATOM     43  N   UNL A   1      41.638  27.157  28.774  1.00  0.00    -0.354 N 
ATOM     44  C   UNL A   1      42.549  31.136  30.252  1.00  0.00     0.074 A 
ATOM     45  C   UNL A   1      41.364  31.962  30.287  1.00  0.00     0.031 C 
ATOM     46  C   UNL A   1      40.357  25.572  27.856  1.00  0.00     0.029 A 
ATOM     47  C   UNL A   1      41.718  25.874  28.286  1.00  0.00     0.049 A 
ATOM     48  H   UNL A   1      42.411  27.640  29.148  1.00  0.00     0.167 HD
ATOM     49  C   UNL A   1      43.777  31.552  30.637  1.00  0.00     0.037 A 
ATOM     50  C   UNL A   1      42.773  25.041  28.192  1.00  0.00     0.037 A 
ATOM     51  C   UNL A   1      44.932  30.699  30.678  1.00  0.00     0.049 A 
ATOM     52  C   UNL A   1      44.115  25.510  28.687  1.00  0.00     0.074 A 
ATOM     53  C   UNL A   1      46.197  30.987  31.159  1.00  0.00     0.029 A 
ATOM     54  N   UNL A   1      44.958  29.385  30.234  1.00  0.00    -0.354 N 
ATOM     55  N   UNL A   1      44.445  26.674  29.197  1.00  0.00    -0.248 NA
ATOM     56  C   UNL A   1      45.228  24.555  28.599  1.00  0.00     0.031 C 
ATOM     57  C   UNL A   1      46.998  29.856  30.976  1.00  0.00     0.029 A 
ATOM     58  C   UNL A   1      46.222  28.853  30.415  1.00  0.00     0.049 A 
ATOM     59  H   UNL A   1      44.192  28.904  29.847  1.00  0.00     0.167 HD
ATOM     60  C   UNL A   1      45.794  26.578  29.520  1.00  0.00     0.074 A 
ATOM     61  C   UNL A   1      46.217  25.242  29.156  1.00  0.00     0.031 C 
ATOM     62  C   UNL A   1      46.610  27.511  30.067  1.00  0.00     0.037 A 
BRANCH  49  63
ATOM     63  C   UNL A   1      43.932  32.984  31.064  1.00  0.00     0.058 A 
ATOM     64  C   UNL A   1      43.809  33.370  32.408  1.00  0.00     0.135 A 
ATOM     65  C   UNL A   1      44.253  33.976  30.123  1.00  0.00     0.135 A 
ATOM     66  F   UNL A   1      43.482  32.467  33.345  1.00  0.00    -0.206 F 
ATOM     67  C   UNL A   1      43.979  34.694  32.802  1.00  0.00     0.059 A 
ATOM     68  C   UNL A   1      44.454  35.300  30.499  1.00  0.00     0.059 A 
ATOM     69  F   UNL A   1      44.376  33.660  28.824  1.00  0.00    -0.206 F 
ATOM     70  C   UNL A   1      44.305  35.651  31.839  1.00  0.00     0.060 A 
BRANCH  70  71
ATOM     71  S   UNL A   1      44.553  37.357  32.372  1.00  0.00     0.124 S 
ATOM     72  O   UNL A   1      43.452  37.530  33.314  1.00  0.00    -0.237 OA
ATOM     73  O   UNL A   1      45.888  37.312  32.959  1.00  0.00    -0.237 OA
ATOM     74  O   UNL A   1      44.442  38.120  31.131  1.00  0.00    -0.744 OA
ENDBRANCH  70  71
ENDBRANCH  49  63
BRANCH  50  75
ATOM     75  C   UNL A   1      42.607  23.671  27.637  1.00  0.00     0.058 A 
ATOM     76  C   UNL A   1      42.383  22.576  28.486  1.00  0.00     0.135 A 
ATOM     77  C   UNL A   1      42.688  23.422  26.259  1.00  0.00     0.135 A 
ATOM     78  F   UNL A   1      42.299  22.762  29.813  1.00  0.00    -0.206 F 
ATOM     79  C   UNL A   1      42.278  21.279  27.993  1.00  0.00     0.059 A 
ATOM     80  C   UNL A   1      42.564  22.137  25.740  1.00  0.00     0.059 A 
ATOM     81  F   UNL A   1      42.881  24.438  25.403  1.00  0.00    -0.206 F 
ATOM     82  C   UNL A   1      42.375  21.069  26.617  1.00  0.00     0.060 A 
BRANCH  82  83
ATOM     83  S   UNL A   1      42.225  19.385  25.983  1.00  0.00     0.124 S 
ATOM     84  O   UNL A   1      43.057  19.448  24.786  1.00  0.00    -0.237 OA
ATOM     85  O   UNL A   1      42.752  18.589  27.086  1.00  0.00    -0.237 OA
ATOM     86  O   UNL A   1      40.790  19.243  25.748  1.00  0.00    -0.744 OA
ENDBRANCH  82  83
ENDBRANCH  50  75
BRANCH  62  87
ATOM     87  C   UNL A   1      48.029  27.109  30.347  1.00  0.00     0.058 A 
ATOM     88  C   UNL A   1      49.075  27.453  29.479  1.00  0.00     0.135 A 
ATOM     89  C   UNL A   1      48.351  26.430  31.534  1.00  0.00     0.135 A 
ATOM     90  F   UNL A   1      48.817  28.097  28.330  1.00  0.00    -0.206 F 
ATOM     91  C   UNL A   1      50.395  27.121  29.769  1.00  0.00     0.059 A 
ATOM     92  C   UNL A   1      49.665  26.111  31.856  1.00  0.00     0.059 A 
ATOM     93  F   UNL A   1      47.385  26.090  32.402  1.00  0.00    -0.206 F 
ATOM     94  C   UNL A   1      50.680  26.453  30.962  1.00  0.00     0.060 A 
BRANCH  94  95
ATOM     95  S   UNL A   1      52.399  26.068  31.351  1.00  0.00     0.124 S 
ATOM     96  O   UNL A   1      52.758  27.181  32.225  1.00  0.00    -0.237 OA
ATOM     97  O   UNL A   1      52.291  24.764  31.999  1.00  0.00    -0.237 OA
ATOM     98  O   UNL A   1      53.049  26.059  30.045  1.00  0.00    -0.744 OA
ENDBRANCH  94  95
ENDBRANCH  62  87
ENDBRANCH  36  37
ENDBRANCH  28  31
ENDBRANCH  26  27
ENDBRANCH  25  26
ENDBRANCH  24  25
ENDBRANCH   1  24
TORSDOF 19
ENDMDL
MODEL 2
REMARK VINA RESULT:     -10.6      1.450      2.396
REMARK SMILES CC[N@@H+](C)CCNC(=O)N1CCC(CC(=O)NCCCCNC(=O)c2ccc(-c3c4nc(c(-c5c(F)cc(S(=O)(=O)[O-])cc5F)c5ccc([nH]5)c(-c5c(F)cc(S(=O)(=O)[O-])cc5F)c5nc(c(-c6c(F)cc(S(=O)(=O)[O-])cc6F)c6ccc3[nH]6)C=C5)C=C4)cc2)CC1
REMARK SMILES IDX 18 1 17 2 15 3 16 4 14 6 13 7 7 8 8 9 9 11 10 12 11 13 92 14
REMARK SMILES IDX 12 15 91 16 6 17 5 18 3 19 4 20 2 22 1 23 19 24 20 25 21 26
REMARK SMILES IDX 22 27 23 28 24 30 25 31 26 32 90 33 27 34 89 35 28 36 29 37
REMARK SMILES IDX 30 38 83 39 31 40 88 41 82 42 84 43 32 44 87 45 81 46 80 47
REMARK SMILES IDX 33 49 67 50 46 51 66 52 47 53 50 54 65 55 85 56 48 57 49 58
REMARK SMILES IDX 64 60 86 61 51 62 34 63 35 64 44 65 36 66 37 67 43 68 45 69
REMARK SMILES IDX 38 70 39 71 40 72 41 73 42 74 68 75 69 76 78 77 70 78 71 79
REMARK SMILES IDX 77 80 79 81 72 82 73 83 74 84 75 85 76 86 52 87 53 88 62 89
REMARK SMILES IDX 54 90 55 91 61 92 63 93 56 94 57 95 58 96 59 97 60 98
REMARK H PARENT 17 5 7 10 3 21 22 29 84 48 50 59
REMARK Flexibility Score: inf
ROOT
ATOM      1  C   UNL A   1      30.708  29.874  24.991  1.00  0.00     0.116 C 
ENDROOT
BRANCH   1   2
ATOM      2  N   UNL A   1      30.455  30.093  23.574  1.00  0.00    -0.356 N 
ATOM      3  C   UNL A   1      30.115  29.214  22.587  1.00  0.00     0.220 C 
ATOM      4  O   UNL A   1      29.984  29.641  21.438  1.00  0.00    -0.275 OA
ATOM      5  H   UNL A   1      30.545  31.029  23.280  1.00  0.00     0.163 HD
BRANCH   3   6
ATOM      6  C   UNL A   1      29.919  27.735  22.885  1.00  0.00     0.103 C 
BRANCH   6   7
ATOM      7  C   UNL A   1      31.072  26.847  22.368  1.00  0.00     0.002 C 
ATOM      8  N   UNL A   1      34.535  23.905  24.526  1.00  0.00    -0.332 N 
ATOM      9  C   UNL A   1      34.114  25.174  24.273  1.00  0.00     0.317 C 
ATOM     10  H   UNL A   1      34.546  23.606  25.464  1.00  0.00     0.165 HD
ATOM     11  O   UNL A   1      34.345  26.064  25.087  1.00  0.00    -0.249 OA
ATOM     12  N   UNL A   1      33.488  25.379  23.069  1.00  0.00    -0.325 N 
ATOM     13  C   UNL A   1      33.640  26.648  22.398  1.00  0.00     0.121 C 
ATOM     14  C   UNL A   1      32.286  24.635  22.709  1.00  0.00     0.121 C 
ATOM     15  C   UNL A   1      32.422  27.522  22.611  1.00  0.00     0.026 C 
ATOM     16  C   UNL A   1      31.034  25.459  23.032  1.00  0.00     0.026 C 
BRANCH   8  17
ATOM     17  C   UNL A   1      34.972  22.958  23.515  1.00  0.00     0.179 C 
BRANCH  17  18
ATOM     18  C   UNL A   1      36.511  22.858  23.402  1.00  0.00     0.283 C 
BRANCH  18  19
ATOM     19  N   UNL A   1      37.273  22.290  24.529  1.00  0.00    -0.336 N 
ATOM     20  C   UNL A   1      36.661  21.071  25.053  1.00  0.00     0.332 C 
ATOM     21  H   UNL A   1      38.169  22.061  24.101  1.00  0.00     0.347 HD
BRANCH  19  22
ATOM     22  C   UNL A   1      37.611  23.213  25.617  1.00  0.00     0.258 C 
ATOM     23  C   UNL A   1      38.870  22.846  26.395  1.00  0.00     0.071 C 
ENDBRANCH  19  22
ENDBRANCH  18  19
ENDBRANCH  17  18
ENDBRANCH   8  17
ENDBRANCH   6   7
ENDBRANCH   3   6
ENDBRANCH   1   2
BRANCH   1  24
ATOM     24  C   UNL A   1      32.197  29.662  25.286  1.00  0.00     0.023 C 
BRANCH  24  25
ATOM     25  C   UNL A   1      32.525  28.498  26.203  1.00  0.00     0.023 C 
BRANCH  25  26
ATOM     26  C   UNL A   1      33.624  28.792  27.201  1.00  0.00     0.116 C 
BRANCH  26  27
ATOM     27  N   UNL A   1      33.551  30.134  27.769  1.00  0.00    -0.352 N 
ATOM     28  C   UNL A   1      34.539  30.841  28.419  1.00  0.00     0.251 C 
ATOM     29  H   UNL A   1      32.685  30.593  27.675  1.00  0.00     0.163 HD
ATOM     30  O   UNL A   1      34.305  31.928  28.927  1.00  0.00    -0.269 OA
BRANCH  28  31
ATOM     31  C   UNL A   1      35.877  30.227  28.529  1.00  0.00     0.039 A 
ATOM     32  C   UNL A   1      36.745  30.287  27.438  1.00  0.00     0.014 A 
ATOM     33  C   UNL A   1      36.301  29.702  29.751  1.00  0.00     0.014 A 
ATOM     34  C   UNL A   1      38.075  29.897  27.603  1.00  0.00     0.010 A 
ATOM     35  C   UNL A   1      37.646  29.424  29.942  1.00  0.00     0.010 A 
ATOM     36  C   UNL A   1      38.545  29.510  28.868  1.00  0.00    -0.014 A 
BRANCH  36  37
ATOM     37  C   UNL A   1      39.968  29.160  29.100  1.00  0.00     0.031 A 
ATOM     38  C   UNL A   1      40.909  30.215  29.619  1.00  0.00     0.074 A 
ATOM     39  C   UNL A   1      40.428  27.940  28.756  1.00  0.00     0.049 A 
ATOM     40  N   UNL A   1      42.205  30.161  29.772  1.00  0.00    -0.248 NA
ATOM     41  C   UNL A   1      40.320  31.520  29.968  1.00  0.00     0.031 C 
ATOM     42  C   UNL A   1      39.626  26.858  28.175  1.00  0.00     0.029 A 
ATOM     43  N   UNL A   1      41.690  27.406  28.831  1.00  0.00    -0.354 N 
ATOM     44  C   UNL A   1      42.587  31.431  30.189  1.00  0.00     0.074 A 
ATOM     45  C   UNL A   1      41.396  32.248  30.218  1.00  0.00     0.031 C 
ATOM     46  C   UNL A   1      40.410  25.786  27.974  1.00  0.00     0.029 A 
ATOM     47  C   UNL A   1      41.774  26.111  28.376  1.00  0.00     0.049 A 
ATOM     48  H   UNL A   1      42.465  27.905  29.180  1.00  0.00     0.167 HD
ATOM     49  C   UNL A   1      43.817  31.868  30.544  1.00  0.00     0.037 A 
ATOM     50  C   UNL A   1      42.835  25.285  28.290  1.00  0.00     0.037 A 
ATOM     51  C   UNL A   1      44.980  31.025  30.591  1.00  0.00     0.049 A 
ATOM     52  C   UNL A   1      44.180  25.778  28.752  1.00  0.00     0.074 A 
ATOM     53  C   UNL A   1      46.249  31.336  31.046  1.00  0.00     0.029 A 
ATOM     54  N   UNL A   1      45.011  29.700  30.182  1.00  0.00    -0.354 N 
ATOM     55  N   UNL A   1      44.507  26.957  29.226  1.00  0.00    -0.248 NA
ATOM     56  C   UNL A   1      45.299  24.830  28.674  1.00  0.00     0.031 C 
ATOM     57  C   UNL A   1      47.057  30.207  30.882  1.00  0.00     0.029 A 
ATOM     58  C   UNL A   1      46.282  29.183  30.359  1.00  0.00     0.049 A 
ATOM     59  H   UNL A   1      44.243  29.202  29.819  1.00  0.00     0.167 HD
ATOM     60  C   UNL A   1      45.861  26.882  29.531  1.00  0.00     0.074 A 
ATOM     61  C   UNL A   1      46.291  25.540  29.197  1.00  0.00     0.031 C 
ATOM     62  C   UNL A   1      46.677  27.836  30.041  1.00  0.00     0.037 A 
BRANCH  49  63
ATOM     63  C   UNL A   1      43.966  33.312  30.930  1.00  0.00     0.058 A 
ATOM     64  C   UNL A   1      44.330  34.292  29.994  1.00  0.00     0.135 A 
ATOM     65  C   UNL A   1      43.697  33.727  32.244  1.00  0.00     0.135 A 
ATOM     66  F   UNL A   1      44.619  33.947  28.729  1.00  0.00    -0.206 F 
ATOM     67  C   UNL A   1      44.442  35.632  30.351  1.00  0.00     0.059 A 
ATOM     68  C   UNL A   1      43.777  35.065  32.617  1.00  0.00     0.059 A 
ATOM     69  F   UNL A   1      43.351  32.828  33.179  1.00  0.00    -0.206 F 
ATOM     70  C   UNL A   1      44.160  36.009  31.666  1.00  0.00     0.060 A 
BRANCH  70  71
ATOM     71  S   UNL A   1      44.280  37.755  32.105  1.00  0.00     0.124 S 
ATOM     72  O   UNL A   1      45.713  37.896  32.342  1.00  0.00    -0.237 OA
ATOM     73  O   UNL A   1      43.768  38.415  30.909  1.00  0.00    -0.237 OA
ATOM     74  O   UNL A   1      43.434  37.866  33.290  1.00  0.00    -0.744 OA
ENDBRANCH  70  71
ENDBRANCH  49  63
BRANCH  50  75
ATOM     75  C   UNL A   1      42.673  23.898  27.774  1.00  0.00     0.058 A 
ATOM     76  C   UNL A   1      42.611  23.650  26.395  1.00  0.00     0.135 A 
ATOM     77  C   UNL A   1      42.555  22.802  28.641  1.00  0.00     0.135 A 
ATOM     78  F   UNL A   1      42.716  24.666  25.524  1.00  0.00    -0.206 F 
ATOM     79  C   UNL A   1      42.406  22.368  25.893  1.00  0.00     0.059 A 
ATOM     80  C   UNL A   1      42.373  21.508  28.162  1.00  0.00     0.059 A 
ATOM     81  F   UNL A   1      42.628  22.984  29.969  1.00  0.00    -0.206 F 
ATOM     82  C   UNL A   1      42.283  21.303  26.785  1.00  0.00     0.060 A 
BRANCH  82  83
ATOM     83  S   UNL A   1      42.031  19.641  26.126  1.00  0.00     0.124 S 
ATOM     84  O   UNL A   1      42.354  18.816  27.285  1.00  0.00    -0.237 OA
ATOM     85  O   UNL A   1      40.625  19.672  25.736  1.00  0.00    -0.237 OA
ATOM     86  O   UNL A   1      42.979  19.573  25.018  1.00  0.00    -0.744 OA
ENDBRANCH  82  83
ENDBRANCH  50  75
BRANCH  62  87
ATOM     87  C   UNL A   1      48.103  27.453  30.312  1.00  0.00     0.058 A 
ATOM     88  C   UNL A   1      48.462  26.719  31.452  1.00  0.00     0.135 A 
ATOM     89  C   UNL A   1      49.109  27.768  29.384  1.00  0.00     0.135 A 
ATOM     90  F   UNL A   1      47.537  26.400  32.371  1.00  0.00    -0.206 F 
ATOM     91  C   UNL A   1      49.777  26.323  31.672  1.00  0.00     0.059 A 
ATOM     92  C   UNL A   1      50.425  27.360  29.571  1.00  0.00     0.059 A 
ATOM     93  F   UNL A   1      48.812  28.458  28.273  1.00  0.00    -0.206 F 
ATOM     94  C   UNL A   1      50.751  26.645  30.725  1.00  0.00     0.060 A 
BRANCH  94  95
ATOM     95  S   UNL A   1      52.445  26.087  30.997  1.00  0.00     0.124 S 
ATOM     96  O   UNL A   1      53.010  27.214  31.734  1.00  0.00    -0.237 OA
ATOM     97  O   UNL A   1      52.252  24.861  31.764  1.00  0.00    -0.237 OA
ATOM     98  O   UNL A   1      52.961  25.898  29.645  1.00  0.00    -0.744 OA
ENDBRANCH  94  95
ENDBRANCH  62  87
ENDBRANCH  36  37
ENDBRANCH  28  31
ENDBRANCH  26  27
ENDBRANCH  25  26
ENDBRANCH  24  25
ENDBRANCH   1  24
TORSDOF 19
ENDMDL
MODEL 3
REMARK VINA RESULT:     -10.6      2.767      3.570
REMARK SMILES CC[N@@H+](C)CCNC(=O)N1CCC(CC(=O)NCCCCNC(=O)c2ccc(-c3c4nc(c(-c5c(F)cc(S(=O)(=O)[O-])cc5F)c5ccc([nH]5)c(-c5c(F)cc(S(=O)(=O)[O-])cc5F)c5nc(c(-c6c(F)cc(S(=O)(=O)[O-])cc6F)c6ccc3[nH]6)C=C5)C=C4)cc2)CC1
REMARK SMILES IDX 18 1 17 2 15 3 16 4 14 6 13 7 7 8 8 9 9 11 10 12 11 13 92 14
REMARK SMILES IDX 12 15 91 16 6 17 5 18 3 19 4 20 2 22 1 23 19 24 20 25 21 26
REMARK SMILES IDX 22 27 23 28 24 30 25 31 26 32 90 33 27 34 89 35 28 36 29 37
REMARK SMILES IDX 30 38 83 39 31 40 88 41 82 42 84 43 32 44 87 45 81 46 80 47
REMARK SMILES IDX 33 49 67 50 46 51 66 52 47 53 50 54 65 55 85 56 48 57 49 58
REMARK SMILES IDX 64 60 86 61 51 62 34 63 35 64 44 65 36 66 37 67 43 68 45 69
REMARK SMILES IDX 38 70 39 71 40 72 41 73 42 74 68 75 69 76 78 77 70 78 71 79
REMARK SMILES IDX 77 80 79 81 72 82 73 83 74 84 75 85 76 86 52 87 53 88 62 89
REMARK SMILES IDX 54 90 55 91 61 92 63 93 56 94 57 95 58 96 59 97 60 98
REMARK H PARENT 17 5 7 10 3 21 22 29 84 48 50 59
REMARK Flexibility Score: inf
ROOT
ATOM      1  C   UNL A   1      33.366  30.376  26.796  1.00  0.00     0.116 C 
ENDROOT
BRANCH   1   2
ATOM      2  N   UNL A   1      32.431  29.570  27.569  1.00  0.00    -0.356 N 
ATOM      3  C   UNL A   1      31.958  28.309  27.352  1.00  0.00     0.220 C 
ATOM      4  O   UNL A   1      31.135  27.845  28.145  1.00  0.00    -0.275 OA
ATOM      5  H   UNL A   1      32.084  30.008  28.380  1.00  0.00     0.163 HD
BRANCH   3   6
ATOM      6  C   UNL A   1      32.414  27.492  26.152  1.00  0.00     0.103 C 
BRANCH   6   7
ATOM      7  C   UNL A   1      32.433  25.971  26.416  1.00  0.00     0.002 C 
ATOM      8  N   UNL A   1      33.095  21.876  23.572  1.00  0.00    -0.332 N 
ATOM      9  C   UNL A   1      32.271  22.900  23.922  1.00  0.00     0.317 C 
ATOM     10  H   UNL A   1      33.429  21.855  22.646  1.00  0.00     0.165 HD
ATOM     11  O   UNL A   1      31.496  23.367  23.092  1.00  0.00    -0.249 OA
ATOM     12  N   UNL A   1      32.334  23.314  25.229  1.00  0.00    -0.325 N 
ATOM     13  C   UNL A   1      31.143  23.809  25.875  1.00  0.00     0.121 C 
ATOM     14  C   UNL A   1      33.587  23.785  25.809  1.00  0.00     0.121 C 
ATOM     15  C   UNL A   1      31.141  25.323  25.921  1.00  0.00     0.026 C 
ATOM     16  C   UNL A   1      33.657  25.315  25.754  1.00  0.00     0.026 C 
BRANCH   8  17
ATOM     17  C   UNL A   1      33.518  20.809  24.462  1.00  0.00     0.179 C 
BRANCH  17  18
ATOM     18  C   UNL A   1      32.354  19.892  24.904  1.00  0.00     0.283 C 
BRANCH  18  19
ATOM     19  N   UNL A   1      32.369  18.475  24.498  1.00  0.00    -0.336 N 
ATOM     20  C   UNL A   1      32.754  17.588  25.593  1.00  0.00     0.332 C 
ATOM     21  H   UNL A   1      31.395  18.301  24.249  1.00  0.00     0.347 HD
BRANCH  19  22
ATOM     22  C   UNL A   1      33.121  18.155  23.279  1.00  0.00     0.258 C 
ATOM     23  C   UNL A   1      33.974  16.895  23.370  1.00  0.00     0.071 C 
ENDBRANCH  19  22
ENDBRANCH  18  19
ENDBRANCH  17  18
ENDBRANCH   8  17
ENDBRANCH   6   7
ENDBRANCH   3   6
ENDBRANCH   1   2
BRANCH   1  24
ATOM     24  C   UNL A   1      34.545  30.866  27.644  1.00  0.00     0.023 C 
BRANCH  24  25
ATOM     25  C   UNL A   1      35.699  29.892  27.787  1.00  0.00     0.023 C 
BRANCH  25  26
ATOM     26  C   UNL A   1      35.952  29.444  29.210  1.00  0.00     0.116 C 
BRANCH  26  27
ATOM     27  N   UNL A   1      35.796  30.510  30.194  1.00  0.00    -0.352 N 
ATOM     28  C   UNL A   1      36.778  31.225  30.842  1.00  0.00     0.251 C 
ATOM     29  H   UNL A   1      34.869  30.748  30.423  1.00  0.00     0.163 HD
ATOM     30  O   UNL A   1      36.497  32.032  31.716  1.00  0.00    -0.269 OA
BRANCH  28  31
ATOM     31  C   UNL A   1      38.186  30.954  30.487  1.00  0.00     0.039 A 
ATOM     32  C   UNL A   1      39.020  30.349  31.428  1.00  0.00     0.014 A 
ATOM     33  C   UNL A   1      38.631  31.192  29.185  1.00  0.00     0.014 A 
ATOM     34  C   UNL A   1      40.282  29.903  31.032  1.00  0.00     0.010 A 
ATOM     35  C   UNL A   1      39.836  30.647  28.769  1.00  0.00     0.010 A 
ATOM     36  C   UNL A   1      40.678  30.004  29.689  1.00  0.00    -0.014 A 
BRANCH  36  37
ATOM     37  C   UNL A   1      41.981  29.475  29.215  1.00  0.00     0.031 A 
ATOM     38  C   UNL A   1      43.158  30.408  29.114  1.00  0.00     0.074 A 
ATOM     39  C   UNL A   1      42.077  28.200  28.789  1.00  0.00     0.049 A 
ATOM     40  N   UNL A   1      44.343  30.189  28.609  1.00  0.00    -0.248 NA
ATOM     41  C   UNL A   1      42.962  31.785  29.601  1.00  0.00     0.031 C 
ATOM     42  C   UNL A   1      40.985  27.222  28.770  1.00  0.00     0.029 A 
ATOM     43  N   UNL A   1      43.144  27.508  28.273  1.00  0.00    -0.354 N 
ATOM     44  C   UNL A   1      45.012  31.405  28.678  1.00  0.00     0.074 A 
ATOM     45  C   UNL A   1      44.088  32.371  29.227  1.00  0.00     0.031 C 
ATOM     46  C   UNL A   1      41.446  26.053  28.296  1.00  0.00     0.029 A 
ATOM     47  C   UNL A   1      42.853  26.204  27.943  1.00  0.00     0.049 A 
ATOM     48  H   UNL A   1      44.036  27.907  28.152  1.00  0.00     0.167 HD
ATOM     49  C   UNL A   1      46.292  31.684  28.342  1.00  0.00     0.037 A 
ATOM     50  C   UNL A   1      43.636  25.246  27.411  1.00  0.00     0.037 A 
ATOM     51  C   UNL A   1      47.228  30.698  27.876  1.00  0.00     0.049 A 
ATOM     52  C   UNL A   1      45.075  25.567  27.106  1.00  0.00     0.074 A 
ATOM     53  C   UNL A   1      48.578  30.850  27.617  1.00  0.00     0.029 A 
ATOM     54  N   UNL A   1      46.912  29.374  27.615  1.00  0.00    -0.354 N 
ATOM     55  N   UNL A   1      45.715  26.703  27.258  1.00  0.00    -0.248 NA
ATOM     56  C   UNL A   1      45.899  24.481  26.561  1.00  0.00     0.031 C 
ATOM     57  C   UNL A   1      49.073  29.622  27.168  1.00  0.00     0.029 A 
ATOM     58  C   UNL A   1      48.040  28.699  27.181  1.00  0.00     0.049 A 
ATOM     59  H   UNL A   1      46.019  28.973  27.720  1.00  0.00     0.167 HD
ATOM     60  C   UNL A   1      47.024  26.457  26.859  1.00  0.00     0.074 A 
ATOM     61  C   UNL A   1      47.087  25.064  26.467  1.00  0.00     0.031 C 
ATOM     62  C   UNL A   1      48.080  27.306  26.820  1.00  0.00     0.037 A 
BRANCH  49  63
ATOM     63  C   UNL A   1      46.763  33.103  28.486  1.00  0.00     0.058 A 
ATOM     64  C   UNL A   1      47.263  33.595  29.702  1.00  0.00     0.135 A 
ATOM     65  C   UNL A   1      46.757  33.969  27.380  1.00  0.00     0.135 A 
ATOM     66  F   UNL A   1      47.272  32.816  30.795  1.00  0.00    -0.206 F 
ATOM     67  C   UNL A   1      47.723  34.903  29.823  1.00  0.00     0.059 A 
ATOM     68  C   UNL A   1      47.237  35.272  27.472  1.00  0.00     0.059 A 
ATOM     69  F   UNL A   1      46.284  33.550  26.196  1.00  0.00    -0.206 F 
ATOM     70  C   UNL A   1      47.708  35.733  28.701  1.00  0.00     0.060 A 
BRANCH  70  71
ATOM     71  S   UNL A   1      48.336  37.416  28.867  1.00  0.00     0.124 S 
ATOM     72  O   UNL A   1      49.640  37.304  28.221  1.00  0.00    -0.237 OA
ATOM     73  O   UNL A   1      47.337  38.197  28.146  1.00  0.00    -0.237 OA
ATOM     74  O   UNL A   1      48.368  37.626  30.312  1.00  0.00    -0.744 OA
ENDBRANCH  70  71
ENDBRANCH  49  63
BRANCH  50  75
ATOM     75  C   UNL A   1      43.095  23.883  27.157  1.00  0.00     0.058 A 
ATOM     76  C   UNL A   1      42.996  22.946  28.197  1.00  0.00     0.135 A 
ATOM     77  C   UNL A   1      42.687  23.482  25.876  1.00  0.00     0.135 A 
ATOM     78  F   UNL A   1      43.377  23.281  29.440  1.00  0.00    -0.206 F 
ATOM     79  C   UNL A   1      42.543  21.650  27.971  1.00  0.00     0.059 A 
ATOM     80  C   UNL A   1      42.209  22.198  25.630  1.00  0.00     0.059 A 
ATOM     81  F   UNL A   1      42.742  24.347  24.851  1.00  0.00    -0.206 F 
ATOM     82  C   UNL A   1      42.156  21.283  26.682  1.00  0.00     0.060 A 
BRANCH  82  83
ATOM     83  S   UNL A   1      41.557  19.604  26.399  1.00  0.00     0.124 S 
ATOM     84  O   UNL A   1      40.136  19.837  26.165  1.00  0.00    -0.237 OA
ATOM     85  O   UNL A   1      42.336  19.188  25.237  1.00  0.00    -0.237 OA
ATOM     86  O   UNL A   1      41.887  18.916  27.644  1.00  0.00    -0.744 OA
ENDBRANCH  82  83
ENDBRANCH  50  75
BRANCH  62  87
ATOM     87  C   UNL A   1      49.401  26.745  26.380  1.00  0.00     0.058 A 
ATOM     88  C   UNL A   1      49.859  26.891  25.063  1.00  0.00     0.135 A 
ATOM     89  C   UNL A   1      50.246  26.114  27.308  1.00  0.00     0.135 A 
ATOM     90  F   UNL A   1      49.084  27.481  24.139  1.00  0.00    -0.206 F 
ATOM     91  C   UNL A   1      51.106  26.414  24.673  1.00  0.00     0.059 A 
ATOM     92  C   UNL A   1      51.507  25.653  26.947  1.00  0.00     0.059 A 
ATOM     93  F   UNL A   1      49.858  25.962  28.583  1.00  0.00    -0.206 F 
ATOM     94  C   UNL A   1      51.924  25.799  25.623  1.00  0.00     0.060 A 
BRANCH  94  95
ATOM     95  S   UNL A   1      53.559  25.225  25.119  1.00  0.00     0.124 S 
ATOM     96  O   UNL A   1      54.420  25.919  26.071  1.00  0.00    -0.237 OA
ATOM     97  O   UNL A   1      53.453  23.780  25.297  1.00  0.00    -0.237 OA
ATOM     98  O   UNL A   1      53.663  25.673  23.734  1.00  0.00    -0.744 OA
ENDBRANCH  94  95
ENDBRANCH  62  87
ENDBRANCH  36  37
ENDBRANCH  28  31
ENDBRANCH  26  27
ENDBRANCH  25  26
ENDBRANCH  24  25
ENDBRANCH   1  24
TORSDOF 19
ENDMDL
