MODEL 1
REMARK VINA RESULT:     -12.9      0.000      0.000
REMARK SMILES O=C(NCCCCNC(=O)[C@H]1CC2(CCN(C(=O)c3cc4ccccc4[nH]3)CC2)CN1C(=O)C1CC1)c1ccc(-c2c3nc(c(-c4c(F)cc(S(=O)(=O)[O-])cc4F)c4ccc([nH]4)c(-c4c(F)cc(S(=O)(=O)[O-])cc4F)c4nc(c(-c5c(F)cc(S(=O)(=O)[O-])cc5F)c5ccc2[nH]5)C=C4)C=C3)cc1
REMARK SMILES IDX 5 1 4 2 3 3 1 4 2 5 37 7 38 8 102 9 39 10 101 11 40 12 41 13
REMARK SMILES IDX 42 14 95 15 43 16 100 17 94 18 96 19 44 20 99 21 93 22 92 23
REMARK SMILES IDX 45 25 79 26 58 27 78 28 59 29 62 30 77 31 97 32 60 33 61 34
REMARK SMILES IDX 76 36 98 37 63 38 46 39 47 40 56 41 48 42 49 43 55 44 57 45
REMARK SMILES IDX 50 46 51 47 52 48 53 49 54 50 80 51 81 52 90 53 82 54 83 55
REMARK SMILES IDX 89 56 91 57 84 58 85 59 86 60 87 61 88 62 64 63 65 64 74 65
REMARK SMILES IDX 66 66 67 67 73 68 75 69 68 70 69 71 70 72 71 73 72 74 6 75
REMARK SMILES IDX 7 76 8 77 9 78 10 80 11 81 12 82 31 83 13 84 30 85 14 86
REMARK SMILES IDX 29 87 15 88 28 89 16 90 17 91 18 92 32 93 33 94 34 95 35 96
REMARK SMILES IDX 36 97 19 98 20 99 27 100 21 101 26 102 22 104 25 105 23 106
REMARK SMILES IDX 24 107
REMARK H PARENT 3 6 96 24 62 35 8 79 27 103
REMARK Flexibility Score: inf
ROOT
ATOM      1  C   UNL A   1      38.139  24.234  26.243  1.00  0.00     0.023 C 
ENDROOT
BRANCH   1   2
ATOM      2  C   UNL A   1      39.453  23.830  26.901  1.00  0.00     0.116 C 
BRANCH   2   3
ATOM      3  N   UNL A   1      40.627  24.066  26.071  1.00  0.00    -0.352 N 
ATOM      4  O   UNL A   1      42.437  25.253  25.393  1.00  0.00    -0.269 OA
ATOM      5  C   UNL A   1      41.514  25.109  26.185  1.00  0.00     0.251 C 
ATOM      6  H   UNL A   1      40.802  23.412  25.356  1.00  0.00     0.163 HD
BRANCH   5   7
ATOM      7  C   UNL A   1      41.286  26.063  27.282  1.00  0.00     0.039 A 
ATOM      8  C   UNL A   1      41.882  27.325  27.217  1.00  0.00     0.014 A 
ATOM      9  C   UNL A   1      40.609  25.636  28.424  1.00  0.00     0.014 A 
ATOM     10  C   UNL A   1      41.897  28.125  28.349  1.00  0.00     0.010 A 
ATOM     11  C   UNL A   1      40.557  26.477  29.534  1.00  0.00     0.010 A 
ATOM     12  C   UNL A   1      41.215  27.718  29.507  1.00  0.00    -0.014 A 
BRANCH  12  13
ATOM     13  C   UNL A   1      41.094  28.662  30.639  1.00  0.00     0.031 A 
ATOM     14  C   UNL A   1      41.969  28.549  31.852  1.00  0.00     0.074 A 
ATOM     15  C   UNL A   1      40.151  29.618  30.545  1.00  0.00     0.049 A 
ATOM     16  N   UNL A   1      41.937  29.260  32.948  1.00  0.00    -0.248 NA
ATOM     17  C   UNL A   1      43.004  27.503  31.845  1.00  0.00     0.031 C 
ATOM     18  C   UNL A   1      39.238  29.788  29.409  1.00  0.00     0.029 A 
ATOM     19  N   UNL A   1      39.793  30.618  31.408  1.00  0.00    -0.354 N 
ATOM     20  C   UNL A   1      42.921  28.732  33.776  1.00  0.00     0.074 A 
ATOM     21  C   UNL A   1      43.537  27.639  33.055  1.00  0.00     0.031 C 
ATOM     22  C   UNL A   1      38.439  30.839  29.636  1.00  0.00     0.029 A 
ATOM     23  C   UNL A   1      38.733  31.370  30.960  1.00  0.00     0.049 A 
ATOM     24  H   UNL A   1      40.249  30.783  32.264  1.00  0.00     0.167 HD
ATOM     25  C   UNL A   1      43.264  29.131  35.023  1.00  0.00     0.037 A 
ATOM     26  C   UNL A   1      38.039  32.348  31.567  1.00  0.00     0.037 A 
ATOM     27  C   UNL A   1      42.656  30.246  35.704  1.00  0.00     0.049 A 
ATOM     28  C   UNL A   1      38.434  32.754  32.953  1.00  0.00     0.074 A 
ATOM     29  C   UNL A   1      42.996  30.794  36.929  1.00  0.00     0.029 A 
ATOM     30  N   UNL A   1      41.574  30.972  35.229  1.00  0.00    -0.354 N 
ATOM     31  N   UNL A   1      39.411  32.287  33.695  1.00  0.00    -0.248 NA
ATOM     32  C   UNL A   1      37.632  33.803  33.593  1.00  0.00     0.031 C 
ATOM     33  C   UNL A   1      42.089  31.821  37.215  1.00  0.00     0.029 A 
ATOM     34  C   UNL A   1      41.207  31.936  36.152  1.00  0.00     0.049 A 
ATOM     35  H   UNL A   1      41.131  30.823  34.361  1.00  0.00     0.167 HD
ATOM     36  C   UNL A   1      39.336  32.980  34.895  1.00  0.00     0.074 A 
ATOM     37  C   UNL A   1      38.238  33.919  34.767  1.00  0.00     0.031 C 
ATOM     38  C   UNL A   1      40.100  32.847  36.004  1.00  0.00     0.037 A 
BRANCH  25  39
ATOM     39  C   UNL A   1      44.331  28.365  35.753  1.00  0.00     0.058 A 
ATOM     40  C   UNL A   1      45.689  28.695  35.642  1.00  0.00     0.135 A 
ATOM     41  C   UNL A   1      43.976  27.350  36.658  1.00  0.00     0.135 A 
ATOM     42  F   UNL A   1      46.085  29.649  34.784  1.00  0.00    -0.206 F 
ATOM     43  C   UNL A   1      46.660  28.046  36.402  1.00  0.00     0.059 A 
ATOM     44  C   UNL A   1      44.926  26.699  37.440  1.00  0.00     0.059 A 
ATOM     45  F   UNL A   1      42.689  26.993  36.800  1.00  0.00    -0.206 F 
ATOM     46  C   UNL A   1      46.268  27.053  37.302  1.00  0.00     0.060 A 
BRANCH  46  47
ATOM     47  S   UNL A   1      47.532  26.251  38.311  1.00  0.00     0.124 S 
ATOM     48  O   UNL A   1      48.198  27.404  38.911  1.00  0.00    -0.237 OA
ATOM     49  O   UNL A   1      46.735  25.436  39.222  1.00  0.00    -0.237 OA
ATOM     50  O   UNL A   1      48.325  25.506  37.338  1.00  0.00    -0.744 OA
ENDBRANCH  46  47
ENDBRANCH  25  39
BRANCH  26  51
ATOM     51  C   UNL A   1      36.872  32.954  30.880  1.00  0.00     0.058 A 
ATOM     52  C   UNL A   1      35.561  32.636  31.258  1.00  0.00     0.135 A 
ATOM     53  C   UNL A   1      37.052  33.899  29.856  1.00  0.00     0.135 A 
ATOM     54  F   UNL A   1      35.342  31.742  32.234  1.00  0.00    -0.206 F 
ATOM     55  C   UNL A   1      34.465  33.224  30.635  1.00  0.00     0.059 A 
ATOM     56  C   UNL A   1      35.973  34.518  29.236  1.00  0.00     0.059 A 
ATOM     57  F   UNL A   1      38.289  34.252  29.476  1.00  0.00    -0.206 F 
ATOM     58  C   UNL A   1      34.682  34.164  29.625  1.00  0.00     0.060 A 
BRANCH  58  59
ATOM     59  S   UNL A   1      33.258  34.958  28.851  1.00  0.00     0.124 S 
ATOM     60  O   UNL A   1      32.368  35.136  29.992  1.00  0.00    -0.237 OA
ATOM     61  O   UNL A   1      33.842  36.176  28.300  1.00  0.00    -0.237 OA
ATOM     62  O   UNL A   1      32.827  33.976  27.860  1.00  0.00    -0.744 OA
ENDBRANCH  58  59
ENDBRANCH  26  51
BRANCH  38  63
ATOM     63  C   UNL A   1      39.764  33.730  37.167  1.00  0.00     0.058 A 
ATOM     64  C   UNL A   1      38.903  33.292  38.185  1.00  0.00     0.135 A 
ATOM     65  C   UNL A   1      40.342  35.003  37.291  1.00  0.00     0.135 A 
ATOM     66  F   UNL A   1      38.316  32.087  38.101  1.00  0.00    -0.206 F 
ATOM     67  C   UNL A   1      38.615  34.092  39.283  1.00  0.00     0.059 A 
ATOM     68  C   UNL A   1      40.085  35.811  38.393  1.00  0.00     0.059 A 
ATOM     69  F   UNL A   1      41.176  35.462  36.345  1.00  0.00    -0.206 F 
ATOM     70  C   UNL A   1      39.215  35.351  39.379  1.00  0.00     0.060 A 
BRANCH  70  71
ATOM     71  S   UNL A   1      38.870  36.362  40.833  1.00  0.00     0.124 S 
ATOM     72  O   UNL A   1      37.822  35.589  41.487  1.00  0.00    -0.237 OA
ATOM     73  O   UNL A   1      40.162  36.384  41.514  1.00  0.00    -0.237 OA
ATOM     74  O   UNL A   1      38.448  37.639  40.263  1.00  0.00    -0.744 OA
ENDBRANCH  70  71
ENDBRANCH  38  63
ENDBRANCH  12  13
ENDBRANCH   5   7
ENDBRANCH   2   3
ENDBRANCH   1   2
BRANCH   1  75
ATOM     75  C   UNL A   1      37.580  23.207  25.264  1.00  0.00     0.023 C 
BRANCH  75  76
ATOM     76  C   UNL A   1      36.844  22.060  25.956  1.00  0.00     0.116 C 
BRANCH  76  77
ATOM     77  N   UNL A   1      36.921  20.845  25.165  1.00  0.00    -0.354 N 
ATOM     78  C   UNL A   1      36.052  19.842  24.883  1.00  0.00     0.242 C 
ATOM     79  H   UNL A   1      37.800  20.721  24.737  1.00  0.00     0.163 HD
ATOM     80  O   UNL A   1      36.570  18.771  24.533  1.00  0.00    -0.273 OA
BRANCH  78  81
ATOM     81  C   UNL A   1      34.514  19.942  24.887  1.00  0.00     0.175 C 
ATOM     82  C   UNL A   1      33.974  21.342  24.703  1.00  0.00     0.044 C 
ATOM     83  N   UNL A   1      33.636  19.214  23.967  1.00  0.00    -0.330 N 
ATOM     84  C   UNL A   1      32.450  21.207  24.652  1.00  0.00    -0.006 C 
ATOM     85  C   UNL A   1      32.279  19.766  24.124  1.00  0.00     0.127 C 
ATOM     86  C   UNL A   1      31.864  22.251  23.681  1.00  0.00     0.030 C 
ATOM     87  C   UNL A   1      31.809  21.443  26.031  1.00  0.00     0.030 C 
ATOM     88  C   UNL A   1      32.178  23.666  24.164  1.00  0.00     0.120 C 
ATOM     89  C   UNL A   1      31.973  22.892  26.518  1.00  0.00     0.120 C 
ATOM     90  N   UNL A   1      31.641  23.899  25.505  1.00  0.00    -0.337 N 
ATOM     91  C   UNL A   1      31.273  25.171  25.982  1.00  0.00     0.270 C 
ATOM     92  O   UNL A   1      31.258  25.408  27.189  1.00  0.00    -0.267 OA
BRANCH  83  93
ATOM     93  C   UNL A   1      33.722  17.847  23.737  1.00  0.00     0.226 C 
ATOM     94  O   UNL A   1      34.010  17.385  22.636  1.00  0.00    -0.275 OA
BRANCH  93  95
ATOM     95  C   UNL A   1      33.855  16.948  24.924  1.00  0.00     0.079 C 
ATOM     96  C   UNL A   1      32.901  16.657  26.047  1.00  0.00     0.014 C 
ATOM     97  C   UNL A   1      32.993  15.695  24.910  1.00  0.00     0.014 C 
ENDBRANCH  93  95
ENDBRANCH  83  93
BRANCH  91  98
ATOM     98  C   UNL A   1      30.919  26.199  25.023  1.00  0.00     0.105 A 
ATOM     99  C   UNL A   1      29.660  26.493  24.524  1.00  0.00     0.042 A 
ATOM    100  N   UNL A   1      31.798  27.009  24.342  1.00  0.00    -0.351 N 
ATOM    101  C   UNL A   1      29.777  27.571  23.604  1.00  0.00     0.000 A 
ATOM    102  C   UNL A   1      31.129  27.897  23.532  1.00  0.00     0.046 A 
ATOM    103  H   UNL A   1      32.777  26.960  24.422  1.00  0.00     0.167 HD
ATOM    104  C   UNL A   1      28.861  28.303  22.828  1.00  0.00     0.010 A 
ATOM    105  C   UNL A   1      31.614  28.942  22.738  1.00  0.00     0.026 A 
ATOM    106  C   UNL A   1      29.328  29.348  22.022  1.00  0.00     0.001 A 
ATOM    107  C   UNL A   1      30.685  29.664  21.985  1.00  0.00     0.002 A 
ENDBRANCH  91  98
ENDBRANCH  78  81
ENDBRANCH  76  77
ENDBRANCH  75  76
ENDBRANCH   1  75
TORSDOF 17
ENDMDL
MODEL 2
REMARK VINA RESULT:     -12.7      0.883      7.920
REMARK SMILES O=C(NCCCCNC(=O)[C@H]1CC2(CCN(C(=O)c3cc4ccccc4[nH]3)CC2)CN1C(=O)C1CC1)c1ccc(-c2c3nc(c(-c4c(F)cc(S(=O)(=O)[O-])cc4F)c4ccc([nH]4)c(-c4c(F)cc(S(=O)(=O)[O-])cc4F)c4nc(c(-c5c(F)cc(S(=O)(=O)[O-])cc5F)c5ccc2[nH]5)C=C4)C=C3)cc1
REMARK SMILES IDX 5 1 4 2 3 3 1 4 2 5 37 7 38 8 102 9 39 10 101 11 40 12 41 13
REMARK SMILES IDX 42 14 95 15 43 16 100 17 94 18 96 19 44 20 99 21 93 22 92 23
REMARK SMILES IDX 45 25 79 26 58 27 78 28 59 29 62 30 77 31 97 32 60 33 61 34
REMARK SMILES IDX 76 36 98 37 63 38 46 39 47 40 56 41 48 42 49 43 55 44 57 45
REMARK SMILES IDX 50 46 51 47 52 48 53 49 54 50 80 51 81 52 90 53 82 54 83 55
REMARK SMILES IDX 89 56 91 57 84 58 85 59 86 60 87 61 88 62 64 63 65 64 74 65
REMARK SMILES IDX 66 66 67 67 73 68 75 69 68 70 69 71 70 72 71 73 72 74 6 75
REMARK SMILES IDX 7 76 8 77 9 78 10 80 11 81 12 82 31 83 13 84 30 85 14 86
REMARK SMILES IDX 29 87 15 88 28 89 16 90 17 91 18 92 32 93 33 94 34 95 35 96
REMARK SMILES IDX 36 97 19 98 20 99 27 100 21 101 26 102 22 104 25 105 23 106
REMARK SMILES IDX 24 107
REMARK H PARENT 3 6 96 24 62 35 8 79 27 103
REMARK Flexibility Score: inf
ROOT
ATOM      1  C   UNL A   1      39.247  24.006  26.474  1.00  0.00     0.023 C 
ENDROOT
BRANCH   1   2
ATOM      2  C   UNL A   1      40.126  25.194  26.102  1.00  0.00     0.116 C 
BRANCH   2   3
ATOM      3  N   UNL A   1      41.513  24.840  25.830  1.00  0.00    -0.352 N 
ATOM      4  O   UNL A   1      43.750  24.948  26.187  1.00  0.00    -0.269 OA
ATOM      5  C   UNL A   1      42.617  25.250  26.538  1.00  0.00     0.251 C 
ATOM      6  H   UNL A   1      41.676  24.247  25.061  1.00  0.00     0.163 HD
BRANCH   5   7
ATOM      7  C   UNL A   1      42.378  26.097  27.717  1.00  0.00     0.039 A 
ATOM      8  C   UNL A   1      41.586  25.602  28.757  1.00  0.00     0.014 A 
ATOM      9  C   UNL A   1      42.818  27.421  27.704  1.00  0.00     0.014 A 
ATOM     10  C   UNL A   1      41.136  26.472  29.737  1.00  0.00     0.010 A 
ATOM     11  C   UNL A   1      42.428  28.273  28.736  1.00  0.00     0.010 A 
ATOM     12  C   UNL A   1      41.573  27.807  29.747  1.00  0.00    -0.014 A 
BRANCH  12  13
ATOM     13  C   UNL A   1      41.224  28.668  30.899  1.00  0.00     0.031 A 
ATOM     14  C   UNL A   1      40.066  29.619  30.845  1.00  0.00     0.074 A 
ATOM     15  C   UNL A   1      42.004  28.578  31.993  1.00  0.00     0.049 A 
ATOM     16  N   UNL A   1      39.677  30.482  31.746  1.00  0.00    -0.248 NA
ATOM     17  C   UNL A   1      39.242  29.614  29.625  1.00  0.00     0.031 C 
ATOM     18  C   UNL A   1      43.168  27.694  32.124  1.00  0.00     0.029 A 
ATOM     19  N   UNL A   1      41.948  29.231  33.194  1.00  0.00    -0.354 N 
ATOM     20  C   UNL A   1      38.587  31.146  31.197  1.00  0.00     0.074 A 
ATOM     21  C   UNL A   1      38.371  30.585  29.880  1.00  0.00     0.031 C 
ATOM     22  C   UNL A   1      43.704  27.848  33.342  1.00  0.00     0.029 A 
ATOM     23  C   UNL A   1      42.969  28.887  34.048  1.00  0.00     0.049 A 
ATOM     24  H   UNL A   1      41.247  29.882  33.424  1.00  0.00     0.167 HD
ATOM     25  C   UNL A   1      37.846  32.134  31.751  1.00  0.00     0.037 A 
ATOM     26  C   UNL A   1      43.308  29.389  35.248  1.00  0.00     0.037 A 
ATOM     27  C   UNL A   1      38.063  32.650  33.079  1.00  0.00     0.049 A 
ATOM     28  C   UNL A   1      42.477  30.493  35.825  1.00  0.00     0.074 A 
ATOM     29  C   UNL A   1      37.310  33.582  33.773  1.00  0.00     0.029 A 
ATOM     30  N   UNL A   1      39.116  32.292  33.907  1.00  0.00    -0.354 N 
ATOM     31  N   UNL A   1      41.410  31.064  35.319  1.00  0.00    -0.248 NA
ATOM     32  C   UNL A   1      42.899  31.034  37.122  1.00  0.00     0.031 C 
ATOM     33  C   UNL A   1      37.936  33.822  35.001  1.00  0.00     0.029 A 
ATOM     34  C   UNL A   1      39.057  33.013  35.088  1.00  0.00     0.049 A 
ATOM     35  H   UNL A   1      39.806  31.624  33.688  1.00  0.00     0.167 HD
ATOM     36  C   UNL A   1      41.034  32.038  36.233  1.00  0.00     0.074 A 
ATOM     37  C   UNL A   1      41.972  31.958  37.336  1.00  0.00     0.031 C 
ATOM     38  C   UNL A   1      40.013  32.924  36.162  1.00  0.00     0.037 A 
BRANCH  25  39
ATOM     39  C   UNL A   1      36.740  32.744  30.937  1.00  0.00     0.058 A 
ATOM     40  C   UNL A   1      35.407  32.329  31.067  1.00  0.00     0.135 A 
ATOM     41  C   UNL A   1      37.008  33.832  30.088  1.00  0.00     0.135 A 
ATOM     42  F   UNL A   1      35.098  31.286  31.855  1.00  0.00    -0.206 F 
ATOM     43  C   UNL A   1      34.376  32.970  30.385  1.00  0.00     0.059 A 
ATOM     44  C   UNL A   1      35.991  34.499  29.410  1.00  0.00     0.059 A 
ATOM     45  F   UNL A   1      38.267  34.267  29.926  1.00  0.00    -0.206 F 
ATOM     46  C   UNL A   1      34.678  34.058  29.562  1.00  0.00     0.060 A 
BRANCH  46  47
ATOM     47  S   UNL A   1      33.325  34.906  28.718  1.00  0.00     0.124 S 
ATOM     48  O   UNL A   1      32.489  35.310  29.845  1.00  0.00    -0.237 OA
ATOM     49  O   UNL A   1      34.019  35.987  28.025  1.00  0.00    -0.237 OA
ATOM     50  O   UNL A   1      32.759  33.874  27.856  1.00  0.00    -0.744 OA
ENDBRANCH  46  47
ENDBRANCH  25  39
BRANCH  26  51
ATOM     51  C   UNL A   1      44.521  28.883  35.938  1.00  0.00     0.058 A 
ATOM     52  C   UNL A   1      44.457  27.786  36.807  1.00  0.00     0.135 A 
ATOM     53  C   UNL A   1      45.777  29.467  35.705  1.00  0.00     0.135 A 
ATOM     54  F   UNL A   1      43.279  27.194  37.056  1.00  0.00    -0.206 F 
ATOM     55  C   UNL A   1      45.595  27.291  37.434  1.00  0.00     0.059 A 
ATOM     56  C   UNL A   1      46.932  28.974  36.300  1.00  0.00     0.059 A 
ATOM     57  F   UNL A   1      45.890  30.504  34.862  1.00  0.00    -0.206 F 
ATOM     58  C   UNL A   1      46.829  27.893  37.173  1.00  0.00     0.060 A 
BRANCH  58  59
ATOM     59  S   UNL A   1      48.311  27.219  37.953  1.00  0.00     0.124 S 
ATOM     60  O   UNL A   1      48.766  28.356  38.743  1.00  0.00    -0.237 OA
ATOM     61  O   UNL A   1      47.779  26.088  38.707  1.00  0.00    -0.237 OA
ATOM     62  O   UNL A   1      49.152  26.860  36.814  1.00  0.00    -0.744 OA
ENDBRANCH  58  59
ENDBRANCH  26  51
BRANCH  38  63
ATOM     63  C   UNL A   1      39.868  33.882  37.306  1.00  0.00     0.058 A 
ATOM     64  C   UNL A   1      40.469  35.149  37.269  1.00  0.00     0.135 A 
ATOM     65  C   UNL A   1      39.087  33.551  38.423  1.00  0.00     0.135 A 
ATOM     66  F   UNL A   1      41.238  35.503  36.227  1.00  0.00    -0.206 F 
ATOM     67  C   UNL A   1      40.310  36.055  38.310  1.00  0.00     0.059 A 
ATOM     68  C   UNL A   1      38.896  34.451  39.466  1.00  0.00     0.059 A 
ATOM     69  F   UNL A   1      38.489  32.352  38.499  1.00  0.00    -0.206 F 
ATOM     70  C   UNL A   1      39.518  35.697  39.404  1.00  0.00     0.060 A 
BRANCH  70  71
ATOM     71  S   UNL A   1      39.280  36.899  40.728  1.00  0.00     0.124 S 
ATOM     72  O   UNL A   1      38.508  37.934  40.051  1.00  0.00    -0.237 OA
ATOM     73  O   UNL A   1      38.556  36.122  41.731  1.00  0.00    -0.237 OA
ATOM     74  O   UNL A   1      40.644  37.270  41.096  1.00  0.00    -0.744 OA
ENDBRANCH  70  71
ENDBRANCH  38  63
ENDBRANCH  12  13
ENDBRANCH   5   7
ENDBRANCH   2   3
ENDBRANCH   1   2
BRANCH   1  75
ATOM     75  C   UNL A   1      37.822  24.080  25.934  1.00  0.00     0.023 C 
BRANCH  75  76
ATOM     76  C   UNL A   1      36.919  22.972  26.476  1.00  0.00     0.116 C 
BRANCH  76  77
ATOM     77  N   UNL A   1      36.890  21.840  25.567  1.00  0.00    -0.354 N 
ATOM     78  C   UNL A   1      35.987  20.861  25.303  1.00  0.00     0.242 C 
ATOM     79  H   UNL A   1      37.706  21.765  25.021  1.00  0.00     0.163 HD
ATOM     80  O   UNL A   1      36.452  19.833  24.789  1.00  0.00    -0.273 OA
BRANCH  78  81
ATOM     81  C   UNL A   1      34.463  20.948  25.513  1.00  0.00     0.175 C 
ATOM     82  C   UNL A   1      33.855  22.286  25.162  1.00  0.00     0.044 C 
ATOM     83  N   UNL A   1      33.489  20.057  24.876  1.00  0.00    -0.330 N 
ATOM     84  C   UNL A   1      32.344  22.133  25.359  1.00  0.00    -0.006 C 
ATOM     85  C   UNL A   1      32.150  20.618  25.127  1.00  0.00     0.127 C 
ATOM     86  C   UNL A   1      31.592  22.978  24.312  1.00  0.00     0.030 C 
ATOM     87  C   UNL A   1      31.897  22.610  26.751  1.00  0.00     0.030 C 
ATOM     88  C   UNL A   1      31.921  24.459  24.484  1.00  0.00     0.120 C 
ATOM     89  C   UNL A   1      32.078  24.125  26.943  1.00  0.00     0.120 C 
ATOM     90  N   UNL A   1      31.572  24.929  25.825  1.00  0.00    -0.337 N 
ATOM     91  C   UNL A   1      31.232  26.262  26.115  1.00  0.00     0.270 C 
ATOM     92  O   UNL A   1      31.380  26.715  27.250  1.00  0.00    -0.267 OA
BRANCH  83  93
ATOM     93  C   UNL A   1      33.588  18.672  24.883  1.00  0.00     0.226 C 
ATOM     94  O   UNL A   1      33.051  17.982  25.746  1.00  0.00    -0.275 OA
BRANCH  93  95
ATOM     95  C   UNL A   1      34.014  17.998  23.619  1.00  0.00     0.079 C 
ATOM     96  C   UNL A   1      34.015  16.547  23.232  1.00  0.00     0.014 C 
ATOM     97  C   UNL A   1      32.897  17.418  22.766  1.00  0.00     0.014 C 
ENDBRANCH  93  95
ENDBRANCH  83  93
BRANCH  91  98
ATOM     98  C   UNL A   1      30.711  27.096  25.050  1.00  0.00     0.105 A 
ATOM     99  C   UNL A   1      29.416  27.128  24.556  1.00  0.00     0.042 A 
ATOM    100  N   UNL A   1      31.444  27.941  24.249  1.00  0.00    -0.351 N 
ATOM    101  C   UNL A   1      29.353  28.088  23.510  1.00  0.00     0.000 A 
ATOM    102  C   UNL A   1      30.636  28.607  23.358  1.00  0.00     0.046 A 
ATOM    103  H   UNL A   1      32.420  28.054  24.305  1.00  0.00     0.167 HD
ATOM    104  C   UNL A   1      28.325  28.568  22.678  1.00  0.00     0.010 A 
ATOM    105  C   UNL A   1      30.943  29.608  22.430  1.00  0.00     0.026 A 
ATOM    106  C   UNL A   1      28.614  29.564  21.738  1.00  0.00     0.001 A 
ATOM    107  C   UNL A   1      29.904  30.079  21.622  1.00  0.00     0.002 A 
ENDBRANCH  91  98
ENDBRANCH  78  81
ENDBRANCH  76  77
ENDBRANCH  75  76
ENDBRANCH   1  75
TORSDOF 17
ENDMDL
MODEL 3
REMARK VINA RESULT:     -12.6      5.171     11.867
REMARK SMILES O=C(NCCCCNC(=O)[C@H]1CC2(CCN(C(=O)c3cc4ccccc4[nH]3)CC2)CN1C(=O)C1CC1)c1ccc(-c2c3nc(c(-c4c(F)cc(S(=O)(=O)[O-])cc4F)c4ccc([nH]4)c(-c4c(F)cc(S(=O)(=O)[O-])cc4F)c4nc(c(-c5c(F)cc(S(=O)(=O)[O-])cc5F)c5ccc2[nH]5)C=C4)C=C3)cc1
REMARK SMILES IDX 5 1 4 2 3 3 1 4 2 5 37 7 38 8 102 9 39 10 101 11 40 12 41 13
REMARK SMILES IDX 42 14 95 15 43 16 100 17 94 18 96 19 44 20 99 21 93 22 92 23
REMARK SMILES IDX 45 25 79 26 58 27 78 28 59 29 62 30 77 31 97 32 60 33 61 34
REMARK SMILES IDX 76 36 98 37 63 38 46 39 47 40 56 41 48 42 49 43 55 44 57 45
REMARK SMILES IDX 50 46 51 47 52 48 53 49 54 50 80 51 81 52 90 53 82 54 83 55
REMARK SMILES IDX 89 56 91 57 84 58 85 59 86 60 87 61 88 62 64 63 65 64 74 65
REMARK SMILES IDX 66 66 67 67 73 68 75 69 68 70 69 71 70 72 71 73 72 74 6 75
REMARK SMILES IDX 7 76 8 77 9 78 10 80 11 81 12 82 31 83 13 84 30 85 14 86
REMARK SMILES IDX 29 87 15 88 28 89 16 90 17 91 18 92 32 93 33 94 34 95 35 96
REMARK SMILES IDX 36 97 19 98 20 99 27 100 21 101 26 102 22 104 25 105 23 106
REMARK SMILES IDX 24 107
REMARK H PARENT 3 6 96 24 62 35 8 79 27 103
REMARK Flexibility Score: inf
ROOT
ATOM      1  C   UNL A   1      41.460  22.449  28.100  1.00  0.00     0.023 C 
ENDROOT
BRANCH   1   2
ATOM      2  C   UNL A   1      41.428  22.702  26.597  1.00  0.00     0.116 C 
BRANCH   2   3
ATOM      3  N   UNL A   1      40.101  22.584  26.006  1.00  0.00    -0.352 N 
ATOM      4  O   UNL A   1      37.955  23.238  25.671  1.00  0.00    -0.269 OA
ATOM      5  C   UNL A   1      39.055  23.462  26.159  1.00  0.00     0.251 C 
ATOM      6  H   UNL A   1      39.937  21.795  25.441  1.00  0.00     0.163 HD
BRANCH   5   7
ATOM      7  C   UNL A   1      39.308  24.668  26.964  1.00  0.00     0.039 A 
ATOM      8  C   UNL A   1      40.144  25.662  26.449  1.00  0.00     0.014 A 
ATOM      9  C   UNL A   1      38.831  24.723  28.273  1.00  0.00     0.014 A 
ATOM     10  C   UNL A   1      40.600  26.664  27.291  1.00  0.00     0.010 A 
ATOM     11  C   UNL A   1      39.228  25.778  29.093  1.00  0.00     0.010 A 
ATOM     12  C   UNL A   1      40.128  26.743  28.612  1.00  0.00    -0.014 A 
BRANCH  12  13
ATOM     13  C   UNL A   1      40.488  27.918  29.435  1.00  0.00     0.031 A 
ATOM     14  C   UNL A   1      39.549  29.075  29.603  1.00  0.00     0.074 A 
ATOM     15  C   UNL A   1      41.705  27.917  30.011  1.00  0.00     0.049 A 
ATOM     16  N   UNL A   1      39.748  30.200  30.238  1.00  0.00    -0.248 NA
ATOM     17  C   UNL A   1      38.222  28.967  28.976  1.00  0.00     0.031 C 
ATOM     18  C   UNL A   1      42.694  26.841  29.881  1.00  0.00     0.029 A 
ATOM     19  N   UNL A   1      42.324  28.839  30.810  1.00  0.00    -0.354 N 
ATOM     20  C   UNL A   1      38.591  30.949  30.063  1.00  0.00     0.074 A 
ATOM     21  C   UNL A   1      37.688  30.150  29.262  1.00  0.00     0.031 C 
ATOM     22  C   UNL A   1      43.786  27.156  30.589  1.00  0.00     0.029 A 
ATOM     23  C   UNL A   1      43.604  28.482  31.162  1.00  0.00     0.049 A 
ATOM     24  H   UNL A   1      41.896  29.674  31.104  1.00  0.00     0.167 HD
ATOM     25  C   UNL A   1      38.322  32.191  30.530  1.00  0.00     0.037 A 
ATOM     26  C   UNL A   1      44.548  29.167  31.830  1.00  0.00     0.037 A 
ATOM     27  C   UNL A   1      39.227  32.951  31.355  1.00  0.00     0.049 A 
ATOM     28  C   UNL A   1      44.223  30.545  32.319  1.00  0.00     0.074 A 
ATOM     29  C   UNL A   1      39.014  34.177  31.962  1.00  0.00     0.029 A 
ATOM     30  N   UNL A   1      40.520  32.566  31.675  1.00  0.00    -0.354 N 
ATOM     31  N   UNL A   1      43.099  31.212  32.200  1.00  0.00    -0.248 NA
ATOM     32  C   UNL A   1      45.291  31.271  33.016  1.00  0.00     0.031 C 
ATOM     33  C   UNL A   1      40.195  34.555  32.609  1.00  0.00     0.029 A 
ATOM     34  C   UNL A   1      41.132  33.548  32.437  1.00  0.00     0.049 A 
ATOM     35  H   UNL A   1      40.943  31.720  31.402  1.00  0.00     0.167 HD
ATOM     36  C   UNL A   1      43.326  32.441  32.802  1.00  0.00     0.074 A 
ATOM     37  C   UNL A   1      44.684  32.413  33.309  1.00  0.00     0.031 C 
ATOM     38  C   UNL A   1      42.490  33.500  32.916  1.00  0.00     0.037 A 
BRANCH  25  39
ATOM     39  C   UNL A   1      37.011  32.828  30.161  1.00  0.00     0.058 A 
ATOM     40  C   UNL A   1      35.852  32.636  30.926  1.00  0.00     0.135 A 
ATOM     41  C   UNL A   1      36.944  33.726  29.083  1.00  0.00     0.135 A 
ATOM     42  F   UNL A   1      35.858  31.779  31.960  1.00  0.00    -0.206 F 
ATOM     43  C   UNL A   1      34.670  33.312  30.636  1.00  0.00     0.059 A 
ATOM     44  C   UNL A   1      35.778  34.426  28.784  1.00  0.00     0.059 A 
ATOM     45  F   UNL A   1      38.025  33.944  28.317  1.00  0.00    -0.206 F 
ATOM     46  C   UNL A   1      34.644  34.209  29.566  1.00  0.00     0.060 A 
BRANCH  46  47
ATOM     47  S   UNL A   1      33.116  35.111  29.229  1.00  0.00     0.124 S 
ATOM     48  O   UNL A   1      32.511  34.279  28.193  1.00  0.00    -0.237 OA
ATOM     49  O   UNL A   1      32.449  35.091  30.526  1.00  0.00    -0.237 OA
ATOM     50  O   UNL A   1      33.582  36.422  28.787  1.00  0.00    -0.744 OA
ENDBRANCH  46  47
ENDBRANCH  25  39
BRANCH  26  51
ATOM     51  C   UNL A   1      45.895  28.572  32.013  1.00  0.00     0.058 A 
ATOM     52  C   UNL A   1      46.209  27.824  33.156  1.00  0.00     0.135 A 
ATOM     53  C   UNL A   1      46.881  28.707  31.023  1.00  0.00     0.135 A 
ATOM     54  F   UNL A   1      45.296  27.666  34.126  1.00  0.00    -0.206 F 
ATOM     55  C   UNL A   1      47.461  27.241  33.318  1.00  0.00     0.059 A 
ATOM     56  C   UNL A   1      48.131  28.113  31.150  1.00  0.00     0.059 A 
ATOM     57  F   UNL A   1      46.618  29.394  29.901  1.00  0.00    -0.206 F 
ATOM     58  C   UNL A   1      48.415  27.392  32.309  1.00  0.00     0.060 A 
BRANCH  58  59
ATOM     59  S   UNL A   1      50.023  26.595  32.503  1.00  0.00     0.124 S 
ATOM     60  O   UNL A   1      49.859  25.915  33.782  1.00  0.00    -0.237 OA
ATOM     61  O   UNL A   1      50.088  25.735  31.326  1.00  0.00    -0.237 OA
ATOM     62  O   UNL A   1      50.955  27.719  32.498  1.00  0.00    -0.744 OA
ENDBRANCH  58  59
ENDBRANCH  26  51
BRANCH  38  63
ATOM     63  C   UNL A   1      43.029  34.716  33.607  1.00  0.00     0.058 A 
ATOM     64  C   UNL A   1      43.719  35.708  32.894  1.00  0.00     0.135 A 
ATOM     65  C   UNL A   1      42.815  34.914  34.979  1.00  0.00     0.135 A 
ATOM     66  F   UNL A   1      43.960  35.553  31.582  1.00  0.00    -0.206 F 
ATOM     67  C   UNL A   1      44.191  36.854  33.521  1.00  0.00     0.059 A 
ATOM     68  C   UNL A   1      43.259  36.064  35.623  1.00  0.00     0.059 A 
ATOM     69  F   UNL A   1      42.156  33.995  35.700  1.00  0.00    -0.206 F 
ATOM     70  C   UNL A   1      43.952  37.024  34.887  1.00  0.00     0.060 A 
BRANCH  70  71
ATOM     71  S   UNL A   1      44.528  38.538  35.683  1.00  0.00     0.124 S 
ATOM     72  O   UNL A   1      43.776  39.555  34.958  1.00  0.00    -0.237 OA
ATOM     73  O   UNL A   1      44.136  38.330  37.074  1.00  0.00    -0.237 OA
ATOM     74  O   UNL A   1      45.967  38.523  35.435  1.00  0.00    -0.744 OA
ENDBRANCH  70  71
ENDBRANCH  38  63
ENDBRANCH  12  13
ENDBRANCH   5   7
ENDBRANCH   2   3
ENDBRANCH   1   2
BRANCH   1  75
ATOM     75  C   UNL A   1      42.530  23.235  28.850  1.00  0.00     0.023 C 
BRANCH  75  76
ATOM     76  C   UNL A   1      43.952  22.798  28.496  1.00  0.00     0.116 C 
BRANCH  76  77
ATOM     77  N   UNL A   1      44.928  23.712  29.061  1.00  0.00    -0.354 N 
ATOM     78  C   UNL A   1      45.579  24.807  28.595  1.00  0.00     0.242 C 
ATOM     79  H   UNL A   1      45.172  23.487  29.989  1.00  0.00     0.163 HD
ATOM     80  O   UNL A   1      46.636  25.086  29.179  1.00  0.00    -0.273 OA
BRANCH  78  81
ATOM     81  C   UNL A   1      45.090  25.752  27.480  1.00  0.00     0.175 C 
ATOM     82  C   UNL A   1      45.652  27.153  27.550  1.00  0.00     0.044 C 
ATOM     83  N   UNL A   1      45.251  25.491  26.046  1.00  0.00    -0.330 N 
ATOM     84  C   UNL A   1      45.115  27.890  26.321  1.00  0.00    -0.006 C 
ATOM     85  C   UNL A   1      44.887  26.726  25.331  1.00  0.00     0.127 C 
ATOM     86  C   UNL A   1      46.170  28.888  25.806  1.00  0.00     0.030 C 
ATOM     87  C   UNL A   1      43.839  28.687  26.645  1.00  0.00     0.030 C 
ATOM     88  C   UNL A   1      46.472  29.943  26.870  1.00  0.00     0.120 C 
ATOM     89  C   UNL A   1      44.101  29.853  27.612  1.00  0.00     0.120 C 
ATOM     90  N   UNL A   1      45.263  30.673  27.252  1.00  0.00    -0.337 N 
ATOM     91  C   UNL A   1      45.276  31.992  27.740  1.00  0.00     0.270 C 
ATOM     92  O   UNL A   1      44.360  32.408  28.448  1.00  0.00    -0.267 OA
BRANCH  83  93
ATOM     93  C   UNL A   1      44.894  24.297  25.434  1.00  0.00     0.226 C 
ATOM     94  O   UNL A   1      43.938  24.214  24.667  1.00  0.00    -0.275 OA
BRANCH  93  95
ATOM     95  C   UNL A   1      45.913  23.203  25.396  1.00  0.00     0.079 C 
ATOM     96  C   UNL A   1      45.965  21.938  24.587  1.00  0.00     0.014 C 
ATOM     97  C   UNL A   1      46.754  23.120  24.132  1.00  0.00     0.014 C 
ENDBRANCH  93  95
ENDBRANCH  83  93
BRANCH  91  98
ATOM     98  C   UNL A   1      46.394  32.850  27.399  1.00  0.00     0.105 A 
ATOM     99  C   UNL A   1      47.399  33.304  28.239  1.00  0.00     0.042 A 
ATOM    100  N   UNL A   1      46.601  33.468  26.188  1.00  0.00    -0.351 N 
ATOM    101  C   UNL A   1      48.281  34.125  27.486  1.00  0.00     0.000 A 
ATOM    102  C   UNL A   1      47.774  34.186  26.191  1.00  0.00     0.046 A 
ATOM    103  H   UNL A   1      45.991  33.405  25.418  1.00  0.00     0.167 HD
ATOM    104  C   UNL A   1      49.468  34.821  27.783  1.00  0.00     0.010 A 
ATOM    105  C   UNL A   1      48.408  34.890  25.161  1.00  0.00     0.026 A 
ATOM    106  C   UNL A   1      50.113  35.537  26.768  1.00  0.00     0.001 A 
ATOM    107  C   UNL A   1      49.592  35.563  25.475  1.00  0.00     0.002 A 
ENDBRANCH  91  98
ENDBRANCH  78  81
ENDBRANCH  76  77
ENDBRANCH  75  76
ENDBRANCH   1  75
TORSDOF 17
ENDMDL
