MODEL 1
REMARK VINA RESULT:     -13.9      0.000      0.000
REMARK SMILES Cc1ccccc1[C@@H]1[NH2+][C@@H](C(=O)NCCCCNC(=O)c2ccc(-c3c4nc(c(-c5c(F)cc(S(=O)(=O)[O-])cc5F)c5ccc([nH]5)c(-c5c(F)cc(S(=O)(=O)[O-])cc5F)c5nc(c(-c6c(F)cc(S(=O)(=O)[O-])cc6F)c6ccc3[nH]6)C=C5)C=C4)cc2)CC2=c3ccccc3=N[C@H]21
REMARK SMILES IDX 16 1 15 2 14 3 13 4 11 5 12 6 10 8 8 9 9 10 96 11 88 14
REMARK SMILES IDX 95 15 87 16 89 17 94 18 90 19 93 20 91 21 92 22 7 23 1 24
REMARK SMILES IDX 2 25 3 26 4 27 6 28 5 29 17 30 18 31 19 32 20 34 21 35 22 36
REMARK SMILES IDX 86 37 23 38 85 39 24 40 25 41 26 42 79 43 27 44 84 45 78 46
REMARK SMILES IDX 80 47 28 48 83 49 77 50 76 51 29 53 63 54 42 55 62 56 43 57
REMARK SMILES IDX 46 58 61 59 81 60 44 61 45 62 60 64 82 65 47 66 30 67 31 68
REMARK SMILES IDX 40 69 32 70 33 71 39 72 41 73 34 74 35 75 36 76 37 77 38 78
REMARK SMILES IDX 64 79 65 80 74 81 66 82 67 83 73 84 75 85 68 86 69 87 70 88
REMARK SMILES IDX 71 89 72 90 48 91 49 92 58 93 50 94 51 95 57 96 59 97 52 98
REMARK SMILES IDX 53 99 54 100 55 101 56 102
REMARK H PARENT 13 7 9 12 9 13 18 33 80 52 46 63
REMARK Flexibility Score: inf
ROOT
ATOM      1  C   UNL A   1      34.680  32.975  28.578  1.00  0.00     0.023 C 
ENDROOT
BRANCH   1   2
ATOM      2  C   UNL A   1      34.425  31.631  27.647  1.00  0.00     0.023 C 
BRANCH   2   3
ATOM      3  C   UNL A   1      33.086  30.851  27.289  1.00  0.00     0.116 C 
BRANCH   3   4
ATOM      4  N   UNL A   1      33.029  29.386  27.367  1.00  0.00    -0.351 N 
ATOM      5  C   UNL A   1      33.477  28.489  26.427  1.00  0.00     0.278 C 
ATOM      6  O   UNL A   1      34.173  27.531  26.776  1.00  0.00    -0.268 OA
ATOM      7  H   UNL A   1      32.627  29.005  28.180  1.00  0.00     0.163 HD
BRANCH   5   8
ATOM      8  C   UNL A   1      32.920  28.607  24.989  1.00  0.00     0.277 C 
ATOM      9  C   UNL A   1      30.982  27.490  23.738  1.00  0.00     0.243 C 
ATOM     10  N   UNL A   1      31.483  28.189  24.952  1.00  0.00    -0.327 N 
ATOM     11  C   UNL A   1      31.987  26.939  22.673  1.00  0.00     0.196 C 
ATOM     12  H   UNL A   1      31.329  27.567  25.744  1.00  0.00     0.347 HD
ATOM     13  H   UNL A   1      30.965  29.069  24.967  1.00  0.00     0.347 HD
ATOM     14  C   UNL A   1      33.292  26.782  23.342  1.00  0.00    -0.024 C 
ATOM     15  N   UNL A   1      31.657  25.565  22.183  1.00  0.00    -0.270 NA
ATOM     16  C   UNL A   1      33.822  28.027  23.905  1.00  0.00     0.109 C 
ATOM     17  C   UNL A   1      33.697  25.525  23.403  1.00  0.00     0.002 A 
ATOM     18  C   UNL A   1      32.664  24.855  22.601  1.00  0.00     0.066 A 
ATOM     19  C   UNL A   1      34.753  24.814  24.043  1.00  0.00     0.010 A 
ATOM     20  C   UNL A   1      32.894  23.420  22.334  1.00  0.00     0.028 A 
ATOM     21  C   UNL A   1      34.849  23.492  23.826  1.00  0.00     0.001 A 
ATOM     22  C   UNL A   1      33.938  22.809  22.920  1.00  0.00     0.002 A 
BRANCH   9  23
ATOM     23  C   UNL A   1      29.883  28.293  23.036  1.00  0.00     0.015 A 
ATOM     24  C   UNL A   1      27.886  26.887  23.886  1.00  0.00     0.045 C 
ATOM     25  C   UNL A   1      28.493  28.070  23.186  1.00  0.00    -0.042 A 
ATOM     26  C   UNL A   1      27.592  29.038  22.707  1.00  0.00     0.004 A 
ATOM     27  C   UNL A   1      28.038  30.166  22.025  1.00  0.00     0.000 A 
ATOM     28  C   UNL A   1      30.305  29.405  22.276  1.00  0.00     0.010 A 
ATOM     29  C   UNL A   1      29.393  30.332  21.779  1.00  0.00     0.001 A 
ENDBRANCH   9  23
ENDBRANCH   5   8
ENDBRANCH   3   4
ENDBRANCH   2   3
ENDBRANCH   1   2
BRANCH   1  30
ATOM     30  C   UNL A   1      34.809  32.914  30.183  1.00  0.00     0.116 C 
BRANCH  30  31
ATOM     31  N   UNL A   1      35.897  32.093  31.006  1.00  0.00    -0.352 N 
ATOM     32  C   UNL A   1      37.080  31.252  30.883  1.00  0.00     0.251 C 
ATOM     33  H   UNL A   1      35.691  32.191  31.964  1.00  0.00     0.163 HD
ATOM     34  O   UNL A   1      37.953  31.529  31.729  1.00  0.00    -0.269 OA
BRANCH  32  35
ATOM     35  C   UNL A   1      37.531  30.098  29.909  1.00  0.00     0.039 A 
ATOM     36  C   UNL A   1      37.633  28.752  30.340  1.00  0.00     0.014 A 
ATOM     37  C   UNL A   1      37.900  30.259  28.579  1.00  0.00     0.014 A 
ATOM     38  C   UNL A   1      38.635  27.889  29.781  1.00  0.00     0.010 A 
ATOM     39  C   UNL A   1      38.902  29.415  28.018  1.00  0.00     0.010 A 
ATOM     40  C   UNL A   1      39.435  28.326  28.721  1.00  0.00    -0.014 A 
BRANCH  40  41
ATOM     41  C   UNL A   1      40.815  27.785  28.416  1.00  0.00     0.031 A 
ATOM     42  C   UNL A   1      41.043  26.369  28.141  1.00  0.00     0.074 A 
ATOM     43  C   UNL A   1      41.970  28.490  28.232  1.00  0.00     0.049 A 
ATOM     44  N   UNL A   1      41.962  25.657  28.710  1.00  0.00    -0.248 NA
ATOM     45  C   UNL A   1      40.319  25.692  27.082  1.00  0.00     0.031 C 
ATOM     46  C   UNL A   1      43.335  28.104  27.825  1.00  0.00     0.029 A 
ATOM     47  N   UNL A   1      42.143  29.851  28.344  1.00  0.00    -0.354 N 
ATOM     48  C   UNL A   1      42.161  24.571  27.887  1.00  0.00     0.074 A 
ATOM     49  C   UNL A   1      41.024  24.562  26.987  1.00  0.00     0.031 C 
ATOM     50  C   UNL A   1      44.198  29.104  28.117  1.00  0.00     0.029 A 
ATOM     51  C   UNL A   1      43.440  30.164  28.741  1.00  0.00     0.049 A 
ATOM     52  H   UNL A   1      41.440  30.516  28.166  1.00  0.00     0.167 HD
ATOM     53  C   UNL A   1      43.361  23.913  27.855  1.00  0.00     0.037 A 
ATOM     54  C   UNL A   1      43.614  30.782  29.950  1.00  0.00     0.037 A 
ATOM     55  C   UNL A   1      44.411  24.664  28.562  1.00  0.00     0.049 A 
ATOM     56  C   UNL A   1      44.218  29.822  30.937  1.00  0.00     0.074 A 
ATOM     57  C   UNL A   1      45.497  25.398  28.098  1.00  0.00     0.029 A 
ATOM     58  N   UNL A   1      44.269  25.010  29.905  1.00  0.00    -0.354 N 
ATOM     59  N   UNL A   1      44.436  28.574  30.639  1.00  0.00    -0.248 NA
ATOM     60  C   UNL A   1      44.637  30.134  32.298  1.00  0.00     0.031 C 
ATOM     61  C   UNL A   1      45.953  26.237  29.146  1.00  0.00     0.029 A 
ATOM     62  C   UNL A   1      45.167  26.004  30.262  1.00  0.00     0.049 A 
ATOM     63  H   UNL A   1      43.618  24.600  30.519  1.00  0.00     0.167 HD
ATOM     64  C   UNL A   1      44.954  27.904  31.700  1.00  0.00     0.074 A 
ATOM     65  C   UNL A   1      45.101  28.937  32.711  1.00  0.00     0.031 C 
ATOM     66  C   UNL A   1      45.194  26.560  31.617  1.00  0.00     0.037 A 
BRANCH  53  67
ATOM     67  C   UNL A   1      43.637  22.766  26.890  1.00  0.00     0.058 A 
ATOM     68  C   UNL A   1      43.055  21.490  27.042  1.00  0.00     0.135 A 
ATOM     69  C   UNL A   1      44.458  22.895  25.747  1.00  0.00     0.135 A 
ATOM     70  F   UNL A   1      42.140  21.242  27.988  1.00  0.00    -0.206 F 
ATOM     71  C   UNL A   1      43.359  20.408  26.208  1.00  0.00     0.059 A 
ATOM     72  C   UNL A   1      44.835  21.816  24.942  1.00  0.00     0.059 A 
ATOM     73  F   UNL A   1      44.877  24.097  25.325  1.00  0.00    -0.206 F 
ATOM     74  C   UNL A   1      44.275  20.571  25.178  1.00  0.00     0.060 A 
BRANCH  74  75
ATOM     75  S   UNL A   1      44.660  19.168  24.112  1.00  0.00     0.124 S 
ATOM     76  O   UNL A   1      46.054  18.894  24.446  1.00  0.00    -0.237 OA
ATOM     77  O   UNL A   1      43.692  18.173  24.563  1.00  0.00    -0.237 OA
ATOM     78  O   UNL A   1      44.436  19.689  22.766  1.00  0.00    -0.744 OA
ENDBRANCH  74  75
ENDBRANCH  53  67
BRANCH  54  79
ATOM     79  C   UNL A   1      42.602  31.900  30.220  1.00  0.00     0.058 A 
ATOM     80  C   UNL A   1      41.672  31.519  31.198  1.00  0.00     0.135 A 
ATOM     81  C   UNL A   1      43.118  33.162  30.465  1.00  0.00     0.135 A 
ATOM     82  F   UNL A   1      40.754  30.582  30.920  1.00  0.00    -0.206 F 
ATOM     83  C   UNL A   1      41.855  31.883  32.542  1.00  0.00     0.059 A 
ATOM     84  C   UNL A   1      43.182  33.629  31.793  1.00  0.00     0.059 A 
ATOM     85  F   UNL A   1      43.748  33.842  29.492  1.00  0.00    -0.206 F 
ATOM     86  C   UNL A   1      42.810  32.820  32.868  1.00  0.00     0.060 A 
BRANCH  86  87
ATOM     87  S   UNL A   1      43.753  32.814  34.602  1.00  0.00     0.124 S 
ATOM     88  O   UNL A   1      45.164  32.964  34.360  1.00  0.00    -0.237 OA
ATOM     89  O   UNL A   1      43.240  33.994  35.279  1.00  0.00    -0.237 OA
ATOM     90  O   UNL A   1      43.509  31.534  35.191  1.00  0.00    -0.744 OA
ENDBRANCH  86  87
ENDBRANCH  54  79
BRANCH  66  91
ATOM     91  C   UNL A   1      45.589  25.666  32.763  1.00  0.00     0.058 A 
ATOM     92  C   UNL A   1      46.902  25.247  33.025  1.00  0.00     0.135 A 
ATOM     93  C   UNL A   1      44.622  25.279  33.726  1.00  0.00     0.135 A 
ATOM     94  F   UNL A   1      47.935  25.655  32.276  1.00  0.00    -0.206 F 
ATOM     95  C   UNL A   1      47.219  24.420  34.102  1.00  0.00     0.059 A 
ATOM     96  C   UNL A   1      44.929  24.515  34.844  1.00  0.00     0.059 A 
ATOM     97  F   UNL A   1      43.333  25.635  33.616  1.00  0.00    -0.206 F 
ATOM     98  C   UNL A   1      46.225  24.055  35.004  1.00  0.00     0.060 A 
BRANCH  98  99
ATOM     99  S   UNL A   1      46.641  23.006  36.404  1.00  0.00     0.124 S 
ATOM    100  O   UNL A   1      47.148  21.815  35.731  1.00  0.00    -0.237 OA
ATOM    101  O   UNL A   1      47.639  23.803  37.113  1.00  0.00    -0.237 OA
ATOM    102  O   UNL A   1      45.368  22.847  37.098  1.00  0.00    -0.744 OA
ENDBRANCH  98  99
ENDBRANCH  66  91
ENDBRANCH  40  41
ENDBRANCH  32  35
ENDBRANCH  30  31
ENDBRANCH   1  30
TORSDOF 15
ENDMDL
MODEL 2
REMARK VINA RESULT:     -13.6      1.506      1.941
REMARK SMILES Cc1ccccc1[C@@H]1[NH2+][C@@H](C(=O)NCCCCNC(=O)c2ccc(-c3c4nc(c(-c5c(F)cc(S(=O)(=O)[O-])cc5F)c5ccc([nH]5)c(-c5c(F)cc(S(=O)(=O)[O-])cc5F)c5nc(c(-c6c(F)cc(S(=O)(=O)[O-])cc6F)c6ccc3[nH]6)C=C5)C=C4)cc2)CC2=c3ccccc3=N[C@H]21
REMARK SMILES IDX 16 1 15 2 14 3 13 4 11 5 12 6 10 8 8 9 9 10 96 11 88 14
REMARK SMILES IDX 95 15 87 16 89 17 94 18 90 19 93 20 91 21 92 22 7 23 1 24
REMARK SMILES IDX 2 25 3 26 4 27 6 28 5 29 17 30 18 31 19 32 20 34 21 35 22 36
REMARK SMILES IDX 86 37 23 38 85 39 24 40 25 41 26 42 79 43 27 44 84 45 78 46
REMARK SMILES IDX 80 47 28 48 83 49 77 50 76 51 29 53 63 54 42 55 62 56 43 57
REMARK SMILES IDX 46 58 61 59 81 60 44 61 45 62 60 64 82 65 47 66 30 67 31 68
REMARK SMILES IDX 40 69 32 70 33 71 39 72 41 73 34 74 35 75 36 76 37 77 38 78
REMARK SMILES IDX 64 79 65 80 74 81 66 82 67 83 73 84 75 85 68 86 69 87 70 88
REMARK SMILES IDX 71 89 72 90 48 91 49 92 58 93 50 94 51 95 57 96 59 97 52 98
REMARK SMILES IDX 53 99 54 100 55 101 56 102
REMARK H PARENT 13 7 9 12 9 13 18 33 80 52 46 63
REMARK Flexibility Score: inf
ROOT
ATOM      1  C   UNL A   1      34.124  33.626  28.304  1.00  0.00     0.023 C 
ENDROOT
BRANCH   1   2
ATOM      2  C   UNL A   1      34.115  32.070  27.739  1.00  0.00     0.023 C 
BRANCH   2   3
ATOM      3  C   UNL A   1      32.921  31.163  27.209  1.00  0.00     0.116 C 
BRANCH   3   4
ATOM      4  N   UNL A   1      32.965  29.703  27.362  1.00  0.00    -0.351 N 
ATOM      5  C   UNL A   1      33.480  28.792  26.471  1.00  0.00     0.278 C 
ATOM      6  O   UNL A   1      34.238  27.904  26.872  1.00  0.00    -0.268 OA
ATOM      7  H   UNL A   1      32.585  29.338  28.193  1.00  0.00     0.163 HD
BRANCH   5   8
ATOM      8  C   UNL A   1      32.926  28.797  25.028  1.00  0.00     0.277 C 
ATOM      9  C   UNL A   1      30.983  27.593  23.867  1.00  0.00     0.243 C 
ATOM     10  N   UNL A   1      31.486  28.385  25.022  1.00  0.00    -0.327 N 
ATOM     11  C   UNL A   1      31.987  26.952  22.853  1.00  0.00     0.196 C 
ATOM     12  H   UNL A   1      31.328  27.829  25.862  1.00  0.00     0.347 HD
ATOM     13  H   UNL A   1      30.974  29.266  24.965  1.00  0.00     0.347 HD
ATOM     14  C   UNL A   1      33.289  26.843  23.534  1.00  0.00    -0.024 C 
ATOM     15  N   UNL A   1      31.649  25.545  22.474  1.00  0.00    -0.270 NA
ATOM     16  C   UNL A   1      33.826  28.126  23.996  1.00  0.00     0.109 C 
ATOM     17  C   UNL A   1      33.687  25.592  23.697  1.00  0.00     0.002 A 
ATOM     18  C   UNL A   1      32.652  24.865  22.950  1.00  0.00     0.066 A 
ATOM     19  C   UNL A   1      34.738  24.929  24.395  1.00  0.00     0.010 A 
ATOM     20  C   UNL A   1      32.874  23.412  22.801  1.00  0.00     0.028 A 
ATOM     21  C   UNL A   1      34.827  23.593  24.286  1.00  0.00     0.001 A 
ATOM     22  C   UNL A   1      33.914  22.844  23.436  1.00  0.00     0.002 A 
BRANCH   9  23
ATOM     23  C   UNL A   1      29.890  28.343  23.100  1.00  0.00     0.015 A 
ATOM     24  C   UNL A   1      27.913  26.854  23.852  1.00  0.00     0.045 C 
ATOM     25  C   UNL A   1      28.505  28.059  23.176  1.00  0.00    -0.042 A 
ATOM     26  C   UNL A   1      27.590  28.984  22.642  1.00  0.00     0.004 A 
ATOM     27  C   UNL A   1      28.023  30.127  21.977  1.00  0.00     0.000 A 
ATOM     28  C   UNL A   1      30.303  29.468  22.357  1.00  0.00     0.010 A 
ATOM     29  C   UNL A   1      29.380  30.351  21.803  1.00  0.00     0.001 A 
ENDBRANCH   9  23
ENDBRANCH   5   8
ENDBRANCH   3   4
ENDBRANCH   2   3
ENDBRANCH   1   2
BRANCH   1  30
ATOM     30  C   UNL A   1      34.006  33.987  29.869  1.00  0.00     0.116 C 
BRANCH  30  31
ATOM     31  N   UNL A   1      34.492  33.077  31.082  1.00  0.00    -0.352 N 
ATOM     32  C   UNL A   1      35.472  32.077  31.486  1.00  0.00     0.251 C 
ATOM     33  H   UNL A   1      33.907  33.259  31.852  1.00  0.00     0.163 HD
ATOM     34  O   UNL A   1      35.920  32.284  32.631  1.00  0.00    -0.269 OA
BRANCH  32  35
ATOM     35  C   UNL A   1      36.126  30.817  30.802  1.00  0.00     0.039 A 
ATOM     36  C   UNL A   1      36.542  29.690  31.553  1.00  0.00     0.014 A 
ATOM     37  C   UNL A   1      36.392  30.679  29.446  1.00  0.00     0.014 A 
ATOM     38  C   UNL A   1      37.685  28.927  31.137  1.00  0.00     0.010 A 
ATOM     39  C   UNL A   1      37.531  29.934  29.023  1.00  0.00     0.010 A 
ATOM     40  C   UNL A   1      38.322  29.210  29.925  1.00  0.00    -0.014 A 
BRANCH  40  41
ATOM     41  C   UNL A   1      39.773  28.896  29.633  1.00  0.00     0.031 A 
ATOM     42  C   UNL A   1      40.199  27.575  29.177  1.00  0.00     0.074 A 
ATOM     43  C   UNL A   1      40.831  29.759  29.620  1.00  0.00     0.049 A 
ATOM     44  N   UNL A   1      41.179  26.909  29.695  1.00  0.00    -0.248 NA
ATOM     45  C   UNL A   1      39.616  26.976  27.991  1.00  0.00     0.031 C 
ATOM     46  C   UNL A   1      42.251  29.611  29.247  1.00  0.00     0.029 A 
ATOM     47  N   UNL A   1      40.817  31.100  29.931  1.00  0.00    -0.354 N 
ATOM     48  C   UNL A   1      41.555  25.989  28.743  1.00  0.00     0.074 A 
ATOM     49  C   UNL A   1      40.468  25.969  27.782  1.00  0.00     0.031 C 
ATOM     50  C   UNL A   1      42.961  30.658  29.727  1.00  0.00     0.029 A 
ATOM     51  C   UNL A   1      42.043  31.512  30.446  1.00  0.00     0.049 A 
ATOM     52  H   UNL A   1      40.040  31.691  29.806  1.00  0.00     0.167 HD
ATOM     53  C   UNL A   1      42.832  25.498  28.692  1.00  0.00     0.037 A 
ATOM     54  C   UNL A   1      42.083  31.963  31.738  1.00  0.00     0.037 A 
ATOM     55  C   UNL A   1      43.742  26.263  29.560  1.00  0.00     0.049 A 
ATOM     56  C   UNL A   1      42.766  30.952  32.616  1.00  0.00     0.074 A 
ATOM     57  C   UNL A   1      44.740  27.187  29.270  1.00  0.00     0.029 A 
ATOM     58  N   UNL A   1      43.499  26.388  30.927  1.00  0.00    -0.354 N 
ATOM     59  N   UNL A   1      43.160  29.799  32.160  1.00  0.00    -0.248 NA
ATOM     60  C   UNL A   1      43.082  31.111  34.031  1.00  0.00     0.031 C 
ATOM     61  C   UNL A   1      45.036  27.914  30.451  1.00  0.00     0.029 A 
ATOM     62  C   UNL A   1      44.241  27.424  31.473  1.00  0.00     0.049 A 
ATOM     63  H   UNL A   1      42.882  25.814  31.437  1.00  0.00     0.167 HD
ATOM     64  C   UNL A   1      43.718  29.050  33.147  1.00  0.00     0.074 A 
ATOM     65  C   UNL A   1      43.683  29.934  34.300  1.00  0.00     0.031 C 
ATOM     66  C   UNL A   1      44.137  27.774  32.892  1.00  0.00     0.037 A 
BRANCH  53  67
ATOM     67  C   UNL A   1      43.298  24.549  27.594  1.00  0.00     0.058 A 
ATOM     68  C   UNL A   1      43.114  23.152  27.670  1.00  0.00     0.135 A 
ATOM     69  C   UNL A   1      43.912  24.987  26.399  1.00  0.00     0.135 A 
ATOM     70  F   UNL A   1      42.421  22.587  28.668  1.00  0.00    -0.206 F 
ATOM     71  C   UNL A   1      43.605  22.264  26.707  1.00  0.00     0.059 A 
ATOM     72  C   UNL A   1      44.474  24.120  25.458  1.00  0.00     0.059 A 
ATOM     73  F   UNL A   1      43.930  26.286  26.064  1.00  0.00    -0.206 F 
ATOM     74  C   UNL A   1      44.312  22.753  25.618  1.00  0.00     0.060 A 
BRANCH  74  75
ATOM     75  S   UNL A   1      44.941  21.598  24.385  1.00  0.00     0.124 S 
ATOM     76  O   UNL A   1      46.371  21.575  24.678  1.00  0.00    -0.237 OA
ATOM     77  O   UNL A   1      44.207  20.379  24.712  1.00  0.00    -0.237 OA
ATOM     78  O   UNL A   1      44.578  22.221  23.115  1.00  0.00    -0.744 OA
ENDBRANCH  74  75
ENDBRANCH  53  67
BRANCH  54  79
ATOM     79  C   UNL A   1      40.920  32.894  32.099  1.00  0.00     0.058 A 
ATOM     80  C   UNL A   1      40.077  32.307  33.055  1.00  0.00     0.135 A 
ATOM     81  C   UNL A   1      41.247  34.198  32.433  1.00  0.00     0.135 A 
ATOM     82  F   UNL A   1      39.304  31.266  32.715  1.00  0.00    -0.206 F 
ATOM     83  C   UNL A   1      40.230  32.596  34.421  1.00  0.00     0.059 A 
ATOM     84  C   UNL A   1      41.267  34.571  33.792  1.00  0.00     0.059 A 
ATOM     85  F   UNL A   1      41.749  35.033  31.509  1.00  0.00    -0.206 F 
ATOM     86  C   UNL A   1      41.041  33.640  34.807  1.00  0.00     0.060 A 
BRANCH  86  87
ATOM     87  S   UNL A   1      42.008  33.651  36.527  1.00  0.00     0.124 S 
ATOM     88  O   UNL A   1      41.936  32.334  37.106  1.00  0.00    -0.237 OA
ATOM     89  O   UNL A   1      43.380  33.951  36.151  1.00  0.00    -0.237 OA
ATOM     90  O   UNL A   1      41.319  34.575  37.373  1.00  0.00    -0.744 OA
ENDBRANCH  86  87
ENDBRANCH  54  79
BRANCH  66  91
ATOM     91  C   UNL A   1      44.598  26.778  33.924  1.00  0.00     0.058 A 
ATOM     92  C   UNL A   1      45.942  26.537  34.247  1.00  0.00     0.135 A 
ATOM     93  C   UNL A   1      43.647  26.088  34.717  1.00  0.00     0.135 A 
ATOM     94  F   UNL A   1      46.939  27.223  33.672  1.00  0.00    -0.206 F 
ATOM     95  C   UNL A   1      46.320  25.606  35.213  1.00  0.00     0.059 A 
ATOM     96  C   UNL A   1      44.001  25.210  35.733  1.00  0.00     0.059 A 
ATOM     97  F   UNL A   1      42.327  26.247  34.537  1.00  0.00    -0.206 F 
ATOM     98  C   UNL A   1      45.343  24.943  35.949  1.00  0.00     0.060 A 
BRANCH  98  99
ATOM     99  S   UNL A   1      45.833  23.758  37.208  1.00  0.00     0.124 S 
ATOM    100  O   UNL A   1      47.259  24.040  37.329  1.00  0.00    -0.237 OA
ATOM    101  O   UNL A   1      45.014  24.153  38.352  1.00  0.00    -0.237 OA
ATOM    102  O   UNL A   1      45.489  22.470  36.615  1.00  0.00    -0.744 OA
ENDBRANCH  98  99
ENDBRANCH  66  91
ENDBRANCH  40  41
ENDBRANCH  32  35
ENDBRANCH  30  31
ENDBRANCH   1  30
TORSDOF 15
ENDMDL
MODEL 3
REMARK VINA RESULT:     -13.3      4.373     10.199
REMARK SMILES Cc1ccccc1[C@@H]1[NH2+][C@@H](C(=O)NCCCCNC(=O)c2ccc(-c3c4nc(c(-c5c(F)cc(S(=O)(=O)[O-])cc5F)c5ccc([nH]5)c(-c5c(F)cc(S(=O)(=O)[O-])cc5F)c5nc(c(-c6c(F)cc(S(=O)(=O)[O-])cc6F)c6ccc3[nH]6)C=C5)C=C4)cc2)CC2=c3ccccc3=N[C@H]21
REMARK SMILES IDX 16 1 15 2 14 3 13 4 11 5 12 6 10 8 8 9 9 10 96 11 88 14
REMARK SMILES IDX 95 15 87 16 89 17 94 18 90 19 93 20 91 21 92 22 7 23 1 24
REMARK SMILES IDX 2 25 3 26 4 27 6 28 5 29 17 30 18 31 19 32 20 34 21 35 22 36
REMARK SMILES IDX 86 37 23 38 85 39 24 40 25 41 26 42 79 43 27 44 84 45 78 46
REMARK SMILES IDX 80 47 28 48 83 49 77 50 76 51 29 53 63 54 42 55 62 56 43 57
REMARK SMILES IDX 46 58 61 59 81 60 44 61 45 62 60 64 82 65 47 66 30 67 31 68
REMARK SMILES IDX 40 69 32 70 33 71 39 72 41 73 34 74 35 75 36 76 37 77 38 78
REMARK SMILES IDX 64 79 65 80 74 81 66 82 67 83 73 84 75 85 68 86 69 87 70 88
REMARK SMILES IDX 71 89 72 90 48 91 49 92 58 93 50 94 51 95 57 96 59 97 52 98
REMARK SMILES IDX 53 99 54 100 55 101 56 102
REMARK H PARENT 13 7 9 12 9 13 18 33 80 52 46 63
REMARK Flexibility Score: inf
ROOT
ATOM      1  C   UNL A   1      34.353  28.289  26.351  1.00  0.00     0.023 C 
ENDROOT
BRANCH   1   2
ATOM      2  C   UNL A   1      34.106  28.048  24.733  1.00  0.00     0.023 C 
BRANCH   2   3
ATOM      3  C   UNL A   1      33.187  27.001  23.964  1.00  0.00     0.116 C 
BRANCH   3   4
ATOM      4  N   UNL A   1      33.771  26.058  23.002  1.00  0.00    -0.351 N 
ATOM      5  C   UNL A   1      33.774  24.686  23.086  1.00  0.00     0.278 C 
ATOM      6  O   UNL A   1      33.450  24.012  22.103  1.00  0.00    -0.268 OA
ATOM      7  H   UNL A   1      34.208  26.450  22.213  1.00  0.00     0.163 HD
BRANCH   5   8
ATOM      8  C   UNL A   1      34.379  24.038  24.352  1.00  0.00     0.277 C 
ATOM      9  C   UNL A   1      36.246  22.328  24.753  1.00  0.00     0.243 C 
ATOM     10  N   UNL A   1      35.774  23.568  24.080  1.00  0.00    -0.327 N 
ATOM     11  C   UNL A   1      35.226  21.384  25.472  1.00  0.00     0.196 C 
ATOM     12  H   UNL A   1      35.851  23.415  23.075  1.00  0.00     0.347 HD
ATOM     13  H   UNL A   1      36.367  24.305  24.466  1.00  0.00     0.347 HD
ATOM     14  C   UNL A   1      33.895  21.662  24.903  1.00  0.00    -0.024 C 
ATOM     15  N   UNL A   1      35.448  19.931  25.196  1.00  0.00    -0.270 NA
ATOM     16  C   UNL A   1      33.461  23.052  25.066  1.00  0.00     0.109 C 
ATOM     17  C   UNL A   1      33.379  20.630  24.257  1.00  0.00     0.002 A 
ATOM     18  C   UNL A   1      34.371  19.587  24.551  1.00  0.00     0.066 A 
ATOM     19  C   UNL A   1      32.247  20.400  23.422  1.00  0.00     0.010 A 
ATOM     20  C   UNL A   1      34.024  18.227  24.088  1.00  0.00     0.028 A 
ATOM     21  C   UNL A   1      32.042  19.154  22.963  1.00  0.00     0.001 A 
ATOM     22  C   UNL A   1      32.914  18.055  23.349  1.00  0.00     0.002 A 
BRANCH   9  23
ATOM     23  C   UNL A   1      37.430  22.604  25.684  1.00  0.00     0.015 A 
ATOM     24  C   UNL A   1      38.637  20.346  25.321  1.00  0.00     0.045 C 
ATOM     25  C   UNL A   1      38.543  21.746  25.858  1.00  0.00    -0.042 A 
ATOM     26  C   UNL A   1      39.681  22.234  26.525  1.00  0.00     0.004 A 
ATOM     27  C   UNL A   1      39.702  23.510  27.080  1.00  0.00     0.000 A 
ATOM     28  C   UNL A   1      37.449  23.863  26.320  1.00  0.00     0.010 A 
ATOM     29  C   UNL A   1      38.573  24.312  27.008  1.00  0.00     0.001 A 
ENDBRANCH   9  23
ENDBRANCH   5   8
ENDBRANCH   3   4
ENDBRANCH   2   3
ENDBRANCH   1   2
BRANCH   1  30
ATOM     30  C   UNL A   1      35.156  29.559  26.932  1.00  0.00     0.116 C 
BRANCH  30  31
ATOM     31  N   UNL A   1      36.262  29.526  28.077  1.00  0.00    -0.352 N 
ATOM     32  C   UNL A   1      37.697  29.495  28.329  1.00  0.00     0.251 C 
ATOM     33  H   UNL A   1      35.800  29.526  28.946  1.00  0.00     0.163 HD
ATOM     34  O   UNL A   1      38.034  30.247  29.264  1.00  0.00    -0.269 OA
BRANCH  32  35
ATOM     35  C   UNL A   1      38.928  28.761  27.674  1.00  0.00     0.039 A 
ATOM     36  C   UNL A   1      39.354  27.482  28.108  1.00  0.00     0.014 A 
ATOM     37  C   UNL A   1      39.729  29.272  26.660  1.00  0.00     0.014 A 
ATOM     38  C   UNL A   1      40.746  27.134  28.073  1.00  0.00     0.010 A 
ATOM     39  C   UNL A   1      41.116  28.942  26.624  1.00  0.00     0.010 A 
ATOM     40  C   UNL A   1      41.679  28.001  27.496  1.00  0.00    -0.014 A 
BRANCH  40  41
ATOM     41  C   UNL A   1      43.146  28.037  27.860  1.00  0.00     0.031 A 
ATOM     42  C   UNL A   1      43.909  29.283  27.866  1.00  0.00     0.074 A 
ATOM     43  C   UNL A   1      43.918  27.014  28.335  1.00  0.00     0.049 A 
ATOM     44  N   UNL A   1      45.056  29.435  27.288  1.00  0.00    -0.248 NA
ATOM     45  C   UNL A   1      43.472  30.416  28.659  1.00  0.00     0.031 C 
ATOM     46  C   UNL A   1      45.307  26.942  28.829  1.00  0.00     0.029 A 
ATOM     47  N   UNL A   1      43.539  25.706  28.529  1.00  0.00    -0.354 N 
ATOM     48  C   UNL A   1      45.639  30.529  27.888  1.00  0.00     0.074 A 
ATOM     49  C   UNL A   1      44.564  31.183  28.611  1.00  0.00     0.031 C 
ATOM     50  C   UNL A   1      45.712  25.652  28.865  1.00  0.00     0.029 A 
ATOM     51  C   UNL A   1      44.620  24.839  28.378  1.00  0.00     0.049 A 
ATOM     52  H   UNL A   1      42.623  25.419  28.746  1.00  0.00     0.167 HD
ATOM     53  C   UNL A   1      46.999  30.673  27.941  1.00  0.00     0.037 A 
ATOM     54  C   UNL A   1      44.581  23.931  27.356  1.00  0.00     0.037 A 
ATOM     55  C   UNL A   1      47.691  29.434  27.548  1.00  0.00     0.049 A 
ATOM     56  C   UNL A   1      45.555  24.323  26.280  1.00  0.00     0.074 A 
ATOM     57  C   UNL A   1      48.375  28.479  28.290  1.00  0.00     0.029 A 
ATOM     58  N   UNL A   1      47.475  28.855  26.297  1.00  0.00    -0.354 N 
ATOM     59  N   UNL A   1      46.239  25.428  26.341  1.00  0.00    -0.248 NA
ATOM     60  C   UNL A   1      45.868  23.559  25.079  1.00  0.00     0.031 C 
ATOM     61  C   UNL A   1      48.501  27.304  27.506  1.00  0.00     0.029 A 
ATOM     62  C   UNL A   1      47.917  27.541  26.274  1.00  0.00     0.049 A 
ATOM     63  H   UNL A   1      47.065  29.320  25.532  1.00  0.00     0.167 HD
ATOM     64  C   UNL A   1      47.023  25.577  25.241  1.00  0.00     0.074 A 
ATOM     65  C   UNL A   1      46.786  24.355  24.493  1.00  0.00     0.031 C 
ATOM     66  C   UNL A   1      47.774  26.708  25.077  1.00  0.00     0.037 A 
BRANCH  53  67
ATOM     67  C   UNL A   1      47.670  31.825  28.678  1.00  0.00     0.058 A 
ATOM     68  C   UNL A   1      48.014  33.036  28.040  1.00  0.00     0.135 A 
ATOM     69  C   UNL A   1      47.964  31.797  30.060  1.00  0.00     0.135 A 
ATOM     70  F   UNL A   1      47.673  33.282  26.767  1.00  0.00    -0.206 F 
ATOM     71  C   UNL A   1      48.698  34.071  28.685  1.00  0.00     0.059 A 
ATOM     72  C   UNL A   1      48.710  32.784  30.710  1.00  0.00     0.059 A 
ATOM     73  F   UNL A   1      47.477  30.831  30.854  1.00  0.00    -0.206 F 
ATOM     74  C   UNL A   1      49.072  33.926  30.014  1.00  0.00     0.060 A 
BRANCH  74  75
ATOM     75  S   UNL A   1      49.955  35.267  30.832  1.00  0.00     0.124 S 
ATOM     76  O   UNL A   1      49.744  36.385  29.918  1.00  0.00    -0.237 OA
ATOM     77  O   UNL A   1      49.258  35.351  32.111  1.00  0.00    -0.237 OA
ATOM     78  O   UNL A   1      51.330  34.777  30.904  1.00  0.00    -0.744 OA
ENDBRANCH  74  75
ENDBRANCH  53  67
BRANCH  54  79
ATOM     79  C   UNL A   1      43.219  23.249  27.192  1.00  0.00     0.058 A 
ATOM     80  C   UNL A   1      42.850  23.167  25.840  1.00  0.00     0.135 A 
ATOM     81  C   UNL A   1      43.044  22.040  27.846  1.00  0.00     0.135 A 
ATOM     82  F   UNL A   1      42.516  24.279  25.171  1.00  0.00    -0.206 F 
ATOM     83  C   UNL A   1      43.095  21.999  25.099  1.00  0.00     0.059 A 
ATOM     84  C   UNL A   1      43.135  20.843  27.107  1.00  0.00     0.059 A 
ATOM     85  F   UNL A   1      43.011  21.989  29.188  1.00  0.00    -0.206 F 
ATOM     86  C   UNL A   1      43.470  20.847  25.752  1.00  0.00     0.060 A 
BRANCH  86  87
ATOM     87  S   UNL A   1      44.618  19.478  24.913  1.00  0.00     0.124 S 
ATOM     88  O   UNL A   1      45.994  19.797  25.191  1.00  0.00    -0.237 OA
ATOM     89  O   UNL A   1      44.248  18.249  25.597  1.00  0.00    -0.237 OA
ATOM     90  O   UNL A   1      44.389  19.566  23.505  1.00  0.00    -0.744 OA
ENDBRANCH  86  87
ENDBRANCH  54  79
BRANCH  66  91
ATOM     91  C   UNL A   1      48.536  27.082  23.833  1.00  0.00     0.058 A 
ATOM     92  C   UNL A   1      47.988  27.787  22.751  1.00  0.00     0.135 A 
ATOM     93  C   UNL A   1      49.926  26.816  23.746  1.00  0.00     0.135 A 
ATOM     94  F   UNL A   1      46.722  28.224  22.763  1.00  0.00    -0.206 F 
ATOM     95  C   UNL A   1      48.736  28.114  21.620  1.00  0.00     0.059 A 
ATOM     96  C   UNL A   1      50.705  27.196  22.660  1.00  0.00     0.059 A 
ATOM     97  F   UNL A   1      50.586  26.176  24.723  1.00  0.00    -0.206 F 
ATOM     98  C   UNL A   1      50.092  27.810  21.581  1.00  0.00     0.060 A 
BRANCH  98  99
ATOM     99  S   UNL A   1      51.058  28.252  20.131  1.00  0.00     0.124 S 
ATOM    100  O   UNL A   1      50.888  29.700  20.102  1.00  0.00    -0.237 OA
ATOM    101  O   UNL A   1      52.396  27.781  20.484  1.00  0.00    -0.237 OA
ATOM    102  O   UNL A   1      50.407  27.516  19.052  1.00  0.00    -0.744 OA
ENDBRANCH  98  99
ENDBRANCH  66  91
ENDBRANCH  40  41
ENDBRANCH  32  35
ENDBRANCH  30  31
ENDBRANCH   1  30
TORSDOF 15
ENDMDL
