MODEL 1
REMARK VINA RESULT:     -11.7      0.000      0.000
REMARK SMILES Cc1ccc(NS(=O)(=O)N2CCCC[C@@H]2C(=O)NCCCCNC(=O)c2ccc(-c3c4nc(c(-c5c(F)cc(S(=O)(=O)[O-])cc5F)c5ccc([nH]5)c(-c5c(F)cc(S(=O)(=O)[O-])cc5F)c5nc(c(-c6c(F)cc(S(=O)(=O)[O-])cc6F)c6ccc3[nH]6)C=C5)C=C4)cc2)c(C)n1
REMARK SMILES IDX 20 1 19 2 18 3 16 4 17 5 15 7 10 8 11 9 12 10 14 11 13 12
REMARK SMILES IDX 7 13 8 14 9 15 6 16 5 18 1 19 2 20 3 21 94 22 4 23 92 24
REMARK SMILES IDX 93 25 21 26 22 27 23 28 24 29 25 31 26 32 27 33 91 34 28 35
REMARK SMILES IDX 90 36 29 37 30 38 31 39 84 40 32 41 89 42 83 43 85 44 33 45
REMARK SMILES IDX 88 46 82 47 81 48 34 50 68 51 47 52 67 53 48 54 51 55 66 56
REMARK SMILES IDX 86 57 49 58 50 59 65 61 87 62 52 63 35 64 36 65 45 66 37 67
REMARK SMILES IDX 38 68 44 69 46 70 39 71 40 72 41 73 42 74 43 75 69 76 70 77
REMARK SMILES IDX 79 78 71 79 72 80 78 81 80 82 73 83 74 84 75 85 76 86 77 87
REMARK SMILES IDX 53 88 54 89 63 90 55 91 56 92 62 93 64 94 57 95 58 96 59 97
REMARK SMILES IDX 60 98 61 99
REMARK H PARENT 18 6 6 17 23 30 85 49 51 60
REMARK Flexibility Score: inf
ROOT
ATOM      1  C   UNL A   1      38.656  23.915  26.558  1.00  0.00     0.023 C 
ENDROOT
BRANCH   1   2
ATOM      2  C   UNL A   1      37.270  23.730  25.835  1.00  0.00     0.116 C 
BRANCH   2   3
ATOM      3  N   UNL A   1      37.255  23.447  24.403  1.00  0.00    -0.355 N 
ATOM      4  C   UNL A   1      36.333  22.877  23.557  1.00  0.00     0.238 C 
ATOM      5  O   UNL A   1      36.652  22.954  22.359  1.00  0.00    -0.273 OA
ATOM      6  H   UNL A   1      38.082  23.722  23.946  1.00  0.00     0.163 HD
BRANCH   4   7
ATOM      7  C   UNL A   1      34.986  22.170  23.934  1.00  0.00     0.163 C 
ATOM      8  N   UNL A   1      33.748  23.048  24.096  1.00  0.00    -0.172 NA
ATOM      9  C   UNL A   1      32.521  22.261  24.465  1.00  0.00     0.105 C 
ATOM     10  C   UNL A   1      32.746  21.485  25.746  1.00  0.00     0.017 C 
ATOM     11  C   UNL A   1      35.120  21.173  25.104  1.00  0.00     0.030 C 
ATOM     12  C   UNL A   1      33.828  20.457  25.494  1.00  0.00     0.004 C 
BRANCH   8  13
ATOM     13  S   UNL A   1      33.358  24.101  22.792  1.00  0.00     0.302 S 
ATOM     14  O   UNL A   1      33.468  23.351  21.556  1.00  0.00    -0.189 OA
ATOM     15  O   UNL A   1      34.099  25.324  22.937  1.00  0.00    -0.189 OA
BRANCH  13  16
ATOM     16  N   UNL A   1      31.739  24.426  22.985  1.00  0.00    -0.269 N 
ATOM     17  H   UNL A   1      31.078  23.746  22.725  1.00  0.00     0.181 HD
BRANCH  16  18
ATOM     18  C   UNL A   1      31.288  25.670  23.521  1.00  0.00     0.071 A 
ATOM     19  C   UNL A   1      31.444  29.602  24.879  1.00  0.00     0.067 C 
ATOM     20  C   UNL A   1      31.030  28.284  24.303  1.00  0.00     0.038 A 
ATOM     21  C   UNL A   1      30.837  27.958  22.965  1.00  0.00     0.026 A 
ATOM     22  N   UNL A   1      31.050  27.334  25.232  1.00  0.00    -0.256 NA
ATOM     23  C   UNL A   1      30.967  26.632  22.571  1.00  0.00     0.030 A 
ATOM     24  C   UNL A   1      31.175  26.046  24.862  1.00  0.00     0.062 A 
ATOM     25  C   UNL A   1      31.340  25.217  26.079  1.00  0.00     0.069 C 
ENDBRANCH  16  18
ENDBRANCH  13  16
ENDBRANCH   8  13
ENDBRANCH   4   7
ENDBRANCH   2   3
ENDBRANCH   1   2
BRANCH   1  26
ATOM     26  C   UNL A   1      39.603  22.728  26.873  1.00  0.00     0.023 C 
BRANCH  26  27
ATOM     27  C   UNL A   1      39.686  21.422  26.004  1.00  0.00     0.116 C 
BRANCH  27  28
ATOM     28  N   UNL A   1      40.419  20.264  26.504  1.00  0.00    -0.352 N 
ATOM     29  C   UNL A   1      41.762  19.967  26.460  1.00  0.00     0.251 C 
ATOM     30  H   UNL A   1      39.861  19.583  26.945  1.00  0.00     0.163 HD
ATOM     31  O   UNL A   1      42.203  18.836  26.605  1.00  0.00    -0.269 OA
BRANCH  29  32
ATOM     32  C   UNL A   1      42.650  21.117  26.518  1.00  0.00     0.039 A 
ATOM     33  C   UNL A   1      42.940  21.850  25.375  1.00  0.00     0.014 A 
ATOM     34  C   UNL A   1      43.029  21.524  27.801  1.00  0.00     0.014 A 
ATOM     35  C   UNL A   1      43.501  23.106  25.541  1.00  0.00     0.010 A 
ATOM     36  C   UNL A   1      43.481  22.808  27.968  1.00  0.00     0.010 A 
ATOM     37  C   UNL A   1      43.698  23.611  26.840  1.00  0.00    -0.014 A 
BRANCH  37  38
ATOM     38  C   UNL A   1      44.100  25.007  27.064  1.00  0.00     0.031 A 
ATOM     39  C   UNL A   1      45.532  25.385  26.861  1.00  0.00     0.074 A 
ATOM     40  C   UNL A   1      43.194  25.865  27.568  1.00  0.00     0.049 A 
ATOM     41  N   UNL A   1      46.125  26.522  27.099  1.00  0.00    -0.248 NA
ATOM     42  C   UNL A   1      46.433  24.321  26.382  1.00  0.00     0.031 C 
ATOM     43  C   UNL A   1      41.796  25.539  27.878  1.00  0.00     0.029 A 
ATOM     44  N   UNL A   1      43.308  27.182  27.912  1.00  0.00    -0.354 N 
ATOM     45  C   UNL A   1      47.467  26.301  26.825  1.00  0.00     0.074 A 
ATOM     46  C   UNL A   1      47.616  24.902  26.496  1.00  0.00     0.031 C 
ATOM     47  C   UNL A   1      41.170  26.646  28.306  1.00  0.00     0.029 A 
ATOM     48  C   UNL A   1      42.129  27.743  28.342  1.00  0.00     0.049 A 
ATOM     49  H   UNL A   1      44.154  27.682  27.857  1.00  0.00     0.167 HD
ATOM     50  C   UNL A   1      48.475  27.203  26.807  1.00  0.00     0.037 A 
ATOM     51  C   UNL A   1      41.864  29.011  28.705  1.00  0.00     0.037 A 
ATOM     52  C   UNL A   1      48.273  28.594  27.106  1.00  0.00     0.049 A 
ATOM     53  C   UNL A   1      42.989  30.007  28.651  1.00  0.00     0.074 A 
ATOM     54  C   UNL A   1      49.186  29.628  27.061  1.00  0.00     0.029 A 
ATOM     55  N   UNL A   1      47.059  29.140  27.507  1.00  0.00    -0.354 N 
ATOM     56  N   UNL A   1      44.243  29.811  28.312  1.00  0.00    -0.248 NA
ATOM     57  C   UNL A   1      42.669  31.389  29.018  1.00  0.00     0.031 C 
ATOM     58  C   UNL A   1      48.534  30.794  27.480  1.00  0.00     0.029 A 
ATOM     59  C   UNL A   1      47.201  30.496  27.731  1.00  0.00     0.049 A 
ATOM     60  H   UNL A   1      46.221  28.636  27.617  1.00  0.00     0.167 HD
ATOM     61  C   UNL A   1      44.857  31.054  28.392  1.00  0.00     0.074 A 
ATOM     62  C   UNL A   1      43.831  31.993  28.808  1.00  0.00     0.031 C 
ATOM     63  C   UNL A   1      46.146  31.395  28.137  1.00  0.00     0.037 A 
BRANCH  50  64
ATOM     64  C   UNL A   1      49.846  26.692  26.462  1.00  0.00     0.058 A 
ATOM     65  C   UNL A   1      50.328  26.695  25.141  1.00  0.00     0.135 A 
ATOM     66  C   UNL A   1      50.671  26.138  27.453  1.00  0.00     0.135 A 
ATOM     67  F   UNL A   1      49.576  27.195  24.146  1.00  0.00    -0.206 F 
ATOM     68  C   UNL A   1      51.542  26.105  24.804  1.00  0.00     0.059 A 
ATOM     69  C   UNL A   1      51.909  25.579  27.146  1.00  0.00     0.059 A 
ATOM     70  F   UNL A   1      50.266  26.107  28.732  1.00  0.00    -0.206 F 
ATOM     71  C   UNL A   1      52.321  25.541  25.814  1.00  0.00     0.060 A 
BRANCH  71  72
ATOM     72  S   UNL A   1      53.871  24.739  25.358  1.00  0.00     0.124 S 
ATOM     73  O   UNL A   1      53.411  23.400  25.002  1.00  0.00    -0.237 OA
ATOM     74  O   UNL A   1      54.337  25.564  24.249  1.00  0.00    -0.237 OA
ATOM     75  O   UNL A   1      54.670  24.824  26.578  1.00  0.00    -0.744 OA
ENDBRANCH  71  72
ENDBRANCH  50  64
BRANCH  51  76
ATOM     76  C   UNL A   1      40.474  29.406  29.052  1.00  0.00     0.058 A 
ATOM     77  C   UNL A   1      40.128  29.699  30.380  1.00  0.00     0.135 A 
ATOM     78  C   UNL A   1      39.484  29.569  28.071  1.00  0.00     0.135 A 
ATOM     79  F   UNL A   1      41.041  29.564  31.354  1.00  0.00    -0.206 F 
ATOM     80  C   UNL A   1      38.852  30.133  30.725  1.00  0.00     0.059 A 
ATOM     81  C   UNL A   1      38.206  30.022  28.387  1.00  0.00     0.059 A 
ATOM     82  F   UNL A   1      39.770  29.327  26.781  1.00  0.00    -0.206 F 
ATOM     83  C   UNL A   1      37.900  30.300  29.719  1.00  0.00     0.060 A 
BRANCH  83  84
ATOM     84  S   UNL A   1      36.271  30.939  30.171  1.00  0.00     0.124 S 
ATOM     85  O   UNL A   1      35.524  30.745  28.934  1.00  0.00    -0.237 OA
ATOM     86  O   UNL A   1      35.903  30.069  31.284  1.00  0.00    -0.237 OA
ATOM     87  O   UNL A   1      36.543  32.326  30.533  1.00  0.00    -0.744 OA
ENDBRANCH  83  84
ENDBRANCH  51  76
BRANCH  63  88
ATOM     88  C   UNL A   1      46.506  32.847  28.260  1.00  0.00     0.058 A 
ATOM     89  C   UNL A   1      47.055  33.374  29.438  1.00  0.00     0.135 A 
ATOM     90  C   UNL A   1      46.376  33.697  27.150  1.00  0.00     0.135 A 
ATOM     91  F   UNL A   1      47.191  32.601  30.526  1.00  0.00    -0.206 F 
ATOM     92  C   UNL A   1      47.452  34.704  29.515  1.00  0.00     0.059 A 
ATOM     93  C   UNL A   1      46.797  35.021  27.196  1.00  0.00     0.059 A 
ATOM     94  F   UNL A   1      45.866  33.234  25.998  1.00  0.00    -0.206 F 
ATOM     95  C   UNL A   1      47.326  35.516  28.387  1.00  0.00     0.060 A 
BRANCH  95  96
ATOM     96  S   UNL A   1      47.901  37.223  28.485  1.00  0.00     0.124 S 
ATOM     97  O   UNL A   1      48.505  37.252  29.813  1.00  0.00    -0.237 OA
ATOM     98  O   UNL A   1      48.830  37.304  27.363  1.00  0.00    -0.237 OA
ATOM     99  O   UNL A   1      46.676  38.004  28.336  1.00  0.00    -0.744 OA
ENDBRANCH  95  96
ENDBRANCH  63  88
ENDBRANCH  37  38
ENDBRANCH  29  32
ENDBRANCH  27  28
ENDBRANCH  26  27
ENDBRANCH   1  26
TORSDOF 17
ENDMDL
MODEL 2
REMARK VINA RESULT:     -11.7      6.397     10.504
REMARK SMILES Cc1ccc(NS(=O)(=O)N2CCCC[C@@H]2C(=O)NCCCCNC(=O)c2ccc(-c3c4nc(c(-c5c(F)cc(S(=O)(=O)[O-])cc5F)c5ccc([nH]5)c(-c5c(F)cc(S(=O)(=O)[O-])cc5F)c5nc(c(-c6c(F)cc(S(=O)(=O)[O-])cc6F)c6ccc3[nH]6)C=C5)C=C4)cc2)c(C)n1
REMARK SMILES IDX 20 1 19 2 18 3 16 4 17 5 15 7 10 8 11 9 12 10 14 11 13 12
REMARK SMILES IDX 7 13 8 14 9 15 6 16 5 18 1 19 2 20 3 21 94 22 4 23 92 24
REMARK SMILES IDX 93 25 21 26 22 27 23 28 24 29 25 31 26 32 27 33 91 34 28 35
REMARK SMILES IDX 90 36 29 37 30 38 31 39 84 40 32 41 89 42 83 43 85 44 33 45
REMARK SMILES IDX 88 46 82 47 81 48 34 50 68 51 47 52 67 53 48 54 51 55 66 56
REMARK SMILES IDX 86 57 49 58 50 59 65 61 87 62 52 63 35 64 36 65 45 66 37 67
REMARK SMILES IDX 38 68 44 69 46 70 39 71 40 72 41 73 42 74 43 75 69 76 70 77
REMARK SMILES IDX 79 78 71 79 72 80 78 81 80 82 73 83 74 84 75 85 76 86 77 87
REMARK SMILES IDX 53 88 54 89 63 90 55 91 56 92 62 93 64 94 57 95 58 96 59 97
REMARK SMILES IDX 60 98 61 99
REMARK H PARENT 18 6 6 17 23 30 85 49 51 60
REMARK Flexibility Score: inf
ROOT
ATOM      1  C   UNL A   1      35.359  29.930  27.545  1.00  0.00     0.023 C 
ENDROOT
BRANCH   1   2
ATOM      2  C   UNL A   1      34.396  28.858  26.912  1.00  0.00     0.116 C 
BRANCH   2   3
ATOM      3  N   UNL A   1      33.151  28.534  27.602  1.00  0.00    -0.355 N 
ATOM      4  C   UNL A   1      31.924  28.078  27.184  1.00  0.00     0.238 C 
ATOM      5  O   UNL A   1      31.163  27.784  28.120  1.00  0.00    -0.273 OA
ATOM      6  H   UNL A   1      33.202  28.673  28.576  1.00  0.00     0.163 HD
BRANCH   4   7
ATOM      7  C   UNL A   1      31.409  27.905  25.713  1.00  0.00     0.163 C 
ATOM      8  N   UNL A   1      32.079  26.836  24.852  1.00  0.00    -0.172 NA
ATOM      9  C   UNL A   1      31.508  26.769  23.462  1.00  0.00     0.105 C 
ATOM     10  C   UNL A   1      31.628  28.109  22.767  1.00  0.00     0.017 C 
ATOM     11  C   UNL A   1      31.276  29.236  24.947  1.00  0.00     0.030 C 
ATOM     12  C   UNL A   1      30.769  29.108  23.511  1.00  0.00     0.004 C 
BRANCH   8  13
ATOM     13  S   UNL A   1      32.152  25.243  25.497  1.00  0.00     0.302 S 
ATOM     14  O   UNL A   1      32.217  24.309  24.390  1.00  0.00    -0.189 OA
ATOM     15  O   UNL A   1      31.119  25.087  26.484  1.00  0.00    -0.189 OA
BRANCH  13  16
ATOM     16  N   UNL A   1      33.633  25.162  26.249  1.00  0.00    -0.269 N 
ATOM     17  H   UNL A   1      33.980  25.957  26.714  1.00  0.00     0.181 HD
BRANCH  16  18
ATOM     18  C   UNL A   1      34.411  23.966  26.234  1.00  0.00     0.071 A 
ATOM     19  C   UNL A   1      35.837  20.271  24.950  1.00  0.00     0.067 C 
ATOM     20  C   UNL A   1      35.676  21.632  25.553  1.00  0.00     0.038 A 
ATOM     21  C   UNL A   1      36.192  22.838  25.092  1.00  0.00     0.026 A 
ATOM     22  N   UNL A   1      34.776  21.614  26.530  1.00  0.00    -0.256 NA
ATOM     23  C   UNL A   1      35.549  24.020  25.439  1.00  0.00     0.030 A 
ATOM     24  C   UNL A   1      34.148  22.753  26.876  1.00  0.00     0.062 A 
ATOM     25  C   UNL A   1      33.087  22.430  27.858  1.00  0.00     0.069 C 
ENDBRANCH  16  18
ENDBRANCH  13  16
ENDBRANCH   8  13
ENDBRANCH   4   7
ENDBRANCH   2   3
ENDBRANCH   1   2
BRANCH   1  26
ATOM     26  C   UNL A   1      35.007  31.439  27.611  1.00  0.00     0.023 C 
BRANCH  26  27
ATOM     27  C   UNL A   1      33.586  31.989  27.992  1.00  0.00     0.116 C 
BRANCH  27  28
ATOM     28  N   UNL A   1      33.295  33.410  27.846  1.00  0.00    -0.352 N 
ATOM     29  C   UNL A   1      33.387  34.441  28.754  1.00  0.00     0.251 C 
ATOM     30  H   UNL A   1      32.981  33.678  26.951  1.00  0.00     0.163 HD
ATOM     31  O   UNL A   1      32.805  35.507  28.619  1.00  0.00    -0.269 OA
BRANCH  29  32
ATOM     32  C   UNL A   1      34.444  34.299  29.742  1.00  0.00     0.039 A 
ATOM     33  C   UNL A   1      34.177  33.775  31.000  1.00  0.00     0.014 A 
ATOM     34  C   UNL A   1      35.740  34.551  29.281  1.00  0.00     0.014 A 
ATOM     35  C   UNL A   1      35.254  33.352  31.763  1.00  0.00     0.010 A 
ATOM     36  C   UNL A   1      36.794  34.033  29.990  1.00  0.00     0.010 A 
ATOM     37  C   UNL A   1      36.552  33.413  31.223  1.00  0.00    -0.014 A 
BRANCH  37  38
ATOM     38  C   UNL A   1      37.695  32.795  31.911  1.00  0.00     0.031 A 
ATOM     39  C   UNL A   1      38.360  31.612  31.282  1.00  0.00     0.074 A 
ATOM     40  C   UNL A   1      38.020  33.233  33.140  1.00  0.00     0.049 A 
ATOM     41  N   UNL A   1      39.307  30.853  31.755  1.00  0.00    -0.248 NA
ATOM     42  C   UNL A   1      37.845  31.190  29.967  1.00  0.00     0.031 C 
ATOM     43  C   UNL A   1      37.353  34.328  33.856  1.00  0.00     0.029 A 
ATOM     44  N   UNL A   1      38.989  32.815  34.009  1.00  0.00    -0.354 N 
ATOM     45  C   UNL A   1      39.482  29.851  30.811  1.00  0.00     0.074 A 
ATOM     46  C   UNL A   1      38.482  30.045  29.787  1.00  0.00     0.031 C 
ATOM     47  C   UNL A   1      37.976  34.533  35.027  1.00  0.00     0.029 A 
ATOM     48  C   UNL A   1      39.052  33.560  35.163  1.00  0.00     0.049 A 
ATOM     49  H   UNL A   1      39.584  32.052  33.827  1.00  0.00     0.167 HD
ATOM     50  C   UNL A   1      40.428  28.885  30.785  1.00  0.00     0.037 A 
ATOM     51  C   UNL A   1      39.905  33.466  36.199  1.00  0.00     0.037 A 
ATOM     52  C   UNL A   1      41.428  28.753  31.809  1.00  0.00     0.049 A 
ATOM     53  C   UNL A   1      40.968  32.405  36.140  1.00  0.00     0.074 A 
ATOM     54  C   UNL A   1      42.484  27.867  31.876  1.00  0.00     0.029 A 
ATOM     55  N   UNL A   1      41.487  29.544  32.951  1.00  0.00    -0.354 N 
ATOM     56  N   UNL A   1      41.182  31.508  35.204  1.00  0.00    -0.248 NA
ATOM     57  C   UNL A   1      41.906  32.343  37.264  1.00  0.00     0.031 C 
ATOM     58  C   UNL A   1      43.156  28.092  33.083  1.00  0.00     0.029 A 
ATOM     59  C   UNL A   1      42.553  29.156  33.740  1.00  0.00     0.049 A 
ATOM     60  H   UNL A   1      40.863  30.273  33.166  1.00  0.00     0.167 HD
ATOM     61  C   UNL A   1      42.303  30.796  35.609  1.00  0.00     0.074 A 
ATOM     62  C   UNL A   1      42.720  31.371  36.874  1.00  0.00     0.031 C 
ATOM     63  C   UNL A   1      42.937  29.767  34.991  1.00  0.00     0.037 A 
BRANCH  50  64
ATOM     64  C   UNL A   1      40.397  27.926  29.627  1.00  0.00     0.058 A 
ATOM     65  C   UNL A   1      39.530  26.820  29.602  1.00  0.00     0.135 A 
ATOM     66  C   UNL A   1      41.284  28.081  28.551  1.00  0.00     0.135 A 
ATOM     67  F   UNL A   1      38.670  26.610  30.613  1.00  0.00    -0.206 F 
ATOM     68  C   UNL A   1      39.593  25.864  28.593  1.00  0.00     0.059 A 
ATOM     69  C   UNL A   1      41.336  27.159  27.508  1.00  0.00     0.059 A 
ATOM     70  F   UNL A   1      42.136  29.118  28.518  1.00  0.00    -0.206 F 
ATOM     71  C   UNL A   1      40.507  26.039  27.554  1.00  0.00     0.060 A 
BRANCH  71  72
ATOM     72  S   UNL A   1      40.610  24.770  26.277  1.00  0.00     0.124 S 
ATOM     73  O   UNL A   1      39.206  24.406  26.114  1.00  0.00    -0.237 OA
ATOM     74  O   UNL A   1      41.209  25.496  25.161  1.00  0.00    -0.237 OA
ATOM     75  O   UNL A   1      41.458  23.746  26.881  1.00  0.00    -0.744 OA
ENDBRANCH  71  72
ENDBRANCH  50  64
BRANCH  51  76
ATOM     76  C   UNL A   1      39.833  34.453  37.308  1.00  0.00     0.058 A 
ATOM     77  C   UNL A   1      40.524  35.672  37.221  1.00  0.00     0.135 A 
ATOM     78  C   UNL A   1      39.028  34.241  38.437  1.00  0.00     0.135 A 
ATOM     79  F   UNL A   1      41.304  35.924  36.159  1.00  0.00    -0.206 F 
ATOM     80  C   UNL A   1      40.424  36.642  38.213  1.00  0.00     0.059 A 
ATOM     81  C   UNL A   1      38.894  35.204  39.434  1.00  0.00     0.059 A 
ATOM     82  F   UNL A   1      38.324  33.103  38.557  1.00  0.00    -0.206 F 
ATOM     83  C   UNL A   1      39.598  36.402  39.312  1.00  0.00     0.060 A 
BRANCH  83  84
ATOM     84  S   UNL A   1      39.417  37.702  40.555  1.00  0.00     0.124 S 
ATOM     85  O   UNL A   1      39.180  36.923  41.764  1.00  0.00    -0.237 OA
ATOM     86  O   UNL A   1      40.706  38.381  40.473  1.00  0.00    -0.237 OA
ATOM     87  O   UNL A   1      38.278  38.475  40.068  1.00  0.00    -0.744 OA
ENDBRANCH  83  84
ENDBRANCH  51  76
BRANCH  63  88
ATOM     88  C   UNL A   1      44.171  29.228  35.655  1.00  0.00     0.058 A 
ATOM     89  C   UNL A   1      45.437  29.786  35.423  1.00  0.00     0.135 A 
ATOM     90  C   UNL A   1      44.065  28.195  36.600  1.00  0.00     0.135 A 
ATOM     91  F   UNL A   1      45.588  30.770  34.523  1.00  0.00    -0.206 F 
ATOM     92  C   UNL A   1      46.561  29.326  36.098  1.00  0.00     0.059 A 
ATOM     93  C   UNL A   1      45.170  27.743  37.310  1.00  0.00     0.059 A 
ATOM     94  F   UNL A   1      42.872  27.638  36.863  1.00  0.00    -0.206 F 
ATOM     95  C   UNL A   1      46.416  28.310  37.045  1.00  0.00     0.060 A 
BRANCH  95  96
ATOM     96  S   UNL A   1      47.875  27.766  37.956  1.00  0.00     0.124 S 
ATOM     97  O   UNL A   1      47.892  28.709  39.070  1.00  0.00    -0.237 OA
ATOM     98  O   UNL A   1      47.535  26.388  38.295  1.00  0.00    -0.237 OA
ATOM     99  O   UNL A   1      48.957  27.919  36.987  1.00  0.00    -0.744 OA
ENDBRANCH  95  96
ENDBRANCH  63  88
ENDBRANCH  37  38
ENDBRANCH  29  32
ENDBRANCH  27  28
ENDBRANCH  26  27
ENDBRANCH   1  26
TORSDOF 17
ENDMDL
MODEL 3
REMARK VINA RESULT:     -11.7      3.145      9.286
REMARK SMILES Cc1ccc(NS(=O)(=O)N2CCCC[C@@H]2C(=O)NCCCCNC(=O)c2ccc(-c3c4nc(c(-c5c(F)cc(S(=O)(=O)[O-])cc5F)c5ccc([nH]5)c(-c5c(F)cc(S(=O)(=O)[O-])cc5F)c5nc(c(-c6c(F)cc(S(=O)(=O)[O-])cc6F)c6ccc3[nH]6)C=C5)C=C4)cc2)c(C)n1
REMARK SMILES IDX 20 1 19 2 18 3 16 4 17 5 15 7 10 8 11 9 12 10 14 11 13 12
REMARK SMILES IDX 7 13 8 14 9 15 6 16 5 18 1 19 2 20 3 21 94 22 4 23 92 24
REMARK SMILES IDX 93 25 21 26 22 27 23 28 24 29 25 31 26 32 27 33 91 34 28 35
REMARK SMILES IDX 90 36 29 37 30 38 31 39 84 40 32 41 89 42 83 43 85 44 33 45
REMARK SMILES IDX 88 46 82 47 81 48 34 50 68 51 47 52 67 53 48 54 51 55 66 56
REMARK SMILES IDX 86 57 49 58 50 59 65 61 87 62 52 63 35 64 36 65 45 66 37 67
REMARK SMILES IDX 38 68 44 69 46 70 39 71 40 72 41 73 42 74 43 75 69 76 70 77
REMARK SMILES IDX 79 78 71 79 72 80 78 81 80 82 73 83 74 84 75 85 76 86 77 87
REMARK SMILES IDX 53 88 54 89 63 90 55 91 56 92 62 93 64 94 57 95 58 96 59 97
REMARK SMILES IDX 60 98 61 99
REMARK H PARENT 18 6 6 17 23 30 85 49 51 60
REMARK Flexibility Score: inf
ROOT
ATOM      1  C   UNL A   1      31.795  27.993  27.306  1.00  0.00     0.023 C 
ENDROOT
BRANCH   1   2
ATOM      2  C   UNL A   1      31.477  26.529  26.824  1.00  0.00     0.116 C 
BRANCH   2   3
ATOM      3  N   UNL A   1      30.422  26.326  25.837  1.00  0.00    -0.355 N 
ATOM      4  C   UNL A   1      30.363  26.455  24.469  1.00  0.00     0.238 C 
ATOM      5  O   UNL A   1      29.301  26.037  23.981  1.00  0.00    -0.273 OA
ATOM      6  H   UNL A   1      29.571  26.034  26.235  1.00  0.00     0.163 HD
BRANCH   4   7
ATOM      7  C   UNL A   1      31.449  27.053  23.509  1.00  0.00     0.163 C 
ATOM      8  N   UNL A   1      32.819  26.381  23.487  1.00  0.00    -0.172 NA
ATOM      9  C   UNL A   1      33.777  27.047  22.537  1.00  0.00     0.105 C 
ATOM     10  C   UNL A   1      33.951  28.509  22.886  1.00  0.00     0.017 C 
ATOM     11  C   UNL A   1      31.581  28.587  23.609  1.00  0.00     0.030 C 
ATOM     12  C   UNL A   1      32.624  29.208  22.680  1.00  0.00     0.004 C 
BRANCH   8  13
ATOM     13  S   UNL A   1      32.856  24.684  23.210  1.00  0.00     0.302 S 
ATOM     14  O   UNL A   1      34.114  24.356  22.569  1.00  0.00    -0.189 OA
ATOM     15  O   UNL A   1      31.626  24.283  22.582  1.00  0.00    -0.189 OA
BRANCH  13  16
ATOM     16  N   UNL A   1      32.929  24.012  24.728  1.00  0.00    -0.269 N 
ATOM     17  H   UNL A   1      32.234  24.237  25.388  1.00  0.00     0.181 HD
BRANCH  16  18
ATOM     18  C   UNL A   1      33.977  23.115  25.096  1.00  0.00     0.071 A 
ATOM     19  C   UNL A   1      37.572  21.030  24.855  1.00  0.00     0.067 C 
ATOM     20  C   UNL A   1      36.339  21.743  25.315  1.00  0.00     0.038 A 
ATOM     21  C   UNL A   1      36.244  23.014  25.872  1.00  0.00     0.026 A 
ATOM     22  N   UNL A   1      35.246  21.085  24.945  1.00  0.00    -0.256 NA
ATOM     23  C   UNL A   1      35.045  23.707  25.760  1.00  0.00     0.030 A 
ATOM     24  C   UNL A   1      34.078  21.747  24.835  1.00  0.00     0.062 A 
ATOM     25  C   UNL A   1      33.069  20.833  24.251  1.00  0.00     0.069 C 
ENDBRANCH  16  18
ENDBRANCH  13  16
ENDBRANCH   8  13
ENDBRANCH   4   7
ENDBRANCH   2   3
ENDBRANCH   1   2
BRANCH   1  26
ATOM     26  C   UNL A   1      33.242  28.517  27.502  1.00  0.00     0.023 C 
BRANCH  26  27
ATOM     27  C   UNL A   1      33.762  29.882  26.925  1.00  0.00     0.116 C 
BRANCH  27  28
ATOM     28  N   UNL A   1      34.047  30.990  27.830  1.00  0.00    -0.352 N 
ATOM     29  C   UNL A   1      34.913  31.074  28.897  1.00  0.00     0.251 C 
ATOM     30  H   UNL A   1      33.537  31.813  27.648  1.00  0.00     0.163 HD
ATOM     31  O   UNL A   1      34.819  31.926  29.770  1.00  0.00    -0.269 OA
BRANCH  29  32
ATOM     32  C   UNL A   1      36.120  30.273  28.776  1.00  0.00     0.039 A 
ATOM     33  C   UNL A   1      36.902  30.333  27.631  1.00  0.00     0.014 A 
ATOM     34  C   UNL A   1      36.517  29.600  29.937  1.00  0.00     0.014 A 
ATOM     35  C   UNL A   1      38.190  29.826  27.704  1.00  0.00     0.010 A 
ATOM     36  C   UNL A   1      37.824  29.199  30.038  1.00  0.00     0.010 A 
ATOM     37  C   UNL A   1      38.671  29.330  28.929  1.00  0.00    -0.014 A 
BRANCH  37  38
ATOM     38  C   UNL A   1      40.086  28.969  29.105  1.00  0.00     0.031 A 
ATOM     39  C   UNL A   1      41.030  29.997  29.641  1.00  0.00     0.074 A 
ATOM     40  C   UNL A   1      40.504  27.771  28.658  1.00  0.00     0.049 A 
ATOM     41  N   UNL A   1      42.324  29.933  29.778  1.00  0.00    -0.248 NA
ATOM     42  C   UNL A   1      40.444  31.297  30.016  1.00  0.00     0.031 C 
ATOM     43  C   UNL A   1      39.651  26.750  28.038  1.00  0.00     0.029 A 
ATOM     44  N   UNL A   1      41.749  27.208  28.650  1.00  0.00    -0.354 N 
ATOM     45  C   UNL A   1      42.709  31.188  30.229  1.00  0.00     0.074 A 
ATOM     46  C   UNL A   1      41.527  32.019  30.250  1.00  0.00     0.031 C 
ATOM     47  C   UNL A   1      40.390  25.662  27.770  1.00  0.00     0.029 A 
ATOM     48  C   UNL A   1      41.770  25.925  28.157  1.00  0.00     0.049 A 
ATOM     49  H   UNL A   1      42.555  27.676  28.967  1.00  0.00     0.167 HD
ATOM     50  C   UNL A   1      43.935  31.591  30.631  1.00  0.00     0.037 A 
ATOM     51  C   UNL A   1      42.797  25.062  28.052  1.00  0.00     0.037 A 
ATOM     52  C   UNL A   1      45.076  30.717  30.628  1.00  0.00     0.049 A 
ATOM     53  C   UNL A   1      44.147  25.516  28.531  1.00  0.00     0.074 A 
ATOM     54  C   UNL A   1      46.359  30.970  31.070  1.00  0.00     0.029 A 
ATOM     55  N   UNL A   1      45.059  29.411  30.152  1.00  0.00    -0.354 N 
ATOM     56  N   UNL A   1      44.492  26.680  29.034  1.00  0.00    -0.248 NA
ATOM     57  C   UNL A   1      45.244  24.548  28.439  1.00  0.00     0.031 C 
ATOM     58  C   UNL A   1      47.131  29.829  30.819  1.00  0.00     0.029 A 
ATOM     59  C   UNL A   1      46.315  28.847  30.273  1.00  0.00     0.049 A 
ATOM     60  H   UNL A   1      44.270  28.954  29.783  1.00  0.00     0.167 HD
ATOM     61  C   UNL A   1      45.839  26.574  29.352  1.00  0.00     0.074 A 
ATOM     62  C   UNL A   1      46.243  25.229  28.985  1.00  0.00     0.031 C 
ATOM     63  C   UNL A   1      46.668  27.497  29.903  1.00  0.00     0.037 A 
BRANCH  50  64
ATOM     64  C   UNL A   1      44.072  33.017  31.089  1.00  0.00     0.058 A 
ATOM     65  C   UNL A   1      43.852  33.391  32.427  1.00  0.00     0.135 A 
ATOM     66  C   UNL A   1      44.372  34.034  30.171  1.00  0.00     0.135 A 
ATOM     67  F   UNL A   1      43.544  32.463  33.348  1.00  0.00    -0.206 F 
ATOM     68  C   UNL A   1      43.853  34.725  32.822  1.00  0.00     0.059 A 
ATOM     69  C   UNL A   1      44.419  35.373  30.552  1.00  0.00     0.059 A 
ATOM     70  F   UNL A   1      44.593  33.739  28.880  1.00  0.00    -0.206 F 
ATOM     71  C   UNL A   1      44.128  35.709  31.874  1.00  0.00     0.060 A 
BRANCH  71  72
ATOM     72  S   UNL A   1      44.081  37.437  32.389  1.00  0.00     0.124 S 
ATOM     73  O   UNL A   1      43.032  37.409  33.404  1.00  0.00    -0.237 OA
ATOM     74  O   UNL A   1      45.436  37.654  32.885  1.00  0.00    -0.237 OA
ATOM     75  O   UNL A   1      43.746  38.150  31.160  1.00  0.00    -0.744 OA
ENDBRANCH  71  72
ENDBRANCH  50  64
BRANCH  51  76
ATOM     76  C   UNL A   1      42.555  23.680  27.563  1.00  0.00     0.058 A 
ATOM     77  C   UNL A   1      42.592  23.395  26.189  1.00  0.00     0.135 A 
ATOM     78  C   UNL A   1      42.353  22.607  28.445  1.00  0.00     0.135 A 
ATOM     79  F   UNL A   1      42.786  24.385  25.306  1.00  0.00    -0.206 F 
ATOM     80  C   UNL A   1      42.433  22.100  25.707  1.00  0.00     0.059 A 
ATOM     81  C   UNL A   1      42.213  21.299  27.988  1.00  0.00     0.059 A 
ATOM     82  F   UNL A   1      42.337  22.821  29.771  1.00  0.00    -0.206 F 
ATOM     83  C   UNL A   1      42.253  21.056  26.616  1.00  0.00     0.060 A 
BRANCH  83  84
ATOM     84  S   UNL A   1      42.126  19.370  25.979  1.00  0.00     0.124 S 
ATOM     85  O   UNL A   1      40.689  19.243  25.764  1.00  0.00    -0.237 OA
ATOM     86  O   UNL A   1      42.949  19.438  24.776  1.00  0.00    -0.237 OA
ATOM     87  O   UNL A   1      42.676  18.560  27.061  1.00  0.00    -0.744 OA
ENDBRANCH  83  84
ENDBRANCH  51  76
BRANCH  63  88
ATOM     88  C   UNL A   1      48.080  27.067  30.181  1.00  0.00     0.058 A 
ATOM     89  C   UNL A   1      49.137  27.403  29.323  1.00  0.00     0.135 A 
ATOM     90  C   UNL A   1      48.382  26.385  31.370  1.00  0.00     0.135 A 
ATOM     91  F   UNL A   1      48.894  28.048  28.171  1.00  0.00    -0.206 F 
ATOM     92  C   UNL A   1      50.449  27.063  29.628  1.00  0.00     0.059 A 
ATOM     93  C   UNL A   1      49.691  26.063  31.711  1.00  0.00     0.059 A 
ATOM     94  F   UNL A   1      47.405  26.052  32.228  1.00  0.00    -0.206 F 
ATOM     95  C   UNL A   1      50.716  26.400  30.828  1.00  0.00     0.060 A 
BRANCH  95  96
ATOM     96  S   UNL A   1      52.431  26.019  31.238  1.00  0.00     0.124 S 
ATOM     97  O   UNL A   1      52.286  24.758  31.958  1.00  0.00    -0.237 OA
ATOM     98  O   UNL A   1      53.054  25.931  29.921  1.00  0.00    -0.237 OA
ATOM     99  O   UNL A   1      52.848  27.161  32.048  1.00  0.00    -0.744 OA
ENDBRANCH  95  96
ENDBRANCH  63  88
ENDBRANCH  37  38
ENDBRANCH  29  32
ENDBRANCH  27  28
ENDBRANCH  26  27
ENDBRANCH   1  26
TORSDOF 17
ENDMDL
