MODEL 1
REMARK VINA RESULT:     -11.5      0.000      0.000
REMARK SMILES O=C(COc1cc(-c2ccccc2)nc(NCc2ccc(Cl)c(Cl)c2)n1)NCCCCNC(=O)c1ccc(-c2c3nc(c(-c4c(F)cc(S(=O)(=O)[O-])cc4F)c4ccc([nH]4)c(-c4c(F)cc(S(=O)(=O)[O-])cc4F)c4nc(c(-c5c(F)cc(S(=O)(=O)[O-])cc5F)c5ccc2[nH]5)C=C4)C=C3)cc1
REMARK SMILES IDX 28 1 27 2 1 3 2 4 3 6 4 7 5 8 6 9 26 10 7 11 15 12 14 13
REMARK SMILES IDX 8 14 9 15 13 16 10 17 12 18 11 19 16 20 17 22 18 23 19 24
REMARK SMILES IDX 25 25 20 26 23 27 21 28 24 29 22 30 29 31 30 32 31 33 32 34
REMARK SMILES IDX 33 35 34 37 35 38 36 39 100 40 37 41 99 42 38 43 39 44 40 45
REMARK SMILES IDX 93 46 41 47 98 48 92 49 94 50 42 51 97 52 91 53 90 54 43 56
REMARK SMILES IDX 77 57 56 58 76 59 57 60 60 61 75 62 95 63 58 64 59 65 74 67
REMARK SMILES IDX 96 68 61 69 44 70 45 71 54 72 46 73 47 74 53 75 55 76 48 77
REMARK SMILES IDX 49 78 50 79 51 80 52 81 78 82 79 83 88 84 80 85 81 86 87 87
REMARK SMILES IDX 89 88 82 89 83 90 84 91 85 92 86 93 62 94 63 95 72 96 64 97
REMARK SMILES IDX 65 98 71 99 73 100 66 101 67 102 68 103 69 104 70 105
REMARK H PARENT 27 5 16 21 32 36 94 55 60 66
REMARK Flexibility Score: inf
ROOT
ATOM      1  C   UNL A   1      39.319  21.645  26.503  1.00  0.00     0.116 C 
ENDROOT
BRANCH   1   2
ATOM      2  N   UNL A   1      38.575  22.155  25.369  1.00  0.00    -0.353 N 
ATOM      3  O   UNL A   1      37.033  20.449  25.283  1.00  0.00    -0.271 OA
ATOM      4  C   UNL A   1      37.422  21.552  24.906  1.00  0.00     0.258 C 
ATOM      5  H   UNL A   1      38.904  22.962  24.911  1.00  0.00     0.163 HD
BRANCH   4   6
ATOM      6  C   UNL A   1      36.623  22.407  23.915  1.00  0.00     0.331 C 
BRANCH   6   7
ATOM      7  O   UNL A   1      36.371  23.742  24.349  1.00  0.00    -0.467 OA
BRANCH   7   8
ATOM      8  C   UNL A   1      35.045  24.003  24.596  1.00  0.00     0.219 A 
ATOM      9  C   UNL A   1      34.623  25.235  25.021  1.00  0.00     0.097 A 
ATOM     10  N   UNL A   1      34.198  23.032  24.232  1.00  0.00    -0.177 NA
ATOM     11  C   UNL A   1      33.264  25.436  25.071  1.00  0.00     0.080 A 
ATOM     12  C   UNL A   1      32.888  23.299  24.326  1.00  0.00     0.226 A 
ATOM     13  N   UNL A   1      32.388  24.467  24.752  1.00  0.00    -0.213 NA
BRANCH  11  14
ATOM     14  C   UNL A   1      32.718  26.750  25.436  1.00  0.00     0.000 A 
ATOM     15  C   UNL A   1      32.758  27.216  26.758  1.00  0.00     0.010 A 
ATOM     16  C   UNL A   1      32.180  27.601  24.451  1.00  0.00     0.010 A 
ATOM     17  C   UNL A   1      32.306  28.499  27.078  1.00  0.00     0.001 A 
ATOM     18  C   UNL A   1      31.725  28.880  24.769  1.00  0.00     0.001 A 
ATOM     19  C   UNL A   1      31.795  29.332  26.083  1.00  0.00     0.000 A 
ENDBRANCH  11  14
BRANCH  12  20
ATOM     20  N   UNL A   1      31.963  22.363  23.976  1.00  0.00    -0.350 N 
ATOM     21  H   UNL A   1      31.085  22.387  24.421  1.00  0.00     0.164 HD
BRANCH  20  22
ATOM     22  C   UNL A   1      32.197  21.344  22.994  1.00  0.00     0.152 C 
BRANCH  22  23
ATOM     23  C   UNL A   1      32.521  20.053  23.712  1.00  0.00    -0.027 A 
ATOM     24  C   UNL A   1      32.291  19.907  25.086  1.00  0.00     0.007 A 
ATOM     25  C   UNL A   1      33.098  18.988  22.999  1.00  0.00     0.027 A 
ATOM     26  C   UNL A   1      32.625  18.713  25.732  1.00  0.00     0.022 A 
ATOM     27  C   UNL A   1      33.435  17.796  23.644  1.00  0.00     0.060 A 
ATOM     28  C   UNL A   1      33.197  17.657  25.015  1.00  0.00     0.059 A 
ATOM     29  Cl  UNL A   1      34.146  16.540  22.694  1.00  0.00    -0.083 Cl
ATOM     30  Cl  UNL A   1      33.589  16.214  25.882  1.00  0.00    -0.083 Cl
ENDBRANCH  22  23
ENDBRANCH  20  22
ENDBRANCH  12  20
ENDBRANCH   7   8
ENDBRANCH   6   7
ENDBRANCH   4   6
ENDBRANCH   1   2
BRANCH   1  31
ATOM     31  C   UNL A   1      40.828  21.725  26.317  1.00  0.00     0.023 C 
BRANCH  31  32
ATOM     32  C   UNL A   1      41.631  21.864  27.612  1.00  0.00     0.023 C 
BRANCH  32  33
ATOM     33  C   UNL A   1      42.535  23.091  27.700  1.00  0.00     0.116 C 
BRANCH  33  34
ATOM     34  N   UNL A   1      42.722  23.755  26.420  1.00  0.00    -0.352 N 
ATOM     35  C   UNL A   1      42.508  25.070  26.078  1.00  0.00     0.251 C 
ATOM     36  H   UNL A   1      43.051  23.179  25.692  1.00  0.00     0.163 HD
ATOM     37  O   UNL A   1      42.590  25.411  24.900  1.00  0.00    -0.269 OA
BRANCH  35  38
ATOM     38  C   UNL A   1      42.149  26.067  27.113  1.00  0.00     0.039 A 
ATOM     39  C   UNL A   1      41.015  25.845  27.899  1.00  0.00     0.014 A 
ATOM     40  C   UNL A   1      42.922  27.214  27.314  1.00  0.00     0.014 A 
ATOM     41  C   UNL A   1      40.701  26.733  28.933  1.00  0.00     0.010 A 
ATOM     42  C   UNL A   1      42.652  28.054  28.393  1.00  0.00     0.010 A 
ATOM     43  C   UNL A   1      41.540  27.822  29.218  1.00  0.00    -0.014 A 
BRANCH  43  44
ATOM     44  C   UNL A   1      41.279  28.717  30.378  1.00  0.00     0.031 A 
ATOM     45  C   UNL A   1      42.082  28.577  31.645  1.00  0.00     0.074 A 
ATOM     46  C   UNL A   1      40.274  29.615  30.317  1.00  0.00     0.049 A 
ATOM     47  N   UNL A   1      41.952  29.214  32.780  1.00  0.00    -0.248 NA
ATOM     48  C   UNL A   1      43.155  27.570  31.643  1.00  0.00     0.031 C 
ATOM     49  C   UNL A   1      39.391  29.817  29.166  1.00  0.00     0.029 A 
ATOM     50  N   UNL A   1      39.817  30.517  31.246  1.00  0.00    -0.354 N 
ATOM     51  C   UNL A   1      42.918  28.684  33.627  1.00  0.00     0.074 A 
ATOM     52  C   UNL A   1      43.586  27.630  32.894  1.00  0.00     0.031 C 
ATOM     53  C   UNL A   1      38.513  30.793  29.451  1.00  0.00     0.029 A 
ATOM     54  C   UNL A   1      38.740  31.256  30.816  1.00  0.00     0.049 A 
ATOM     55  H   UNL A   1      40.222  30.624  32.137  1.00  0.00     0.167 HD
ATOM     56  C   UNL A   1      43.237  29.056  34.891  1.00  0.00     0.037 A 
ATOM     57  C   UNL A   1      38.006  32.192  31.451  1.00  0.00     0.037 A 
ATOM     58  C   UNL A   1      42.577  30.114  35.613  1.00  0.00     0.049 A 
ATOM     59  C   UNL A   1      38.366  32.578  32.860  1.00  0.00     0.074 A 
ATOM     60  C   UNL A   1      42.857  30.597  36.878  1.00  0.00     0.029 A 
ATOM     61  N   UNL A   1      41.501  30.850  35.135  1.00  0.00    -0.354 N 
ATOM     62  N   UNL A   1      39.323  32.106  33.624  1.00  0.00    -0.248 NA
ATOM     63  C   UNL A   1      37.554  33.627  33.492  1.00  0.00     0.031 C 
ATOM     64  C   UNL A   1      41.921  31.587  37.188  1.00  0.00     0.029 A 
ATOM     65  C   UNL A   1      41.093  31.767  36.091  1.00  0.00     0.049 A 
ATOM     66  H   UNL A   1      41.089  30.738  34.248  1.00  0.00     0.167 HD
ATOM     67  C   UNL A   1      39.246  32.821  34.814  1.00  0.00     0.074 A 
ATOM     68  C   UNL A   1      38.158  33.763  34.665  1.00  0.00     0.031 C 
ATOM     69  C   UNL A   1      40.009  32.706  35.930  1.00  0.00     0.037 A 
BRANCH  56  70
ATOM     70  C   UNL A   1      44.354  28.313  35.577  1.00  0.00     0.058 A 
ATOM     71  C   UNL A   1      45.691  28.735  35.477  1.00  0.00     0.135 A 
ATOM     72  C   UNL A   1      44.084  27.187  36.372  1.00  0.00     0.135 A 
ATOM     73  F   UNL A   1      46.010  29.796  34.719  1.00  0.00    -0.206 F 
ATOM     74  C   UNL A   1      46.721  28.048  36.110  1.00  0.00     0.059 A 
ATOM     75  C   UNL A   1      45.095  26.504  37.041  1.00  0.00     0.059 A 
ATOM     76  F   UNL A   1      42.826  26.741  36.505  1.00  0.00    -0.206 F 
ATOM     77  C   UNL A   1      46.413  26.933  36.891  1.00  0.00     0.060 A 
BRANCH  77  78
ATOM     78  S   UNL A   1      47.763  26.054  37.706  1.00  0.00     0.124 S 
ATOM     79  O   UNL A   1      47.160  25.726  38.995  1.00  0.00    -0.237 OA
ATOM     80  O   UNL A   1      47.988  24.927  36.807  1.00  0.00    -0.237 OA
ATOM     81  O   UNL A   1      48.835  27.042  37.750  1.00  0.00    -0.744 OA
ENDBRANCH  77  78
ENDBRANCH  56  70
BRANCH  57  82
ATOM     82  C   UNL A   1      36.861  32.837  30.751  1.00  0.00     0.058 A 
ATOM     83  C   UNL A   1      37.064  33.889  29.844  1.00  0.00     0.135 A 
ATOM     84  C   UNL A   1      35.542  32.406  30.963  1.00  0.00     0.135 A 
ATOM     85  F   UNL A   1      38.306  34.344  29.613  1.00  0.00    -0.206 F 
ATOM     86  C   UNL A   1      36.003  34.500  29.185  1.00  0.00     0.059 A 
ATOM     87  C   UNL A   1      34.466  32.981  30.294  1.00  0.00     0.059 A 
ATOM     88  F   UNL A   1      35.293  31.392  31.808  1.00  0.00    -0.206 F 
ATOM     89  C   UNL A   1      34.706  34.035  29.414  1.00  0.00     0.060 A 
BRANCH  89  90
ATOM     90  S   UNL A   1      33.341  34.800  28.512  1.00  0.00     0.124 S 
ATOM     91  O   UNL A   1      32.656  35.524  29.575  1.00  0.00    -0.237 OA
ATOM     92  O   UNL A   1      34.045  35.619  27.530  1.00  0.00    -0.237 OA
ATOM     93  O   UNL A   1      32.621  33.656  27.961  1.00  0.00    -0.744 OA
ENDBRANCH  89  90
ENDBRANCH  57  82
BRANCH  69  94
ATOM     94  C   UNL A   1      39.723  33.647  37.069  1.00  0.00     0.058 A 
ATOM     95  C   UNL A   1      38.876  33.291  38.131  1.00  0.00     0.135 A 
ATOM     96  C   UNL A   1      40.350  34.903  37.126  1.00  0.00     0.135 A 
ATOM     97  F   UNL A   1      38.247  32.105  38.125  1.00  0.00    -0.206 F 
ATOM     98  C   UNL A   1      38.640  34.156  39.195  1.00  0.00     0.059 A 
ATOM     99  C   UNL A   1      40.153  35.772  38.194  1.00  0.00     0.059 A 
ATOM    100  F   UNL A   1      41.177  35.292  36.142  1.00  0.00    -0.206 F 
ATOM    101  C   UNL A   1      39.287  35.394  39.219  1.00  0.00     0.060 A 
BRANCH 101 102
ATOM    102  S   UNL A   1      38.999  36.492  40.623  1.00  0.00     0.124 S 
ATOM    103  O   UNL A   1      40.314  36.514  41.254  1.00  0.00    -0.237 OA
ATOM    104  O   UNL A   1      38.587  37.731  39.971  1.00  0.00    -0.237 OA
ATOM    105  O   UNL A   1      37.952  35.811  41.379  1.00  0.00    -0.744 OA
ENDBRANCH 101 102
ENDBRANCH  69  94
ENDBRANCH  43  44
ENDBRANCH  35  38
ENDBRANCH  33  34
ENDBRANCH  32  33
ENDBRANCH  31  32
ENDBRANCH   1  31
TORSDOF 20
ENDMDL
MODEL 2
REMARK VINA RESULT:     -11.2      5.218     10.910
REMARK SMILES O=C(COc1cc(-c2ccccc2)nc(NCc2ccc(Cl)c(Cl)c2)n1)NCCCCNC(=O)c1ccc(-c2c3nc(c(-c4c(F)cc(S(=O)(=O)[O-])cc4F)c4ccc([nH]4)c(-c4c(F)cc(S(=O)(=O)[O-])cc4F)c4nc(c(-c5c(F)cc(S(=O)(=O)[O-])cc5F)c5ccc2[nH]5)C=C4)C=C3)cc1
REMARK SMILES IDX 28 1 27 2 1 3 2 4 3 6 4 7 5 8 6 9 26 10 7 11 15 12 14 13
REMARK SMILES IDX 8 14 9 15 13 16 10 17 12 18 11 19 16 20 17 22 18 23 19 24
REMARK SMILES IDX 25 25 20 26 23 27 21 28 24 29 22 30 29 31 30 32 31 33 32 34
REMARK SMILES IDX 33 35 34 37 35 38 36 39 100 40 37 41 99 42 38 43 39 44 40 45
REMARK SMILES IDX 93 46 41 47 98 48 92 49 94 50 42 51 97 52 91 53 90 54 43 56
REMARK SMILES IDX 77 57 56 58 76 59 57 60 60 61 75 62 95 63 58 64 59 65 74 67
REMARK SMILES IDX 96 68 61 69 44 70 45 71 54 72 46 73 47 74 53 75 55 76 48 77
REMARK SMILES IDX 49 78 50 79 51 80 52 81 78 82 79 83 88 84 80 85 81 86 87 87
REMARK SMILES IDX 89 88 82 89 83 90 84 91 85 92 86 93 62 94 63 95 72 96 64 97
REMARK SMILES IDX 65 98 71 99 73 100 66 101 67 102 68 103 69 104 70 105
REMARK H PARENT 27 5 16 21 32 36 94 55 60 66
REMARK Flexibility Score: inf
ROOT
ATOM      1  C   UNL A   1      32.767  36.741  30.650  1.00  0.00     0.116 C 
ENDROOT
BRANCH   1   2
ATOM      2  N   UNL A   1      33.830  36.094  29.908  1.00  0.00    -0.353 N 
ATOM      3  O   UNL A   1      32.549  34.380  29.062  1.00  0.00    -0.271 OA
ATOM      4  C   UNL A   1      33.606  35.004  29.090  1.00  0.00     0.258 C 
ATOM      5  H   UNL A   1      34.746  36.445  29.989  1.00  0.00     0.163 HD
BRANCH   4   6
ATOM      6  C   UNL A   1      34.779  34.667  28.161  1.00  0.00     0.331 C 
BRANCH   6   7
ATOM      7  O   UNL A   1      35.897  34.063  28.809  1.00  0.00    -0.467 OA
BRANCH   7   8
ATOM      8  C   UNL A   1      35.970  32.702  28.634  1.00  0.00     0.219 A 
ATOM      9  C   UNL A   1      36.727  31.912  29.458  1.00  0.00     0.097 A 
ATOM     10  N   UNL A   1      35.127  32.202  27.722  1.00  0.00    -0.177 NA
ATOM     11  C   UNL A   1      36.592  30.553  29.300  1.00  0.00     0.080 A 
ATOM     12  C   UNL A   1      35.066  30.868  27.617  1.00  0.00     0.226 A 
ATOM     13  N   UNL A   1      35.786  30.020  28.365  1.00  0.00    -0.213 NA
BRANCH  11  14
ATOM     14  C   UNL A   1      37.302  29.626  30.192  1.00  0.00     0.000 A 
ATOM     15  C   UNL A   1      37.130  29.673  31.582  1.00  0.00     0.010 A 
ATOM     16  C   UNL A   1      38.144  28.628  29.663  1.00  0.00     0.010 A 
ATOM     17  C   UNL A   1      37.751  28.736  32.412  1.00  0.00     0.001 A 
ATOM     18  C   UNL A   1      38.768  27.694  30.490  1.00  0.00     0.001 A 
ATOM     19  C   UNL A   1      38.565  27.744  31.865  1.00  0.00     0.000 A 
ENDBRANCH  11  14
BRANCH  12  20
ATOM     20  N   UNL A   1      34.234  30.280  26.711  1.00  0.00    -0.350 N 
ATOM     21  H   UNL A   1      33.593  30.852  26.229  1.00  0.00     0.164 HD
BRANCH  20  22
ATOM     22  C   UNL A   1      34.240  28.876  26.422  1.00  0.00     0.152 C 
BRANCH  22  23
ATOM     23  C   UNL A   1      32.995  28.546  25.629  1.00  0.00    -0.027 A 
ATOM     24  C   UNL A   1      32.164  29.554  25.125  1.00  0.00     0.007 A 
ATOM     25  C   UNL A   1      32.641  27.201  25.422  1.00  0.00     0.027 A 
ATOM     26  C   UNL A   1      31.005  29.222  24.419  1.00  0.00     0.022 A 
ATOM     27  C   UNL A   1      31.481  26.868  24.720  1.00  0.00     0.060 A 
ATOM     28  C   UNL A   1      30.660  27.882  24.215  1.00  0.00     0.059 A 
ATOM     29  Cl  UNL A   1      31.116  25.191  24.515  1.00  0.00    -0.083 Cl
ATOM     30  Cl  UNL A   1      29.208  27.548  23.338  1.00  0.00    -0.083 Cl
ENDBRANCH  22  23
ENDBRANCH  20  22
ENDBRANCH  12  20
ENDBRANCH   7   8
ENDBRANCH   6   7
ENDBRANCH   4   6
ENDBRANCH   1   2
BRANCH   1  31
ATOM     31  C   UNL A   1      33.259  37.462  31.898  1.00  0.00     0.023 C 
BRANCH  31  32
ATOM     32  C   UNL A   1      34.418  36.775  32.624  1.00  0.00     0.023 C 
BRANCH  32  33
ATOM     33  C   UNL A   1      34.019  35.729  33.662  1.00  0.00     0.116 C 
BRANCH  33  34
ATOM     34  N   UNL A   1      33.636  34.456  33.071  1.00  0.00    -0.352 N 
ATOM     35  C   UNL A   1      34.429  33.441  32.589  1.00  0.00     0.251 C 
ATOM     36  H   UNL A   1      32.666  34.299  33.007  1.00  0.00     0.163 HD
ATOM     37  O   UNL A   1      33.913  32.499  31.994  1.00  0.00    -0.269 OA
BRANCH  35  38
ATOM     38  C   UNL A   1      35.901  33.495  32.755  1.00  0.00     0.039 A 
ATOM     39  C   UNL A   1      36.517  32.583  33.615  1.00  0.00     0.014 A 
ATOM     40  C   UNL A   1      36.673  34.437  32.069  1.00  0.00     0.014 A 
ATOM     41  C   UNL A   1      37.911  32.565  33.727  1.00  0.00     0.010 A 
ATOM     42  C   UNL A   1      38.064  34.368  32.124  1.00  0.00     0.010 A 
ATOM     43  C   UNL A   1      38.701  33.428  32.952  1.00  0.00    -0.014 A 
BRANCH  43  44
ATOM     44  C   UNL A   1      40.186  33.353  32.981  1.00  0.00     0.031 A 
ATOM     45  C   UNL A   1      40.926  32.489  31.994  1.00  0.00     0.074 A 
ATOM     46  C   UNL A   1      40.870  34.013  33.938  1.00  0.00     0.049 A 
ATOM     47  N   UNL A   1      42.208  32.242  31.909  1.00  0.00    -0.248 NA
ATOM     48  C   UNL A   1      40.114  31.791  30.984  1.00  0.00     0.031 C 
ATOM     49  C   UNL A   1      40.269  34.846  34.983  1.00  0.00     0.029 A 
ATOM     50  N   UNL A   1      42.217  34.079  34.197  1.00  0.00    -0.354 N 
ATOM     51  C   UNL A   1      42.357  31.358  30.847  1.00  0.00     0.074 A 
ATOM     52  C   UNL A   1      41.027  31.065  30.356  1.00  0.00     0.031 C 
ATOM     53  C   UNL A   1      41.243  35.353  35.756  1.00  0.00     0.029 A 
ATOM     54  C   UNL A   1      42.533  34.849  35.292  1.00  0.00     0.049 A 
ATOM     55  H   UNL A   1      42.894  33.618  33.650  1.00  0.00     0.167 HD
ATOM     56  C   UNL A   1      43.497  30.855  30.313  1.00  0.00     0.037 A 
ATOM     57  C   UNL A   1      43.723  35.111  35.870  1.00  0.00     0.037 A 
ATOM     58  C   UNL A   1      44.819  31.160  30.798  1.00  0.00     0.049 A 
ATOM     59  C   UNL A   1      44.974  34.528  35.271  1.00  0.00     0.074 A 
ATOM     60  C   UNL A   1      46.037  30.738  30.296  1.00  0.00     0.029 A 
ATOM     61  N   UNL A   1      45.097  31.958  31.900  1.00  0.00    -0.354 N 
ATOM     62  N   UNL A   1      45.099  33.742  34.228  1.00  0.00    -0.248 NA
ATOM     63  C   UNL A   1      46.247  34.873  35.921  1.00  0.00     0.031 C 
ATOM     64  C   UNL A   1      47.049  31.236  31.123  1.00  0.00     0.029 A 
ATOM     65  C   UNL A   1      46.466  32.020  32.105  1.00  0.00     0.049 A 
ATOM     66  H   UNL A   1      44.421  32.412  32.453  1.00  0.00     0.167 HD
ATOM     67  C   UNL A   1      46.465  33.522  34.079  1.00  0.00     0.074 A 
ATOM     68  C   UNL A   1      47.124  34.267  35.131  1.00  0.00     0.031 C 
ATOM     69  C   UNL A   1      47.113  32.770  33.155  1.00  0.00     0.037 A 
BRANCH  56  70
ATOM     70  C   UNL A   1      43.365  29.922  29.138  1.00  0.00     0.058 A 
ATOM     71  C   UNL A   1      43.507  30.376  27.816  1.00  0.00     0.135 A 
ATOM     72  C   UNL A   1      43.129  28.551  29.334  1.00  0.00     0.135 A 
ATOM     73  F   UNL A   1      43.720  31.678  27.567  1.00  0.00    -0.206 F 
ATOM     74  C   UNL A   1      43.385  29.513  26.732  1.00  0.00     0.059 A 
ATOM     75  C   UNL A   1      43.036  27.664  28.266  1.00  0.00     0.059 A 
ATOM     76  F   UNL A   1      42.986  28.061  30.575  1.00  0.00    -0.206 F 
ATOM     77  C   UNL A   1      43.149  28.157  26.967  1.00  0.00     0.060 A 
BRANCH  77  78
ATOM     78  S   UNL A   1      42.993  27.053  25.548  1.00  0.00     0.124 S 
ATOM     79  O   UNL A   1      42.513  27.970  24.518  1.00  0.00    -0.237 OA
ATOM     80  O   UNL A   1      44.360  26.570  25.378  1.00  0.00    -0.237 OA
ATOM     81  O   UNL A   1      42.029  26.055  25.998  1.00  0.00    -0.744 OA
ENDBRANCH  77  78
ENDBRANCH  56  70
BRANCH  57  82
ATOM     82  C   UNL A   1      43.786  35.976  37.079  1.00  0.00     0.058 A 
ATOM     83  C   UNL A   1      43.634  35.437  38.366  1.00  0.00     0.135 A 
ATOM     84  C   UNL A   1      44.014  37.357  36.975  1.00  0.00     0.135 A 
ATOM     85  F   UNL A   1      43.406  34.123  38.519  1.00  0.00    -0.206 F 
ATOM     86  C   UNL A   1      43.690  36.236  39.504  1.00  0.00     0.059 A 
ATOM     87  C   UNL A   1      44.103  38.173  38.099  1.00  0.00     0.059 A 
ATOM     88  F   UNL A   1      44.182  37.923  35.768  1.00  0.00    -0.206 F 
ATOM     89  C   UNL A   1      43.930  37.604  39.359  1.00  0.00     0.060 A 
BRANCH  89  90
ATOM     90  S   UNL A   1      44.054  38.622  40.845  1.00  0.00     0.124 S 
ATOM     91  O   UNL A   1      44.314  37.617  41.869  1.00  0.00    -0.237 OA
ATOM     92  O   UNL A   1      45.170  39.505  40.518  1.00  0.00    -0.237 OA
ATOM     93  O   UNL A   1      42.749  39.273  40.915  1.00  0.00    -0.744 OA
ENDBRANCH  89  90
ENDBRANCH  57  82
BRANCH  69  94
ATOM     94  C   UNL A   1      48.616  32.743  33.210  1.00  0.00     0.058 A 
ATOM     95  C   UNL A   1      49.315  31.764  33.935  1.00  0.00     0.135 A 
ATOM     96  C   UNL A   1      49.370  33.679  32.482  1.00  0.00     0.135 A 
ATOM     97  F   UNL A   1      48.645  30.848  34.652  1.00  0.00    -0.206 F 
ATOM     98  C   UNL A   1      50.706  31.728  33.956  1.00  0.00     0.059 A 
ATOM     99  C   UNL A   1      50.761  33.645  32.464  1.00  0.00     0.059 A 
ATOM    100  F   UNL A   1      48.755  34.632  31.764  1.00  0.00    -0.206 F 
ATOM    101  C   UNL A   1      51.420  32.672  33.214  1.00  0.00     0.060 A 
BRANCH 101 102
ATOM    102  S   UNL A   1      53.224  32.592  33.223  1.00  0.00     0.124 S 
ATOM    103  O   UNL A   1      53.559  33.377  32.040  1.00  0.00    -0.237 OA
ATOM    104  O   UNL A   1      53.557  33.204  34.506  1.00  0.00    -0.237 OA
ATOM    105  O   UNL A   1      53.502  31.162  33.127  1.00  0.00    -0.744 OA
ENDBRANCH 101 102
ENDBRANCH  69  94
ENDBRANCH  43  44
ENDBRANCH  35  38
ENDBRANCH  33  34
ENDBRANCH  32  33
ENDBRANCH  31  32
ENDBRANCH   1  31
TORSDOF 20
ENDMDL
MODEL 3
REMARK VINA RESULT:     -11.1      2.480      4.400
REMARK SMILES O=C(COc1cc(-c2ccccc2)nc(NCc2ccc(Cl)c(Cl)c2)n1)NCCCCNC(=O)c1ccc(-c2c3nc(c(-c4c(F)cc(S(=O)(=O)[O-])cc4F)c4ccc([nH]4)c(-c4c(F)cc(S(=O)(=O)[O-])cc4F)c4nc(c(-c5c(F)cc(S(=O)(=O)[O-])cc5F)c5ccc2[nH]5)C=C4)C=C3)cc1
REMARK SMILES IDX 28 1 27 2 1 3 2 4 3 6 4 7 5 8 6 9 26 10 7 11 15 12 14 13
REMARK SMILES IDX 8 14 9 15 13 16 10 17 12 18 11 19 16 20 17 22 18 23 19 24
REMARK SMILES IDX 25 25 20 26 23 27 21 28 24 29 22 30 29 31 30 32 31 33 32 34
REMARK SMILES IDX 33 35 34 37 35 38 36 39 100 40 37 41 99 42 38 43 39 44 40 45
REMARK SMILES IDX 93 46 41 47 98 48 92 49 94 50 42 51 97 52 91 53 90 54 43 56
REMARK SMILES IDX 77 57 56 58 76 59 57 60 60 61 75 62 95 63 58 64 59 65 74 67
REMARK SMILES IDX 96 68 61 69 44 70 45 71 54 72 46 73 47 74 53 75 55 76 48 77
REMARK SMILES IDX 49 78 50 79 51 80 52 81 78 82 79 83 88 84 80 85 81 86 87 87
REMARK SMILES IDX 89 88 82 89 83 90 84 91 85 92 86 93 62 94 63 95 72 96 64 97
REMARK SMILES IDX 65 98 71 99 73 100 66 101 67 102 68 103 69 104 70 105
REMARK H PARENT 27 5 16 21 32 36 94 55 60 66
REMARK Flexibility Score: inf
ROOT
ATOM      1  C   UNL A   1      40.058  24.939  27.266  1.00  0.00     0.116 C 
ENDROOT
BRANCH   1   2
ATOM      2  N   UNL A   1      39.041  24.312  26.445  1.00  0.00    -0.353 N 
ATOM      3  O   UNL A   1      39.658  22.139  26.886  1.00  0.00    -0.271 OA
ATOM      4  C   UNL A   1      38.867  22.942  26.397  1.00  0.00     0.258 C 
ATOM      5  H   UNL A   1      38.452  24.883  25.901  1.00  0.00     0.163 HD
BRANCH   4   6
ATOM      6  C   UNL A   1      37.560  22.500  25.729  1.00  0.00     0.331 C 
BRANCH   6   7
ATOM      7  O   UNL A   1      36.428  23.311  26.040  1.00  0.00    -0.467 OA
BRANCH   7   8
ATOM      8  C   UNL A   1      35.223  22.684  25.834  1.00  0.00     0.219 A 
ATOM      9  C   UNL A   1      35.155  21.378  25.425  1.00  0.00     0.097 A 
ATOM     10  N   UNL A   1      34.148  23.380  26.221  1.00  0.00    -0.177 NA
ATOM     11  C   UNL A   1      33.907  20.802  25.416  1.00  0.00     0.080 A 
ATOM     12  C   UNL A   1      32.965  22.754  26.166  1.00  0.00     0.226 A 
ATOM     13  N   UNL A   1      32.802  21.488  25.758  1.00  0.00    -0.213 NA
BRANCH  11  14
ATOM     14  C   UNL A   1      33.745  19.383  25.069  1.00  0.00     0.000 A 
ATOM     15  C   UNL A   1      34.783  18.654  24.472  1.00  0.00     0.010 A 
ATOM     16  C   UNL A   1      32.549  18.704  25.375  1.00  0.00     0.010 A 
ATOM     17  C   UNL A   1      34.642  17.286  24.219  1.00  0.00     0.001 A 
ATOM     18  C   UNL A   1      32.405  17.341  25.119  1.00  0.00     0.001 A 
ATOM     19  C   UNL A   1      33.456  16.630  24.548  1.00  0.00     0.000 A 
ENDBRANCH  11  14
BRANCH  12  20
ATOM     20  N   UNL A   1      31.822  23.395  26.542  1.00  0.00    -0.350 N 
ATOM     21  H   UNL A   1      31.730  23.668  27.483  1.00  0.00     0.164 HD
BRANCH  20  22
ATOM     22  C   UNL A   1      30.747  23.694  25.641  1.00  0.00     0.152 C 
BRANCH  22  23
ATOM     23  C   UNL A   1      30.758  25.180  25.361  1.00  0.00    -0.027 A 
ATOM     24  C   UNL A   1      30.252  25.699  24.163  1.00  0.00     0.007 A 
ATOM     25  C   UNL A   1      31.319  26.059  26.304  1.00  0.00     0.027 A 
ATOM     26  C   UNL A   1      30.298  27.074  23.917  1.00  0.00     0.022 A 
ATOM     27  C   UNL A   1      31.369  27.433  26.058  1.00  0.00     0.060 A 
ATOM     28  C   UNL A   1      30.857  27.943  24.861  1.00  0.00     0.059 A 
ATOM     29  Cl  UNL A   1      32.081  28.442  27.267  1.00  0.00    -0.083 Cl
ATOM     30  Cl  UNL A   1      30.885  29.630  24.485  1.00  0.00    -0.083 Cl
ENDBRANCH  22  23
ENDBRANCH  20  22
ENDBRANCH  12  20
ENDBRANCH   7   8
ENDBRANCH   6   7
ENDBRANCH   4   6
ENDBRANCH   1   2
BRANCH   1  31
ATOM     31  C   UNL A   1      40.935  25.914  26.493  1.00  0.00     0.023 C 
BRANCH  31  32
ATOM     32  C   UNL A   1      41.765  25.284  25.371  1.00  0.00     0.023 C 
BRANCH  32  33
ATOM     33  C   UNL A   1      43.195  25.801  25.239  1.00  0.00     0.116 C 
BRANCH  33  34
ATOM     34  N   UNL A   1      44.167  24.983  25.948  1.00  0.00    -0.352 N 
ATOM     35  C   UNL A   1      44.664  25.124  27.222  1.00  0.00     0.251 C 
ATOM     36  H   UNL A   1      44.519  24.216  25.440  1.00  0.00     0.163 HD
ATOM     37  O   UNL A   1      45.591  24.408  27.594  1.00  0.00    -0.269 OA
BRANCH  35  38
ATOM     38  C   UNL A   1      44.112  26.152  28.135  1.00  0.00     0.039 A 
ATOM     39  C   UNL A   1      43.222  25.757  29.137  1.00  0.00     0.014 A 
ATOM     40  C   UNL A   1      44.465  27.498  28.008  1.00  0.00     0.014 A 
ATOM     41  C   UNL A   1      42.749  26.697  30.058  1.00  0.00     0.010 A 
ATOM     42  C   UNL A   1      44.054  28.418  28.971  1.00  0.00     0.010 A 
ATOM     43  C   UNL A   1      43.193  28.029  30.010  1.00  0.00    -0.014 A 
BRANCH  43  44
ATOM     44  C   UNL A   1      42.781  29.018  31.042  1.00  0.00     0.031 A 
ATOM     45  C   UNL A   1      43.562  29.155  32.323  1.00  0.00     0.074 A 
ATOM     46  C   UNL A   1      41.665  29.753  30.856  1.00  0.00     0.049 A 
ATOM     47  N   UNL A   1      43.317  29.907  33.364  1.00  0.00    -0.248 NA
ATOM     48  C   UNL A   1      44.763  28.315  32.461  1.00  0.00     0.031 C 
ATOM     49  C   UNL A   1      40.793  29.681  29.681  1.00  0.00     0.029 A 
ATOM     50  N   UNL A   1      41.064  30.694  31.656  1.00  0.00    -0.354 N 
ATOM     51  C   UNL A   1      44.323  29.629  34.281  1.00  0.00     0.074 A 
ATOM     52  C   UNL A   1      45.149  28.594  33.697  1.00  0.00     0.031 C 
ATOM     53  C   UNL A   1      39.783  30.553  29.829  1.00  0.00     0.029 A 
ATOM     54  C   UNL A   1      39.908  31.214  31.124  1.00  0.00     0.049 A 
ATOM     55  H   UNL A   1      41.427  30.969  32.529  1.00  0.00     0.167 HD
ATOM     56  C   UNL A   1      44.555  30.200  35.489  1.00  0.00     0.037 A 
ATOM     57  C   UNL A   1      39.036  32.113  31.626  1.00  0.00     0.037 A 
ATOM     58  C   UNL A   1      43.737  31.240  36.061  1.00  0.00     0.049 A 
ATOM     59  C   UNL A   1      39.303  32.721  32.975  1.00  0.00     0.074 A 
ATOM     60  C   UNL A   1      43.915  31.914  37.255  1.00  0.00     0.029 A 
ATOM     61  N   UNL A   1      42.584  31.752  35.482  1.00  0.00    -0.354 N 
ATOM     62  N   UNL A   1      40.295  32.489  33.802  1.00  0.00    -0.248 NA
ATOM     63  C   UNL A   1      38.338  33.719  33.459  1.00  0.00     0.031 C 
ATOM     64  C   UNL A   1      42.844  32.796  37.425  1.00  0.00     0.029 A 
ATOM     65  C   UNL A   1      42.029  32.717  36.308  1.00  0.00     0.049 A 
ATOM     66  H   UNL A   1      42.215  31.471  34.614  1.00  0.00     0.167 HD
ATOM     67  C   UNL A   1      40.089  33.332  34.889  1.00  0.00     0.074 A 
ATOM     68  C   UNL A   1      38.886  34.087  34.609  1.00  0.00     0.031 C 
ATOM     69  C   UNL A   1      40.831  33.468  36.017  1.00  0.00     0.037 A 
BRANCH  56  70
ATOM     70  C   UNL A   1      45.745  29.714  36.275  1.00  0.00     0.058 A 
ATOM     71  C   UNL A   1      47.012  30.305  36.135  1.00  0.00     0.135 A 
ATOM     72  C   UNL A   1      45.611  28.669  37.204  1.00  0.00     0.135 A 
ATOM     73  F   UNL A   1      47.202  31.298  35.252  1.00  0.00    -0.206 F 
ATOM     74  C   UNL A   1      48.109  29.855  36.861  1.00  0.00     0.059 A 
ATOM     75  C   UNL A   1      46.688  28.225  37.965  1.00  0.00     0.059 A 
ATOM     76  F   UNL A   1      44.424  28.069  37.380  1.00  0.00    -0.206 F 
ATOM     77  C   UNL A   1      47.937  28.813  37.775  1.00  0.00     0.060 A 
BRANCH  77  78
ATOM     78  S   UNL A   1      49.373  28.242  38.708  1.00  0.00     0.124 S 
ATOM     79  O   UNL A   1      48.852  28.245  40.073  1.00  0.00    -0.237 OA
ATOM     80  O   UNL A   1      49.619  26.926  38.127  1.00  0.00    -0.237 OA
ATOM     81  O   UNL A   1      50.388  29.251  38.423  1.00  0.00    -0.744 OA
ENDBRANCH  77  78
ENDBRANCH  56  70
BRANCH  57  82
ATOM     82  C   UNL A   1      37.832  32.497  30.838  1.00  0.00     0.058 A 
ATOM     83  C   UNL A   1      36.632  31.779  30.950  1.00  0.00     0.135 A 
ATOM     84  C   UNL A   1      37.853  33.600  29.970  1.00  0.00     0.135 A 
ATOM     85  F   UNL A   1      36.563  30.712  31.761  1.00  0.00    -0.206 F 
ATOM     86  C   UNL A   1      35.501  32.128  30.220  1.00  0.00     0.059 A 
ATOM     87  C   UNL A   1      36.726  33.987  29.250  1.00  0.00     0.059 A 
ATOM     88  F   UNL A   1      38.971  34.332  29.837  1.00  0.00    -0.206 F 
ATOM     89  C   UNL A   1      35.558  33.238  29.374  1.00  0.00     0.060 A 
BRANCH  89  90
ATOM     90  S   UNL A   1      34.068  33.715  28.471  1.00  0.00     0.124 S 
ATOM     91  O   UNL A   1      34.614  34.602  27.452  1.00  0.00    -0.237 OA
ATOM     92  O   UNL A   1      33.572  32.426  27.998  1.00  0.00    -0.237 OA
ATOM     93  O   UNL A   1      33.247  34.356  29.494  1.00  0.00    -0.744 OA
ENDBRANCH  89  90
ENDBRANCH  57  82
BRANCH  69  94
ATOM     94  C   UNL A   1      40.389  34.497  37.021  1.00  0.00     0.058 A 
ATOM     95  C   UNL A   1      39.512  34.181  38.071  1.00  0.00     0.135 A 
ATOM     96  C   UNL A   1      40.893  35.808  36.963  1.00  0.00     0.135 A 
ATOM     97  F   UNL A   1      38.995  32.946  38.171  1.00  0.00    -0.206 F 
ATOM     98  C   UNL A   1      39.131  35.132  39.013  1.00  0.00     0.059 A 
ATOM     99  C   UNL A   1      40.551  36.767  37.911  1.00  0.00     0.059 A 
ATOM    100  F   UNL A   1      41.743  36.163  35.986  1.00  0.00    -0.206 F 
ATOM    101  C   UNL A   1      39.660  36.422  38.926  1.00  0.00     0.060 A 
BRANCH 101 102
ATOM    102  S   UNL A   1      39.185  37.636  40.175  1.00  0.00     0.124 S 
ATOM    103  O   UNL A   1      38.107  38.349  39.499  1.00  0.00    -0.237 OA
ATOM    104  O   UNL A   1      38.781  36.790  41.295  1.00  0.00    -0.237 OA
ATOM    105  O   UNL A   1      40.408  38.403  40.388  1.00  0.00    -0.744 OA
ENDBRANCH 101 102
ENDBRANCH  69  94
ENDBRANCH  43  44
ENDBRANCH  35  38
ENDBRANCH  33  34
ENDBRANCH  32  33
ENDBRANCH  31  32
ENDBRANCH   1  31
TORSDOF 20
ENDMDL
