MODEL 1
REMARK VINA RESULT:     -10.8      0.000      0.000
REMARK SMILES Cc1ccccc1C(=O)Nc1ccc(N2CCC(n3c(C)nc4cccnc43)CC2)c(C(=O)NCCCCNC(=O)c2ccc(-c3c4nc(c(-c5c(F)cc(S(=O)(=O)[O-])cc5F)c5ccc([nH]5)c(-c5c(F)cc(S(=O)(=O)[O-])cc5F)c5nc(c(-c6c(F)cc(S(=O)(=O)[O-])cc6F)c6ccc3[nH]6)C=C5)C=C4)cc2)c1
REMARK SMILES IDX 37 1 36 2 35 3 34 4 32 5 33 6 31 8 11 9 12 10 108 11 13 12
REMARK SMILES IDX 14 13 10 14 8 15 9 16 7 18 1 19 2 20 3 21 4 22 6 23 5 24
REMARK SMILES IDX 15 25 16 26 30 27 17 28 29 29 18 30 19 31 20 32 28 33 21 34
REMARK SMILES IDX 22 35 23 36 27 37 24 38 26 39 25 40 38 41 39 42 40 43 41 45
REMARK SMILES IDX 42 46 43 47 107 48 44 49 106 50 45 51 46 52 47 53 100 54
REMARK SMILES IDX 48 55 105 56 99 57 101 58 49 59 104 60 98 61 97 62 50 64
REMARK SMILES IDX 84 65 63 66 83 67 64 68 67 69 82 70 102 71 65 72 66 73 81 75
REMARK SMILES IDX 103 76 68 77 51 78 52 79 61 80 53 81 54 82 60 83 62 84 55 85
REMARK SMILES IDX 56 86 57 87 58 88 59 89 85 90 86 91 95 92 87 93 88 94 94 95
REMARK SMILES IDX 96 96 89 97 90 98 91 99 92 100 93 101 69 102 70 103 79 104
REMARK SMILES IDX 71 105 72 106 78 107 80 108 73 109 74 110 75 111 76 112
REMARK SMILES IDX 77 113
REMARK H PARENT 34 7 10 17 39 44 101 63 67 74
REMARK Flexibility Score: inf
ROOT
ATOM      1  C   UNL A   1      41.179  30.837  35.062  1.00  0.00     0.023 C 
ENDROOT
BRANCH   1   2
ATOM      2  C   UNL A   1      41.421  30.550  33.583  1.00  0.00     0.023 C 
BRANCH   2   3
ATOM      3  C   UNL A   1      40.211  30.271  32.695  1.00  0.00     0.116 C 
BRANCH   3   4
ATOM      4  N   UNL A   1      39.245  29.290  33.125  1.00  0.00    -0.352 N 
ATOM      5  C   UNL A   1      38.513  28.398  32.360  1.00  0.00     0.253 C 
ATOM      6  O   UNL A   1      37.819  27.584  32.977  1.00  0.00    -0.269 OA
ATOM      7  H   UNL A   1      39.086  29.247  34.096  1.00  0.00     0.163 HD
BRANCH   5   8
ATOM      8  C   UNL A   1      38.438  28.392  30.851  1.00  0.00     0.065 A 
ATOM      9  C   UNL A   1      39.414  27.367  28.845  1.00  0.00     0.042 A 
ATOM     10  C   UNL A   1      38.599  28.136  28.034  1.00  0.00     0.028 A 
ATOM     11  C   UNL A   1      39.235  27.398  30.233  1.00  0.00     0.042 A 
ATOM     12  C   UNL A   1      37.790  29.102  28.621  1.00  0.00     0.029 A 
ATOM     13  C   UNL A   1      37.795  29.335  30.016  1.00  0.00     0.050 A 
BRANCH   9  14
ATOM     14  N   UNL A   1      40.494  26.636  28.333  1.00  0.00    -0.322 N 
ATOM     15  C   UNL A   1      41.727  27.062  27.875  1.00  0.00     0.255 C 
ATOM     16  O   UNL A   1      42.425  26.248  27.263  1.00  0.00    -0.269 OA
ATOM     17  H   UNL A   1      40.352  25.662  28.296  1.00  0.00     0.170 HD
BRANCH  15  18
ATOM     18  C   UNL A   1      42.299  28.429  28.127  1.00  0.00     0.043 A 
ATOM     19  C   UNL A   1      42.641  28.234  30.688  1.00  0.00     0.045 C 
ATOM     20  C   UNL A   1      42.694  28.960  29.375  1.00  0.00    -0.038 A 
ATOM     21  C   UNL A   1      43.230  30.267  29.426  1.00  0.00     0.004 A 
ATOM     22  C   UNL A   1      43.483  30.994  28.265  1.00  0.00     0.000 A 
ATOM     23  C   UNL A   1      42.591  29.173  26.964  1.00  0.00     0.014 A 
ATOM     24  C   UNL A   1      43.189  30.434  27.030  1.00  0.00     0.001 A 
ENDBRANCH  15  18
ENDBRANCH   9  14
BRANCH  13  25
ATOM     25  N   UNL A   1      37.351  30.591  30.419  1.00  0.00    -0.371 N 
ATOM     26  C   UNL A   1      36.332  30.706  31.450  1.00  0.00     0.118 C 
ATOM     27  C   UNL A   1      37.919  31.760  29.754  1.00  0.00     0.118 C 
ATOM     28  C   UNL A   1      35.389  31.867  31.253  1.00  0.00     0.047 C 
ATOM     29  C   UNL A   1      36.818  32.734  29.377  1.00  0.00     0.047 C 
ATOM     30  C   UNL A   1      35.977  33.126  30.592  1.00  0.00     0.094 C 
BRANCH  30  31
ATOM     31  N   UNL A   1      34.862  34.045  30.334  1.00  0.00    -0.310 N 
ATOM     32  C   UNL A   1      33.980  34.151  29.275  1.00  0.00     0.108 A 
ATOM     33  C   UNL A   1      34.409  34.908  31.309  1.00  0.00     0.160 A 
ATOM     34  C   UNL A   1      34.217  33.692  27.882  1.00  0.00     0.088 C 
ATOM     35  N   UNL A   1      32.887  34.805  29.640  1.00  0.00    -0.232 NA
ATOM     36  C   UNL A   1      33.172  35.342  30.865  1.00  0.00     0.108 A 
ATOM     37  N   UNL A   1      35.030  35.228  32.459  1.00  0.00    -0.237 NA
ATOM     38  C   UNL A   1      32.470  36.244  31.671  1.00  0.00     0.034 A 
ATOM     39  C   UNL A   1      34.367  36.182  33.153  1.00  0.00     0.113 A 
ATOM     40  C   UNL A   1      33.115  36.695  32.826  1.00  0.00     0.022 A 
ENDBRANCH  30  31
ENDBRANCH  13  25
ENDBRANCH   5   8
ENDBRANCH   3   4
ENDBRANCH   2   3
ENDBRANCH   1   2
BRANCH   1  41
ATOM     41  C   UNL A   1      41.086  32.297  35.480  1.00  0.00     0.116 C 
BRANCH  41  42
ATOM     42  N   UNL A   1      39.844  32.966  35.163  1.00  0.00    -0.352 N 
ATOM     43  C   UNL A   1      39.623  34.059  34.327  1.00  0.00     0.251 C 
ATOM     44  H   UNL A   1      39.042  32.598  35.599  1.00  0.00     0.163 HD
ATOM     45  O   UNL A   1      38.646  34.748  34.539  1.00  0.00    -0.269 OA
BRANCH  43  46
ATOM     46  C   UNL A   1      40.517  34.338  33.153  1.00  0.00     0.039 A 
ATOM     47  C   UNL A   1      40.247  33.692  31.931  1.00  0.00     0.014 A 
ATOM     48  C   UNL A   1      41.661  35.120  33.243  1.00  0.00     0.014 A 
ATOM     49  C   UNL A   1      41.171  33.730  30.875  1.00  0.00     0.010 A 
ATOM     50  C   UNL A   1      42.599  35.111  32.242  1.00  0.00     0.010 A 
ATOM     51  C   UNL A   1      42.374  34.394  31.068  1.00  0.00    -0.014 A 
BRANCH  51  52
ATOM     52  C   UNL A   1      43.476  34.544  30.131  1.00  0.00     0.031 A 
ATOM     53  C   UNL A   1      44.681  33.706  30.316  1.00  0.00     0.074 A 
ATOM     54  C   UNL A   1      43.137  35.017  28.914  1.00  0.00     0.049 A 
ATOM     55  N   UNL A   1      45.688  33.664  29.515  1.00  0.00    -0.248 NA
ATOM     56  C   UNL A   1      44.821  32.816  31.464  1.00  0.00     0.031 C 
ATOM     57  C   UNL A   1      43.691  34.662  27.612  1.00  0.00     0.029 A 
ATOM     58  N   UNL A   1      42.299  36.085  28.640  1.00  0.00    -0.354 N 
ATOM     59  C   UNL A   1      46.460  32.575  29.867  1.00  0.00     0.074 A 
ATOM     60  C   UNL A   1      45.909  32.122  31.123  1.00  0.00     0.031 C 
ATOM     61  C   UNL A   1      43.358  35.616  26.724  1.00  0.00     0.029 A 
ATOM     62  C   UNL A   1      42.791  36.716  27.495  1.00  0.00     0.049 A 
ATOM     63  H   UNL A   1      41.505  36.351  29.157  1.00  0.00     0.167 HD
ATOM     64  C   UNL A   1      47.388  32.102  28.982  1.00  0.00     0.037 A 
ATOM     65  C   UNL A   1      43.405  37.938  27.604  1.00  0.00     0.037 A 
ATOM     66  C   UNL A   1      47.443  32.959  27.795  1.00  0.00     0.049 A 
ATOM     67  C   UNL A   1      44.830  37.939  27.125  1.00  0.00     0.074 A 
ATOM     68  C   UNL A   1      46.865  32.852  26.540  1.00  0.00     0.029 A 
ATOM     69  N   UNL A   1      47.902  34.268  27.907  1.00  0.00    -0.354 N 
ATOM     70  N   UNL A   1      45.642  36.923  27.223  1.00  0.00    -0.248 NA
ATOM     71  C   UNL A   1      45.421  39.083  26.446  1.00  0.00     0.031 C 
ATOM     72  C   UNL A   1      46.930  34.123  25.917  1.00  0.00     0.029 A 
ATOM     73  C   UNL A   1      47.561  35.000  26.786  1.00  0.00     0.049 A 
ATOM     74  H   UNL A   1      48.400  34.623  28.678  1.00  0.00     0.167 HD
ATOM     75  C   UNL A   1      46.845  37.261  26.662  1.00  0.00     0.074 A 
ATOM     76  C   UNL A   1      46.646  38.611  26.166  1.00  0.00     0.031 C 
ATOM     77  C   UNL A   1      47.912  36.409  26.661  1.00  0.00     0.037 A 
BRANCH  64  78
ATOM     78  C   UNL A   1      48.032  30.723  29.045  1.00  0.00     0.058 A 
ATOM     79  C   UNL A   1      49.199  30.506  29.816  1.00  0.00     0.135 A 
ATOM     80  C   UNL A   1      47.590  29.584  28.343  1.00  0.00     0.135 A 
ATOM     81  F   UNL A   1      49.693  31.455  30.623  1.00  0.00    -0.206 F 
ATOM     82  C   UNL A   1      49.921  29.308  29.799  1.00  0.00     0.059 A 
ATOM     83  C   UNL A   1      48.322  28.393  28.265  1.00  0.00     0.059 A 
ATOM     84  F   UNL A   1      46.391  29.547  27.752  1.00  0.00    -0.206 F 
ATOM     85  C   UNL A   1      49.495  28.265  28.991  1.00  0.00     0.060 A 
BRANCH  85  86
ATOM     86  S   UNL A   1      50.469  26.749  28.932  1.00  0.00     0.124 S 
ATOM     87  O   UNL A   1      51.833  27.262  28.867  1.00  0.00    -0.237 OA
ATOM     88  O   UNL A   1      50.093  26.096  30.181  1.00  0.00    -0.237 OA
ATOM     89  O   UNL A   1      49.997  26.089  27.717  1.00  0.00    -0.744 OA
ENDBRANCH  85  86
ENDBRANCH  64  78
BRANCH  65  90
ATOM     90  C   UNL A   1      42.925  38.733  28.776  1.00  0.00     0.058 A 
ATOM     91  C   UNL A   1      43.753  38.759  29.905  1.00  0.00     0.135 A 
ATOM     92  C   UNL A   1      42.017  39.793  28.612  1.00  0.00     0.135 A 
ATOM     93  F   UNL A   1      44.600  37.742  30.124  1.00  0.00    -0.206 F 
ATOM     94  C   UNL A   1      43.836  39.886  30.712  1.00  0.00     0.059 A 
ATOM     95  C   UNL A   1      42.072  40.927  29.427  1.00  0.00     0.059 A 
ATOM     96  F   UNL A   1      41.169  39.804  27.574  1.00  0.00    -0.206 F 
ATOM     97  C   UNL A   1      43.048  40.995  30.418  1.00  0.00     0.060 A 
BRANCH  97  98
ATOM     98  S   UNL A   1      43.465  42.559  31.228  1.00  0.00     0.124 S 
ATOM     99  O   UNL A   1      44.491  42.157  32.185  1.00  0.00    -0.237 OA
ATOM    100  O   UNL A   1      43.939  43.357  30.103  1.00  0.00    -0.237 OA
ATOM    101  O   UNL A   1      42.196  42.989  31.806  1.00  0.00    -0.744 OA
ENDBRANCH  97  98
ENDBRANCH  65  90
BRANCH  77 102
ATOM    102  C   UNL A   1      49.354  36.814  26.442  1.00  0.00     0.058 A 
ATOM    103  C   UNL A   1      50.093  36.493  25.288  1.00  0.00     0.135 A 
ATOM    104  C   UNL A   1      50.004  37.693  27.345  1.00  0.00     0.135 A 
ATOM    105  F   UNL A   1      49.562  35.793  24.277  1.00  0.00    -0.206 F 
ATOM    106  C   UNL A   1      51.401  36.930  25.084  1.00  0.00     0.059 A 
ATOM    107  C   UNL A   1      51.287  38.195  27.126  1.00  0.00     0.059 A 
ATOM    108  F   UNL A   1      49.402  38.124  28.462  1.00  0.00    -0.206 F 
ATOM    109  C   UNL A   1      51.991  37.784  26.006  1.00  0.00     0.060 A 
BRANCH 109 110
ATOM    110  S   UNL A   1      53.647  38.410  25.686  1.00  0.00     0.124 S 
ATOM    111  O   UNL A   1      54.463  37.237  25.981  1.00  0.00    -0.237 OA
ATOM    112  O   UNL A   1      53.578  38.791  24.277  1.00  0.00    -0.237 OA
ATOM    113  O   UNL A   1      53.774  39.523  26.622  1.00  0.00    -0.744 OA
ENDBRANCH 109 110
ENDBRANCH  77 102
ENDBRANCH  51  52
ENDBRANCH  43  46
ENDBRANCH  41  42
ENDBRANCH   1  41
TORSDOF 18
ENDMDL
MODEL 2
REMARK VINA RESULT:     -10.6      6.616     14.182
REMARK SMILES Cc1ccccc1C(=O)Nc1ccc(N2CCC(n3c(C)nc4cccnc43)CC2)c(C(=O)NCCCCNC(=O)c2ccc(-c3c4nc(c(-c5c(F)cc(S(=O)(=O)[O-])cc5F)c5ccc([nH]5)c(-c5c(F)cc(S(=O)(=O)[O-])cc5F)c5nc(c(-c6c(F)cc(S(=O)(=O)[O-])cc6F)c6ccc3[nH]6)C=C5)C=C4)cc2)c1
REMARK SMILES IDX 37 1 36 2 35 3 34 4 32 5 33 6 31 8 11 9 12 10 108 11 13 12
REMARK SMILES IDX 14 13 10 14 8 15 9 16 7 18 1 19 2 20 3 21 4 22 6 23 5 24
REMARK SMILES IDX 15 25 16 26 30 27 17 28 29 29 18 30 19 31 20 32 28 33 21 34
REMARK SMILES IDX 22 35 23 36 27 37 24 38 26 39 25 40 38 41 39 42 40 43 41 45
REMARK SMILES IDX 42 46 43 47 107 48 44 49 106 50 45 51 46 52 47 53 100 54
REMARK SMILES IDX 48 55 105 56 99 57 101 58 49 59 104 60 98 61 97 62 50 64
REMARK SMILES IDX 84 65 63 66 83 67 64 68 67 69 82 70 102 71 65 72 66 73 81 75
REMARK SMILES IDX 103 76 68 77 51 78 52 79 61 80 53 81 54 82 60 83 62 84 55 85
REMARK SMILES IDX 56 86 57 87 58 88 59 89 85 90 86 91 95 92 87 93 88 94 94 95
REMARK SMILES IDX 96 96 89 97 90 98 91 99 92 100 93 101 69 102 70 103 79 104
REMARK SMILES IDX 71 105 72 106 78 107 80 108 73 109 74 110 75 111 76 112
REMARK SMILES IDX 77 113
REMARK H PARENT 34 7 10 17 39 44 101 63 67 74
REMARK Flexibility Score: inf
ROOT
ATOM      1  C   UNL A   1      46.624  28.637  27.137  1.00  0.00     0.023 C 
ENDROOT
BRANCH   1   2
ATOM      2  C   UNL A   1      45.347  28.082  27.760  1.00  0.00     0.023 C 
BRANCH   2   3
ATOM      3  C   UNL A   1      44.036  28.818  27.494  1.00  0.00     0.116 C 
BRANCH   3   4
ATOM      4  N   UNL A   1      43.503  28.828  26.154  1.00  0.00    -0.352 N 
ATOM      5  C   UNL A   1      42.205  28.593  25.732  1.00  0.00     0.253 C 
ATOM      6  O   UNL A   1      41.978  28.760  24.530  1.00  0.00    -0.269 OA
ATOM      7  H   UNL A   1      44.151  29.031  25.441  1.00  0.00     0.163 HD
BRANCH   5   8
ATOM      8  C   UNL A   1      41.080  28.082  26.601  1.00  0.00     0.065 A 
ATOM      9  C   UNL A   1      39.301  28.808  28.131  1.00  0.00     0.042 A 
ATOM     10  C   UNL A   1      38.923  27.494  28.343  1.00  0.00     0.028 A 
ATOM     11  C   UNL A   1      40.274  29.100  27.167  1.00  0.00     0.042 A 
ATOM     12  C   UNL A   1      39.685  26.479  27.777  1.00  0.00     0.029 A 
ATOM     13  C   UNL A   1      40.845  26.750  27.013  1.00  0.00     0.050 A 
BRANCH   9  14
ATOM     14  N   UNL A   1      38.823  29.856  28.927  1.00  0.00    -0.322 N 
ATOM     15  C   UNL A   1      38.943  30.074  30.287  1.00  0.00     0.255 C 
ATOM     16  O   UNL A   1      38.241  30.955  30.793  1.00  0.00    -0.269 OA
ATOM     17  H   UNL A   1      38.322  30.549  28.440  1.00  0.00     0.170 HD
BRANCH  15  18
ATOM     18  C   UNL A   1      39.915  29.353  31.179  1.00  0.00     0.043 A 
ATOM     19  C   UNL A   1      38.232  27.830  32.428  1.00  0.00     0.045 C 
ATOM     20  C   UNL A   1      39.605  28.366  32.141  1.00  0.00    -0.038 A 
ATOM     21  C   UNL A   1      40.654  27.780  32.885  1.00  0.00     0.004 A 
ATOM     22  C   UNL A   1      41.988  28.068  32.612  1.00  0.00     0.000 A 
ATOM     23  C   UNL A   1      41.275  29.608  30.901  1.00  0.00     0.014 A 
ATOM     24  C   UNL A   1      42.301  28.964  31.598  1.00  0.00     0.001 A 
ENDBRANCH  15  18
ENDBRANCH   9  14
BRANCH  13  25
ATOM     25  N   UNL A   1      41.764  25.709  26.922  1.00  0.00    -0.371 N 
ATOM     26  C   UNL A   1      42.342  25.359  25.633  1.00  0.00     0.118 C 
ATOM     27  C   UNL A   1      42.091  24.980  28.143  1.00  0.00     0.118 C 
ATOM     28  C   UNL A   1      42.610  23.885  25.462  1.00  0.00     0.047 C 
ATOM     29  C   UNL A   1      42.070  23.485  27.883  1.00  0.00     0.047 C 
ATOM     30  C   UNL A   1      42.998  23.105  26.730  1.00  0.00     0.094 C 
BRANCH  30  31
ATOM     31  N   UNL A   1      43.033  21.681  26.374  1.00  0.00    -0.310 N 
ATOM     32  C   UNL A   1      42.061  20.698  26.407  1.00  0.00     0.108 A 
ATOM     33  C   UNL A   1      44.123  21.132  25.734  1.00  0.00     0.160 A 
ATOM     34  C   UNL A   1      40.854  20.683  27.273  1.00  0.00     0.088 C 
ATOM     35  N   UNL A   1      42.383  19.695  25.604  1.00  0.00    -0.232 NA
ATOM     36  C   UNL A   1      43.684  19.915  25.244  1.00  0.00     0.108 A 
ATOM     37  N   UNL A   1      45.342  21.684  25.594  1.00  0.00    -0.237 NA
ATOM     38  C   UNL A   1      44.598  19.127  24.539  1.00  0.00     0.034 A 
ATOM     39  C   UNL A   1      46.222  20.843  25.002  1.00  0.00     0.113 A 
ATOM     40  C   UNL A   1      45.910  19.602  24.455  1.00  0.00     0.022 A 
ENDBRANCH  30  31
ENDBRANCH  13  25
ENDBRANCH   5   8
ENDBRANCH   3   4
ENDBRANCH   2   3
ENDBRANCH   1   2
BRANCH   1  41
ATOM     41  C   UNL A   1      47.811  27.692  27.030  1.00  0.00     0.116 C 
BRANCH  41  42
ATOM     42  N   UNL A   1      47.515  26.359  26.554  1.00  0.00    -0.352 N 
ATOM     43  C   UNL A   1      47.407  25.171  27.275  1.00  0.00     0.251 C 
ATOM     44  H   UNL A   1      47.371  26.279  25.583  1.00  0.00     0.163 HD
ATOM     45  O   UNL A   1      47.615  24.129  26.688  1.00  0.00    -0.269 OA
BRANCH  43  46
ATOM     46  C   UNL A   1      46.973  25.168  28.712  1.00  0.00     0.039 A 
ATOM     47  C   UNL A   1      45.638  24.837  29.013  1.00  0.00     0.014 A 
ATOM     48  C   UNL A   1      47.797  25.580  29.752  1.00  0.00     0.014 A 
ATOM     49  C   UNL A   1      45.116  25.039  30.301  1.00  0.00     0.010 A 
ATOM     50  C   UNL A   1      47.281  25.842  30.996  1.00  0.00     0.010 A 
ATOM     51  C   UNL A   1      45.934  25.602  31.269  1.00  0.00    -0.014 A 
BRANCH  51  52
ATOM     52  C   UNL A   1      45.606  25.919  32.650  1.00  0.00     0.031 A 
ATOM     53  C   UNL A   1      45.579  27.338  33.064  1.00  0.00     0.074 A 
ATOM     54  C   UNL A   1      44.863  24.992  33.290  1.00  0.00     0.049 A 
ATOM     55  N   UNL A   1      45.214  27.769  34.221  1.00  0.00    -0.248 NA
ATOM     56  C   UNL A   1      45.970  28.406  32.149  1.00  0.00     0.031 C 
ATOM     57  C   UNL A   1      43.810  25.195  34.281  1.00  0.00     0.029 A 
ATOM     58  N   UNL A   1      45.055  23.621  33.283  1.00  0.00    -0.354 N 
ATOM     59  C   UNL A   1      45.052  29.137  34.128  1.00  0.00     0.074 A 
ATOM     60  C   UNL A   1      45.596  29.487  32.836  1.00  0.00     0.031 C 
ATOM     61  C   UNL A   1      43.604  24.038  34.936  1.00  0.00     0.029 A 
ATOM     62  C   UNL A   1      44.684  23.143  34.542  1.00  0.00     0.049 A 
ATOM     63  H   UNL A   1      45.392  23.083  32.531  1.00  0.00     0.167 HD
ATOM     64  C   UNL A   1      44.349  29.792  35.100  1.00  0.00     0.037 A 
ATOM     65  C   UNL A   1      45.651  22.719  35.419  1.00  0.00     0.037 A 
ATOM     66  C   UNL A   1      43.962  28.861  36.163  1.00  0.00     0.049 A 
ATOM     67  C   UNL A   1      45.670  23.489  36.709  1.00  0.00     0.074 A 
ATOM     68  C   UNL A   1      42.785  28.175  36.418  1.00  0.00     0.029 A 
ATOM     69  N   UNL A   1      44.940  28.277  36.963  1.00  0.00    -0.354 N 
ATOM     70  N   UNL A   1      45.367  24.753  36.820  1.00  0.00    -0.248 NA
ATOM     71  C   UNL A   1      45.983  22.860  37.986  1.00  0.00     0.031 C 
ATOM     72  C   UNL A   1      43.074  27.136  37.337  1.00  0.00     0.029 A 
ATOM     73  C   UNL A   1      44.422  27.199  37.654  1.00  0.00     0.049 A 
ATOM     74  H   UNL A   1      45.871  28.590  37.026  1.00  0.00     0.167 HD
ATOM     75  C   UNL A   1      45.463  25.119  38.136  1.00  0.00     0.074 A 
ATOM     76  C   UNL A   1      45.823  23.894  38.827  1.00  0.00     0.031 C 
ATOM     77  C   UNL A   1      45.249  26.402  38.551  1.00  0.00     0.037 A 
BRANCH  64  78
ATOM     78  C   UNL A   1      43.762  31.190  34.961  1.00  0.00     0.058 A 
ATOM     79  C   UNL A   1      44.594  32.333  35.022  1.00  0.00     0.135 A 
ATOM     80  C   UNL A   1      42.392  31.488  34.814  1.00  0.00     0.135 A 
ATOM     81  F   UNL A   1      45.930  32.226  35.058  1.00  0.00    -0.206 F 
ATOM     82  C   UNL A   1      44.104  33.642  35.050  1.00  0.00     0.059 A 
ATOM     83  C   UNL A   1      41.870  32.785  34.895  1.00  0.00     0.059 A 
ATOM     84  F   UNL A   1      41.497  30.539  34.517  1.00  0.00    -0.206 F 
ATOM     85  C   UNL A   1      42.735  33.860  35.023  1.00  0.00     0.060 A 
BRANCH  85  86
ATOM     86  S   UNL A   1      42.115  35.550  35.121  1.00  0.00     0.124 S 
ATOM     87  O   UNL A   1      43.013  36.260  34.218  1.00  0.00    -0.237 OA
ATOM     88  O   UNL A   1      40.739  35.397  34.661  1.00  0.00    -0.237 OA
ATOM     89  O   UNL A   1      42.266  35.885  36.535  1.00  0.00    -0.744 OA
ENDBRANCH  85  86
ENDBRANCH  64  78
BRANCH  65  90
ATOM     90  C   UNL A   1      46.883  22.217  34.737  1.00  0.00     0.058 A 
ATOM     91  C   UNL A   1      48.010  23.046  34.775  1.00  0.00     0.135 A 
ATOM     92  C   UNL A   1      47.094  20.842  34.537  1.00  0.00     0.135 A 
ATOM     93  F   UNL A   1      47.850  24.370  34.914  1.00  0.00    -0.206 F 
ATOM     94  C   UNL A   1      49.293  22.516  34.839  1.00  0.00     0.059 A 
ATOM     95  C   UNL A   1      48.379  20.293  34.578  1.00  0.00     0.059 A 
ATOM     96  F   UNL A   1      46.053  20.002  34.450  1.00  0.00    -0.206 F 
ATOM     97  C   UNL A   1      49.462  21.135  34.818  1.00  0.00     0.060 A 
BRANCH  97  98
ATOM     98  S   UNL A   1      51.079  20.481  35.299  1.00  0.00     0.124 S 
ATOM     99  O   UNL A   1      51.970  21.073  34.306  1.00  0.00    -0.237 OA
ATOM    100  O   UNL A   1      51.219  21.003  36.654  1.00  0.00    -0.237 OA
ATOM    101  O   UNL A   1      50.900  19.036  35.204  1.00  0.00    -0.744 OA
ENDBRANCH  97  98
ENDBRANCH  65  90
BRANCH  77 102
ATOM    102  C   UNL A   1      45.709  26.981  39.872  1.00  0.00     0.058 A 
ATOM    103  C   UNL A   1      46.860  27.778  40.022  1.00  0.00     0.135 A 
ATOM    104  C   UNL A   1      44.899  26.877  41.030  1.00  0.00     0.135 A 
ATOM    105  F   UNL A   1      47.647  28.088  38.984  1.00  0.00    -0.206 F 
ATOM    106  C   UNL A   1      47.229  28.349  41.239  1.00  0.00     0.059 A 
ATOM    107  C   UNL A   1      45.215  27.497  42.238  1.00  0.00     0.059 A 
ATOM    108  F   UNL A   1      43.746  26.192  41.021  1.00  0.00    -0.206 F 
ATOM    109  C   UNL A   1      46.400  28.207  42.343  1.00  0.00     0.060 A 
BRANCH 109 110
ATOM    110  S   UNL A   1      46.845  29.025  43.883  1.00  0.00     0.124 S 
ATOM    111  O   UNL A   1      45.531  29.354  44.427  1.00  0.00    -0.237 OA
ATOM    112  O   UNL A   1      47.579  27.983  44.597  1.00  0.00    -0.237 OA
ATOM    113  O   UNL A   1      47.651  30.158  43.442  1.00  0.00    -0.744 OA
ENDBRANCH 109 110
ENDBRANCH  77 102
ENDBRANCH  51  52
ENDBRANCH  43  46
ENDBRANCH  41  42
ENDBRANCH   1  41
TORSDOF 18
ENDMDL
MODEL 3
REMARK VINA RESULT:     -10.3      5.308     12.488
REMARK SMILES Cc1ccccc1C(=O)Nc1ccc(N2CCC(n3c(C)nc4cccnc43)CC2)c(C(=O)NCCCCNC(=O)c2ccc(-c3c4nc(c(-c5c(F)cc(S(=O)(=O)[O-])cc5F)c5ccc([nH]5)c(-c5c(F)cc(S(=O)(=O)[O-])cc5F)c5nc(c(-c6c(F)cc(S(=O)(=O)[O-])cc6F)c6ccc3[nH]6)C=C5)C=C4)cc2)c1
REMARK SMILES IDX 37 1 36 2 35 3 34 4 32 5 33 6 31 8 11 9 12 10 108 11 13 12
REMARK SMILES IDX 14 13 10 14 8 15 9 16 7 18 1 19 2 20 3 21 4 22 6 23 5 24
REMARK SMILES IDX 15 25 16 26 30 27 17 28 29 29 18 30 19 31 20 32 28 33 21 34
REMARK SMILES IDX 22 35 23 36 27 37 24 38 26 39 25 40 38 41 39 42 40 43 41 45
REMARK SMILES IDX 42 46 43 47 107 48 44 49 106 50 45 51 46 52 47 53 100 54
REMARK SMILES IDX 48 55 105 56 99 57 101 58 49 59 104 60 98 61 97 62 50 64
REMARK SMILES IDX 84 65 63 66 83 67 64 68 67 69 82 70 102 71 65 72 66 73 81 75
REMARK SMILES IDX 103 76 68 77 51 78 52 79 61 80 53 81 54 82 60 83 62 84 55 85
REMARK SMILES IDX 56 86 57 87 58 88 59 89 85 90 86 91 95 92 87 93 88 94 94 95
REMARK SMILES IDX 96 96 89 97 90 98 91 99 92 100 93 101 69 102 70 103 79 104
REMARK SMILES IDX 71 105 72 106 78 107 80 108 73 109 74 110 75 111 76 112
REMARK SMILES IDX 77 113
REMARK H PARENT 34 7 10 17 39 44 101 63 67 74
REMARK Flexibility Score: inf
ROOT
ATOM      1  C   UNL A   1      42.025  22.731  28.079  1.00  0.00     0.023 C 
ENDROOT
BRANCH   1   2
ATOM      2  C   UNL A   1      42.483  23.763  29.106  1.00  0.00     0.023 C 
BRANCH   2   3
ATOM      3  C   UNL A   1      43.701  23.434  29.965  1.00  0.00     0.116 C 
BRANCH   3   4
ATOM      4  N   UNL A   1      44.802  24.365  29.997  1.00  0.00    -0.352 N 
ATOM      5  C   UNL A   1      45.221  25.179  31.035  1.00  0.00     0.253 C 
ATOM      6  O   UNL A   1      46.260  25.820  30.847  1.00  0.00    -0.269 OA
ATOM      7  H   UNL A   1      45.328  24.430  29.167  1.00  0.00     0.163 HD
BRANCH   5   8
ATOM      8  C   UNL A   1      44.478  25.400  32.332  1.00  0.00     0.065 A 
ATOM      9  C   UNL A   1      43.037  26.996  33.518  1.00  0.00     0.042 A 
ATOM     10  C   UNL A   1      42.994  26.165  34.622  1.00  0.00     0.028 A 
ATOM     11  C   UNL A   1      43.656  26.553  32.342  1.00  0.00     0.042 A 
ATOM     12  C   UNL A   1      43.774  25.014  34.624  1.00  0.00     0.029 A 
ATOM     13  C   UNL A   1      44.625  24.683  33.543  1.00  0.00     0.050 A 
BRANCH   9  14
ATOM     14  N   UNL A   1      42.578  28.319  33.565  1.00  0.00    -0.322 N 
ATOM     15  C   UNL A   1      43.023  29.395  34.311  1.00  0.00     0.255 C 
ATOM     16  O   UNL A   1      42.311  30.403  34.346  1.00  0.00    -0.269 OA
ATOM     17  H   UNL A   1      41.817  28.513  32.972  1.00  0.00     0.170 HD
BRANCH  15  18
ATOM     18  C   UNL A   1      44.344  29.442  35.028  1.00  0.00     0.043 A 
ATOM     19  C   UNL A   1      45.901  29.488  32.958  1.00  0.00     0.045 C 
ATOM     20  C   UNL A   1      45.625  29.470  34.433  1.00  0.00    -0.038 A 
ATOM     21  C   UNL A   1      46.766  29.529  35.265  1.00  0.00     0.004 A 
ATOM     22  C   UNL A   1      46.652  29.677  36.645  1.00  0.00     0.000 A 
ATOM     23  C   UNL A   1      44.253  29.621  36.425  1.00  0.00     0.014 A 
ATOM     24  C   UNL A   1      45.393  29.752  37.223  1.00  0.00     0.001 A 
ENDBRANCH  15  18
ENDBRANCH   9  14
BRANCH  13  25
ATOM     25  N   UNL A   1      45.678  23.826  33.845  1.00  0.00    -0.371 N 
ATOM     26  C   UNL A   1      45.431  22.403  34.021  1.00  0.00     0.118 C 
ATOM     27  C   UNL A   1      47.007  24.409  34.002  1.00  0.00     0.118 C 
ATOM     28  C   UNL A   1      46.309  21.753  35.060  1.00  0.00     0.047 C 
ATOM     29  C   UNL A   1      47.679  23.852  35.243  1.00  0.00     0.047 C 
ATOM     30  C   UNL A   1      47.729  22.324  35.215  1.00  0.00     0.094 C 
BRANCH  30  31
ATOM     31  N   UNL A   1      48.336  21.678  36.386  1.00  0.00    -0.310 N 
ATOM     32  C   UNL A   1      47.950  21.624  37.712  1.00  0.00     0.108 A 
ATOM     33  C   UNL A   1      49.399  20.812  36.251  1.00  0.00     0.160 A 
ATOM     34  C   UNL A   1      47.090  22.606  38.420  1.00  0.00     0.088 C 
ATOM     35  N   UNL A   1      48.521  20.597  38.323  1.00  0.00    -0.232 NA
ATOM     36  C   UNL A   1      49.474  20.136  37.456  1.00  0.00     0.108 A 
ATOM     37  N   UNL A   1      50.174  20.643  35.163  1.00  0.00    -0.237 NA
ATOM     38  C   UNL A   1      50.480  19.177  37.605  1.00  0.00     0.034 A 
ATOM     39  C   UNL A   1      51.198  19.788  35.389  1.00  0.00     0.113 A 
ATOM     40  C   UNL A   1      51.382  19.037  36.546  1.00  0.00     0.022 A 
ENDBRANCH  30  31
ENDBRANCH  13  25
ENDBRANCH   5   8
ENDBRANCH   3   4
ENDBRANCH   2   3
ENDBRANCH   1   2
BRANCH   1  41
ATOM     41  C   UNL A   1      40.576  22.271  28.157  1.00  0.00     0.116 C 
BRANCH  41  42
ATOM     42  N   UNL A   1      39.724  22.683  27.064  1.00  0.00    -0.352 N 
ATOM     43  C   UNL A   1      39.065  23.897  26.872  1.00  0.00     0.251 C 
ATOM     44  H   UNL A   1      39.590  22.012  26.356  1.00  0.00     0.163 HD
ATOM     45  O   UNL A   1      38.068  23.898  26.180  1.00  0.00    -0.269 OA
BRANCH  43  46
ATOM     46  C   UNL A   1      39.608  25.177  27.436  1.00  0.00     0.039 A 
ATOM     47  C   UNL A   1      39.362  25.476  28.791  1.00  0.00     0.014 A 
ATOM     48  C   UNL A   1      40.250  26.134  26.660  1.00  0.00     0.014 A 
ATOM     49  C   UNL A   1      39.640  26.750  29.312  1.00  0.00     0.010 A 
ATOM     50  C   UNL A   1      40.465  27.400  27.142  1.00  0.00     0.010 A 
ATOM     51  C   UNL A   1      40.135  27.723  28.457  1.00  0.00    -0.014 A 
BRANCH  51  52
ATOM     52  C   UNL A   1      40.472  29.103  28.768  1.00  0.00     0.031 A 
ATOM     53  C   UNL A   1      39.395  30.116  28.754  1.00  0.00     0.074 A 
ATOM     54  C   UNL A   1      41.573  29.268  29.531  1.00  0.00     0.049 A 
ATOM     55  N   UNL A   1      39.528  31.349  29.099  1.00  0.00    -0.248 NA
ATOM     56  C   UNL A   1      38.037  29.778  28.340  1.00  0.00     0.031 C 
ATOM     57  C   UNL A   1      41.819  30.261  30.572  1.00  0.00     0.029 A 
ATOM     58  N   UNL A   1      42.796  28.637  29.376  1.00  0.00    -0.354 N 
ATOM     59  C   UNL A   1      38.263  31.890  29.225  1.00  0.00     0.074 A 
ATOM     60  C   UNL A   1      37.377  30.887  28.680  1.00  0.00     0.031 C 
ATOM     61  C   UNL A   1      43.143  30.325  30.805  1.00  0.00     0.029 A 
ATOM     62  C   UNL A   1      43.784  29.549  29.752  1.00  0.00     0.049 A 
ATOM     63  H   UNL A   1      42.941  27.717  29.059  1.00  0.00     0.167 HD
ATOM     64  C   UNL A   1      38.107  33.065  29.904  1.00  0.00     0.037 A 
ATOM     65  C   UNL A   1      44.580  30.121  28.791  1.00  0.00     0.037 A 
ATOM     66  C   UNL A   1      39.410  33.598  30.309  1.00  0.00     0.049 A 
ATOM     67  C   UNL A   1      44.480  31.619  28.743  1.00  0.00     0.074 A 
ATOM     68  C   UNL A   1      40.112  33.535  31.502  1.00  0.00     0.029 A 
ATOM     69  N   UNL A   1      40.313  34.028  29.341  1.00  0.00    -0.354 N 
ATOM     70  N   UNL A   1      43.397  32.295  29.010  1.00  0.00    -0.248 NA
ATOM     71  C   UNL A   1      45.625  32.466  28.438  1.00  0.00     0.031 C 
ATOM     72  C   UNL A   1      41.461  33.879  31.235  1.00  0.00     0.029 A 
ATOM     73  C   UNL A   1      41.577  34.165  29.883  1.00  0.00     0.049 A 
ATOM     74  H   UNL A   1      40.083  34.210  28.402  1.00  0.00     0.167 HD
ATOM     75  C   UNL A   1      43.671  33.633  28.897  1.00  0.00     0.074 A 
ATOM     76  C   UNL A   1      45.082  33.687  28.564  1.00  0.00     0.031 C 
ATOM     77  C   UNL A   1      42.711  34.589  29.073  1.00  0.00     0.037 A 
BRANCH  64  78
ATOM     78  C   UNL A   1      36.785  33.586  30.454  1.00  0.00     0.058 A 
ATOM     79  C   UNL A   1      35.764  34.031  29.581  1.00  0.00     0.135 A 
ATOM     80  C   UNL A   1      36.468  33.721  31.821  1.00  0.00     0.135 A 
ATOM     81  F   UNL A   1      35.861  33.878  28.253  1.00  0.00    -0.206 F 
ATOM     82  C   UNL A   1      34.592  34.654  30.021  1.00  0.00     0.059 A 
ATOM     83  C   UNL A   1      35.331  34.392  32.287  1.00  0.00     0.059 A 
ATOM     84  F   UNL A   1      37.215  33.151  32.773  1.00  0.00    -0.206 F 
ATOM     85  C   UNL A   1      34.398  34.865  31.378  1.00  0.00     0.060 A 
BRANCH  85  86
ATOM     86  S   UNL A   1      32.912  35.725  31.927  1.00  0.00     0.124 S 
ATOM     87  O   UNL A   1      33.459  36.757  32.801  1.00  0.00    -0.237 OA
ATOM     88  O   UNL A   1      32.347  36.192  30.666  1.00  0.00    -0.237 OA
ATOM     89  O   UNL A   1      32.146  34.682  32.606  1.00  0.00    -0.744 OA
ENDBRANCH  85  86
ENDBRANCH  64  78
BRANCH  65  90
ATOM     90  C   UNL A   1      44.744  29.262  27.578  1.00  0.00     0.058 A 
ATOM     91  C   UNL A   1      45.798  28.341  27.592  1.00  0.00     0.135 A 
ATOM     92  C   UNL A   1      43.660  28.996  26.723  1.00  0.00     0.135 A 
ATOM     93  F   UNL A   1      46.873  28.582  28.356  1.00  0.00    -0.206 F 
ATOM     94  C   UNL A   1      45.685  27.107  26.964  1.00  0.00     0.059 A 
ATOM     95  C   UNL A   1      43.539  27.768  26.067  1.00  0.00     0.059 A 
ATOM     96  F   UNL A   1      42.640  29.861  26.634  1.00  0.00    -0.206 F 
ATOM     97  C   UNL A   1      44.519  26.799  26.269  1.00  0.00     0.060 A 
BRANCH  97  98
ATOM     98  S   UNL A   1      44.245  25.070  25.814  1.00  0.00     0.124 S 
ATOM     99  O   UNL A   1      44.790  24.349  26.961  1.00  0.00    -0.237 OA
ATOM    100  O   UNL A   1      42.793  25.025  25.680  1.00  0.00    -0.237 OA
ATOM    101  O   UNL A   1      44.990  24.926  24.567  1.00  0.00    -0.744 OA
ENDBRANCH  97  98
ENDBRANCH  65  90
BRANCH  77 102
ATOM    102  C   UNL A   1      42.803  36.020  28.589  1.00  0.00     0.058 A 
ATOM    103  C   UNL A   1      42.285  36.468  27.359  1.00  0.00     0.135 A 
ATOM    104  C   UNL A   1      43.294  37.042  29.439  1.00  0.00     0.135 A 
ATOM    105  F   UNL A   1      41.657  35.643  26.511  1.00  0.00    -0.206 F 
ATOM    106  C   UNL A   1      42.330  37.804  26.963  1.00  0.00     0.059 A 
ATOM    107  C   UNL A   1      43.286  38.392  29.090  1.00  0.00     0.059 A 
ATOM    108  F   UNL A   1      43.771  36.769  30.662  1.00  0.00    -0.206 F 
ATOM    109  C   UNL A   1      42.829  38.761  27.835  1.00  0.00     0.060 A 
BRANCH 109 110
ATOM    110  S   UNL A   1      42.799  40.493  27.345  1.00  0.00     0.124 S 
ATOM    111  O   UNL A   1      43.615  40.466  26.135  1.00  0.00    -0.237 OA
ATOM    112  O   UNL A   1      41.375  40.743  27.139  1.00  0.00    -0.237 OA
ATOM    113  O   UNL A   1      43.387  41.177  28.492  1.00  0.00    -0.744 OA
ENDBRANCH 109 110
ENDBRANCH  77 102
ENDBRANCH  51  52
ENDBRANCH  43  46
ENDBRANCH  41  42
ENDBRANCH   1  41
TORSDOF 18
ENDMDL
