MODEL 1
REMARK VINA RESULT:     -12.4      0.000      0.000
REMARK SMILES O=C(NCCCCNC(=O)c1ccc(-n2cnc3ccccc32)nc1)c1ccc(-c2c3nc(c(-c4c(F)cc(S(=O)(=O)[O-])cc4F)c4ccc([nH]4)c(-c4c(F)cc(S(=O)(=O)[O-])cc4F)c4nc(c(-c5c(F)cc(S(=O)(=O)[O-])cc5F)c5ccc2[nH]5)C=C4)C=C3)cc1
REMARK SMILES IDX 4 1 3 2 1 3 2 4 26 6 27 7 91 8 28 9 90 10 29 11 30 12 31 13
REMARK SMILES IDX 84 14 32 15 89 16 83 17 85 18 33 19 88 20 82 21 81 22 34 24
REMARK SMILES IDX 68 25 47 26 67 27 48 28 51 29 66 30 86 31 49 32 50 33 65 35
REMARK SMILES IDX 87 36 52 37 35 38 36 39 45 40 37 41 38 42 44 43 46 44 39 45
REMARK SMILES IDX 40 46 41 47 42 48 43 49 69 50 70 51 79 52 71 53 72 54 78 55
REMARK SMILES IDX 80 56 73 57 74 58 75 59 76 60 77 61 53 62 54 63 63 64 55 65
REMARK SMILES IDX 56 66 62 67 64 68 57 69 58 70 59 71 60 72 61 73 5 74 6 75
REMARK SMILES IDX 7 76 8 77 9 78 10 80 11 81 12 82 25 83 13 84 24 85 14 86
REMARK SMILES IDX 15 87 16 88 23 89 17 90 18 91 22 92 19 93 21 94 20 95
REMARK H PARENT 3 5 85 23 51 34 8 79
REMARK Flexibility Score: inf
ROOT
ATOM      1  C   UNL A   1      42.040  20.105  27.254  1.00  0.00     0.116 C 
ENDROOT
BRANCH   1   2
ATOM      2  N   UNL A   1      43.073  19.596  26.346  1.00  0.00    -0.352 N 
ATOM      3  O   UNL A   1      44.323  19.768  24.448  1.00  0.00    -0.269 OA
ATOM      4  C   UNL A   1      43.788  20.314  25.387  1.00  0.00     0.251 C 
ATOM      5  H   UNL A   1      43.286  18.637  26.422  1.00  0.00     0.163 HD
BRANCH   4   6
ATOM      6  C   UNL A   1      43.881  21.776  25.580  1.00  0.00     0.039 A 
ATOM      7  C   UNL A   1      43.079  22.686  24.890  1.00  0.00     0.014 A 
ATOM      8  C   UNL A   1      44.695  22.190  26.620  1.00  0.00     0.014 A 
ATOM      9  C   UNL A   1      43.012  24.003  25.357  1.00  0.00     0.010 A 
ATOM     10  C   UNL A   1      44.446  23.404  27.202  1.00  0.00     0.010 A 
ATOM     11  C   UNL A   1      43.666  24.353  26.550  1.00  0.00    -0.014 A 
BRANCH  11  12
ATOM     12  C   UNL A   1      43.493  25.668  27.178  1.00  0.00     0.031 A 
ATOM     13  C   UNL A   1      44.515  26.706  26.854  1.00  0.00     0.074 A 
ATOM     14  C   UNL A   1      42.382  26.019  27.869  1.00  0.00     0.049 A 
ATOM     15  N   UNL A   1      45.397  27.213  27.653  1.00  0.00    -0.248 NA
ATOM     16  C   UNL A   1      44.645  27.171  25.465  1.00  0.00     0.031 C 
ATOM     17  C   UNL A   1      41.151  25.247  28.099  1.00  0.00     0.029 A 
ATOM     18  N   UNL A   1      42.076  27.219  28.436  1.00  0.00    -0.354 N 
ATOM     19  C   UNL A   1      46.051  28.213  26.938  1.00  0.00     0.074 A 
ATOM     20  C   UNL A   1      45.666  28.028  25.561  1.00  0.00     0.031 C 
ATOM     21  C   UNL A   1      40.162  26.067  28.506  1.00  0.00     0.029 A 
ATOM     22  C   UNL A   1      40.739  27.364  28.784  1.00  0.00     0.049 A 
ATOM     23  H   UNL A   1      42.746  27.926  28.584  1.00  0.00     0.167 HD
ATOM     24  C   UNL A   1      46.688  29.244  27.565  1.00  0.00     0.037 A 
ATOM     25  C   UNL A   1      40.134  28.458  29.301  1.00  0.00     0.037 A 
ATOM     26  C   UNL A   1      46.863  28.974  28.970  1.00  0.00     0.049 A 
ATOM     27  C   UNL A   1      41.200  29.257  29.952  1.00  0.00     0.074 A 
ATOM     28  C   UNL A   1      47.494  27.984  29.698  1.00  0.00     0.029 A 
ATOM     29  N   UNL A   1      46.013  29.597  29.852  1.00  0.00    -0.354 N 
ATOM     30  N   UNL A   1      41.867  28.856  31.001  1.00  0.00    -0.248 NA
ATOM     31  C   UNL A   1      41.834  30.311  29.177  1.00  0.00     0.031 C 
ATOM     32  C   UNL A   1      46.636  27.742  30.811  1.00  0.00     0.029 A 
ATOM     33  C   UNL A   1      45.571  28.642  30.733  1.00  0.00     0.049 A 
ATOM     34  H   UNL A   1      45.767  30.551  29.852  1.00  0.00     0.167 HD
ATOM     35  C   UNL A   1      43.168  29.282  30.778  1.00  0.00     0.074 A 
ATOM     36  C   UNL A   1      43.063  30.263  29.699  1.00  0.00     0.031 C 
ATOM     37  C   UNL A   1      44.237  28.607  31.295  1.00  0.00     0.037 A 
BRANCH  24  38
ATOM     38  C   UNL A   1      46.850  30.637  27.002  1.00  0.00     0.058 A 
ATOM     39  C   UNL A   1      48.120  31.254  27.021  1.00  0.00     0.135 A 
ATOM     40  C   UNL A   1      45.765  31.490  26.712  1.00  0.00     0.135 A 
ATOM     41  F   UNL A   1      49.223  30.539  27.293  1.00  0.00    -0.206 F 
ATOM     42  C   UNL A   1      48.287  32.629  26.843  1.00  0.00     0.059 A 
ATOM     43  C   UNL A   1      45.914  32.853  26.477  1.00  0.00     0.059 A 
ATOM     44  F   UNL A   1      44.496  31.064  26.746  1.00  0.00    -0.206 F 
ATOM     45  C   UNL A   1      47.173  33.423  26.589  1.00  0.00     0.060 A 
BRANCH  45  46
ATOM     46  S   UNL A   1      47.364  35.211  26.491  1.00  0.00     0.124 S 
ATOM     47  O   UNL A   1      47.692  35.543  27.873  1.00  0.00    -0.237 OA
ATOM     48  O   UNL A   1      48.449  35.348  25.526  1.00  0.00    -0.237 OA
ATOM     49  O   UNL A   1      46.058  35.663  26.026  1.00  0.00    -0.744 OA
ENDBRANCH  45  46
ENDBRANCH  24  38
BRANCH  25  50
ATOM     50  C   UNL A   1      38.764  28.959  29.037  1.00  0.00     0.058 A 
ATOM     51  C   UNL A   1      37.854  29.163  30.087  1.00  0.00     0.135 A 
ATOM     52  C   UNL A   1      38.410  29.515  27.788  1.00  0.00     0.135 A 
ATOM     53  F   UNL A   1      38.114  28.673  31.309  1.00  0.00    -0.206 F 
ATOM     54  C   UNL A   1      36.697  29.930  29.930  1.00  0.00     0.059 A 
ATOM     55  C   UNL A   1      37.257  30.276  27.605  1.00  0.00     0.059 A 
ATOM     56  F   UNL A   1      39.224  29.409  26.726  1.00  0.00    -0.206 F 
ATOM     57  C   UNL A   1      36.422  30.508  28.691  1.00  0.00     0.060 A 
BRANCH  57  58
ATOM     58  S   UNL A   1      35.037  31.660  28.544  1.00  0.00     0.124 S 
ATOM     59  O   UNL A   1      34.835  32.068  29.930  1.00  0.00    -0.237 OA
ATOM     60  O   UNL A   1      35.581  32.679  27.651  1.00  0.00    -0.237 OA
ATOM     61  O   UNL A   1      33.972  30.839  27.973  1.00  0.00    -0.744 OA
ENDBRANCH  57  58
ENDBRANCH  25  50
BRANCH  37  62
ATOM     62  C   UNL A   1      43.989  27.570  32.362  1.00  0.00     0.058 A 
ATOM     63  C   UNL A   1      43.882  26.189  32.119  1.00  0.00     0.135 A 
ATOM     64  C   UNL A   1      44.050  27.979  33.704  1.00  0.00     0.135 A 
ATOM     65  F   UNL A   1      43.913  25.703  30.873  1.00  0.00    -0.206 F 
ATOM     66  C   UNL A   1      43.814  25.261  33.161  1.00  0.00     0.059 A 
ATOM     67  C   UNL A   1      44.013  27.069  34.758  1.00  0.00     0.059 A 
ATOM     68  F   UNL A   1      44.211  29.278  34.004  1.00  0.00    -0.206 F 
ATOM     69  C   UNL A   1      43.889  25.710  34.479  1.00  0.00     0.060 A 
BRANCH  69  70
ATOM     70  S   UNL A   1      43.906  24.497  35.819  1.00  0.00     0.124 S 
ATOM     71  O   UNL A   1      43.107  25.160  36.843  1.00  0.00    -0.237 OA
ATOM     72  O   UNL A   1      43.294  23.328  35.195  1.00  0.00    -0.237 OA
ATOM     73  O   UNL A   1      45.327  24.353  36.130  1.00  0.00    -0.744 OA
ENDBRANCH  69  70
ENDBRANCH  37  62
ENDBRANCH  11  12
ENDBRANCH   4   6
ENDBRANCH   1   2
BRANCH   1  74
ATOM     74  C   UNL A   1      40.686  20.336  26.593  1.00  0.00     0.023 C 
BRANCH  74  75
ATOM     75  C   UNL A   1      40.095  21.743  26.759  1.00  0.00     0.023 C 
BRANCH  75  76
ATOM     76  C   UNL A   1      38.775  22.024  26.034  1.00  0.00     0.116 C 
BRANCH  76  77
ATOM     77  N   UNL A   1      38.233  20.852  25.369  1.00  0.00    -0.352 N 
ATOM     78  C   UNL A   1      36.924  20.546  25.096  1.00  0.00     0.252 C 
ATOM     79  H   UNL A   1      38.896  20.187  25.074  1.00  0.00     0.163 HD
ATOM     80  O   UNL A   1      36.598  19.427  24.721  1.00  0.00    -0.269 OA
BRANCH  78  81
ATOM     81  C   UNL A   1      35.892  21.568  25.293  1.00  0.00     0.058 A 
ATOM     82  C   UNL A   1      35.659  22.570  24.355  1.00  0.00     0.019 A 
ATOM     83  C   UNL A   1      35.132  21.543  26.450  1.00  0.00     0.127 A 
ATOM     84  C   UNL A   1      34.686  23.531  24.623  1.00  0.00     0.048 A 
ATOM     85  N   UNL A   1      34.213  22.493  26.758  1.00  0.00    -0.238 NA
ATOM     86  C   UNL A   1      33.976  23.449  25.820  1.00  0.00     0.138 A 
BRANCH  86  87
ATOM     87  N   UNL A   1      32.959  24.396  26.105  1.00  0.00    -0.283 N 
ATOM     88  C   UNL A   1      31.678  24.067  26.487  1.00  0.00     0.206 A 
ATOM     89  C   UNL A   1      33.006  25.778  26.008  1.00  0.00     0.074 A 
ATOM     90  N   UNL A   1      30.941  25.125  26.743  1.00  0.00    -0.236 NA
ATOM     91  C   UNL A   1      31.738  26.192  26.417  1.00  0.00     0.089 A 
ATOM     92  C   UNL A   1      33.964  26.689  25.533  1.00  0.00     0.029 A 
ATOM     93  C   UNL A   1      31.421  27.560  26.411  1.00  0.00     0.030 A 
ATOM     94  C   UNL A   1      33.623  28.044  25.517  1.00  0.00     0.002 A 
ATOM     95  C   UNL A   1      32.374  28.477  25.955  1.00  0.00     0.002 A 
ENDBRANCH  86  87
ENDBRANCH  78  81
ENDBRANCH  76  77
ENDBRANCH  75  76
ENDBRANCH  74  75
ENDBRANCH   1  74
TORSDOF 15
ENDMDL
MODEL 2
REMARK VINA RESULT:     -12.3      2.552      3.912
REMARK SMILES O=C(NCCCCNC(=O)c1ccc(-n2cnc3ccccc32)nc1)c1ccc(-c2c3nc(c(-c4c(F)cc(S(=O)(=O)[O-])cc4F)c4ccc([nH]4)c(-c4c(F)cc(S(=O)(=O)[O-])cc4F)c4nc(c(-c5c(F)cc(S(=O)(=O)[O-])cc5F)c5ccc2[nH]5)C=C4)C=C3)cc1
REMARK SMILES IDX 4 1 3 2 1 3 2 4 26 6 27 7 91 8 28 9 90 10 29 11 30 12 31 13
REMARK SMILES IDX 84 14 32 15 89 16 83 17 85 18 33 19 88 20 82 21 81 22 34 24
REMARK SMILES IDX 68 25 47 26 67 27 48 28 51 29 66 30 86 31 49 32 50 33 65 35
REMARK SMILES IDX 87 36 52 37 35 38 36 39 45 40 37 41 38 42 44 43 46 44 39 45
REMARK SMILES IDX 40 46 41 47 42 48 43 49 69 50 70 51 79 52 71 53 72 54 78 55
REMARK SMILES IDX 80 56 73 57 74 58 75 59 76 60 77 61 53 62 54 63 63 64 55 65
REMARK SMILES IDX 56 66 62 67 64 68 57 69 58 70 59 71 60 72 61 73 5 74 6 75
REMARK SMILES IDX 7 76 8 77 9 78 10 80 11 81 12 82 25 83 13 84 24 85 14 86
REMARK SMILES IDX 15 87 16 88 23 89 17 90 18 91 22 92 19 93 21 94 20 95
REMARK H PARENT 3 5 85 23 51 34 8 79
REMARK Flexibility Score: inf
ROOT
ATOM      1  C   UNL A   1      37.923  22.732  25.379  1.00  0.00     0.116 C 
ENDROOT
BRANCH   1   2
ATOM      2  N   UNL A   1      38.610  21.893  26.367  1.00  0.00    -0.352 N 
ATOM      3  O   UNL A   1      40.469  21.331  27.560  1.00  0.00    -0.269 OA
ATOM      4  C   UNL A   1      39.776  22.195  27.072  1.00  0.00     0.251 C 
ATOM      5  H   UNL A   1      38.202  21.016  26.554  1.00  0.00     0.163 HD
BRANCH   4   6
ATOM      6  C   UNL A   1      40.118  23.626  27.213  1.00  0.00     0.039 A 
ATOM      7  C   UNL A   1      39.236  24.655  26.883  1.00  0.00     0.014 A 
ATOM      8  C   UNL A   1      41.312  23.891  27.861  1.00  0.00     0.014 A 
ATOM      9  C   UNL A   1      39.519  25.947  27.339  1.00  0.00     0.010 A 
ATOM     10  C   UNL A   1      41.459  25.096  28.494  1.00  0.00     0.010 A 
ATOM     11  C   UNL A   1      40.615  26.161  28.190  1.00  0.00    -0.014 A 
BRANCH  11  12
ATOM     12  C   UNL A   1      40.862  27.456  28.836  1.00  0.00     0.031 A 
ATOM     13  C   UNL A   1      42.076  28.204  28.396  1.00  0.00     0.074 A 
ATOM     14  C   UNL A   1      39.965  28.059  29.652  1.00  0.00     0.049 A 
ATOM     15  N   UNL A   1      43.143  28.440  29.088  1.00  0.00    -0.248 NA
ATOM     16  C   UNL A   1      42.166  28.663  27.002  1.00  0.00     0.031 C 
ATOM     17  C   UNL A   1      38.610  27.624  30.023  1.00  0.00     0.029 A 
ATOM     18  N   UNL A   1      40.047  29.279  30.252  1.00  0.00    -0.354 N 
ATOM     19  C   UNL A   1      43.950  29.260  28.303  1.00  0.00     0.074 A 
ATOM     20  C   UNL A   1      43.379  29.224  26.980  1.00  0.00     0.031 C 
ATOM     21  C   UNL A   1      37.919  28.658  30.543  1.00  0.00     0.029 A 
ATOM     22  C   UNL A   1      38.842  29.753  30.754  1.00  0.00     0.049 A 
ATOM     23  H   UNL A   1      40.890  29.783  30.323  1.00  0.00     0.167 HD
ATOM     24  C   UNL A   1      44.899  30.071  28.853  1.00  0.00     0.037 A 
ATOM     25  C   UNL A   1      38.604  30.948  31.340  1.00  0.00     0.037 A 
ATOM     26  C   UNL A   1      45.155  29.721  30.228  1.00  0.00     0.049 A 
ATOM     27  C   UNL A   1      39.907  31.425  31.863  1.00  0.00     0.074 A 
ATOM     28  C   UNL A   1      45.584  28.579  30.876  1.00  0.00     0.029 A 
ATOM     29  N   UNL A   1      44.600  30.515  31.203  1.00  0.00    -0.354 N 
ATOM     30  N   UNL A   1      40.561  30.832  32.827  1.00  0.00    -0.248 NA
ATOM     31  C   UNL A   1      40.702  32.303  31.021  1.00  0.00     0.031 C 
ATOM     32  C   UNL A   1      44.823  28.532  32.081  1.00  0.00     0.029 A 
ATOM     33  C   UNL A   1      44.027  29.678  32.129  1.00  0.00     0.049 A 
ATOM     34  H   UNL A   1      44.612  31.499  31.234  1.00  0.00     0.167 HD
ATOM     35  C   UNL A   1      41.894  30.915  32.454  1.00  0.00     0.074 A 
ATOM     36  C   UNL A   1      41.927  31.924  31.396  1.00  0.00     0.031 C 
ATOM     37  C   UNL A   1      42.802  29.971  32.842  1.00  0.00     0.037 A 
BRANCH  24  38
ATOM     38  C   UNL A   1      45.354  31.393  28.277  1.00  0.00     0.058 A 
ATOM     39  C   UNL A   1      44.405  32.407  28.025  1.00  0.00     0.135 A 
ATOM     40  C   UNL A   1      46.626  31.595  27.702  1.00  0.00     0.135 A 
ATOM     41  F   UNL A   1      43.159  32.315  28.518  1.00  0.00    -0.206 F 
ATOM     42  C   UNL A   1      44.677  33.499  27.198  1.00  0.00     0.059 A 
ATOM     43  C   UNL A   1      46.936  32.703  26.920  1.00  0.00     0.059 A 
ATOM     44  F   UNL A   1      47.597  30.677  27.782  1.00  0.00    -0.206 F 
ATOM     45  C   UNL A   1      45.943  33.627  26.636  1.00  0.00     0.060 A 
BRANCH  45  46
ATOM     46  S   UNL A   1      46.260  34.959  25.465  1.00  0.00     0.124 S 
ATOM     47  O   UNL A   1      47.674  34.752  25.170  1.00  0.00    -0.237 OA
ATOM     48  O   UNL A   1      45.329  34.644  24.387  1.00  0.00    -0.237 OA
ATOM     49  O   UNL A   1      45.943  36.160  26.229  1.00  0.00    -0.744 OA
ENDBRANCH  45  46
ENDBRANCH  24  38
BRANCH  25  50
ATOM     50  C   UNL A   1      37.390  31.794  31.237  1.00  0.00     0.058 A 
ATOM     51  C   UNL A   1      36.353  31.687  32.179  1.00  0.00     0.135 A 
ATOM     52  C   UNL A   1      37.345  32.918  30.385  1.00  0.00     0.135 A 
ATOM     53  F   UNL A   1      36.322  30.652  33.033  1.00  0.00    -0.206 F 
ATOM     54  C   UNL A   1      35.369  32.669  32.316  1.00  0.00     0.059 A 
ATOM     55  C   UNL A   1      36.367  33.906  30.496  1.00  0.00     0.059 A 
ATOM     56  F   UNL A   1      38.305  33.136  29.473  1.00  0.00    -0.206 F 
ATOM     57  C   UNL A   1      35.401  33.790  31.487  1.00  0.00     0.060 A 
BRANCH  57  58
ATOM     58  S   UNL A   1      34.250  35.149  31.799  1.00  0.00     0.124 S 
ATOM     59  O   UNL A   1      35.045  36.030  32.646  1.00  0.00    -0.237 OA
ATOM     60  O   UNL A   1      33.979  35.635  30.450  1.00  0.00    -0.237 OA
ATOM     61  O   UNL A   1      33.124  34.495  32.461  1.00  0.00    -0.744 OA
ENDBRANCH  57  58
ENDBRANCH  25  50
BRANCH  37  62
ATOM     62  C   UNL A   1      42.414  29.000  33.929  1.00  0.00     0.058 A 
ATOM     63  C   UNL A   1      41.774  27.768  33.704  1.00  0.00     0.135 A 
ATOM     64  C   UNL A   1      42.879  29.248  35.231  1.00  0.00     0.135 A 
ATOM     65  F   UNL A   1      41.384  27.407  32.476  1.00  0.00    -0.206 F 
ATOM     66  C   UNL A   1      41.585  26.838  34.729  1.00  0.00     0.059 A 
ATOM     67  C   UNL A   1      42.727  28.324  36.261  1.00  0.00     0.059 A 
ATOM     68  F   UNL A   1      43.551  30.380  35.500  1.00  0.00    -0.206 F 
ATOM     69  C   UNL A   1      42.073  27.121  36.004  1.00  0.00     0.060 A 
BRANCH  69  70
ATOM     70  S   UNL A   1      41.917  25.871  37.300  1.00  0.00     0.124 S 
ATOM     71  O   UNL A   1      40.520  26.008  37.693  1.00  0.00    -0.237 OA
ATOM     72  O   UNL A   1      42.260  24.640  36.595  1.00  0.00    -0.237 OA
ATOM     73  O   UNL A   1      42.893  26.296  38.302  1.00  0.00    -0.744 OA
ENDBRANCH  69  70
ENDBRANCH  37  62
ENDBRANCH  11  12
ENDBRANCH   4   6
ENDBRANCH   1   2
BRANCH   1  74
ATOM     74  C   UNL A   1      36.436  22.927  25.653  1.00  0.00     0.023 C 
BRANCH  74  75
ATOM     75  C   UNL A   1      35.484  22.372  24.584  1.00  0.00     0.023 C 
BRANCH  75  76
ATOM     76  C   UNL A   1      34.932  23.377  23.568  1.00  0.00     0.116 C 
BRANCH  76  77
ATOM     77  N   UNL A   1      33.570  23.079  23.158  1.00  0.00    -0.352 N 
ATOM     78  C   UNL A   1      32.409  23.724  23.497  1.00  0.00     0.252 C 
ATOM     79  H   UNL A   1      33.468  22.308  22.553  1.00  0.00     0.163 HD
ATOM     80  O   UNL A   1      31.314  23.235  23.248  1.00  0.00    -0.269 OA
BRANCH  78  81
ATOM     81  C   UNL A   1      32.480  25.006  24.205  1.00  0.00     0.058 A 
ATOM     82  C   UNL A   1      32.386  25.088  25.591  1.00  0.00     0.019 A 
ATOM     83  C   UNL A   1      32.639  26.171  23.474  1.00  0.00     0.127 A 
ATOM     84  C   UNL A   1      32.427  26.342  26.196  1.00  0.00     0.048 A 
ATOM     85  N   UNL A   1      32.632  27.407  24.032  1.00  0.00    -0.238 NA
ATOM     86  C   UNL A   1      32.568  27.471  25.389  1.00  0.00     0.138 A 
BRANCH  86  87
ATOM     87  N   UNL A   1      32.643  28.758  25.981  1.00  0.00    -0.283 N 
ATOM     88  C   UNL A   1      31.673  29.726  25.858  1.00  0.00     0.206 A 
ATOM     89  C   UNL A   1      33.675  29.316  26.719  1.00  0.00     0.074 A 
ATOM     90  N   UNL A   1      31.954  30.813  26.542  1.00  0.00    -0.236 NA
ATOM     91  C   UNL A   1      33.207  30.587  27.053  1.00  0.00     0.089 A 
ATOM     92  C   UNL A   1      34.974  28.896  27.049  1.00  0.00     0.029 A 
ATOM     93  C   UNL A   1      34.029  31.457  27.788  1.00  0.00     0.030 A 
ATOM     94  C   UNL A   1      35.784  29.782  27.765  1.00  0.00     0.002 A 
ATOM     95  C   UNL A   1      35.318  31.041  28.136  1.00  0.00     0.002 A 
ENDBRANCH  86  87
ENDBRANCH  78  81
ENDBRANCH  76  77
ENDBRANCH  75  76
ENDBRANCH  74  75
ENDBRANCH   1  74
TORSDOF 15
ENDMDL
MODEL 3
REMARK VINA RESULT:     -12.3      4.005     11.181
REMARK SMILES O=C(NCCCCNC(=O)c1ccc(-n2cnc3ccccc32)nc1)c1ccc(-c2c3nc(c(-c4c(F)cc(S(=O)(=O)[O-])cc4F)c4ccc([nH]4)c(-c4c(F)cc(S(=O)(=O)[O-])cc4F)c4nc(c(-c5c(F)cc(S(=O)(=O)[O-])cc5F)c5ccc2[nH]5)C=C4)C=C3)cc1
REMARK SMILES IDX 4 1 3 2 1 3 2 4 26 6 27 7 91 8 28 9 90 10 29 11 30 12 31 13
REMARK SMILES IDX 84 14 32 15 89 16 83 17 85 18 33 19 88 20 82 21 81 22 34 24
REMARK SMILES IDX 68 25 47 26 67 27 48 28 51 29 66 30 86 31 49 32 50 33 65 35
REMARK SMILES IDX 87 36 52 37 35 38 36 39 45 40 37 41 38 42 44 43 46 44 39 45
REMARK SMILES IDX 40 46 41 47 42 48 43 49 69 50 70 51 79 52 71 53 72 54 78 55
REMARK SMILES IDX 80 56 73 57 74 58 75 59 76 60 77 61 53 62 54 63 63 64 55 65
REMARK SMILES IDX 56 66 62 67 64 68 57 69 58 70 59 71 60 72 61 73 5 74 6 75
REMARK SMILES IDX 7 76 8 77 9 78 10 80 11 81 12 82 25 83 13 84 24 85 14 86
REMARK SMILES IDX 15 87 16 88 23 89 17 90 18 91 22 92 19 93 21 94 20 95
REMARK H PARENT 3 5 85 23 51 34 8 79
REMARK Flexibility Score: inf
ROOT
ATOM      1  C   UNL A   1      34.906  33.704  29.221  1.00  0.00     0.116 C 
ENDROOT
BRANCH   1   2
ATOM      2  N   UNL A   1      34.129  32.517  28.846  1.00  0.00    -0.352 N 
ATOM      3  O   UNL A   1      33.811  30.666  27.553  1.00  0.00    -0.269 OA
ATOM      4  C   UNL A   1      34.576  31.400  28.140  1.00  0.00     0.251 C 
ATOM      5  H   UNL A   1      33.185  32.508  29.124  1.00  0.00     0.163 HD
BRANCH   4   6
ATOM      6  C   UNL A   1      36.031  31.138  28.155  1.00  0.00     0.039 A 
ATOM      7  C   UNL A   1      36.937  31.922  28.869  1.00  0.00     0.014 A 
ATOM      8  C   UNL A   1      36.429  29.956  27.555  1.00  0.00     0.014 A 
ATOM      9  C   UNL A   1      38.227  31.424  29.081  1.00  0.00     0.010 A 
ATOM     10  C   UNL A   1      37.603  29.380  27.962  1.00  0.00     0.010 A 
ATOM     11  C   UNL A   1      38.548  30.122  28.663  1.00  0.00    -0.014 A 
BRANCH  11  12
ATOM     12  C   UNL A   1      39.824  29.485  29.008  1.00  0.00     0.031 A 
ATOM     13  C   UNL A   1      40.127  29.332  30.461  1.00  0.00     0.074 A 
ATOM     14  C   UNL A   1      40.625  28.886  28.093  1.00  0.00     0.049 A 
ATOM     15  N   UNL A   1      41.044  29.942  31.138  1.00  0.00    -0.248 NA
ATOM     16  C   UNL A   1      39.256  28.481  31.286  1.00  0.00     0.031 C 
ATOM     17  C   UNL A   1      40.404  28.699  26.651  1.00  0.00     0.029 A 
ATOM     18  N   UNL A   1      41.788  28.208  28.295  1.00  0.00    -0.354 N 
ATOM     19  C   UNL A   1      41.017  29.399  32.421  1.00  0.00     0.074 A 
ATOM     20  C   UNL A   1      39.797  28.634  32.499  1.00  0.00     0.031 C 
ATOM     21  C   UNL A   1      41.239  27.753  26.176  1.00  0.00     0.029 A 
ATOM     22  C   UNL A   1      42.197  27.437  27.215  1.00  0.00     0.049 A 
ATOM     23  H   UNL A   1      42.296  28.259  29.138  1.00  0.00     0.167 HD
ATOM     24  C   UNL A   1      42.104  29.449  33.244  1.00  0.00     0.037 A 
ATOM     25  C   UNL A   1      43.268  26.614  27.145  1.00  0.00     0.037 A 
ATOM     26  C   UNL A   1      43.091  30.378  32.754  1.00  0.00     0.049 A 
ATOM     27  C   UNL A   1      44.228  27.089  28.171  1.00  0.00     0.074 A 
ATOM     28  C   UNL A   1      43.095  31.730  32.469  1.00  0.00     0.029 A 
ATOM     29  N   UNL A   1      44.196  29.862  32.120  1.00  0.00    -0.354 N 
ATOM     30  N   UNL A   1      44.833  28.245  28.116  1.00  0.00    -0.248 NA
ATOM     31  C   UNL A   1      44.183  26.472  29.487  1.00  0.00     0.031 C 
ATOM     32  C   UNL A   1      43.890  31.856  31.293  1.00  0.00     0.029 A 
ATOM     33  C   UNL A   1      44.378  30.588  30.969  1.00  0.00     0.049 A 
ATOM     34  H   UNL A   1      44.753  29.113  32.433  1.00  0.00     0.167 HD
ATOM     35  C   UNL A   1      44.857  28.695  29.427  1.00  0.00     0.074 A 
ATOM     36  C   UNL A   1      44.545  27.518  30.235  1.00  0.00     0.031 C 
ATOM     37  C   UNL A   1      44.857  30.029  29.722  1.00  0.00     0.037 A 
BRANCH  24  38
ATOM     38  C   UNL A   1      42.442  28.422  34.300  1.00  0.00     0.058 A 
ATOM     39  C   UNL A   1      42.476  28.803  35.659  1.00  0.00     0.135 A 
ATOM     40  C   UNL A   1      43.009  27.163  34.008  1.00  0.00     0.135 A 
ATOM     41  F   UNL A   1      41.971  29.984  36.050  1.00  0.00    -0.206 F 
ATOM     42  C   UNL A   1      43.097  28.027  36.640  1.00  0.00     0.059 A 
ATOM     43  C   UNL A   1      43.584  26.348  34.978  1.00  0.00     0.059 A 
ATOM     44  F   UNL A   1      43.127  26.710  32.754  1.00  0.00    -0.206 F 
ATOM     45  C   UNL A   1      43.665  26.808  36.284  1.00  0.00     0.060 A 
BRANCH  45  46
ATOM     46  S   UNL A   1      44.582  25.865  37.514  1.00  0.00     0.124 S 
ATOM     47  O   UNL A   1      45.940  26.351  37.297  1.00  0.00    -0.237 OA
ATOM     48  O   UNL A   1      43.943  26.286  38.757  1.00  0.00    -0.237 OA
ATOM     49  O   UNL A   1      44.337  24.480  37.127  1.00  0.00    -0.744 OA
ENDBRANCH  45  46
ENDBRANCH  24  38
BRANCH  25  50
ATOM     50  C   UNL A   1      43.382  25.316  26.438  1.00  0.00     0.058 A 
ATOM     51  C   UNL A   1      44.280  25.151  25.370  1.00  0.00     0.135 A 
ATOM     52  C   UNL A   1      42.824  24.134  26.971  1.00  0.00     0.135 A 
ATOM     53  F   UNL A   1      44.861  26.222  24.807  1.00  0.00    -0.206 F 
ATOM     54  C   UNL A   1      44.657  23.890  24.903  1.00  0.00     0.059 A 
ATOM     55  C   UNL A   1      43.178  22.864  26.515  1.00  0.00     0.059 A 
ATOM     56  F   UNL A   1      41.982  24.174  28.015  1.00  0.00    -0.206 F 
ATOM     57  C   UNL A   1      44.121  22.750  25.502  1.00  0.00     0.060 A 
BRANCH  57  58
ATOM     58  S   UNL A   1      44.760  21.125  25.033  1.00  0.00     0.124 S 
ATOM     59  O   UNL A   1      43.832  20.228  25.714  1.00  0.00    -0.237 OA
ATOM     60  O   UNL A   1      44.657  21.165  23.578  1.00  0.00    -0.237 OA
ATOM     61  O   UNL A   1      46.122  21.131  25.560  1.00  0.00    -0.744 OA
ENDBRANCH  57  58
ENDBRANCH  25  50
BRANCH  37  62
ATOM     62  C   UNL A   1      45.139  31.014  28.614  1.00  0.00     0.058 A 
ATOM     63  C   UNL A   1      44.177  31.478  27.699  1.00  0.00     0.135 A 
ATOM     64  C   UNL A   1      46.390  31.650  28.601  1.00  0.00     0.135 A 
ATOM     65  F   UNL A   1      42.929  30.995  27.706  1.00  0.00    -0.206 F 
ATOM     66  C   UNL A   1      44.454  32.508  26.799  1.00  0.00     0.059 A 
ATOM     67  C   UNL A   1      46.679  32.699  27.731  1.00  0.00     0.059 A 
ATOM     68  F   UNL A   1      47.334  31.295  29.488  1.00  0.00    -0.206 F 
ATOM     69  C   UNL A   1      45.707  33.120  26.827  1.00  0.00     0.060 A 
BRANCH  69  70
ATOM     70  S   UNL A   1      46.024  34.521  25.731  1.00  0.00     0.124 S 
ATOM     71  O   UNL A   1      45.111  34.259  24.625  1.00  0.00    -0.237 OA
ATOM     72  O   UNL A   1      45.686  35.665  26.573  1.00  0.00    -0.237 OA
ATOM     73  O   UNL A   1      47.445  34.391  25.414  1.00  0.00    -0.744 OA
ENDBRANCH  69  70
ENDBRANCH  37  62
ENDBRANCH  11  12
ENDBRANCH   4   6
ENDBRANCH   1   2
BRANCH   1  74
ATOM     74  C   UNL A   1      34.824  34.846  28.215  1.00  0.00     0.023 C 
BRANCH  74  75
ATOM     75  C   UNL A   1      33.971  36.049  28.642  1.00  0.00     0.023 C 
BRANCH  75  76
ATOM     76  C   UNL A   1      32.797  35.758  29.581  1.00  0.00     0.116 C 
BRANCH  76  77
ATOM     77  N   UNL A   1      32.619  36.779  30.600  1.00  0.00    -0.352 N 
ATOM     78  C   UNL A   1      32.986  36.750  31.921  1.00  0.00     0.252 C 
ATOM     79  H   UNL A   1      32.174  37.604  30.300  1.00  0.00     0.163 HD
ATOM     80  O   UNL A   1      32.584  37.594  32.711  1.00  0.00    -0.269 OA
BRANCH  78  81
ATOM     81  C   UNL A   1      33.847  35.666  32.402  1.00  0.00     0.058 A 
ATOM     82  C   UNL A   1      33.329  34.442  32.815  1.00  0.00     0.019 A 
ATOM     83  C   UNL A   1      35.216  35.866  32.457  1.00  0.00     0.127 A 
ATOM     84  C   UNL A   1      34.201  33.467  33.294  1.00  0.00     0.048 A 
ATOM     85  N   UNL A   1      36.082  34.954  32.964  1.00  0.00    -0.238 NA
ATOM     86  C   UNL A   1      35.566  33.752  33.337  1.00  0.00     0.138 A 
BRANCH  86  87
ATOM     87  N   UNL A   1      36.479  32.768  33.792  1.00  0.00    -0.283 N 
ATOM     88  C   UNL A   1      36.758  31.599  33.121  1.00  0.00     0.206 A 
ATOM     89  C   UNL A   1      37.207  32.736  34.972  1.00  0.00     0.074 A 
ATOM     90  N   UNL A   1      37.679  30.878  33.723  1.00  0.00    -0.236 NA
ATOM     91  C   UNL A   1      37.941  31.552  34.888  1.00  0.00     0.089 A 
ATOM     92  C   UNL A   1      37.237  33.546  36.119  1.00  0.00     0.029 A 
ATOM     93  C   UNL A   1      38.779  31.180  35.951  1.00  0.00     0.030 A 
ATOM     94  C   UNL A   1      38.063  33.150  37.174  1.00  0.00     0.002 A 
ATOM     95  C   UNL A   1      38.829  31.989  37.092  1.00  0.00     0.002 A 
ENDBRANCH  86  87
ENDBRANCH  78  81
ENDBRANCH  76  77
ENDBRANCH  75  76
ENDBRANCH  74  75
ENDBRANCH   1  74
TORSDOF 15
ENDMDL
