MODEL 1
REMARK VINA RESULT:     -11.0      0.000      0.000
REMARK SMILES O=C(NCCCCNC(=O)c1ccc(-n2nc(Cl)ccc2=O)cc1)c1ccc(-c2c3nc(c(-c4c(F)cc(S(=O)(=O)[O-])cc4F)c4ccc([nH]4)c(-c4c(F)cc(S(=O)(=O)[O-])cc4F)c4nc(c(-c5c(F)cc(S(=O)(=O)[O-])cc5F)c5ccc2[nH]5)C=C4)C=C3)cc1
REMARK SMILES IDX 4 1 3 2 1 3 2 4 25 6 26 7 90 8 27 9 89 10 28 11 29 12 30 13
REMARK SMILES IDX 83 14 31 15 88 16 82 17 84 18 32 19 87 20 81 21 80 22 33 24
REMARK SMILES IDX 67 25 46 26 66 27 47 28 50 29 65 30 85 31 48 32 49 33 64 35
REMARK SMILES IDX 86 36 51 37 34 38 35 39 44 40 36 41 37 42 43 43 45 44 38 45
REMARK SMILES IDX 39 46 40 47 41 48 42 49 68 50 69 51 78 52 70 53 71 54 77 55
REMARK SMILES IDX 79 56 72 57 73 58 74 59 75 60 76 61 52 62 53 63 62 64 54 65
REMARK SMILES IDX 55 66 61 67 63 68 56 69 57 70 58 71 59 72 60 73 5 74 6 75
REMARK SMILES IDX 7 76 8 77 9 78 10 80 11 81 12 82 24 83 13 84 23 85 14 86
REMARK SMILES IDX 15 87 16 88 21 89 17 90 20 91 22 92 18 93 19 94
REMARK H PARENT 3 5 84 23 50 34 8 79
REMARK Flexibility Score: inf
ROOT
ATOM      1  C   UNL A   1      34.878  32.775  28.360  1.00  0.00     0.116 C 
ENDROOT
BRANCH   1   2
ATOM      2  N   UNL A   1      34.046  31.603  28.131  1.00  0.00    -0.352 N 
ATOM      3  O   UNL A   1      33.580  29.446  27.674  1.00  0.00    -0.269 OA
ATOM      4  C   UNL A   1      34.414  30.283  28.010  1.00  0.00     0.251 C 
ATOM      5  H   UNL A   1      33.082  31.781  28.050  1.00  0.00     0.163 HD
BRANCH   4   6
ATOM      6  C   UNL A   1      35.816  29.880  28.256  1.00  0.00     0.039 A 
ATOM      7  C   UNL A   1      36.212  29.390  29.503  1.00  0.00     0.014 A 
ATOM      8  C   UNL A   1      36.749  29.999  27.222  1.00  0.00     0.014 A 
ATOM      9  C   UNL A   1      37.560  29.165  29.762  1.00  0.00     0.010 A 
ATOM     10  C   UNL A   1      38.092  29.692  27.460  1.00  0.00     0.010 A 
ATOM     11  C   UNL A   1      38.515  29.306  28.742  1.00  0.00    -0.014 A 
BRANCH  11  12
ATOM     12  C   UNL A   1      39.942  29.000  29.024  1.00  0.00     0.031 A 
ATOM     13  C   UNL A   1      40.837  30.012  29.685  1.00  0.00     0.074 A 
ATOM     14  C   UNL A   1      40.424  27.787  28.690  1.00  0.00     0.049 A 
ATOM     15  N   UNL A   1      42.107  29.915  29.988  1.00  0.00    -0.248 NA
ATOM     16  C   UNL A   1      40.234  31.304  30.046  1.00  0.00     0.031 C 
ATOM     17  C   UNL A   1      39.652  26.726  28.037  1.00  0.00     0.029 A 
ATOM     18  N   UNL A   1      41.668  27.236  28.856  1.00  0.00    -0.354 N 
ATOM     19  C   UNL A   1      42.460  31.134  30.556  1.00  0.00     0.074 A 
ATOM     20  C   UNL A   1      41.276  31.966  30.532  1.00  0.00     0.031 C 
ATOM     21  C   UNL A   1      40.429  25.644  27.889  1.00  0.00     0.029 A 
ATOM     22  C   UNL A   1      41.768  25.952  28.378  1.00  0.00     0.049 A 
ATOM     23  H   UNL A   1      42.418  27.716  29.276  1.00  0.00     0.167 HD
ATOM     24  C   UNL A   1      43.661  31.518  31.055  1.00  0.00     0.037 A 
ATOM     25  C   UNL A   1      42.823  25.118  28.317  1.00  0.00     0.037 A 
ATOM     26  C   UNL A   1      44.832  30.677  31.085  1.00  0.00     0.049 A 
ATOM     27  C   UNL A   1      44.148  25.575  28.857  1.00  0.00     0.074 A 
ATOM     28  C   UNL A   1      46.085  30.964  31.600  1.00  0.00     0.029 A 
ATOM     29  N   UNL A   1      44.896  29.387  30.576  1.00  0.00    -0.354 N 
ATOM     30  N   UNL A   1      44.456  26.723  29.412  1.00  0.00    -0.248 NA
ATOM     31  C   UNL A   1      45.266  24.629  28.761  1.00  0.00     0.031 C 
ATOM     32  C   UNL A   1      46.918  29.865  31.363  1.00  0.00     0.029 A 
ATOM     33  C   UNL A   1      46.173  28.873  30.746  1.00  0.00     0.049 A 
ATOM     34  H   UNL A   1      44.146  28.907  30.157  1.00  0.00     0.167 HD
ATOM     35  C   UNL A   1      45.802  26.630  29.750  1.00  0.00     0.074 A 
ATOM     36  C   UNL A   1      46.242  25.310  29.347  1.00  0.00     0.031 C 
ATOM     37  C   UNL A   1      46.598  27.556  30.341  1.00  0.00     0.037 A 
BRANCH  24  38
ATOM     38  C   UNL A   1      43.779  32.920  31.591  1.00  0.00     0.058 A 
ATOM     39  C   UNL A   1      44.119  34.005  30.765  1.00  0.00     0.135 A 
ATOM     40  C   UNL A   1      43.516  33.189  32.945  1.00  0.00     0.135 A 
ATOM     41  F   UNL A   1      44.392  33.805  29.466  1.00  0.00    -0.206 F 
ATOM     42  C   UNL A   1      44.224  35.298  31.269  1.00  0.00     0.059 A 
ATOM     43  C   UNL A   1      43.590  34.479  33.464  1.00  0.00     0.059 A 
ATOM     44  F   UNL A   1      43.184  32.191  33.780  1.00  0.00    -0.206 F 
ATOM     45  C   UNL A   1      43.962  35.524  32.621  1.00  0.00     0.060 A 
BRANCH  45  46
ATOM     46  S   UNL A   1      44.116  37.206  33.263  1.00  0.00     0.124 S 
ATOM     47  O   UNL A   1      42.855  37.359  33.980  1.00  0.00    -0.237 OA
ATOM     48  O   UNL A   1      45.311  37.115  34.096  1.00  0.00    -0.237 OA
ATOM     49  O   UNL A   1      44.255  38.018  32.058  1.00  0.00    -0.744 OA
ENDBRANCH  45  46
ENDBRANCH  24  38
BRANCH  25  50
ATOM     50  C   UNL A   1      42.656  23.771  27.715  1.00  0.00     0.058 A 
ATOM     51  C   UNL A   1      42.758  23.580  26.330  1.00  0.00     0.135 A 
ATOM     52  C   UNL A   1      42.439  22.640  28.519  1.00  0.00     0.135 A 
ATOM     53  F   UNL A   1      42.959  24.630  25.520  1.00  0.00    -0.206 F 
ATOM     54  C   UNL A   1      42.648  22.315  25.761  1.00  0.00     0.059 A 
ATOM     55  C   UNL A   1      42.354  21.363  27.977  1.00  0.00     0.059 A 
ATOM     56  F   UNL A   1      42.353  22.770  29.852  1.00  0.00    -0.206 F 
ATOM     57  C   UNL A   1      42.453  21.212  26.594  1.00  0.00     0.060 A 
BRANCH  57  58
ATOM     58  S   UNL A   1      42.382  19.566  25.853  1.00  0.00     0.124 S 
ATOM     59  O   UNL A   1      42.747  18.720  26.983  1.00  0.00    -0.237 OA
ATOM     60  O   UNL A   1      40.992  19.486  25.418  1.00  0.00    -0.237 OA
ATOM     61  O   UNL A   1      43.364  19.642  24.775  1.00  0.00    -0.744 OA
ENDBRANCH  57  58
ENDBRANCH  25  50
BRANCH  37  62
ATOM     62  C   UNL A   1      48.021  27.163  30.615  1.00  0.00     0.058 A 
ATOM     63  C   UNL A   1      49.052  27.436  29.702  1.00  0.00     0.135 A 
ATOM     64  C   UNL A   1      48.366  26.543  31.828  1.00  0.00     0.135 A 
ATOM     65  F   UNL A   1      48.774  28.017  28.524  1.00  0.00    -0.206 F 
ATOM     66  C   UNL A   1      50.372  27.091  29.973  1.00  0.00     0.059 A 
ATOM     67  C   UNL A   1      49.682  26.212  32.130  1.00  0.00     0.059 A 
ATOM     68  F   UNL A   1      47.418  26.267  32.738  1.00  0.00    -0.206 F 
ATOM     69  C   UNL A   1      50.678  26.481  31.191  1.00  0.00     0.060 A 
BRANCH  69  70
ATOM     70  S   UNL A   1      52.400  26.070  31.547  1.00  0.00     0.124 S 
ATOM     71  O   UNL A   1      53.009  26.189  30.226  1.00  0.00    -0.237 OA
ATOM     72  O   UNL A   1      52.774  27.098  32.513  1.00  0.00    -0.237 OA
ATOM     73  O   UNL A   1      52.321  24.714  32.082  1.00  0.00    -0.744 OA
ENDBRANCH  69  70
ENDBRANCH  37  62
ENDBRANCH  11  12
ENDBRANCH   4   6
ENDBRANCH   1   2
BRANCH   1  74
ATOM     74  C   UNL A   1      34.395  33.628  29.526  1.00  0.00     0.023 C 
BRANCH  74  75
ATOM     75  C   UNL A   1      33.280  34.618  29.194  1.00  0.00     0.023 C 
BRANCH  75  76
ATOM     76  C   UNL A   1      33.520  36.052  29.661  1.00  0.00     0.116 C 
BRANCH  76  77
ATOM     77  N   UNL A   1      32.545  36.493  30.646  1.00  0.00    -0.352 N 
ATOM     78  C   UNL A   1      32.465  36.169  31.977  1.00  0.00     0.251 C 
ATOM     79  H   UNL A   1      31.849  37.106  30.314  1.00  0.00     0.163 HD
ATOM     80  O   UNL A   1      31.520  36.535  32.668  1.00  0.00    -0.269 OA
BRANCH  78  81
ATOM     81  C   UNL A   1      33.528  35.340  32.570  1.00  0.00     0.039 A 
ATOM     82  C   UNL A   1      33.238  34.021  32.910  1.00  0.00     0.016 A 
ATOM     83  C   UNL A   1      34.810  35.856  32.757  1.00  0.00     0.016 A 
ATOM     84  C   UNL A   1      34.268  33.183  33.352  1.00  0.00     0.029 A 
ATOM     85  C   UNL A   1      35.828  35.017  33.219  1.00  0.00     0.029 A 
ATOM     86  C   UNL A   1      35.583  33.655  33.482  1.00  0.00     0.069 A 
BRANCH  86  87
ATOM     87  N   UNL A   1      36.667  32.792  33.848  1.00  0.00    -0.196 N 
ATOM     88  N   UNL A   1      36.919  32.760  35.212  1.00  0.00    -0.153 NA
ATOM     89  C   UNL A   1      37.423  32.076  32.912  1.00  0.00     0.271 A 
ATOM     90  C   UNL A   1      37.884  32.014  35.636  1.00  0.00     0.150 A 
ATOM     91  C   UNL A   1      38.537  31.271  33.467  1.00  0.00     0.077 A 
ATOM     92  O   UNL A   1      37.298  32.072  31.689  1.00  0.00    -0.267 OA
ATOM     93  Cl  UNL A   1      38.113  31.976  37.346  1.00  0.00    -0.060 Cl
ATOM     94  C   UNL A   1      38.774  31.224  34.776  1.00  0.00     0.049 A 
ENDBRANCH  86  87
ENDBRANCH  78  81
ENDBRANCH  76  77
ENDBRANCH  75  76
ENDBRANCH  74  75
ENDBRANCH   1  74
TORSDOF 15
ENDMDL
MODEL 2
REMARK VINA RESULT:     -10.9      4.035      6.578
REMARK SMILES O=C(NCCCCNC(=O)c1ccc(-n2nc(Cl)ccc2=O)cc1)c1ccc(-c2c3nc(c(-c4c(F)cc(S(=O)(=O)[O-])cc4F)c4ccc([nH]4)c(-c4c(F)cc(S(=O)(=O)[O-])cc4F)c4nc(c(-c5c(F)cc(S(=O)(=O)[O-])cc5F)c5ccc2[nH]5)C=C4)C=C3)cc1
REMARK SMILES IDX 4 1 3 2 1 3 2 4 25 6 26 7 90 8 27 9 89 10 28 11 29 12 30 13
REMARK SMILES IDX 83 14 31 15 88 16 82 17 84 18 32 19 87 20 81 21 80 22 33 24
REMARK SMILES IDX 67 25 46 26 66 27 47 28 50 29 65 30 85 31 48 32 49 33 64 35
REMARK SMILES IDX 86 36 51 37 34 38 35 39 44 40 36 41 37 42 43 43 45 44 38 45
REMARK SMILES IDX 39 46 40 47 41 48 42 49 68 50 69 51 78 52 70 53 71 54 77 55
REMARK SMILES IDX 79 56 72 57 73 58 74 59 75 60 76 61 52 62 53 63 62 64 54 65
REMARK SMILES IDX 55 66 61 67 63 68 56 69 57 70 58 71 59 72 60 73 5 74 6 75
REMARK SMILES IDX 7 76 8 77 9 78 10 80 11 81 12 82 24 83 13 84 23 85 14 86
REMARK SMILES IDX 15 87 16 88 21 89 17 90 20 91 22 92 18 93 19 94
REMARK H PARENT 3 5 84 23 50 34 8 79
REMARK Flexibility Score: inf
ROOT
ATOM      1  C   UNL A   1      35.314  29.722  27.695  1.00  0.00     0.116 C 
ENDROOT
BRANCH   1   2
ATOM      2  N   UNL A   1      35.228  30.187  29.071  1.00  0.00    -0.352 N 
ATOM      3  O   UNL A   1      35.921  30.562  31.183  1.00  0.00    -0.269 OA
ATOM      4  C   UNL A   1      36.215  30.277  30.025  1.00  0.00     0.251 C 
ATOM      5  H   UNL A   1      34.334  30.479  29.363  1.00  0.00     0.163 HD
BRANCH   4   6
ATOM      6  C   UNL A   1      37.622  30.002  29.660  1.00  0.00     0.039 A 
ATOM      7  C   UNL A   1      38.054  30.115  28.336  1.00  0.00     0.014 A 
ATOM      8  C   UNL A   1      38.522  29.619  30.660  1.00  0.00     0.014 A 
ATOM      9  C   UNL A   1      39.336  29.703  27.989  1.00  0.00     0.010 A 
ATOM     10  C   UNL A   1      39.837  29.285  30.320  1.00  0.00     0.010 A 
ATOM     11  C   UNL A   1      40.246  29.290  28.977  1.00  0.00    -0.014 A 
BRANCH  11  12
ATOM     12  C   UNL A   1      41.630  28.914  28.590  1.00  0.00     0.031 A 
ATOM     13  C   UNL A   1      42.741  29.928  28.594  1.00  0.00     0.074 A 
ATOM     14  C   UNL A   1      41.883  27.636  28.247  1.00  0.00     0.049 A 
ATOM     15  N   UNL A   1      44.000  29.773  28.270  1.00  0.00    -0.248 NA
ATOM     16  C   UNL A   1      42.395  31.297  29.007  1.00  0.00     0.031 C 
ATOM     17  C   UNL A   1      40.884  26.565  28.198  1.00  0.00     0.029 A 
ATOM     18  N   UNL A   1      43.050  27.017  27.881  1.00  0.00    -0.354 N 
ATOM     19  C   UNL A   1      44.592  31.021  28.420  1.00  0.00     0.074 A 
ATOM     20  C   UNL A   1      43.548  31.932  28.840  1.00  0.00     0.031 C 
ATOM     21  C   UNL A   1      41.486  25.417  27.858  1.00  0.00     0.029 A 
ATOM     22  C   UNL A   1      42.898  25.680  27.603  1.00  0.00     0.049 A 
ATOM     23  H   UNL A   1      43.913  27.485  27.822  1.00  0.00     0.167 HD
ATOM     24  C   UNL A   1      45.888  31.372  28.229  1.00  0.00     0.037 A 
ATOM     25  C   UNL A   1      43.788  24.767  27.171  1.00  0.00     0.037 A 
ATOM     26  C   UNL A   1      46.923  30.454  27.823  1.00  0.00     0.049 A 
ATOM     27  C   UNL A   1      45.213  25.184  26.947  1.00  0.00     0.074 A 
ATOM     28  C   UNL A   1      48.271  30.705  27.635  1.00  0.00     0.029 A 
ATOM     29  N   UNL A   1      46.725  29.110  27.536  1.00  0.00    -0.354 N 
ATOM     30  N   UNL A   1      45.759  26.364  27.118  1.00  0.00    -0.248 NA
ATOM     31  C   UNL A   1      46.140  24.151  26.470  1.00  0.00     0.031 C 
ATOM     32  C   UNL A   1      48.880  29.525  27.193  1.00  0.00     0.029 A 
ATOM     33  C   UNL A   1      47.922  28.525  27.153  1.00  0.00     0.049 A 
ATOM     34  H   UNL A   1      45.862  28.641  27.597  1.00  0.00     0.167 HD
ATOM     35  C   UNL A   1      47.101  26.212  26.787  1.00  0.00     0.074 A 
ATOM     36  C   UNL A   1      47.283  24.822  26.419  1.00  0.00     0.031 C 
ATOM     37  C   UNL A   1      48.090  27.139  26.790  1.00  0.00     0.037 A 
BRANCH  24  38
ATOM     38  C   UNL A   1      46.260  32.816  28.437  1.00  0.00     0.058 A 
ATOM     39  C   UNL A   1      46.206  33.754  27.393  1.00  0.00     0.135 A 
ATOM     40  C   UNL A   1      46.644  33.276  29.708  1.00  0.00     0.135 A 
ATOM     41  F   UNL A   1      45.857  33.368  26.156  1.00  0.00    -0.206 F 
ATOM     42  C   UNL A   1      46.550  35.087  27.594  1.00  0.00     0.059 A 
ATOM     43  C   UNL A   1      46.968  34.611  29.937  1.00  0.00     0.059 A 
ATOM     44  F   UNL A   1      46.711  32.424  30.744  1.00  0.00    -0.206 F 
ATOM     45  C   UNL A   1      46.934  35.505  28.869  1.00  0.00     0.060 A 
BRANCH  45  46
ATOM     46  S   UNL A   1      47.390  37.237  29.111  1.00  0.00     0.124 S 
ATOM     47  O   UNL A   1      46.089  37.893  29.036  1.00  0.00    -0.237 OA
ATOM     48  O   UNL A   1      48.012  37.215  30.432  1.00  0.00    -0.237 OA
ATOM     49  O   UNL A   1      48.296  37.509  28.000  1.00  0.00    -0.744 OA
ENDBRANCH  45  46
ENDBRANCH  24  38
BRANCH  25  50
ATOM     50  C   UNL A   1      43.342  23.372  26.922  1.00  0.00     0.058 A 
ATOM     51  C   UNL A   1      43.181  22.886  25.616  1.00  0.00     0.135 A 
ATOM     52  C   UNL A   1      43.115  22.483  27.985  1.00  0.00     0.135 A 
ATOM     53  F   UNL A   1      43.381  23.700  24.569  1.00  0.00    -0.206 F 
ATOM     54  C   UNL A   1      42.808  21.569  25.372  1.00  0.00     0.059 A 
ATOM     55  C   UNL A   1      42.768  21.155  27.766  1.00  0.00     0.059 A 
ATOM     56  F   UNL A   1      43.274  22.896  29.252  1.00  0.00    -0.206 F 
ATOM     57  C   UNL A   1      42.610  20.709  26.454  1.00  0.00     0.060 A 
BRANCH  57  58
ATOM     58  S   UNL A   1      42.195  18.982  26.126  1.00  0.00     0.124 S 
ATOM     59  O   UNL A   1      42.473  18.364  27.416  1.00  0.00    -0.237 OA
ATOM     60  O   UNL A   1      40.787  19.072  25.751  1.00  0.00    -0.237 OA
ATOM     61  O   UNL A   1      43.101  18.621  25.041  1.00  0.00    -0.744 OA
ENDBRANCH  57  58
ENDBRANCH  25  50
BRANCH  37  62
ATOM     62  C   UNL A   1      49.467  26.676  26.410  1.00  0.00     0.058 A 
ATOM     63  C   UNL A   1      50.313  26.041  27.333  1.00  0.00     0.135 A 
ATOM     64  C   UNL A   1      49.930  26.829  25.093  1.00  0.00     0.135 A 
ATOM     65  F   UNL A   1      49.922  25.879  28.607  1.00  0.00    -0.206 F 
ATOM     66  C   UNL A   1      51.579  25.592  26.968  1.00  0.00     0.059 A 
ATOM     67  C   UNL A   1      51.181  26.366  24.700  1.00  0.00     0.059 A 
ATOM     68  F   UNL A   1      49.157  27.424  24.170  1.00  0.00    -0.206 F 
ATOM     69  C   UNL A   1      52.003  25.758  25.649  1.00  0.00     0.060 A 
BRANCH  69  70
ATOM     70  S   UNL A   1      53.633  25.140  25.178  1.00  0.00     0.124 S 
ATOM     71  O   UNL A   1      53.723  25.578  23.789  1.00  0.00    -0.237 OA
ATOM     72  O   UNL A   1      54.513  25.827  26.119  1.00  0.00    -0.237 OA
ATOM     73  O   UNL A   1      53.519  23.698  25.376  1.00  0.00    -0.744 OA
ENDBRANCH  69  70
ENDBRANCH  37  62
ENDBRANCH  11  12
ENDBRANCH   4   6
ENDBRANCH   1   2
BRANCH   1  74
ATOM     74  C   UNL A   1      34.077  28.952  27.250  1.00  0.00     0.023 C 
BRANCH  74  75
ATOM     75  C   UNL A   1      33.059  29.759  26.446  1.00  0.00     0.023 C 
BRANCH  75  76
ATOM     76  C   UNL A   1      32.888  29.328  24.991  1.00  0.00     0.116 C 
BRANCH  76  77
ATOM     77  N   UNL A   1      31.616  28.667  24.746  1.00  0.00    -0.352 N 
ATOM     78  C   UNL A   1      31.365  27.329  24.573  1.00  0.00     0.251 C 
ATOM     79  H   UNL A   1      30.830  29.259  24.696  1.00  0.00     0.163 HD
ATOM     80  O   UNL A   1      30.249  26.923  24.266  1.00  0.00    -0.269 OA
BRANCH  78  81
ATOM     81  C   UNL A   1      32.473  26.373  24.734  1.00  0.00     0.039 A 
ATOM     82  C   UNL A   1      32.688  25.800  25.986  1.00  0.00     0.016 A 
ATOM     83  C   UNL A   1      33.272  26.023  23.647  1.00  0.00     0.016 A 
ATOM     84  C   UNL A   1      33.650  24.795  26.126  1.00  0.00     0.029 A 
ATOM     85  C   UNL A   1      34.246  25.032  23.801  1.00  0.00     0.029 A 
ATOM     86  C   UNL A   1      34.422  24.371  25.032  1.00  0.00     0.069 A 
BRANCH  86  87
ATOM     87  N   UNL A   1      35.350  23.284  25.133  1.00  0.00    -0.196 N 
ATOM     88  N   UNL A   1      36.591  23.655  25.630  1.00  0.00    -0.153 NA
ATOM     89  C   UNL A   1      35.043  21.977  24.735  1.00  0.00     0.271 A 
ATOM     90  C   UNL A   1      37.497  22.741  25.751  1.00  0.00     0.150 A 
ATOM     91  C   UNL A   1      36.141  20.991  24.867  1.00  0.00     0.077 A 
ATOM     92  O   UNL A   1      33.990  21.566  24.252  1.00  0.00    -0.267 OA
ATOM     93  Cl  UNL A   1      39.000  23.255  26.424  1.00  0.00    -0.060 Cl
ATOM     94  C   UNL A   1      37.330  21.337  25.358  1.00  0.00     0.049 A 
ENDBRANCH  86  87
ENDBRANCH  78  81
ENDBRANCH  76  77
ENDBRANCH  75  76
ENDBRANCH  74  75
ENDBRANCH   1  74
TORSDOF 15
ENDMDL
MODEL 3
REMARK VINA RESULT:     -10.8      1.193      2.099
REMARK SMILES O=C(NCCCCNC(=O)c1ccc(-n2nc(Cl)ccc2=O)cc1)c1ccc(-c2c3nc(c(-c4c(F)cc(S(=O)(=O)[O-])cc4F)c4ccc([nH]4)c(-c4c(F)cc(S(=O)(=O)[O-])cc4F)c4nc(c(-c5c(F)cc(S(=O)(=O)[O-])cc5F)c5ccc2[nH]5)C=C4)C=C3)cc1
REMARK SMILES IDX 4 1 3 2 1 3 2 4 25 6 26 7 90 8 27 9 89 10 28 11 29 12 30 13
REMARK SMILES IDX 83 14 31 15 88 16 82 17 84 18 32 19 87 20 81 21 80 22 33 24
REMARK SMILES IDX 67 25 46 26 66 27 47 28 50 29 65 30 85 31 48 32 49 33 64 35
REMARK SMILES IDX 86 36 51 37 34 38 35 39 44 40 36 41 37 42 43 43 45 44 38 45
REMARK SMILES IDX 39 46 40 47 41 48 42 49 68 50 69 51 78 52 70 53 71 54 77 55
REMARK SMILES IDX 79 56 72 57 73 58 74 59 75 60 76 61 52 62 53 63 62 64 54 65
REMARK SMILES IDX 55 66 61 67 63 68 56 69 57 70 58 71 59 72 60 73 5 74 6 75
REMARK SMILES IDX 7 76 8 77 9 78 10 80 11 81 12 82 24 83 13 84 23 85 14 86
REMARK SMILES IDX 15 87 16 88 21 89 17 90 20 91 22 92 18 93 19 94
REMARK H PARENT 3 5 84 23 50 34 8 79
REMARK Flexibility Score: inf
ROOT
ATOM      1  C   UNL A   1      34.417  32.547  28.577  1.00  0.00     0.116 C 
ENDROOT
BRANCH   1   2
ATOM      2  N   UNL A   1      33.843  31.337  28.007  1.00  0.00    -0.352 N 
ATOM      3  O   UNL A   1      33.832  29.283  27.081  1.00  0.00    -0.269 OA
ATOM      4  C   UNL A   1      34.456  30.147  27.690  1.00  0.00     0.251 C 
ATOM      5  H   UNL A   1      32.877  31.376  27.822  1.00  0.00     0.163 HD
BRANCH   4   6
ATOM      6  C   UNL A   1      35.872  29.924  28.056  1.00  0.00     0.039 A 
ATOM      7  C   UNL A   1      36.894  30.138  27.128  1.00  0.00     0.014 A 
ATOM      8  C   UNL A   1      36.179  29.490  29.349  1.00  0.00     0.014 A 
ATOM      9  C   UNL A   1      38.200  29.774  27.440  1.00  0.00     0.010 A 
ATOM     10  C   UNL A   1      37.506  29.204  29.689  1.00  0.00     0.010 A 
ATOM     11  C   UNL A   1      38.523  29.311  28.726  1.00  0.00    -0.014 A 
BRANCH  11  12
ATOM     12  C   UNL A   1      39.935  28.987  29.058  1.00  0.00     0.031 A 
ATOM     13  C   UNL A   1      40.815  29.983  29.765  1.00  0.00     0.074 A 
ATOM     14  C   UNL A   1      40.418  27.775  28.726  1.00  0.00     0.049 A 
ATOM     15  N   UNL A   1      42.071  29.870  30.114  1.00  0.00    -0.248 NA
ATOM     16  C   UNL A   1      40.210  31.276  30.119  1.00  0.00     0.031 C 
ATOM     17  C   UNL A   1      39.662  26.729  28.032  1.00  0.00     0.029 A 
ATOM     18  N   UNL A   1      41.650  27.210  28.931  1.00  0.00    -0.354 N 
ATOM     19  C   UNL A   1      42.414  31.078  30.710  1.00  0.00     0.074 A 
ATOM     20  C   UNL A   1      41.239  31.921  30.652  1.00  0.00     0.031 C 
ATOM     21  C   UNL A   1      40.433  25.642  27.898  1.00  0.00     0.029 A 
ATOM     22  C   UNL A   1      41.756  25.931  28.441  1.00  0.00     0.049 A 
ATOM     23  H   UNL A   1      42.388  27.677  29.386  1.00  0.00     0.167 HD
ATOM     24  C   UNL A   1      43.599  31.444  31.258  1.00  0.00     0.037 A 
ATOM     25  C   UNL A   1      42.805  25.088  28.409  1.00  0.00     0.037 A 
ATOM     26  C   UNL A   1      44.760  30.591  31.322  1.00  0.00     0.049 A 
ATOM     27  C   UNL A   1      44.113  25.525  29.003  1.00  0.00     0.074 A 
ATOM     28  C   UNL A   1      45.995  30.859  31.886  1.00  0.00     0.029 A 
ATOM     29  N   UNL A   1      44.832  29.307  30.799  1.00  0.00    -0.354 N 
ATOM     30  N   UNL A   1      44.411  26.662  29.585  1.00  0.00    -0.248 NA
ATOM     31  C   UNL A   1      45.225  24.569  28.937  1.00  0.00     0.031 C 
ATOM     32  C   UNL A   1      46.827  29.755  31.666  1.00  0.00     0.029 A 
ATOM     33  C   UNL A   1      46.096  28.779  31.009  1.00  0.00     0.049 A 
ATOM     34  H   UNL A   1      44.093  28.840  30.346  1.00  0.00     0.167 HD
ATOM     35  C   UNL A   1      45.742  26.553  29.972  1.00  0.00     0.074 A 
ATOM     36  C   UNL A   1      46.185  25.233  29.569  1.00  0.00     0.031 C 
ATOM     37  C   UNL A   1      46.523  27.463  30.603  1.00  0.00     0.037 A 
BRANCH  24  38
ATOM     38  C   UNL A   1      43.709  32.838  31.817  1.00  0.00     0.058 A 
ATOM     39  C   UNL A   1      43.619  33.095  33.195  1.00  0.00     0.135 A 
ATOM     40  C   UNL A   1      43.941  33.930  30.964  1.00  0.00     0.135 A 
ATOM     41  F   UNL A   1      43.387  32.091  34.055  1.00  0.00    -0.206 F 
ATOM     42  C   UNL A   1      43.724  34.386  33.703  1.00  0.00     0.059 A 
ATOM     43  C   UNL A   1      44.075  35.228  31.454  1.00  0.00     0.059 A 
ATOM     44  F   UNL A   1      44.039  33.744  29.638  1.00  0.00    -0.206 F 
ATOM     45  C   UNL A   1      43.947  35.447  32.823  1.00  0.00     0.060 A 
BRANCH  45  46
ATOM     46  S   UNL A   1      44.068  37.119  33.497  1.00  0.00     0.124 S 
ATOM     47  O   UNL A   1      44.478  37.877  32.320  1.00  0.00    -0.237 OA
ATOM     48  O   UNL A   1      42.707  37.366  33.966  1.00  0.00    -0.237 OA
ATOM     49  O   UNL A   1      45.075  36.992  34.545  1.00  0.00    -0.744 OA
ENDBRANCH  45  46
ENDBRANCH  24  38
BRANCH  25  50
ATOM     50  C   UNL A   1      42.648  23.750  27.784  1.00  0.00     0.058 A 
ATOM     51  C   UNL A   1      42.767  23.580  26.397  1.00  0.00     0.135 A 
ATOM     52  C   UNL A   1      42.425  22.606  28.567  1.00  0.00     0.135 A 
ATOM     53  F   UNL A   1      42.975  24.644  25.607  1.00  0.00    -0.206 F 
ATOM     54  C   UNL A   1      42.667  22.325  25.807  1.00  0.00     0.059 A 
ATOM     55  C   UNL A   1      42.349  21.337  28.003  1.00  0.00     0.059 A 
ATOM     56  F   UNL A   1      42.323  22.714  29.901  1.00  0.00    -0.206 F 
ATOM     57  C   UNL A   1      42.465  21.208  26.620  1.00  0.00     0.060 A 
BRANCH  57  58
ATOM     58  S   UNL A   1      42.407  19.574  25.852  1.00  0.00     0.124 S 
ATOM     59  O   UNL A   1      43.407  19.710  24.800  1.00  0.00    -0.237 OA
ATOM     60  O   UNL A   1      42.764  18.700  26.965  1.00  0.00    -0.237 OA
ATOM     61  O   UNL A   1      41.023  19.466  25.400  1.00  0.00    -0.744 OA
ENDBRANCH  57  58
ENDBRANCH  25  50
BRANCH  37  62
ATOM     62  C   UNL A   1      47.932  27.052  30.925  1.00  0.00     0.058 A 
ATOM     63  C   UNL A   1      48.253  26.389  32.120  1.00  0.00     0.135 A 
ATOM     64  C   UNL A   1      48.968  27.288  30.006  1.00  0.00     0.135 A 
ATOM     65  F   UNL A   1      47.302  26.149  33.036  1.00  0.00    -0.206 F 
ATOM     66  C   UNL A   1      49.557  25.990  32.401  1.00  0.00     0.059 A 
ATOM     67  C   UNL A   1      50.272  26.876  30.255  1.00  0.00     0.059 A 
ATOM     68  F   UNL A   1      48.712  27.913  28.845  1.00  0.00    -0.206 F 
ATOM     69  C   UNL A   1      50.559  26.237  31.461  1.00  0.00     0.060 A 
BRANCH  69  70
ATOM     70  S   UNL A   1      52.240  25.683  31.821  1.00  0.00     0.124 S 
ATOM     71  O   UNL A   1      52.928  26.006  30.575  1.00  0.00    -0.237 OA
ATOM     72  O   UNL A   1      52.599  26.502  32.975  1.00  0.00    -0.237 OA
ATOM     73  O   UNL A   1      52.076  24.259  32.098  1.00  0.00    -0.744 OA
ENDBRANCH  69  70
ENDBRANCH  37  62
ENDBRANCH  11  12
ENDBRANCH   4   6
ENDBRANCH   1   2
BRANCH   1  74
ATOM     74  C   UNL A   1      33.767  33.819  28.049  1.00  0.00     0.023 C 
BRANCH  74  75
ATOM     75  C   UNL A   1      33.623  34.951  29.065  1.00  0.00     0.023 C 
BRANCH  75  76
ATOM     76  C   UNL A   1      33.541  34.510  30.525  1.00  0.00     0.116 C 
BRANCH  76  77
ATOM     77  N   UNL A   1      33.856  35.583  31.455  1.00  0.00    -0.352 N 
ATOM     78  C   UNL A   1      34.786  35.597  32.464  1.00  0.00     0.251 C 
ATOM     79  H   UNL A   1      33.331  36.410  31.347  1.00  0.00     0.163 HD
ATOM     80  O   UNL A   1      34.870  36.541  33.243  1.00  0.00    -0.269 OA
BRANCH  78  81
ATOM     81  C   UNL A   1      35.678  34.436  32.622  1.00  0.00     0.039 A 
ATOM     82  C   UNL A   1      36.600  34.157  31.616  1.00  0.00     0.016 A 
ATOM     83  C   UNL A   1      35.623  33.650  33.772  1.00  0.00     0.016 A 
ATOM     84  C   UNL A   1      37.541  33.140  31.808  1.00  0.00     0.029 A 
ATOM     85  C   UNL A   1      36.553  32.621  33.946  1.00  0.00     0.029 A 
ATOM     86  C   UNL A   1      37.555  32.378  32.987  1.00  0.00     0.069 A 
BRANCH  86  87
ATOM     87  N   UNL A   1      38.563  31.391  33.242  1.00  0.00    -0.196 N 
ATOM     88  N   UNL A   1      38.212  30.115  32.827  1.00  0.00    -0.153 NA
ATOM     89  C   UNL A   1      39.775  31.684  33.880  1.00  0.00     0.271 A 
ATOM     90  C   UNL A   1      39.056  29.157  33.021  1.00  0.00     0.150 A 
ATOM     91  C   UNL A   1      40.677  30.530  34.103  1.00  0.00     0.077 A 
ATOM     92  O   UNL A   1      40.154  32.770  34.313  1.00  0.00    -0.267 OA
ATOM     93  Cl  UNL A   1      38.583  27.604  32.436  1.00  0.00    -0.060 Cl
ATOM     94  C   UNL A   1      40.353  29.305  33.693  1.00  0.00     0.049 A 
ENDBRANCH  86  87
ENDBRANCH  78  81
ENDBRANCH  76  77
ENDBRANCH  75  76
ENDBRANCH  74  75
ENDBRANCH   1  74
TORSDOF 15
ENDMDL
