MODEL 1
REMARK VINA RESULT:     -11.3      0.000      0.000
REMARK SMILES COc1cccc(NC(=O)COc2csc(C(=O)NCCCCNC(=O)c3ccc(-c4c5nc(c(-c6c(F)cc(S(=O)(=O)[O-])cc6F)c6ccc([nH]6)c(-c6c(F)cc(S(=O)(=O)[O-])cc6F)c6nc(c(-c7c(F)cc(S(=O)(=O)[O-])cc7F)c7ccc4[nH]7)C=C6)C=C5)cc3)c2)c1
REMARK SMILES IDX 20 1 19 2 17 3 18 4 16 6 13 7 14 8 93 9 15 10 12 11 11 12
REMARK SMILES IDX 9 13 8 14 10 16 7 17 3 18 4 19 94 20 5 21 6 22 2 23 1 24
REMARK SMILES IDX 21 25 22 26 23 27 24 28 25 29 26 31 27 32 28 33 92 34 29 35
REMARK SMILES IDX 91 36 30 37 31 38 32 39 85 40 33 41 90 42 84 43 86 44 34 45
REMARK SMILES IDX 89 46 83 47 82 48 35 50 69 51 48 52 68 53 49 54 52 55 67 56
REMARK SMILES IDX 87 57 50 58 51 59 66 61 88 62 53 63 36 64 37 65 46 66 38 67
REMARK SMILES IDX 39 68 45 69 47 70 40 71 41 72 42 73 43 74 44 75 70 76 71 77
REMARK SMILES IDX 80 78 72 79 73 80 79 81 81 82 74 83 75 84 76 85 77 86 78 87
REMARK SMILES IDX 54 88 55 89 64 90 56 91 57 92 63 93 65 94 58 95 59 96 60 97
REMARK SMILES IDX 61 98 62 99
REMARK H PARENT 19 5 8 15 24 30 86 49 52 60
REMARK Flexibility Score: inf
ROOT
ATOM      1  C   UNL A   1      37.457  22.614  25.379  1.00  0.00     0.116 C 
ENDROOT
BRANCH   1   2
ATOM      2  N   UNL A   1      36.395  22.629  26.363  1.00  0.00    -0.351 N 
ATOM      3  C   UNL A   1      35.043  22.869  26.248  1.00  0.00     0.261 C 
ATOM      4  O   UNL A   1      34.396  22.723  27.288  1.00  0.00    -0.268 OA
ATOM      5  H   UNL A   1      36.691  22.433  27.281  1.00  0.00     0.163 HD
BRANCH   3   6
ATOM      6  C   UNL A   1      34.435  23.242  24.975  1.00  0.00     0.096 A 
ATOM      7  C   UNL A   1      33.758  24.321  23.000  1.00  0.00     0.131 A 
ATOM      8  C   UNL A   1      33.208  23.077  22.812  1.00  0.00     0.112 A 
ATOM      9  C   UNL A   1      34.413  24.424  24.259  1.00  0.00     0.072 A 
ATOM     10  S   UNL A   1      33.522  22.039  24.136  1.00  0.00    -0.135 S 
BRANCH   7  11
ATOM     11  O   UNL A   1      33.795  25.352  22.124  1.00  0.00    -0.483 OA
BRANCH  11  12
ATOM     12  C   UNL A   1      33.051  26.503  22.450  1.00  0.00     0.329 C 
BRANCH  12  13
ATOM     13  C   UNL A   1      33.726  27.864  22.626  1.00  0.00     0.262 C 
ATOM     14  N   UNL A   1      33.662  28.612  23.760  1.00  0.00    -0.323 N 
ATOM     15  H   UNL A   1      34.214  29.426  23.703  1.00  0.00     0.170 HD
ATOM     16  O   UNL A   1      34.384  28.339  21.690  1.00  0.00    -0.271 OA
BRANCH  14  17
ATOM     17  C   UNL A   1      32.998  28.501  24.993  1.00  0.00     0.044 A 
ATOM     18  C   UNL A   1      31.526  27.108  26.356  1.00  0.00     0.120 A 
ATOM     19  C   UNL A   1      31.526  28.084  27.348  1.00  0.00     0.046 A 
ATOM     20  C   UNL A   1      32.250  27.324  25.181  1.00  0.00     0.072 A 
ATOM     21  C   UNL A   1      32.294  29.236  27.190  1.00  0.00     0.006 A 
ATOM     22  C   UNL A   1      33.041  29.434  26.024  1.00  0.00     0.026 A 
BRANCH  18  23
ATOM     23  O   UNL A   1      30.752  26.009  26.611  1.00  0.00    -0.497 OA
ATOM     24  C   UNL A   1      31.394  24.753  26.419  1.00  0.00     0.278 C 
ENDBRANCH  18  23
ENDBRANCH  14  17
ENDBRANCH  12  13
ENDBRANCH  11  12
ENDBRANCH   7  11
ENDBRANCH   3   6
ENDBRANCH   1   2
BRANCH   1  25
ATOM     25  C   UNL A   1      37.465  21.305  24.589  1.00  0.00     0.023 C 
BRANCH  25  26
ATOM     26  C   UNL A   1      38.172  20.145  25.297  1.00  0.00     0.023 C 
BRANCH  26  27
ATOM     27  C   UNL A   1      39.524  20.488  25.920  1.00  0.00     0.116 C 
BRANCH  27  28
ATOM     28  N   UNL A   1      40.433  19.355  25.990  1.00  0.00    -0.352 N 
ATOM     29  C   UNL A   1      41.799  19.363  26.166  1.00  0.00     0.251 C 
ATOM     30  H   UNL A   1      40.019  18.466  25.899  1.00  0.00     0.163 HD
ATOM     31  O   UNL A   1      42.436  18.320  26.105  1.00  0.00    -0.269 OA
BRANCH  29  32
ATOM     32  C   UNL A   1      42.487  20.652  26.384  1.00  0.00     0.039 A 
ATOM     33  C   UNL A   1      43.040  21.313  25.285  1.00  0.00     0.014 A 
ATOM     34  C   UNL A   1      42.535  21.229  27.656  1.00  0.00     0.014 A 
ATOM     35  C   UNL A   1      43.571  22.595  25.448  1.00  0.00     0.010 A 
ATOM     36  C   UNL A   1      43.011  22.529  27.804  1.00  0.00     0.010 A 
ATOM     37  C   UNL A   1      43.518  23.230  26.700  1.00  0.00    -0.014 A 
BRANCH  37  38
ATOM     38  C   UNL A   1      43.948  24.641  26.869  1.00  0.00     0.031 A 
ATOM     39  C   UNL A   1      45.394  25.015  26.713  1.00  0.00     0.074 A 
ATOM     40  C   UNL A   1      43.043  25.566  27.249  1.00  0.00     0.049 A 
ATOM     41  N   UNL A   1      45.975  26.169  26.921  1.00  0.00    -0.248 NA
ATOM     42  C   UNL A   1      46.315  23.945  26.295  1.00  0.00     0.031 C 
ATOM     43  C   UNL A   1      41.619  25.313  27.482  1.00  0.00     0.029 A 
ATOM     44  N   UNL A   1      43.191  26.902  27.525  1.00  0.00    -0.354 N 
ATOM     45  C   UNL A   1      47.326  25.963  26.673  1.00  0.00     0.074 A 
ATOM     46  C   UNL A   1      47.486  24.563  26.342  1.00  0.00     0.031 C 
ATOM     47  C   UNL A   1      41.024  26.456  27.856  1.00  0.00     0.029 A 
ATOM     48  C   UNL A   1      42.026  27.515  27.925  1.00  0.00     0.049 A 
ATOM     49  H   UNL A   1      44.049  27.377  27.446  1.00  0.00     0.167 HD
ATOM     50  C   UNL A   1      48.337  26.863  26.703  1.00  0.00     0.037 A 
ATOM     51  C   UNL A   1      41.794  28.782  28.317  1.00  0.00     0.037 A 
ATOM     52  C   UNL A   1      48.166  28.260  27.009  1.00  0.00     0.049 A 
ATOM     53  C   UNL A   1      42.934  29.764  28.339  1.00  0.00     0.074 A 
ATOM     54  C   UNL A   1      49.118  29.265  26.999  1.00  0.00     0.029 A 
ATOM     55  N   UNL A   1      46.967  28.849  27.381  1.00  0.00    -0.354 N 
ATOM     56  N   UNL A   1      44.195  29.567  28.038  1.00  0.00    -0.248 NA
ATOM     57  C   UNL A   1      42.620  31.139  28.749  1.00  0.00     0.031 C 
ATOM     58  C   UNL A   1      48.502  30.455  27.403  1.00  0.00     0.029 A 
ATOM     59  C   UNL A   1      47.158  30.199  27.624  1.00  0.00     0.049 A 
ATOM     60  H   UNL A   1      46.107  28.378  27.461  1.00  0.00     0.167 HD
ATOM     61  C   UNL A   1      44.821  30.797  28.203  1.00  0.00     0.074 A 
ATOM     62  C   UNL A   1      43.797  31.736  28.615  1.00  0.00     0.031 C 
ATOM     63  C   UNL A   1      46.127  31.120  28.031  1.00  0.00     0.037 A 
BRANCH  50  64
ATOM     64  C   UNL A   1      49.721  26.367  26.390  1.00  0.00     0.058 A 
ATOM     65  C   UNL A   1      50.511  25.732  27.362  1.00  0.00     0.135 A 
ATOM     66  C   UNL A   1      50.249  26.490  25.095  1.00  0.00     0.135 A 
ATOM     67  F   UNL A   1      50.060  25.601  28.620  1.00  0.00    -0.206 F 
ATOM     68  C   UNL A   1      51.785  25.258  27.068  1.00  0.00     0.059 A 
ATOM     69  C   UNL A   1      51.512  26.002  24.772  1.00  0.00     0.059 A 
ATOM     70  F   UNL A   1      49.537  27.092  24.129  1.00  0.00    -0.206 F 
ATOM     71  C   UNL A   1      52.278  25.399  25.769  1.00  0.00     0.060 A 
BRANCH  71  72
ATOM     72  S   UNL A   1      53.929  24.771  25.401  1.00  0.00     0.124 S 
ATOM     73  O   UNL A   1      54.618  25.007  26.665  1.00  0.00    -0.237 OA
ATOM     74  O   UNL A   1      53.667  23.372  25.075  1.00  0.00    -0.237 OA
ATOM     75  O   UNL A   1      54.366  25.600  24.282  1.00  0.00    -0.744 OA
ENDBRANCH  71  72
ENDBRANCH  50  64
BRANCH  51  76
ATOM     76  C   UNL A   1      40.423  29.199  28.713  1.00  0.00     0.058 A 
ATOM     77  C   UNL A   1      40.076  29.345  30.064  1.00  0.00     0.135 A 
ATOM     78  C   UNL A   1      39.436  29.469  27.751  1.00  0.00     0.135 A 
ATOM     79  F   UNL A   1      40.984  29.093  31.019  1.00  0.00    -0.206 F 
ATOM     80  C   UNL A   1      38.796  29.726  30.452  1.00  0.00     0.059 A 
ATOM     81  C   UNL A   1      38.156  29.874  28.113  1.00  0.00     0.059 A 
ATOM     82  F   UNL A   1      39.723  29.360  26.446  1.00  0.00    -0.206 F 
ATOM     83  C   UNL A   1      37.842  29.989  29.467  1.00  0.00     0.060 A 
BRANCH  83  84
ATOM     84  S   UNL A   1      36.195  30.528  29.978  1.00  0.00     0.124 S 
ATOM     85  O   UNL A   1      36.432  31.930  30.297  1.00  0.00    -0.237 OA
ATOM     86  O   UNL A   1      35.402  30.270  28.781  1.00  0.00    -0.237 OA
ATOM     87  O   UNL A   1      35.898  29.661  31.115  1.00  0.00    -0.744 OA
ENDBRANCH  83  84
ENDBRANCH  51  76
BRANCH  63  88
ATOM     88  C   UNL A   1      46.519  32.553  28.263  1.00  0.00     0.058 A 
ATOM     89  C   UNL A   1      47.102  32.968  29.470  1.00  0.00     0.135 A 
ATOM     90  C   UNL A   1      46.352  33.510  27.250  1.00  0.00     0.135 A 
ATOM     91  F   UNL A   1      47.275  32.093  30.474  1.00  0.00    -0.206 F 
ATOM     92  C   UNL A   1      47.488  34.288  29.673  1.00  0.00     0.059 A 
ATOM     93  C   UNL A   1      46.755  34.830  27.421  1.00  0.00     0.059 A 
ATOM     94  F   UNL A   1      45.807  33.161  26.073  1.00  0.00    -0.206 F 
ATOM     95  C   UNL A   1      47.312  35.213  28.641  1.00  0.00     0.060 A 
BRANCH  95  96
ATOM     96  S   UNL A   1      47.848  36.917  28.902  1.00  0.00     0.124 S 
ATOM     97  O   UNL A   1      46.576  37.631  28.891  1.00  0.00    -0.237 OA
ATOM     98  O   UNL A   1      48.522  36.839  30.194  1.00  0.00    -0.237 OA
ATOM     99  O   UNL A   1      48.723  37.175  27.761  1.00  0.00    -0.744 OA
ENDBRANCH  95  96
ENDBRANCH  63  88
ENDBRANCH  37  38
ENDBRANCH  29  32
ENDBRANCH  27  28
ENDBRANCH  26  27
ENDBRANCH  25  26
ENDBRANCH   1  25
TORSDOF 19
ENDMDL
MODEL 2
REMARK VINA RESULT:     -11.3      1.192      8.256
REMARK SMILES COc1cccc(NC(=O)COc2csc(C(=O)NCCCCNC(=O)c3ccc(-c4c5nc(c(-c6c(F)cc(S(=O)(=O)[O-])cc6F)c6ccc([nH]6)c(-c6c(F)cc(S(=O)(=O)[O-])cc6F)c6nc(c(-c7c(F)cc(S(=O)(=O)[O-])cc7F)c7ccc4[nH]7)C=C6)C=C5)cc3)c2)c1
REMARK SMILES IDX 20 1 19 2 17 3 18 4 16 6 13 7 14 8 93 9 15 10 12 11 11 12
REMARK SMILES IDX 9 13 8 14 10 16 7 17 3 18 4 19 94 20 5 21 6 22 2 23 1 24
REMARK SMILES IDX 21 25 22 26 23 27 24 28 25 29 26 31 27 32 28 33 92 34 29 35
REMARK SMILES IDX 91 36 30 37 31 38 32 39 85 40 33 41 90 42 84 43 86 44 34 45
REMARK SMILES IDX 89 46 83 47 82 48 35 50 69 51 48 52 68 53 49 54 52 55 67 56
REMARK SMILES IDX 87 57 50 58 51 59 66 61 88 62 53 63 36 64 37 65 46 66 38 67
REMARK SMILES IDX 39 68 45 69 47 70 40 71 41 72 42 73 43 74 44 75 70 76 71 77
REMARK SMILES IDX 80 78 72 79 73 80 79 81 81 82 74 83 75 84 76 85 77 86 78 87
REMARK SMILES IDX 54 88 55 89 64 90 56 91 57 92 63 93 65 94 58 95 59 96 60 97
REMARK SMILES IDX 61 98 62 99
REMARK H PARENT 19 5 8 15 24 30 86 49 52 60
REMARK Flexibility Score: inf
ROOT
ATOM      1  C   UNL A   1      36.817  22.984  25.494  1.00  0.00     0.116 C 
ENDROOT
BRANCH   1   2
ATOM      2  N   UNL A   1      35.964  22.420  26.520  1.00  0.00    -0.351 N 
ATOM      3  C   UNL A   1      34.673  21.943  26.476  1.00  0.00     0.261 C 
ATOM      4  O   UNL A   1      34.261  21.450  27.529  1.00  0.00    -0.268 OA
ATOM      5  H   UNL A   1      36.381  22.369  27.410  1.00  0.00     0.163 HD
BRANCH   3   6
ATOM      6  C   UNL A   1      33.874  22.000  25.256  1.00  0.00     0.096 A 
ATOM      7  C   UNL A   1      32.789  22.627  23.268  1.00  0.00     0.131 A 
ATOM      8  C   UNL A   1      32.495  21.286  23.306  1.00  0.00     0.112 A 
ATOM      9  C   UNL A   1      33.531  23.038  24.409  1.00  0.00     0.072 A 
ATOM     10  S   UNL A   1      33.153  20.534  24.697  1.00  0.00    -0.135 S 
BRANCH   7  11
ATOM     11  O   UNL A   1      32.519  23.506  22.275  1.00  0.00    -0.483 OA
BRANCH  11  12
ATOM     12  C   UNL A   1      32.555  24.877  22.598  1.00  0.00     0.329 C 
BRANCH  12  13
ATOM     13  C   UNL A   1      32.858  25.937  21.539  1.00  0.00     0.262 C 
ATOM     14  N   UNL A   1      32.703  27.275  21.724  1.00  0.00    -0.323 N 
ATOM     15  H   UNL A   1      33.011  27.799  20.948  1.00  0.00     0.170 HD
ATOM     16  O   UNL A   1      33.276  25.580  20.428  1.00  0.00    -0.271 OA
BRANCH  14  17
ATOM     17  C   UNL A   1      32.209  28.089  22.757  1.00  0.00     0.044 A 
ATOM     18  C   UNL A   1      30.298  29.393  23.539  1.00  0.00     0.120 A 
ATOM     19  C   UNL A   1      31.030  29.791  24.654  1.00  0.00     0.046 A 
ATOM     20  C   UNL A   1      30.893  28.556  22.592  1.00  0.00     0.072 A 
ATOM     21  C   UNL A   1      32.321  29.304  24.848  1.00  0.00     0.006 A 
ATOM     22  C   UNL A   1      32.901  28.442  23.912  1.00  0.00     0.026 A 
BRANCH  18  23
ATOM     23  O   UNL A   1      29.037  29.914  23.445  1.00  0.00    -0.497 OA
ATOM     24  C   UNL A   1      28.379  29.701  22.200  1.00  0.00     0.278 C 
ENDBRANCH  18  23
ENDBRANCH  14  17
ENDBRANCH  12  13
ENDBRANCH  11  12
ENDBRANCH   7  11
ENDBRANCH   3   6
ENDBRANCH   1   2
BRANCH   1  25
ATOM     25  C   UNL A   1      37.376  21.897  24.575  1.00  0.00     0.023 C 
BRANCH  25  26
ATOM     26  C   UNL A   1      37.940  20.678  25.312  1.00  0.00     0.023 C 
BRANCH  26  27
ATOM     27  C   UNL A   1      39.315  20.877  25.946  1.00  0.00     0.116 C 
BRANCH  27  28
ATOM     28  N   UNL A   1      40.137  19.677  25.938  1.00  0.00    -0.352 N 
ATOM     29  C   UNL A   1      41.496  19.570  26.127  1.00  0.00     0.251 C 
ATOM     30  H   UNL A   1      39.660  18.832  25.775  1.00  0.00     0.163 HD
ATOM     31  O   UNL A   1      42.055  18.489  25.992  1.00  0.00    -0.269 OA
BRANCH  29  32
ATOM     32  C   UNL A   1      42.275  20.783  26.449  1.00  0.00     0.039 A 
ATOM     33  C   UNL A   1      42.895  21.481  25.410  1.00  0.00     0.014 A 
ATOM     34  C   UNL A   1      42.343  21.259  27.762  1.00  0.00     0.014 A 
ATOM     35  C   UNL A   1      43.517  22.703  25.676  1.00  0.00     0.010 A 
ATOM     36  C   UNL A   1      42.912  22.504  28.013  1.00  0.00     0.010 A 
ATOM     37  C   UNL A   1      43.489  23.245  26.971  1.00  0.00    -0.014 A 
BRANCH  37  38
ATOM     38  C   UNL A   1      44.020  24.603  27.251  1.00  0.00     0.031 A 
ATOM     39  C   UNL A   1      43.086  25.715  27.636  1.00  0.00     0.074 A 
ATOM     40  C   UNL A   1      45.333  24.849  27.070  1.00  0.00     0.049 A 
ATOM     41  N   UNL A   1      43.347  26.984  27.819  1.00  0.00    -0.248 NA
ATOM     42  C   UNL A   1      41.669  25.361  27.814  1.00  0.00     0.031 C 
ATOM     43  C   UNL A   1      46.329  23.862  26.647  1.00  0.00     0.029 A 
ATOM     44  N   UNL A   1      46.053  26.010  27.199  1.00  0.00    -0.354 N 
ATOM     45  C   UNL A   1      42.129  27.582  28.118  1.00  0.00     0.074 A 
ATOM     46  C   UNL A   1      41.122  26.545  28.050  1.00  0.00     0.031 C 
ATOM     47  C   UNL A   1      47.530  24.456  26.562  1.00  0.00     0.029 A 
ATOM     48  C   UNL A   1      47.386  25.872  26.887  1.00  0.00     0.049 A 
ATOM     49  H   UNL A   1      45.653  26.862  27.488  1.00  0.00     0.167 HD
ATOM     50  C   UNL A   1      41.877  28.873  28.437  1.00  0.00     0.037 A 
ATOM     51  C   UNL A   1      48.376  26.784  26.853  1.00  0.00     0.037 A 
ATOM     52  C   UNL A   1      42.888  29.895  28.527  1.00  0.00     0.049 A 
ATOM     53  C   UNL A   1      48.071  28.212  27.214  1.00  0.00     0.074 A 
ATOM     54  C   UNL A   1      42.743  31.218  28.909  1.00  0.00     0.029 A 
ATOM     55  N   UNL A   1      44.231  29.710  28.232  1.00  0.00    -0.354 N 
ATOM     56  N   UNL A   1      46.923  28.747  27.559  1.00  0.00    -0.248 NA
ATOM     57  C   UNL A   1      49.193  29.160  27.186  1.00  0.00     0.031 C 
ATOM     58  C   UNL A   1      43.991  31.842  28.806  1.00  0.00     0.029 A 
ATOM     59  C   UNL A   1      44.921  30.899  28.401  1.00  0.00     0.049 A 
ATOM     60  H   UNL A   1      44.634  28.860  27.943  1.00  0.00     0.167 HD
ATOM     61  C   UNL A   1      47.190  30.088  27.808  1.00  0.00     0.074 A 
ATOM     62  C   UNL A   1      48.609  30.280  27.589  1.00  0.00     0.031 C 
ATOM     63  C   UNL A   1      46.335  31.073  28.182  1.00  0.00     0.037 A 
BRANCH  50  64
ATOM     64  C   UNL A   1      40.452  29.257  28.719  1.00  0.00     0.058 A 
ATOM     65  C   UNL A   1      39.522  29.440  27.684  1.00  0.00     0.135 A 
ATOM     66  C   UNL A   1      39.998  29.401  30.040  1.00  0.00     0.135 A 
ATOM     67  F   UNL A   1      39.906  29.329  26.402  1.00  0.00    -0.206 F 
ATOM     68  C   UNL A   1      38.198  29.779  27.945  1.00  0.00     0.059 A 
ATOM     69  C   UNL A   1      38.673  29.715  30.327  1.00  0.00     0.059 A 
ATOM     70  F   UNL A   1      40.846  29.239  31.067  1.00  0.00    -0.206 F 
ATOM     71  C   UNL A   1      37.783  29.915  29.272  1.00  0.00     0.060 A 
BRANCH  71  72
ATOM     72  S   UNL A   1      36.060  30.345  29.595  1.00  0.00     0.124 S 
ATOM     73  O   UNL A   1      36.053  31.770  29.284  1.00  0.00    -0.237 OA
ATOM     74  O   UNL A   1      35.342  29.488  28.657  1.00  0.00    -0.237 OA
ATOM     75  O   UNL A   1      35.886  30.009  31.005  1.00  0.00    -0.744 OA
ENDBRANCH  71  72
ENDBRANCH  50  64
BRANCH  51  76
ATOM     76  C   UNL A   1      49.752  26.373  26.471  1.00  0.00     0.058 A 
ATOM     77  C   UNL A   1      50.648  25.878  27.430  1.00  0.00     0.135 A 
ATOM     78  C   UNL A   1      50.197  26.459  25.142  1.00  0.00     0.135 A 
ATOM     79  F   UNL A   1      50.270  25.782  28.713  1.00  0.00    -0.206 F 
ATOM     80  C   UNL A   1      51.942  25.497  27.091  1.00  0.00     0.059 A 
ATOM     81  C   UNL A   1      51.479  26.063  24.774  1.00  0.00     0.059 A 
ATOM     82  F   UNL A   1      49.372  26.910  24.186  1.00  0.00    -0.206 F 
ATOM     83  C   UNL A   1      52.349  25.593  25.759  1.00  0.00     0.060 A 
BRANCH  83  84
ATOM     84  S   UNL A   1      54.016  25.054  25.319  1.00  0.00     0.124 S 
ATOM     85  O   UNL A   1      54.736  25.285  26.565  1.00  0.00    -0.237 OA
ATOM     86  O   UNL A   1      53.801  23.658  24.954  1.00  0.00    -0.237 OA
ATOM     87  O   UNL A   1      54.369  25.935  24.210  1.00  0.00    -0.744 OA
ENDBRANCH  83  84
ENDBRANCH  51  76
BRANCH  63  88
ATOM     88  C   UNL A   1      46.916  32.441  28.403  1.00  0.00     0.058 A 
ATOM     89  C   UNL A   1      47.431  32.827  29.650  1.00  0.00     0.135 A 
ATOM     90  C   UNL A   1      47.002  33.358  27.343  1.00  0.00     0.135 A 
ATOM     91  F   UNL A   1      47.365  31.990  30.697  1.00  0.00    -0.206 F 
ATOM     92  C   UNL A   1      47.993  34.084  29.845  1.00  0.00     0.059 A 
ATOM     93  C   UNL A   1      47.582  34.611  27.509  1.00  0.00     0.059 A 
ATOM     94  F   UNL A   1      46.531  33.034  26.128  1.00  0.00    -0.206 F 
ATOM     95  C   UNL A   1      48.065  34.970  28.767  1.00  0.00     0.060 A 
BRANCH  95  96
ATOM     96  S   UNL A   1      48.828  36.586  29.023  1.00  0.00     0.124 S 
ATOM     97  O   UNL A   1      49.580  36.366  30.254  1.00  0.00    -0.237 OA
ATOM     98  O   UNL A   1      49.626  36.752  27.812  1.00  0.00    -0.237 OA
ATOM     99  O   UNL A   1      47.683  37.486  29.139  1.00  0.00    -0.744 OA
ENDBRANCH  95  96
ENDBRANCH  63  88
ENDBRANCH  37  38
ENDBRANCH  29  32
ENDBRANCH  27  28
ENDBRANCH  26  27
ENDBRANCH  25  26
ENDBRANCH   1  25
TORSDOF 19
ENDMDL
MODEL 3
REMARK VINA RESULT:     -11.3      4.987     10.491
REMARK SMILES COc1cccc(NC(=O)COc2csc(C(=O)NCCCCNC(=O)c3ccc(-c4c5nc(c(-c6c(F)cc(S(=O)(=O)[O-])cc6F)c6ccc([nH]6)c(-c6c(F)cc(S(=O)(=O)[O-])cc6F)c6nc(c(-c7c(F)cc(S(=O)(=O)[O-])cc7F)c7ccc4[nH]7)C=C6)C=C5)cc3)c2)c1
REMARK SMILES IDX 20 1 19 2 17 3 18 4 16 6 13 7 14 8 93 9 15 10 12 11 11 12
REMARK SMILES IDX 9 13 8 14 10 16 7 17 3 18 4 19 94 20 5 21 6 22 2 23 1 24
REMARK SMILES IDX 21 25 22 26 23 27 24 28 25 29 26 31 27 32 28 33 92 34 29 35
REMARK SMILES IDX 91 36 30 37 31 38 32 39 85 40 33 41 90 42 84 43 86 44 34 45
REMARK SMILES IDX 89 46 83 47 82 48 35 50 69 51 48 52 68 53 49 54 52 55 67 56
REMARK SMILES IDX 87 57 50 58 51 59 66 61 88 62 53 63 36 64 37 65 46 66 38 67
REMARK SMILES IDX 39 68 45 69 47 70 40 71 41 72 42 73 43 74 44 75 70 76 71 77
REMARK SMILES IDX 80 78 72 79 73 80 79 81 81 82 74 83 75 84 76 85 77 86 78 87
REMARK SMILES IDX 54 88 55 89 64 90 56 91 57 92 63 93 65 94 58 95 59 96 60 97
REMARK SMILES IDX 61 98 62 99
REMARK H PARENT 19 5 8 15 24 30 86 49 52 60
REMARK Flexibility Score: inf
ROOT
ATOM      1  C   UNL A   1      31.647  27.788  23.322  1.00  0.00     0.116 C 
ENDROOT
BRANCH   1   2
ATOM      2  N   UNL A   1      32.440  27.112  22.316  1.00  0.00    -0.351 N 
ATOM      3  C   UNL A   1      32.953  25.835  22.261  1.00  0.00     0.261 C 
ATOM      4  O   UNL A   1      33.527  25.547  21.207  1.00  0.00    -0.268 OA
ATOM      5  H   UNL A   1      32.650  27.664  21.529  1.00  0.00     0.163 HD
BRANCH   3   6
ATOM      6  C   UNL A   1      32.797  24.896  23.367  1.00  0.00     0.096 A 
ATOM      7  C   UNL A   1      33.054  23.594  25.306  1.00  0.00     0.131 A 
ATOM      8  C   UNL A   1      31.766  23.275  24.955  1.00  0.00     0.112 A 
ATOM      9  C   UNL A   1      33.655  24.478  24.367  1.00  0.00     0.072 A 
ATOM     10  S   UNL A   1      31.283  24.079  23.521  1.00  0.00    -0.135 S 
BRANCH   7  11
ATOM     11  O   UNL A   1      33.723  23.227  26.424  1.00  0.00    -0.483 OA
BRANCH  11  12
ATOM     12  C   UNL A   1      34.187  21.898  26.493  1.00  0.00     0.329 C 
BRANCH  12  13
ATOM     13  C   UNL A   1      34.836  21.218  25.286  1.00  0.00     0.262 C 
ATOM     14  N   UNL A   1      36.154  21.312  24.968  1.00  0.00    -0.323 N 
ATOM     15  H   UNL A   1      36.393  20.752  24.193  1.00  0.00     0.170 HD
ATOM     16  O   UNL A   1      34.135  20.527  24.532  1.00  0.00    -0.271 OA
BRANCH  14  17
ATOM     17  C   UNL A   1      37.257  22.015  25.480  1.00  0.00     0.044 A 
ATOM     18  C   UNL A   1      39.618  21.870  26.088  1.00  0.00     0.120 A 
ATOM     19  C   UNL A   1      39.579  23.185  26.540  1.00  0.00     0.046 A 
ATOM     20  C   UNL A   1      38.457  21.288  25.573  1.00  0.00     0.072 A 
ATOM     21  C   UNL A   1      38.407  23.928  26.418  1.00  0.00     0.006 A 
ATOM     22  C   UNL A   1      37.256  23.350  25.873  1.00  0.00     0.026 A 
BRANCH  18  23
ATOM     23  O   UNL A   1      40.817  21.230  26.239  1.00  0.00    -0.497 OA
ATOM     24  C   UNL A   1      40.834  20.184  27.206  1.00  0.00     0.278 C 
ENDBRANCH  18  23
ENDBRANCH  14  17
ENDBRANCH  12  13
ENDBRANCH  11  12
ENDBRANCH   7  11
ENDBRANCH   3   6
ENDBRANCH   1   2
BRANCH   1  25
ATOM     25  C   UNL A   1      32.444  28.902  24.002  1.00  0.00     0.023 C 
BRANCH  25  26
ATOM     26  C   UNL A   1      33.776  28.446  24.606  1.00  0.00     0.023 C 
BRANCH  26  27
ATOM     27  C   UNL A   1      33.933  28.698  26.104  1.00  0.00     0.116 C 
BRANCH  27  28
ATOM     28  N   UNL A   1      33.763  30.094  26.477  1.00  0.00    -0.352 N 
ATOM     29  C   UNL A   1      34.528  30.849  27.338  1.00  0.00     0.251 C 
ATOM     30  H   UNL A   1      33.002  30.559  26.061  1.00  0.00     0.163 HD
ATOM     31  O   UNL A   1      34.193  31.992  27.622  1.00  0.00    -0.269 OA
BRANCH  29  32
ATOM     32  C   UNL A   1      35.732  30.246  27.947  1.00  0.00     0.039 A 
ATOM     33  C   UNL A   1      36.952  30.355  27.276  1.00  0.00     0.014 A 
ATOM     34  C   UNL A   1      35.663  29.626  29.198  1.00  0.00     0.014 A 
ATOM     35  C   UNL A   1      38.122  29.915  27.900  1.00  0.00     0.010 A 
ATOM     36  C   UNL A   1      36.837  29.243  29.841  1.00  0.00     0.010 A 
ATOM     37  C   UNL A   1      38.078  29.398  29.205  1.00  0.00    -0.014 A 
BRANCH  37  38
ATOM     38  C   UNL A   1      39.320  29.053  29.941  1.00  0.00     0.031 A 
ATOM     39  C   UNL A   1      39.714  29.828  31.166  1.00  0.00     0.074 A 
ATOM     40  C   UNL A   1      40.136  28.099  29.449  1.00  0.00     0.049 A 
ATOM     41  N   UNL A   1      40.807  29.743  31.880  1.00  0.00    -0.248 NA
ATOM     42  C   UNL A   1      38.766  30.851  31.637  1.00  0.00     0.031 C 
ATOM     43  C   UNL A   1      39.886  27.314  28.237  1.00  0.00     0.029 A 
ATOM     44  N   UNL A   1      41.349  27.640  29.896  1.00  0.00    -0.354 N 
ATOM     45  C   UNL A   1      40.687  30.707  32.873  1.00  0.00     0.074 A 
ATOM     46  C   UNL A   1      39.434  31.395  32.644  1.00  0.00     0.031 C 
ATOM     47  C   UNL A   1      40.909  26.466  28.043  1.00  0.00     0.029 A 
ATOM     48  C   UNL A   1      41.902  26.669  29.093  1.00  0.00     0.049 A 
ATOM     49  H   UNL A   1      41.784  27.974  30.713  1.00  0.00     0.167 HD
ATOM     50  C   UNL A   1      41.536  30.981  33.891  1.00  0.00     0.037 A 
ATOM     51  C   UNL A   1      43.082  26.026  29.183  1.00  0.00     0.037 A 
ATOM     52  C   UNL A   1      42.769  30.275  34.127  1.00  0.00     0.049 A 
ATOM     53  C   UNL A   1      44.007  26.346  30.326  1.00  0.00     0.074 A 
ATOM     54  C   UNL A   1      43.665  30.433  35.171  1.00  0.00     0.029 A 
ATOM     55  N   UNL A   1      43.282  29.279  33.309  1.00  0.00    -0.354 N 
ATOM     56  N   UNL A   1      43.847  27.217  31.294  1.00  0.00    -0.248 NA
ATOM     57  C   UNL A   1      45.268  25.597  30.392  1.00  0.00     0.031 C 
ATOM     58  C   UNL A   1      44.738  29.560  34.962  1.00  0.00     0.029 A 
ATOM     59  C   UNL A   1      44.491  28.828  33.812  1.00  0.00     0.049 A 
ATOM     60  H   UNL A   1      42.850  28.942  32.491  1.00  0.00     0.167 HD
ATOM     61  C   UNL A   1      44.978  27.105  32.095  1.00  0.00     0.074 A 
ATOM     62  C   UNL A   1      45.807  26.073  31.507  1.00  0.00     0.031 C 
ATOM     63  C   UNL A   1      45.302  27.797  33.216  1.00  0.00     0.037 A 
BRANCH  50  64
ATOM     64  C   UNL A   1      41.159  32.089  34.834  1.00  0.00     0.058 A 
ATOM     65  C   UNL A   1      40.341  31.855  35.951  1.00  0.00     0.135 A 
ATOM     66  C   UNL A   1      41.652  33.389  34.645  1.00  0.00     0.135 A 
ATOM     67  F   UNL A   1      39.830  30.632  36.172  1.00  0.00    -0.206 F 
ATOM     68  C   UNL A   1      40.005  32.876  36.834  1.00  0.00     0.059 A 
ATOM     69  C   UNL A   1      41.350  34.421  35.528  1.00  0.00     0.059 A 
ATOM     70  F   UNL A   1      42.436  33.667  33.591  1.00  0.00    -0.206 F 
ATOM     71  C   UNL A   1      40.514  34.158  36.613  1.00  0.00     0.060 A 
BRANCH  71  72
ATOM     72  S   UNL A   1      40.077  35.470  37.772  1.00  0.00     0.124 S 
ATOM     73  O   UNL A   1      39.907  36.607  36.874  1.00  0.00    -0.237 OA
ATOM     74  O   UNL A   1      38.853  34.956  38.380  1.00  0.00    -0.237 OA
ATOM     75  O   UNL A   1      41.233  35.537  38.660  1.00  0.00    -0.744 OA
ENDBRANCH  71  72
ENDBRANCH  50  64
BRANCH  51  76
ATOM     76  C   UNL A   1      43.453  25.006  28.167  1.00  0.00     0.058 A 
ATOM     77  C   UNL A   1      44.228  25.352  27.050  1.00  0.00     0.135 A 
ATOM     78  C   UNL A   1      43.050  23.668  28.295  1.00  0.00     0.135 A 
ATOM     79  F   UNL A   1      44.633  26.621  26.882  1.00  0.00    -0.206 F 
ATOM     80  C   UNL A   1      44.578  24.413  26.086  1.00  0.00     0.059 A 
ATOM     81  C   UNL A   1      43.406  22.706  27.356  1.00  0.00     0.059 A 
ATOM     82  F   UNL A   1      42.322  23.284  29.354  1.00  0.00    -0.206 F 
ATOM     83  C   UNL A   1      44.161  23.090  26.248  1.00  0.00     0.060 A 
BRANCH  83  84
ATOM     84  S   UNL A   1      44.658  21.867  25.015  1.00  0.00     0.124 S 
ATOM     85  O   UNL A   1      46.109  21.884  25.155  1.00  0.00    -0.237 OA
ATOM     86  O   UNL A   1      43.984  20.663  25.487  1.00  0.00    -0.237 OA
ATOM     87  O   UNL A   1      44.136  22.420  23.768  1.00  0.00    -0.744 OA
ENDBRANCH  83  84
ENDBRANCH  51  76
BRANCH  63  88
ATOM     88  C   UNL A   1      46.596  27.443  33.894  1.00  0.00     0.058 A 
ATOM     89  C   UNL A   1      47.788  28.121  33.599  1.00  0.00     0.135 A 
ATOM     90  C   UNL A   1      46.632  26.448  34.883  1.00  0.00     0.135 A 
ATOM     91  F   UNL A   1      47.808  29.076  32.655  1.00  0.00    -0.206 F 
ATOM     92  C   UNL A   1      48.979  27.810  34.247  1.00  0.00     0.059 A 
ATOM     93  C   UNL A   1      47.806  26.138  35.562  1.00  0.00     0.059 A 
ATOM     94  F   UNL A   1      45.516  25.775  35.207  1.00  0.00    -0.206 F 
ATOM     95  C   UNL A   1      48.978  26.817  35.229  1.00  0.00     0.060 A 
BRANCH  95  96
ATOM     96  S   UNL A   1      50.521  26.445  36.088  1.00  0.00     0.124 S 
ATOM     97  O   UNL A   1      51.457  27.337  35.411  1.00  0.00    -0.237 OA
ATOM     98  O   UNL A   1      50.202  26.790  37.470  1.00  0.00    -0.237 OA
ATOM     99  O   UNL A   1      50.715  25.020  35.834  1.00  0.00    -0.744 OA
ENDBRANCH  95  96
ENDBRANCH  63  88
ENDBRANCH  37  38
ENDBRANCH  29  32
ENDBRANCH  27  28
ENDBRANCH  26  27
ENDBRANCH  25  26
ENDBRANCH   1  25
TORSDOF 19
ENDMDL
