MODEL 1
REMARK VINA RESULT:     -11.2      0.000      0.000
REMARK SMILES O=C(Cc1c(F)cccc1F)NC[C@H]1CC[C@H](C(=O)NCCCCNC(=O)c2ccc(-c3c4nc(c(-c5c(F)cc(S(=O)(=O)[O-])cc5F)c5ccc([nH]5)c(-c5c(F)cc(S(=O)(=O)[O-])cc5F)c5nc(c(-c6c(F)cc(S(=O)(=O)[O-])cc6F)c6ccc3[nH]6)C=C5)C=C4)cc2)O1
REMARK SMILES IDX 22 1 21 2 20 3 18 4 19 5 17 7 14 8 15 9 94 10 16 11 13 12
REMARK SMILES IDX 12 13 1 14 2 15 3 17 4 18 5 19 10 20 6 21 7 22 9 23 11 24
REMARK SMILES IDX 8 25 23 26 24 27 25 28 26 29 27 31 28 32 29 33 93 34 30 35
REMARK SMILES IDX 92 36 31 37 32 38 33 39 86 40 34 41 91 42 85 43 87 44 35 45
REMARK SMILES IDX 90 46 84 47 83 48 36 50 70 51 49 52 69 53 50 54 53 55 68 56
REMARK SMILES IDX 88 57 51 58 52 59 67 61 89 62 54 63 37 64 38 65 47 66 39 67
REMARK SMILES IDX 40 68 46 69 48 70 41 71 42 72 43 73 44 74 45 75 71 76 72 77
REMARK SMILES IDX 81 78 73 79 74 80 80 81 82 82 75 83 76 84 77 85 78 86 79 87
REMARK SMILES IDX 55 88 56 89 65 90 57 91 58 92 64 93 66 94 59 95 60 96 61 97
REMARK SMILES IDX 62 98 63 99
REMARK H PARENT 20 6 12 16 25 30 87 49 53 60
REMARK Flexibility Score: inf
ROOT
ATOM      1  C   UNL A   1      31.542  29.280  25.992  1.00  0.00     0.023 C 
ENDROOT
BRANCH   1   2
ATOM      2  C   UNL A   1      31.234  29.170  24.499  1.00  0.00     0.116 C 
BRANCH   2   3
ATOM      3  N   UNL A   1      32.443  29.122  23.708  1.00  0.00    -0.354 N 
ATOM      4  C   UNL A   1      32.962  28.105  22.961  1.00  0.00     0.249 C 
ATOM      5  O   UNL A   1      34.037  28.314  22.388  1.00  0.00    -0.272 OA
ATOM      6  H   UNL A   1      32.974  29.950  23.708  1.00  0.00     0.163 HD
BRANCH   4   7
ATOM      7  C   UNL A   1      32.280  26.719  22.858  1.00  0.00     0.207 C 
ATOM      8  C   UNL A   1      33.114  24.531  22.634  1.00  0.00     0.138 C 
ATOM      9  C   UNL A   1      32.818  25.033  21.229  1.00  0.00     0.037 C 
ATOM     10  O   UNL A   1      32.930  25.644  23.529  1.00  0.00    -0.363 OA
ATOM     11  C   UNL A   1      31.992  26.283  21.432  1.00  0.00     0.045 C 
BRANCH   8  12
ATOM     12  C   UNL A   1      32.280  23.331  23.114  1.00  0.00     0.147 C 
BRANCH  12  13
ATOM     13  N   UNL A   1      33.036  22.386  23.912  1.00  0.00    -0.353 N 
ATOM     14  O   UNL A   1      31.875  22.769  25.853  1.00  0.00    -0.275 OA
ATOM     15  C   UNL A   1      32.777  22.188  25.253  1.00  0.00     0.224 C 
ATOM     16  H   UNL A   1      33.757  21.869  23.485  1.00  0.00     0.163 HD
BRANCH  15  17
ATOM     17  C   UNL A   1      33.758  21.286  25.974  1.00  0.00     0.141 C 
BRANCH  17  18
ATOM     18  C   UNL A   1      35.197  21.603  25.688  1.00  0.00     0.033 A 
ATOM     19  C   UNL A   1      35.758  22.822  26.065  1.00  0.00     0.129 A 
ATOM     20  C   UNL A   1      36.028  20.663  25.079  1.00  0.00     0.129 A 
ATOM     21  F   UNL A   1      35.000  23.751  26.664  1.00  0.00    -0.207 F 
ATOM     22  C   UNL A   1      37.103  23.104  25.830  1.00  0.00     0.040 A 
ATOM     23  C   UNL A   1      37.374  20.923  24.837  1.00  0.00     0.040 A 
ATOM     24  F   UNL A   1      35.533  19.460  24.751  1.00  0.00    -0.207 F 
ATOM     25  C   UNL A   1      37.915  22.151  25.214  1.00  0.00     0.006 A 
ENDBRANCH  17  18
ENDBRANCH  15  17
ENDBRANCH  12  13
ENDBRANCH   8  12
ENDBRANCH   4   7
ENDBRANCH   2   3
ENDBRANCH   1   2
BRANCH   1  26
ATOM     26  C   UNL A   1      32.411  28.153  26.547  1.00  0.00     0.023 C 
BRANCH  26  27
ATOM     27  C   UNL A   1      33.671  28.614  27.270  1.00  0.00     0.116 C 
BRANCH  27  28
ATOM     28  N   UNL A   1      33.611  29.994  27.732  1.00  0.00    -0.352 N 
ATOM     29  C   UNL A   1      34.616  30.729  28.316  1.00  0.00     0.251 C 
ATOM     30  H   UNL A   1      32.749  30.454  27.612  1.00  0.00     0.163 HD
ATOM     31  O   UNL A   1      34.400  31.860  28.739  1.00  0.00    -0.269 OA
BRANCH  29  32
ATOM     32  C   UNL A   1      35.946  30.108  28.469  1.00  0.00     0.039 A 
ATOM     33  C   UNL A   1      36.863  30.209  27.421  1.00  0.00     0.014 A 
ATOM     34  C   UNL A   1      36.307  29.507  29.678  1.00  0.00     0.014 A 
ATOM     35  C   UNL A   1      38.174  29.773  27.614  1.00  0.00     0.010 A 
ATOM     36  C   UNL A   1      37.629  29.136  29.890  1.00  0.00     0.010 A 
ATOM     37  C   UNL A   1      38.576  29.273  28.864  1.00  0.00    -0.014 A 
BRANCH  37  38
ATOM     38  C   UNL A   1      39.984  28.890  29.125  1.00  0.00     0.031 A 
ATOM     39  C   UNL A   1      40.923  29.879  29.755  1.00  0.00     0.074 A 
ATOM     40  C   UNL A   1      40.432  27.681  28.733  1.00  0.00     0.049 A 
ATOM     41  N   UNL A   1      42.206  29.770  29.982  1.00  0.00    -0.248 NA
ATOM     42  C   UNL A   1      40.348  31.174  30.155  1.00  0.00     0.031 C 
ATOM     43  C   UNL A   1      39.622  26.651  28.079  1.00  0.00     0.029 A 
ATOM     44  N   UNL A   1      41.678  27.117  28.825  1.00  0.00    -0.354 N 
ATOM     45  C   UNL A   1      42.593  30.982  30.540  1.00  0.00     0.074 A 
ATOM     46  C   UNL A   1      41.422  31.831  30.564  1.00  0.00     0.031 C 
ATOM     47  C   UNL A   1      40.385  25.567  27.860  1.00  0.00     0.029 A 
ATOM     48  C   UNL A   1      41.743  25.838  28.322  1.00  0.00     0.049 A 
ATOM     49  H   UNL A   1      42.454  27.582  29.213  1.00  0.00     0.167 HD
ATOM     50  C   UNL A   1      43.809  31.346  31.014  1.00  0.00     0.037 A 
ATOM     51  C   UNL A   1      42.778  24.981  28.246  1.00  0.00     0.037 A 
ATOM     52  C   UNL A   1      44.965  30.490  31.005  1.00  0.00     0.049 A 
ATOM     53  C   UNL A   1      44.123  25.407  28.768  1.00  0.00     0.074 A 
ATOM     54  C   UNL A   1      46.235  30.751  31.486  1.00  0.00     0.029 A 
ATOM     55  N   UNL A   1      44.988  29.200  30.491  1.00  0.00    -0.354 N 
ATOM     56  N   UNL A   1      44.467  26.549  29.315  1.00  0.00    -0.248 NA
ATOM     57  C   UNL A   1      45.217  24.433  28.661  1.00  0.00     0.031 C 
ATOM     58  C   UNL A   1      47.034  29.630  31.238  1.00  0.00     0.029 A 
ATOM     59  C   UNL A   1      46.253  28.656  30.636  1.00  0.00     0.049 A 
ATOM     60  H   UNL A   1      44.219  28.741  30.083  1.00  0.00     0.167 HD
ATOM     61  C   UNL A   1      45.814  26.424  29.638  1.00  0.00     0.074 A 
ATOM     62  C   UNL A   1      46.219  25.094  29.230  1.00  0.00     0.031 C 
ATOM     63  C   UNL A   1      46.636  27.328  30.224  1.00  0.00     0.037 A 
BRANCH  50  64
ATOM     64  C   UNL A   1      43.933  32.731  31.585  1.00  0.00     0.058 A 
ATOM     65  C   UNL A   1      43.685  32.973  32.945  1.00  0.00     0.135 A 
ATOM     66  C   UNL A   1      44.315  33.819  30.784  1.00  0.00     0.135 A 
ATOM     67  F   UNL A   1      43.318  31.967  33.755  1.00  0.00    -0.206 F 
ATOM     68  C   UNL A   1      43.827  34.242  33.497  1.00  0.00     0.059 A 
ATOM     69  C   UNL A   1      44.491  35.091  31.321  1.00  0.00     0.059 A 
ATOM     70  F   UNL A   1      44.581  33.639  29.480  1.00  0.00    -0.206 F 
ATOM     71  C   UNL A   1      44.253  35.289  32.681  1.00  0.00     0.060 A 
BRANCH  71  72
ATOM     72  S   UNL A   1      44.521  36.936  33.370  1.00  0.00     0.124 S 
ATOM     73  O   UNL A   1      44.394  36.675  34.801  1.00  0.00    -0.237 OA
ATOM     74  O   UNL A   1      45.865  37.256  32.902  1.00  0.00    -0.237 OA
ATOM     75  O   UNL A   1      43.449  37.731  32.780  1.00  0.00    -0.744 OA
ENDBRANCH  71  72
ENDBRANCH  50  64
BRANCH  51  76
ATOM     76  C   UNL A   1      42.562  23.618  27.697  1.00  0.00     0.058 A 
ATOM     77  C   UNL A   1      42.364  22.511  28.535  1.00  0.00     0.135 A 
ATOM     78  C   UNL A   1      42.611  23.393  26.313  1.00  0.00     0.135 A 
ATOM     79  F   UNL A   1      42.325  22.674  29.867  1.00  0.00    -0.206 F 
ATOM     80  C   UNL A   1      42.246  21.221  28.025  1.00  0.00     0.059 A 
ATOM     81  C   UNL A   1      42.478  22.117  25.779  1.00  0.00     0.059 A 
ATOM     82  F   UNL A   1      42.792  24.424  25.474  1.00  0.00    -0.206 F 
ATOM     83  C   UNL A   1      42.305  21.035  26.643  1.00  0.00     0.060 A 
BRANCH  83  84
ATOM     84  S   UNL A   1      42.220  19.374  25.939  1.00  0.00     0.124 S 
ATOM     85  O   UNL A   1      40.790  19.226  25.701  1.00  0.00    -0.237 OA
ATOM     86  O   UNL A   1      43.056  19.506  24.749  1.00  0.00    -0.237 OA
ATOM     87  O   UNL A   1      42.776  18.532  26.995  1.00  0.00    -0.744 OA
ENDBRANCH  83  84
ENDBRANCH  51  76
BRANCH  63  88
ATOM     88  C   UNL A   1      48.055  26.909  30.480  1.00  0.00     0.058 A 
ATOM     89  C   UNL A   1      48.427  26.390  31.730  1.00  0.00     0.135 A 
ATOM     90  C   UNL A   1      49.059  27.094  29.518  1.00  0.00     0.135 A 
ATOM     91  F   UNL A   1      47.503  26.202  32.685  1.00  0.00    -0.206 F 
ATOM     92  C   UNL A   1      49.751  26.082  32.027  1.00  0.00     0.059 A 
ATOM     93  C   UNL A   1      50.386  26.774  29.785  1.00  0.00     0.059 A 
ATOM     94  F   UNL A   1      48.752  27.579  28.304  1.00  0.00    -0.206 F 
ATOM     95  C   UNL A   1      50.723  26.274  31.045  1.00  0.00     0.060 A 
BRANCH  95  96
ATOM     96  S   UNL A   1      52.457  25.916  31.396  1.00  0.00     0.124 S 
ATOM     97  O   UNL A   1      52.756  26.896  32.434  1.00  0.00    -0.237 OA
ATOM     98  O   UNL A   1      52.407  24.524  31.832  1.00  0.00    -0.237 OA
ATOM     99  O   UNL A   1      53.118  26.140  30.112  1.00  0.00    -0.744 OA
ENDBRANCH  95  96
ENDBRANCH  63  88
ENDBRANCH  37  38
ENDBRANCH  29  32
ENDBRANCH  27  28
ENDBRANCH  26  27
ENDBRANCH   1  26
TORSDOF 18
ENDMDL
MODEL 2
REMARK VINA RESULT:     -11.2      3.599      8.353
REMARK SMILES O=C(Cc1c(F)cccc1F)NC[C@H]1CC[C@H](C(=O)NCCCCNC(=O)c2ccc(-c3c4nc(c(-c5c(F)cc(S(=O)(=O)[O-])cc5F)c5ccc([nH]5)c(-c5c(F)cc(S(=O)(=O)[O-])cc5F)c5nc(c(-c6c(F)cc(S(=O)(=O)[O-])cc6F)c6ccc3[nH]6)C=C5)C=C4)cc2)O1
REMARK SMILES IDX 22 1 21 2 20 3 18 4 19 5 17 7 14 8 15 9 94 10 16 11 13 12
REMARK SMILES IDX 12 13 1 14 2 15 3 17 4 18 5 19 10 20 6 21 7 22 9 23 11 24
REMARK SMILES IDX 8 25 23 26 24 27 25 28 26 29 27 31 28 32 29 33 93 34 30 35
REMARK SMILES IDX 92 36 31 37 32 38 33 39 86 40 34 41 91 42 85 43 87 44 35 45
REMARK SMILES IDX 90 46 84 47 83 48 36 50 70 51 49 52 69 53 50 54 53 55 68 56
REMARK SMILES IDX 88 57 51 58 52 59 67 61 89 62 54 63 37 64 38 65 47 66 39 67
REMARK SMILES IDX 40 68 46 69 48 70 41 71 42 72 43 73 44 74 45 75 71 76 72 77
REMARK SMILES IDX 81 78 73 79 74 80 80 81 82 82 75 83 76 84 77 85 78 86 79 87
REMARK SMILES IDX 55 88 56 89 65 90 57 91 58 92 64 93 66 94 59 95 60 96 61 97
REMARK SMILES IDX 62 98 63 99
REMARK H PARENT 20 6 12 16 25 30 87 49 53 60
REMARK Flexibility Score: inf
ROOT
ATOM      1  C   UNL A   1      37.219  21.664  25.518  1.00  0.00     0.023 C 
ENDROOT
BRANCH   1   2
ATOM      2  C   UNL A   1      35.794  21.111  25.486  1.00  0.00     0.116 C 
BRANCH   2   3
ATOM      3  N   UNL A   1      35.067  21.443  26.691  1.00  0.00    -0.354 N 
ATOM      4  C   UNL A   1      34.040  22.319  26.882  1.00  0.00     0.249 C 
ATOM      5  O   UNL A   1      33.600  22.437  28.031  1.00  0.00    -0.272 OA
ATOM      6  H   UNL A   1      35.358  20.961  27.499  1.00  0.00     0.163 HD
BRANCH   4   7
ATOM      7  C   UNL A   1      33.462  23.183  25.734  1.00  0.00     0.207 C 
ATOM      8  C   UNL A   1      33.979  23.368  23.447  1.00  0.00     0.138 C 
ATOM      9  C   UNL A   1      34.772  24.450  24.165  1.00  0.00     0.037 C 
ATOM     10  O   UNL A   1      33.361  22.553  24.460  1.00  0.00    -0.363 OA
ATOM     11  C   UNL A   1      34.172  24.513  25.550  1.00  0.00     0.045 C 
BRANCH   8  12
ATOM     12  C   UNL A   1      32.916  23.858  22.449  1.00  0.00     0.147 C 
BRANCH  12  13
ATOM     13  N   UNL A   1      32.342  25.142  22.801  1.00  0.00    -0.353 N 
ATOM     14  O   UNL A   1      33.351  26.301  21.099  1.00  0.00    -0.275 OA
ATOM     15  C   UNL A   1      32.625  26.290  22.091  1.00  0.00     0.224 C 
ATOM     16  H   UNL A   1      31.731  25.197  23.572  1.00  0.00     0.163 HD
BRANCH  15  17
ATOM     17  C   UNL A   1      32.071  27.570  22.683  1.00  0.00     0.141 C 
BRANCH  17  18
ATOM     18  C   UNL A   1      32.346  27.727  24.151  1.00  0.00     0.033 A 
ATOM     19  C   UNL A   1      31.387  27.394  25.105  1.00  0.00     0.129 A 
ATOM     20  C   UNL A   1      33.591  28.164  24.602  1.00  0.00     0.129 A 
ATOM     21  F   UNL A   1      30.180  26.958  24.719  1.00  0.00    -0.207 F 
ATOM     22  C   UNL A   1      31.653  27.507  26.469  1.00  0.00     0.040 A 
ATOM     23  C   UNL A   1      33.878  28.281  25.959  1.00  0.00     0.040 A 
ATOM     24  F   UNL A   1      34.554  28.442  23.711  1.00  0.00    -0.207 F 
ATOM     25  C   UNL A   1      32.903  27.952  26.899  1.00  0.00     0.006 A 
ENDBRANCH  17  18
ENDBRANCH  15  17
ENDBRANCH  12  13
ENDBRANCH   8  12
ENDBRANCH   4   7
ENDBRANCH   2   3
ENDBRANCH   1   2
BRANCH   1  26
ATOM     26  C   UNL A   1      38.305  20.642  25.188  1.00  0.00     0.023 C 
BRANCH  26  27
ATOM     27  C   UNL A   1      39.538  20.709  26.082  1.00  0.00     0.116 C 
BRANCH  27  28
ATOM     28  N   UNL A   1      40.367  19.512  26.030  1.00  0.00    -0.352 N 
ATOM     29  C   UNL A   1      41.735  19.432  26.145  1.00  0.00     0.251 C 
ATOM     30  H   UNL A   1      39.891  18.661  25.897  1.00  0.00     0.163 HD
ATOM     31  O   UNL A   1      42.314  18.361  25.995  1.00  0.00    -0.269 OA
BRANCH  29  32
ATOM     32  C   UNL A   1      42.495  20.671  26.402  1.00  0.00     0.039 A 
ATOM     33  C   UNL A   1      43.048  21.359  25.322  1.00  0.00     0.014 A 
ATOM     34  C   UNL A   1      42.582  21.187  27.698  1.00  0.00     0.014 A 
ATOM     35  C   UNL A   1      43.625  22.612  25.532  1.00  0.00     0.010 A 
ATOM     36  C   UNL A   1      43.095  22.463  27.893  1.00  0.00     0.010 A 
ATOM     37  C   UNL A   1      43.614  23.190  26.812  1.00  0.00    -0.014 A 
BRANCH  37  38
ATOM     38  C   UNL A   1      44.135  24.559  27.045  1.00  0.00     0.031 A 
ATOM     39  C   UNL A   1      43.201  25.649  27.484  1.00  0.00     0.074 A 
ATOM     40  C   UNL A   1      45.431  24.831  26.795  1.00  0.00     0.049 A 
ATOM     41  N   UNL A   1      43.441  26.924  27.653  1.00  0.00    -0.248 NA
ATOM     42  C   UNL A   1      41.804  25.261  27.737  1.00  0.00     0.031 C 
ATOM     43  C   UNL A   1      46.425  23.862  26.331  1.00  0.00     0.029 A 
ATOM     44  N   UNL A   1      46.132  26.006  26.894  1.00  0.00    -0.354 N 
ATOM     45  C   UNL A   1      42.227  27.489  28.022  1.00  0.00     0.074 A 
ATOM     46  C   UNL A   1      41.241  26.431  27.995  1.00  0.00     0.031 C 
ATOM     47  C   UNL A   1      47.615  24.474  26.218  1.00  0.00     0.029 A 
ATOM     48  C   UNL A   1      47.462  25.883  26.566  1.00  0.00     0.049 A 
ATOM     49  H   UNL A   1      45.723  26.857  27.173  1.00  0.00     0.167 HD
ATOM     50  C   UNL A   1      41.963  28.770  28.376  1.00  0.00     0.037 A 
ATOM     51  C   UNL A   1      48.446  26.803  26.549  1.00  0.00     0.037 A 
ATOM     52  C   UNL A   1      42.952  29.813  28.419  1.00  0.00     0.049 A 
ATOM     53  C   UNL A   1      48.130  28.221  26.935  1.00  0.00     0.074 A 
ATOM     54  C   UNL A   1      42.794  31.136  28.791  1.00  0.00     0.029 A 
ATOM     55  N   UNL A   1      44.288  29.648  28.082  1.00  0.00    -0.354 N 
ATOM     56  N   UNL A   1      46.981  28.736  27.304  1.00  0.00    -0.248 NA
ATOM     57  C   UNL A   1      49.239  29.183  26.901  1.00  0.00     0.031 C 
ATOM     58  C   UNL A   1      44.030  31.778  28.653  1.00  0.00     0.029 A 
ATOM     59  C   UNL A   1      44.966  30.846  28.230  1.00  0.00     0.049 A 
ATOM     60  H   UNL A   1      44.695  28.803  27.782  1.00  0.00     0.167 HD
ATOM     61  C   UNL A   1      47.233  30.078  27.567  1.00  0.00     0.074 A 
ATOM     62  C   UNL A   1      48.644  30.293  27.320  1.00  0.00     0.031 C 
ATOM     63  C   UNL A   1      46.372  31.040  27.980  1.00  0.00     0.037 A 
BRANCH  50  64
ATOM     64  C   UNL A   1      40.543  29.097  28.747  1.00  0.00     0.058 A 
ATOM     65  C   UNL A   1      40.147  29.150  30.092  1.00  0.00     0.135 A 
ATOM     66  C   UNL A   1      39.577  29.374  27.767  1.00  0.00     0.135 A 
ATOM     67  F   UNL A   1      41.032  28.894  31.070  1.00  0.00    -0.206 F 
ATOM     68  C   UNL A   1      38.846  29.483  30.456  1.00  0.00     0.059 A 
ATOM     69  C   UNL A   1      38.278  29.737  28.108  1.00  0.00     0.059 A 
ATOM     70  F   UNL A   1      39.908  29.354  26.466  1.00  0.00    -0.206 F 
ATOM     71  C   UNL A   1      37.925  29.797  29.457  1.00  0.00     0.060 A 
BRANCH  71  72
ATOM     72  S   UNL A   1      36.246  30.306  29.886  1.00  0.00     0.124 S 
ATOM     73  O   UNL A   1      36.075  29.668  31.188  1.00  0.00    -0.237 OA
ATOM     74  O   UNL A   1      36.355  31.760  29.902  1.00  0.00    -0.237 OA
ATOM     75  O   UNL A   1      35.437  29.752  28.804  1.00  0.00    -0.744 OA
ENDBRANCH  71  72
ENDBRANCH  50  64
BRANCH  51  76
ATOM     76  C   UNL A   1      49.829  26.389  26.200  1.00  0.00     0.058 A 
ATOM     77  C   UNL A   1      50.699  25.853  27.161  1.00  0.00     0.135 A 
ATOM     78  C   UNL A   1      50.323  26.582  24.902  1.00  0.00     0.135 A 
ATOM     79  F   UNL A   1      50.277  25.663  28.420  1.00  0.00    -0.206 F 
ATOM     80  C   UNL A   1      52.022  25.543  26.855  1.00  0.00     0.059 A 
ATOM     81  C   UNL A   1      51.635  26.265  24.568  1.00  0.00     0.059 A 
ATOM     82  F   UNL A   1      49.523  27.086  23.950  1.00  0.00    -0.206 F 
ATOM     83  C   UNL A   1      52.480  25.755  25.554  1.00  0.00     0.060 A 
BRANCH  83  84
ATOM     84  S   UNL A   1      54.204  25.428  25.127  1.00  0.00     0.124 S 
ATOM     85  O   UNL A   1      54.903  25.966  26.288  1.00  0.00    -0.237 OA
ATOM     86  O   UNL A   1      54.213  23.975  24.991  1.00  0.00    -0.237 OA
ATOM     87  O   UNL A   1      54.388  26.167  23.881  1.00  0.00    -0.744 OA
ENDBRANCH  83  84
ENDBRANCH  51  76
BRANCH  63  88
ATOM     88  C   UNL A   1      46.932  32.415  28.213  1.00  0.00     0.058 A 
ATOM     89  C   UNL A   1      46.897  33.376  27.190  1.00  0.00     0.135 A 
ATOM     90  C   UNL A   1      47.569  32.754  29.415  1.00  0.00     0.135 A 
ATOM     91  F   UNL A   1      46.304  33.096  26.019  1.00  0.00    -0.206 F 
ATOM     92  C   UNL A   1      47.490  34.625  27.344  1.00  0.00     0.059 A 
ATOM     93  C   UNL A   1      48.152  34.004  29.598  1.00  0.00     0.059 A 
ATOM     94  F   UNL A   1      47.620  31.871  30.425  1.00  0.00    -0.206 F 
ATOM     95  C   UNL A   1      48.112  34.930  28.554  1.00  0.00     0.060 A 
BRANCH  95  96
ATOM     96  S   UNL A   1      48.922  36.527  28.787  1.00  0.00     0.124 S 
ATOM     97  O   UNL A   1      49.972  36.475  27.777  1.00  0.00    -0.237 OA
ATOM     98  O   UNL A   1      47.836  37.468  28.527  1.00  0.00    -0.237 OA
ATOM     99  O   UNL A   1      49.380  36.478  30.173  1.00  0.00    -0.744 OA
ENDBRANCH  95  96
ENDBRANCH  63  88
ENDBRANCH  37  38
ENDBRANCH  29  32
ENDBRANCH  27  28
ENDBRANCH  26  27
ENDBRANCH   1  26
TORSDOF 18
ENDMDL
MODEL 3
REMARK VINA RESULT:     -11.0      3.430      9.232
REMARK SMILES O=C(Cc1c(F)cccc1F)NC[C@H]1CC[C@H](C(=O)NCCCCNC(=O)c2ccc(-c3c4nc(c(-c5c(F)cc(S(=O)(=O)[O-])cc5F)c5ccc([nH]5)c(-c5c(F)cc(S(=O)(=O)[O-])cc5F)c5nc(c(-c6c(F)cc(S(=O)(=O)[O-])cc6F)c6ccc3[nH]6)C=C5)C=C4)cc2)O1
REMARK SMILES IDX 22 1 21 2 20 3 18 4 19 5 17 7 14 8 15 9 94 10 16 11 13 12
REMARK SMILES IDX 12 13 1 14 2 15 3 17 4 18 5 19 10 20 6 21 7 22 9 23 11 24
REMARK SMILES IDX 8 25 23 26 24 27 25 28 26 29 27 31 28 32 29 33 93 34 30 35
REMARK SMILES IDX 92 36 31 37 32 38 33 39 86 40 34 41 91 42 85 43 87 44 35 45
REMARK SMILES IDX 90 46 84 47 83 48 36 50 70 51 49 52 69 53 50 54 53 55 68 56
REMARK SMILES IDX 88 57 51 58 52 59 67 61 89 62 54 63 37 64 38 65 47 66 39 67
REMARK SMILES IDX 40 68 46 69 48 70 41 71 42 72 43 73 44 74 45 75 71 76 72 77
REMARK SMILES IDX 81 78 73 79 74 80 80 81 82 82 75 83 76 84 77 85 78 86 79 87
REMARK SMILES IDX 55 88 56 89 65 90 57 91 58 92 64 93 66 94 59 95 60 96 61 97
REMARK SMILES IDX 62 98 63 99
REMARK H PARENT 20 6 12 16 25 30 87 49 53 60
REMARK Flexibility Score: inf
ROOT
ATOM      1  C   UNL A   1      37.381  21.528  25.401  1.00  0.00     0.023 C 
ENDROOT
BRANCH   1   2
ATOM      2  C   UNL A   1      35.914  21.103  25.329  1.00  0.00     0.116 C 
BRANCH   2   3
ATOM      3  N   UNL A   1      35.207  21.427  26.548  1.00  0.00    -0.354 N 
ATOM      4  C   UNL A   1      34.163  22.281  26.756  1.00  0.00     0.249 C 
ATOM      5  O   UNL A   1      33.746  22.397  27.913  1.00  0.00    -0.272 OA
ATOM      6  H   UNL A   1      35.527  20.960  27.353  1.00  0.00     0.163 HD
BRANCH   4   7
ATOM      7  C   UNL A   1      33.539  23.122  25.615  1.00  0.00     0.207 C 
ATOM      8  C   UNL A   1      33.950  23.246  23.302  1.00  0.00     0.138 C 
ATOM      9  C   UNL A   1      34.785  24.338  23.955  1.00  0.00     0.037 C 
ATOM     10  O   UNL A   1      33.374  22.462  24.363  1.00  0.00    -0.363 OA
ATOM     11  C   UNL A   1      34.251  24.440  25.365  1.00  0.00     0.045 C 
BRANCH   8  12
ATOM     12  C   UNL A   1      32.846  23.721  22.343  1.00  0.00     0.147 C 
BRANCH  12  13
ATOM     13  N   UNL A   1      32.273  25.002  22.711  1.00  0.00    -0.353 N 
ATOM     14  O   UNL A   1      33.358  26.197  21.081  1.00  0.00    -0.275 OA
ATOM     15  C   UNL A   1      32.595  26.166  22.045  1.00  0.00     0.224 C 
ATOM     16  H   UNL A   1      31.635  25.042  23.459  1.00  0.00     0.163 HD
BRANCH  15  17
ATOM     17  C   UNL A   1      32.034  27.435  22.654  1.00  0.00     0.141 C 
BRANCH  17  18
ATOM     18  C   UNL A   1      32.355  27.602  24.111  1.00  0.00     0.033 A 
ATOM     19  C   UNL A   1      31.442  27.238  25.098  1.00  0.00     0.129 A 
ATOM     20  C   UNL A   1      33.600  28.081  24.518  1.00  0.00     0.129 A 
ATOM     21  F   UNL A   1      30.237  26.761  24.755  1.00  0.00    -0.207 F 
ATOM     22  C   UNL A   1      31.752  27.360  26.452  1.00  0.00     0.040 A 
ATOM     23  C   UNL A   1      33.931  28.209  25.863  1.00  0.00     0.040 A 
ATOM     24  F   UNL A   1      34.521  28.391  23.593  1.00  0.00    -0.207 F 
ATOM     25  C   UNL A   1      33.001  27.847  26.837  1.00  0.00     0.006 A 
ENDBRANCH  17  18
ENDBRANCH  15  17
ENDBRANCH  12  13
ENDBRANCH   8  12
ENDBRANCH   4   7
ENDBRANCH   2   3
ENDBRANCH   1   2
BRANCH   1  26
ATOM     26  C   UNL A   1      38.381  20.375  25.336  1.00  0.00     0.023 C 
BRANCH  26  27
ATOM     27  C   UNL A   1      39.676  20.610  26.103  1.00  0.00     0.116 C 
BRANCH  27  28
ATOM     28  N   UNL A   1      40.571  19.460  26.110  1.00  0.00    -0.352 N 
ATOM     29  C   UNL A   1      41.940  19.462  26.244  1.00  0.00     0.251 C 
ATOM     30  H   UNL A   1      40.145  18.579  26.005  1.00  0.00     0.163 HD
ATOM     31  O   UNL A   1      42.580  18.420  26.144  1.00  0.00    -0.269 OA
BRANCH  29  32
ATOM     32  C   UNL A   1      42.626  20.751  26.461  1.00  0.00     0.039 A 
ATOM     33  C   UNL A   1      43.041  21.488  25.351  1.00  0.00     0.014 A 
ATOM     34  C   UNL A   1      42.777  21.259  27.754  1.00  0.00     0.014 A 
ATOM     35  C   UNL A   1      43.540  22.778  25.535  1.00  0.00     0.010 A 
ATOM     36  C   UNL A   1      43.209  22.567  27.928  1.00  0.00     0.010 A 
ATOM     37  C   UNL A   1      43.588  23.341  26.821  1.00  0.00    -0.014 A 
BRANCH  37  38
ATOM     38  C   UNL A   1      44.025  24.742  27.034  1.00  0.00     0.031 A 
ATOM     39  C   UNL A   1      45.469  25.110  26.848  1.00  0.00     0.074 A 
ATOM     40  C   UNL A   1      43.138  25.662  27.462  1.00  0.00     0.049 A 
ATOM     41  N   UNL A   1      46.066  26.252  27.071  1.00  0.00    -0.248 NA
ATOM     42  C   UNL A   1      46.367  24.043  26.375  1.00  0.00     0.031 C 
ATOM     43  C   UNL A   1      41.717  25.413  27.713  1.00  0.00     0.029 A 
ATOM     44  N   UNL A   1      43.302  26.989  27.763  1.00  0.00    -0.354 N 
ATOM     45  C   UNL A   1      47.406  26.040  26.777  1.00  0.00     0.074 A 
ATOM     46  C   UNL A   1      47.546  24.646  26.416  1.00  0.00     0.031 C 
ATOM     47  C   UNL A   1      41.132  26.559  28.097  1.00  0.00     0.029 A 
ATOM     48  C   UNL A   1      42.141  27.613  28.156  1.00  0.00     0.049 A 
ATOM     49  H   UNL A   1      44.169  27.452  27.705  1.00  0.00     0.167 HD
ATOM     50  C   UNL A   1      48.426  26.932  26.783  1.00  0.00     0.037 A 
ATOM     51  C   UNL A   1      41.915  28.890  28.519  1.00  0.00     0.037 A 
ATOM     52  C   UNL A   1      48.277  28.321  27.125  1.00  0.00     0.049 A 
ATOM     53  C   UNL A   1      43.062  29.863  28.529  1.00  0.00     0.074 A 
ATOM     54  C   UNL A   1      49.240  29.314  27.134  1.00  0.00     0.029 A 
ATOM     55  N   UNL A   1      47.084  28.915  27.513  1.00  0.00    -0.354 N 
ATOM     56  N   UNL A   1      44.321  29.652  28.226  1.00  0.00    -0.248 NA
ATOM     57  C   UNL A   1      42.760  31.243  28.931  1.00  0.00     0.031 C 
ATOM     58  C   UNL A   1      48.634  30.504  27.556  1.00  0.00     0.029 A 
ATOM     59  C   UNL A   1      47.287  30.260  27.773  1.00  0.00     0.049 A 
ATOM     60  H   UNL A   1      46.220  28.449  27.592  1.00  0.00     0.167 HD
ATOM     61  C   UNL A   1      44.959  30.877  28.380  1.00  0.00     0.074 A 
ATOM     62  C   UNL A   1      43.946  31.825  28.798  1.00  0.00     0.031 C 
ATOM     63  C   UNL A   1      46.264  31.188  28.187  1.00  0.00     0.037 A 
BRANCH  50  64
ATOM     64  C   UNL A   1      49.786  26.418  26.400  1.00  0.00     0.058 A 
ATOM     65  C   UNL A   1      50.213  26.442  25.064  1.00  0.00     0.135 A 
ATOM     66  C   UNL A   1      50.674  25.914  27.364  1.00  0.00     0.135 A 
ATOM     67  F   UNL A   1      49.403  26.915  24.103  1.00  0.00    -0.206 F 
ATOM     68  C   UNL A   1      51.481  26.002  24.695  1.00  0.00     0.059 A 
ATOM     69  C   UNL A   1      51.956  25.495  27.023  1.00  0.00     0.059 A 
ATOM     70  F   UNL A   1      50.322  25.885  28.659  1.00  0.00    -0.206 F 
ATOM     71  C   UNL A   1      52.353  25.551  25.686  1.00  0.00     0.060 A 
BRANCH  71  72
ATOM     72  S   UNL A   1      54.031  25.038  25.264  1.00  0.00     0.124 S 
ATOM     73  O   UNL A   1      54.744  25.332  26.504  1.00  0.00    -0.237 OA
ATOM     74  O   UNL A   1      53.858  23.623  24.954  1.00  0.00    -0.237 OA
ATOM     75  O   UNL A   1      54.371  25.889  24.128  1.00  0.00    -0.744 OA
ENDBRANCH  71  72
ENDBRANCH  50  64
BRANCH  51  76
ATOM     76  C   UNL A   1      40.534  29.324  28.851  1.00  0.00     0.058 A 
ATOM     77  C   UNL A   1      40.127  29.526  30.179  1.00  0.00     0.135 A 
ATOM     78  C   UNL A   1      39.577  29.486  27.839  1.00  0.00     0.135 A 
ATOM     79  F   UNL A   1      41.004  29.369  31.183  1.00  0.00    -0.206 F 
ATOM     80  C   UNL A   1      38.811  29.851  30.497  1.00  0.00     0.059 A 
ATOM     81  C   UNL A   1      38.261  29.827  28.131  1.00  0.00     0.059 A 
ATOM     82  F   UNL A   1      39.924  29.310  26.555  1.00  0.00    -0.206 F 
ATOM     83  C   UNL A   1      37.885  29.998  29.464  1.00  0.00     0.060 A 
BRANCH  83  84
ATOM     84  S   UNL A   1      36.153  30.356  29.831  1.00  0.00     0.124 S 
ATOM     85  O   UNL A   1      35.967  29.648  31.092  1.00  0.00    -0.237 OA
ATOM     86  O   UNL A   1      36.155  31.813  29.910  1.00  0.00    -0.237 OA
ATOM     87  O   UNL A   1      35.444  29.799  28.683  1.00  0.00    -0.744 OA
ENDBRANCH  83  84
ENDBRANCH  51  76
BRANCH  63  88
ATOM     88  C   UNL A   1      46.676  32.615  28.406  1.00  0.00     0.058 A 
ATOM     89  C   UNL A   1      47.120  33.039  29.669  1.00  0.00     0.135 A 
ATOM     90  C   UNL A   1      46.556  33.578  27.393  1.00  0.00     0.135 A 
ATOM     91  F   UNL A   1      47.245  32.157  30.673  1.00  0.00    -0.206 F 
ATOM     92  C   UNL A   1      47.418  34.373  29.927  1.00  0.00     0.059 A 
ATOM     93  C   UNL A   1      46.868  34.914  27.622  1.00  0.00     0.059 A 
ATOM     94  F   UNL A   1      46.144  33.219  26.167  1.00  0.00    -0.206 F 
ATOM     95  C   UNL A   1      47.292  35.302  28.894  1.00  0.00     0.060 A 
BRANCH  95  96
ATOM     96  S   UNL A   1      47.639  37.049  29.191  1.00  0.00     0.124 S 
ATOM     97  O   UNL A   1      49.089  37.091  29.041  1.00  0.00    -0.237 OA
ATOM     98  O   UNL A   1      46.873  37.704  28.135  1.00  0.00    -0.237 OA
ATOM     99  O   UNL A   1      47.141  37.270  30.547  1.00  0.00    -0.744 OA
ENDBRANCH  95  96
ENDBRANCH  63  88
ENDBRANCH  37  38
ENDBRANCH  29  32
ENDBRANCH  27  28
ENDBRANCH  26  27
ENDBRANCH   1  26
TORSDOF 18
ENDMDL
