MODEL 1
REMARK VINA RESULT:     -11.7      0.000      0.000
REMARK SMILES O=C(NCCCCNC(=O)[C@]12COc3ccccc3[C@H]1C[N@H+](CCO)C2)c1ccc(-c2c3nc(c(-c4c(F)cc(S(=O)(=O)[O-])cc4F)c4ccc([nH]4)c(-c4c(F)cc(S(=O)(=O)[O-])cc4F)c4nc(c(-c5c(F)cc(S(=O)(=O)[O-])cc5F)c5ccc2[nH]5)C=C4)C=C3)cc1
REMARK SMILES IDX 5 1 4 2 3 3 1 4 2 5 27 7 28 8 92 9 29 10 91 11 30 12 31 13
REMARK SMILES IDX 32 14 85 15 33 16 90 17 84 18 86 19 34 20 89 21 83 22 82 23
REMARK SMILES IDX 35 25 69 26 48 27 68 28 49 29 52 30 67 31 87 32 50 33 51 34
REMARK SMILES IDX 66 36 88 37 53 38 36 39 37 40 46 41 38 42 39 43 45 44 47 45
REMARK SMILES IDX 40 46 41 47 42 48 43 49 44 50 70 51 71 52 80 53 72 54 73 55
REMARK SMILES IDX 79 56 81 57 74 58 75 59 76 60 77 61 78 62 54 63 55 64 64 65
REMARK SMILES IDX 56 66 57 67 63 68 65 69 58 70 59 71 60 72 61 73 62 74 6 75
REMARK SMILES IDX 7 76 8 77 9 78 10 80 11 81 12 82 20 83 26 84 13 85 19 86
REMARK SMILES IDX 21 87 22 88 14 89 18 90 15 92 17 93 16 94 23 95 24 96 25 97
REMARK H PARENT 3 6 86 24 52 35 8 79 22 91 25 98
REMARK Flexibility Score: inf
ROOT
ATOM      1  C   UNL A   1      31.947  27.629  27.496  1.00  0.00     0.023 C 
ENDROOT
BRANCH   1   2
ATOM      2  C   UNL A   1      33.298  28.271  27.189  1.00  0.00     0.116 C 
BRANCH   2   3
ATOM      3  N   UNL A   1      33.261  29.705  27.414  1.00  0.00    -0.352 N 
ATOM      4  O   UNL A   1      33.878  31.655  28.334  1.00  0.00    -0.269 OA
ATOM      5  C   UNL A   1      34.201  30.520  27.993  1.00  0.00     0.251 C 
ATOM      6  H   UNL A   1      32.444  30.158  27.105  1.00  0.00     0.163 HD
BRANCH   5   7
ATOM      7  C   UNL A   1      35.591  30.053  28.203  1.00  0.00     0.039 A 
ATOM      8  C   UNL A   1      35.978  29.645  29.484  1.00  0.00     0.014 A 
ATOM      9  C   UNL A   1      36.537  30.110  27.174  1.00  0.00     0.014 A 
ATOM     10  C   UNL A   1      37.305  29.280  29.732  1.00  0.00     0.010 A 
ATOM     11  C   UNL A   1      37.852  29.706  27.413  1.00  0.00     0.010 A 
ATOM     12  C   UNL A   1      38.253  29.306  28.698  1.00  0.00    -0.014 A 
BRANCH  12  13
ATOM     13  C   UNL A   1      39.683  28.992  28.953  1.00  0.00     0.031 A 
ATOM     14  C   UNL A   1      40.580  30.049  29.546  1.00  0.00     0.074 A 
ATOM     15  C   UNL A   1      40.182  27.781  28.639  1.00  0.00     0.049 A 
ATOM     16  N   UNL A   1      41.876  30.029  29.725  1.00  0.00    -0.248 NA
ATOM     17  C   UNL A   1      39.933  31.296  29.986  1.00  0.00     0.031 C 
ATOM     18  C   UNL A   1      39.414  26.666  28.082  1.00  0.00     0.029 A 
ATOM     19  N   UNL A   1      41.458  27.285  28.740  1.00  0.00    -0.354 N 
ATOM     20  C   UNL A   1      42.199  31.256  30.292  1.00  0.00     0.074 A 
ATOM     21  C   UNL A   1      40.971  32.014  30.390  1.00  0.00     0.031 C 
ATOM     22  C   UNL A   1      40.231  25.613  27.908  1.00  0.00     0.029 A 
ATOM     23  C   UNL A   1      41.587  25.990  28.297  1.00  0.00     0.049 A 
ATOM     24  H   UNL A   1      42.212  27.809  29.097  1.00  0.00     0.167 HD
ATOM     25  C   UNL A   1      43.407  31.703  30.713  1.00  0.00     0.037 A 
ATOM     26  C   UNL A   1      42.676  25.203  28.205  1.00  0.00     0.037 A 
ATOM     27  C   UNL A   1      44.625  30.939  30.634  1.00  0.00     0.049 A 
ATOM     28  C   UNL A   1      44.015  25.744  28.632  1.00  0.00     0.074 A 
ATOM     29  C   UNL A   1      45.904  31.316  31.005  1.00  0.00     0.029 A 
ATOM     30  N   UNL A   1      44.711  29.634  30.174  1.00  0.00    -0.354 N 
ATOM     31  N   UNL A   1      44.310  26.925  29.124  1.00  0.00    -0.248 NA
ATOM     32  C   UNL A   1      45.172  24.848  28.490  1.00  0.00     0.031 C 
ATOM     33  C   UNL A   1      46.767  30.244  30.755  1.00  0.00     0.029 A 
ATOM     34  C   UNL A   1      46.018  29.188  30.263  1.00  0.00     0.049 A 
ATOM     35  H   UNL A   1      43.955  29.103  29.834  1.00  0.00     0.167 HD
ATOM     36  C   UNL A   1      45.675  26.894  29.390  1.00  0.00     0.074 A 
ATOM     37  C   UNL A   1      46.148  25.582  29.005  1.00  0.00     0.031 C 
ATOM     38  C   UNL A   1      46.465  27.866  29.908  1.00  0.00     0.037 A 
BRANCH  25  39
ATOM     39  C   UNL A   1      43.478  33.074  31.323  1.00  0.00     0.058 A 
ATOM     40  C   UNL A   1      43.379  33.257  32.711  1.00  0.00     0.135 A 
ATOM     41  C   UNL A   1      43.737  34.203  30.529  1.00  0.00     0.135 A 
ATOM     42  F   UNL A   1      43.111  32.214  33.512  1.00  0.00    -0.206 F 
ATOM     43  C   UNL A   1      43.537  34.511  33.292  1.00  0.00     0.059 A 
ATOM     44  C   UNL A   1      43.920  35.463  31.091  1.00  0.00     0.059 A 
ATOM     45  F   UNL A   1      43.835  34.084  29.195  1.00  0.00    -0.206 F 
ATOM     46  C   UNL A   1      43.817  35.607  32.474  1.00  0.00     0.060 A 
BRANCH  46  47
ATOM     47  S   UNL A   1      44.075  37.215  33.253  1.00  0.00     0.124 S 
ATOM     48  O   UNL A   1      45.358  37.015  33.918  1.00  0.00    -0.237 OA
ATOM     49  O   UNL A   1      44.090  38.117  32.107  1.00  0.00    -0.237 OA
ATOM     50  O   UNL A   1      42.923  37.353  34.140  1.00  0.00    -0.744 OA
ENDBRANCH  46  47
ENDBRANCH  25  39
BRANCH  26  51
ATOM     51  C   UNL A   1      42.561  23.808  27.699  1.00  0.00     0.058 A 
ATOM     52  C   UNL A   1      42.493  23.549  26.321  1.00  0.00     0.135 A 
ATOM     53  C   UNL A   1      42.478  22.715  28.574  1.00  0.00     0.135 A 
ATOM     54  F   UNL A   1      42.560  24.563  25.446  1.00  0.00    -0.206 F 
ATOM     55  C   UNL A   1      42.316  22.261  25.828  1.00  0.00     0.059 A 
ATOM     56  C   UNL A   1      42.325  21.414  28.104  1.00  0.00     0.059 A 
ATOM     57  F   UNL A   1      42.551  22.907  29.901  1.00  0.00    -0.206 F 
ATOM     58  C   UNL A   1      42.228  21.199  26.730  1.00  0.00     0.060 A 
BRANCH  58  59
ATOM     59  S   UNL A   1      42.007  19.529  26.081  1.00  0.00     0.124 S 
ATOM     60  O   UNL A   1      40.569  19.496  25.840  1.00  0.00    -0.237 OA
ATOM     61  O   UNL A   1      42.854  19.544  24.893  1.00  0.00    -0.237 OA
ATOM     62  O   UNL A   1      42.484  18.682  27.171  1.00  0.00    -0.744 OA
ENDBRANCH  58  59
ENDBRANCH  26  51
BRANCH  38  63
ATOM     63  C   UNL A   1      47.908  27.527  30.156  1.00  0.00     0.058 A 
ATOM     64  C   UNL A   1      48.338  26.956  31.363  1.00  0.00     0.135 A 
ATOM     65  C   UNL A   1      48.865  27.740  29.150  1.00  0.00     0.135 A 
ATOM     66  F   UNL A   1      47.463  26.737  32.356  1.00  0.00    -0.206 F 
ATOM     67  C   UNL A   1      49.674  26.630  31.573  1.00  0.00     0.059 A 
ATOM     68  C   UNL A   1      50.201  27.399  29.330  1.00  0.00     0.059 A 
ATOM     69  F   UNL A   1      48.500  28.274  27.972  1.00  0.00    -0.206 F 
ATOM     70  C   UNL A   1      50.598  26.857  30.551  1.00  0.00     0.060 A 
BRANCH  70  71
ATOM     71  S   UNL A   1      52.325  26.409  30.831  1.00  0.00     0.124 S 
ATOM     72  O   UNL A   1      52.188  25.188  31.617  1.00  0.00    -0.237 OA
ATOM     73  O   UNL A   1      52.828  26.237  29.473  1.00  0.00    -0.237 OA
ATOM     74  O   UNL A   1      52.862  27.562  31.549  1.00  0.00    -0.744 OA
ENDBRANCH  70  71
ENDBRANCH  38  63
ENDBRANCH  12  13
ENDBRANCH   5   7
ENDBRANCH   2   3
ENDBRANCH   1   2
BRANCH   1  75
ATOM     75  C   UNL A   1      31.030  27.397  26.279  1.00  0.00     0.023 C 
BRANCH  75  76
ATOM     76  C   UNL A   1      30.547  25.951  26.061  1.00  0.00     0.116 C 
BRANCH  76  77
ATOM     77  N   UNL A   1      31.235  25.060  26.965  1.00  0.00    -0.355 N 
ATOM     78  C   UNL A   1      31.881  23.891  26.819  1.00  0.00     0.236 C 
ATOM     79  H   UNL A   1      31.230  25.381  27.897  1.00  0.00     0.163 HD
ATOM     80  O   UNL A   1      31.876  23.190  27.846  1.00  0.00    -0.274 OA
BRANCH  78  81
ATOM     81  C   UNL A   1      32.737  23.447  25.632  1.00  0.00     0.144 C 
ATOM     82  C   UNL A   1      33.995  24.333  25.715  1.00  0.00     0.253 C 
ATOM     83  C   UNL A   1      32.278  23.390  24.173  1.00  0.00     0.103 C 
ATOM     84  C   UNL A   1      33.055  21.957  25.935  1.00  0.00     0.283 C 
ATOM     85  O   UNL A   1      33.764  25.652  25.189  1.00  0.00    -0.492 OA
ATOM     86  C   UNL A   1      32.614  24.601  23.339  1.00  0.00     0.004 A 
ATOM     87  C   UNL A   1      33.113  22.222  23.599  1.00  0.00     0.272 C 
ATOM     88  N   UNL A   1      33.267  21.251  24.666  1.00  0.00    -0.331 N 
ATOM     89  C   UNL A   1      33.372  25.639  23.880  1.00  0.00     0.123 A 
ATOM     90  C   UNL A   1      32.302  24.635  21.967  1.00  0.00     0.008 A 
ATOM     91  H   UNL A   1      34.215  20.874  24.641  1.00  0.00     0.348 HD
ATOM     92  C   UNL A   1      33.786  26.708  23.086  1.00  0.00     0.047 A 
ATOM     93  C   UNL A   1      32.764  25.675  21.160  1.00  0.00     0.001 A 
ATOM     94  C   UNL A   1      33.503  26.714  21.720  1.00  0.00     0.004 A 
BRANCH  88  95
ATOM     95  C   UNL A   1      32.476  20.021  24.503  1.00  0.00     0.290 C 
BRANCH  95  96
ATOM     96  C   UNL A   1      33.034  18.700  25.071  1.00  0.00     0.217 C 
BRANCH  96  97
ATOM     97  O   UNL A   1      32.591  18.457  26.403  1.00  0.00    -0.391 OA
ATOM     98  H   UNL A   1      31.626  18.352  26.408  1.00  0.00     0.210 HD
ENDBRANCH  96  97
ENDBRANCH  95  96
ENDBRANCH  88  95
ENDBRANCH  78  81
ENDBRANCH  76  77
ENDBRANCH  75  76
ENDBRANCH   1  75
TORSDOF 17
ENDMDL
MODEL 2
REMARK VINA RESULT:     -11.4      1.290      2.511
REMARK SMILES O=C(NCCCCNC(=O)[C@]12COc3ccccc3[C@H]1C[N@H+](CCO)C2)c1ccc(-c2c3nc(c(-c4c(F)cc(S(=O)(=O)[O-])cc4F)c4ccc([nH]4)c(-c4c(F)cc(S(=O)(=O)[O-])cc4F)c4nc(c(-c5c(F)cc(S(=O)(=O)[O-])cc5F)c5ccc2[nH]5)C=C4)C=C3)cc1
REMARK SMILES IDX 5 1 4 2 3 3 1 4 2 5 27 7 28 8 92 9 29 10 91 11 30 12 31 13
REMARK SMILES IDX 32 14 85 15 33 16 90 17 84 18 86 19 34 20 89 21 83 22 82 23
REMARK SMILES IDX 35 25 69 26 48 27 68 28 49 29 52 30 67 31 87 32 50 33 51 34
REMARK SMILES IDX 66 36 88 37 53 38 36 39 37 40 46 41 38 42 39 43 45 44 47 45
REMARK SMILES IDX 40 46 41 47 42 48 43 49 44 50 70 51 71 52 80 53 72 54 73 55
REMARK SMILES IDX 79 56 81 57 74 58 75 59 76 60 77 61 78 62 54 63 55 64 64 65
REMARK SMILES IDX 56 66 57 67 63 68 65 69 58 70 59 71 60 72 61 73 62 74 6 75
REMARK SMILES IDX 7 76 8 77 9 78 10 80 11 81 12 82 20 83 26 84 13 85 19 86
REMARK SMILES IDX 21 87 22 88 14 89 18 90 15 92 17 93 16 94 23 95 24 96 25 97
REMARK H PARENT 3 6 86 24 52 35 8 79 22 91 25 98
REMARK Flexibility Score: inf
ROOT
ATOM      1  C   UNL A   1      33.040  27.341  25.534  1.00  0.00     0.023 C 
ENDROOT
BRANCH   1   2
ATOM      2  C   UNL A   1      33.948  27.896  26.629  1.00  0.00     0.116 C 
BRANCH   2   3
ATOM      3  N   UNL A   1      33.637  29.285  26.915  1.00  0.00    -0.352 N 
ATOM      4  O   UNL A   1      33.783  31.238  28.009  1.00  0.00    -0.269 OA
ATOM      5  C   UNL A   1      34.337  30.198  27.663  1.00  0.00     0.251 C 
ATOM      6  H   UNL A   1      32.804  29.620  26.514  1.00  0.00     0.163 HD
BRANCH   5   7
ATOM      7  C   UNL A   1      35.746  29.949  28.047  1.00  0.00     0.039 A 
ATOM      8  C   UNL A   1      36.746  30.112  27.082  1.00  0.00     0.014 A 
ATOM      9  C   UNL A   1      36.076  29.463  29.317  1.00  0.00     0.014 A 
ATOM     10  C   UNL A   1      38.074  29.803  27.392  1.00  0.00     0.010 A 
ATOM     11  C   UNL A   1      37.407  29.194  29.637  1.00  0.00     0.010 A 
ATOM     12  C   UNL A   1      38.417  29.342  28.672  1.00  0.00    -0.014 A 
BRANCH  12  13
ATOM     13  C   UNL A   1      39.809  28.939  29.002  1.00  0.00     0.031 A 
ATOM     14  C   UNL A   1      40.720  29.918  29.697  1.00  0.00     0.074 A 
ATOM     15  C   UNL A   1      40.262  27.716  28.664  1.00  0.00     0.049 A 
ATOM     16  N   UNL A   1      41.999  29.819  29.956  1.00  0.00    -0.248 NA
ATOM     17  C   UNL A   1      40.112  31.180  30.152  1.00  0.00     0.031 C 
ATOM     18  C   UNL A   1      39.475  26.670  28.009  1.00  0.00     0.029 A 
ATOM     19  N   UNL A   1      41.502  27.147  28.822  1.00  0.00    -0.354 N 
ATOM     20  C   UNL A   1      42.348  31.001  30.598  1.00  0.00     0.074 A 
ATOM     21  C   UNL A   1      41.158  31.821  30.654  1.00  0.00     0.031 C 
ATOM     22  C   UNL A   1      40.245  25.582  27.839  1.00  0.00     0.029 A 
ATOM     23  C   UNL A   1      41.590  25.866  28.330  1.00  0.00     0.049 A 
ATOM     24  H   UNL A   1      42.257  27.612  29.250  1.00  0.00     0.167 HD
ATOM     25  C   UNL A   1      43.547  31.361  31.114  1.00  0.00     0.037 A 
ATOM     26  C   UNL A   1      42.641  25.024  28.270  1.00  0.00     0.037 A 
ATOM     27  C   UNL A   1      44.726  30.535  31.077  1.00  0.00     0.049 A 
ATOM     28  C   UNL A   1      43.975  25.472  28.805  1.00  0.00     0.074 A 
ATOM     29  C   UNL A   1      45.997  30.824  31.545  1.00  0.00     0.029 A 
ATOM     30  N   UNL A   1      44.773  29.248  30.564  1.00  0.00    -0.354 N 
ATOM     31  N   UNL A   1      44.299  26.612  29.369  1.00  0.00    -0.248 NA
ATOM     32  C   UNL A   1      45.090  24.520  28.696  1.00  0.00     0.031 C 
ATOM     33  C   UNL A   1      46.816  29.717  31.301  1.00  0.00     0.029 A 
ATOM     34  C   UNL A   1      46.046  28.726  30.715  1.00  0.00     0.049 A 
ATOM     35  H   UNL A   1      44.014  28.775  30.153  1.00  0.00     0.167 HD
ATOM     36  C   UNL A   1      45.640  26.495  29.718  1.00  0.00     0.074 A 
ATOM     37  C   UNL A   1      46.068  25.175  29.304  1.00  0.00     0.031 C 
ATOM     38  C   UNL A   1      46.445  27.398  30.328  1.00  0.00     0.037 A 
BRANCH  25  39
ATOM     39  C   UNL A   1      43.651  32.699  31.790  1.00  0.00     0.058 A 
ATOM     40  C   UNL A   1      43.894  33.869  31.053  1.00  0.00     0.135 A 
ATOM     41  C   UNL A   1      43.418  32.829  33.169  1.00  0.00     0.135 A 
ATOM     42  F   UNL A   1      44.145  33.797  29.736  1.00  0.00    -0.206 F 
ATOM     43  C   UNL A   1      43.899  35.121  31.658  1.00  0.00     0.059 A 
ATOM     44  C   UNL A   1      43.396  34.075  33.791  1.00  0.00     0.059 A 
ATOM     45  F   UNL A   1      43.186  31.742  33.921  1.00  0.00    -0.206 F 
ATOM     46  C   UNL A   1      43.640  35.215  33.026  1.00  0.00     0.060 A 
BRANCH  46  47
ATOM     47  S   UNL A   1      43.594  36.854  33.780  1.00  0.00     0.124 S 
ATOM     48  O   UNL A   1      42.311  36.821  34.475  1.00  0.00    -0.237 OA
ATOM     49  O   UNL A   1      44.777  36.838  34.634  1.00  0.00    -0.237 OA
ATOM     50  O   UNL A   1      43.663  37.758  32.635  1.00  0.00    -0.744 OA
ENDBRANCH  46  47
ENDBRANCH  25  39
BRANCH  26  51
ATOM     51  C   UNL A   1      42.485  23.661  27.695  1.00  0.00     0.058 A 
ATOM     52  C   UNL A   1      42.333  22.544  28.531  1.00  0.00     0.135 A 
ATOM     53  C   UNL A   1      42.523  23.440  26.310  1.00  0.00     0.135 A 
ATOM     54  F   UNL A   1      42.299  22.704  29.862  1.00  0.00    -0.206 F 
ATOM     55  C   UNL A   1      42.255  21.253  28.018  1.00  0.00     0.059 A 
ATOM     56  C   UNL A   1      42.422  22.160  25.772  1.00  0.00     0.059 A 
ATOM     57  F   UNL A   1      42.653  24.475  25.466  1.00  0.00    -0.206 F 
ATOM     58  C   UNL A   1      42.305  21.072  26.636  1.00  0.00     0.060 A 
BRANCH  58  59
ATOM     59  S   UNL A   1      42.195  19.394  25.978  1.00  0.00     0.124 S 
ATOM     60  O   UNL A   1      42.729  18.609  27.085  1.00  0.00    -0.237 OA
ATOM     61  O   UNL A   1      40.764  19.254  25.728  1.00  0.00    -0.237 OA
ATOM     62  O   UNL A   1      43.030  19.449  24.782  1.00  0.00    -0.744 OA
ENDBRANCH  58  59
ENDBRANCH  26  51
BRANCH  38  63
ATOM     63  C   UNL A   1      47.849  26.970  30.651  1.00  0.00     0.058 A 
ATOM     64  C   UNL A   1      48.899  27.120  29.733  1.00  0.00     0.135 A 
ATOM     65  C   UNL A   1      48.150  26.440  31.917  1.00  0.00     0.135 A 
ATOM     66  F   UNL A   1      48.661  27.617  28.510  1.00  0.00    -0.206 F 
ATOM     67  C   UNL A   1      50.198  26.736  30.051  1.00  0.00     0.059 A 
ATOM     68  C   UNL A   1      49.446  26.074  32.264  1.00  0.00     0.059 A 
ATOM     69  F   UNL A   1      47.182  26.288  32.834  1.00  0.00    -0.206 F 
ATOM     70  C   UNL A   1      50.461  26.212  31.319  1.00  0.00     0.060 A 
BRANCH  70  71
ATOM     71  S   UNL A   1      52.156  25.738  31.724  1.00  0.00     0.124 S 
ATOM     72  O   UNL A   1      52.000  24.318  32.020  1.00  0.00    -0.237 OA
ATOM     73  O   UNL A   1      52.872  26.055  30.494  1.00  0.00    -0.237 OA
ATOM     74  O   UNL A   1      52.481  26.586  32.868  1.00  0.00    -0.744 OA
ENDBRANCH  70  71
ENDBRANCH  38  63
ENDBRANCH  12  13
ENDBRANCH   5   7
ENDBRANCH   2   3
ENDBRANCH   1   2
BRANCH   1  75
ATOM     75  C   UNL A   1      33.732  27.020  24.195  1.00  0.00     0.023 C 
BRANCH  75  76
ATOM     76  C   UNL A   1      33.629  25.562  23.711  1.00  0.00     0.116 C 
BRANCH  76  77
ATOM     77  N   UNL A   1      32.406  24.966  24.200  1.00  0.00    -0.355 N 
ATOM     78  C   UNL A   1      32.016  23.707  24.460  1.00  0.00     0.236 C 
ATOM     79  H   UNL A   1      31.703  25.631  24.383  1.00  0.00     0.163 HD
ATOM     80  O   UNL A   1      30.790  23.538  24.356  1.00  0.00    -0.274 OA
BRANCH  78  81
ATOM     81  C   UNL A   1      32.869  22.571  25.024  1.00  0.00     0.144 C 
ATOM     82  C   UNL A   1      33.251  23.045  26.440  1.00  0.00     0.253 C 
ATOM     83  C   UNL A   1      34.112  21.973  24.361  1.00  0.00     0.103 C 
ATOM     84  C   UNL A   1      31.901  21.357  25.060  1.00  0.00     0.283 C 
ATOM     85  O   UNL A   1      34.336  23.989  26.420  1.00  0.00    -0.492 OA
ATOM     86  C   UNL A   1      35.431  22.541  24.823  1.00  0.00     0.004 A 
ATOM     87  C   UNL A   1      34.081  20.504  24.840  1.00  0.00     0.272 C 
ATOM     88  N   UNL A   1      32.684  20.122  24.935  1.00  0.00    -0.331 N 
ATOM     89  C   UNL A   1      35.470  23.481  25.852  1.00  0.00     0.123 A 
ATOM     90  C   UNL A   1      36.645  22.024  24.332  1.00  0.00     0.008 A 
ATOM     91  H   UNL A   1      32.550  19.549  25.768  1.00  0.00     0.348 HD
ATOM     92  C   UNL A   1      36.688  23.927  26.364  1.00  0.00     0.047 A 
ATOM     93  C   UNL A   1      37.862  22.426  24.883  1.00  0.00     0.001 A 
ATOM     94  C   UNL A   1      37.884  23.380  25.898  1.00  0.00     0.004 A 
BRANCH  88  95
ATOM     95  C   UNL A   1      32.221  19.199  23.887  1.00  0.00     0.290 C 
BRANCH  95  96
ATOM     96  C   UNL A   1      33.086  17.969  23.547  1.00  0.00     0.217 C 
BRANCH  96  97
ATOM     97  O   UNL A   1      32.536  17.202  22.480  1.00  0.00    -0.391 OA
ATOM     98  H   UNL A   1      32.029  16.459  22.844  1.00  0.00     0.210 HD
ENDBRANCH  96  97
ENDBRANCH  95  96
ENDBRANCH  88  95
ENDBRANCH  78  81
ENDBRANCH  76  77
ENDBRANCH  75  76
ENDBRANCH   1  75
TORSDOF 17
ENDMDL
MODEL 3
REMARK VINA RESULT:     -11.4      3.003      9.266
REMARK SMILES O=C(NCCCCNC(=O)[C@]12COc3ccccc3[C@H]1C[N@H+](CCO)C2)c1ccc(-c2c3nc(c(-c4c(F)cc(S(=O)(=O)[O-])cc4F)c4ccc([nH]4)c(-c4c(F)cc(S(=O)(=O)[O-])cc4F)c4nc(c(-c5c(F)cc(S(=O)(=O)[O-])cc5F)c5ccc2[nH]5)C=C4)C=C3)cc1
REMARK SMILES IDX 5 1 4 2 3 3 1 4 2 5 27 7 28 8 92 9 29 10 91 11 30 12 31 13
REMARK SMILES IDX 32 14 85 15 33 16 90 17 84 18 86 19 34 20 89 21 83 22 82 23
REMARK SMILES IDX 35 25 69 26 48 27 68 28 49 29 52 30 67 31 87 32 50 33 51 34
REMARK SMILES IDX 66 36 88 37 53 38 36 39 37 40 46 41 38 42 39 43 45 44 47 45
REMARK SMILES IDX 40 46 41 47 42 48 43 49 44 50 70 51 71 52 80 53 72 54 73 55
REMARK SMILES IDX 79 56 81 57 74 58 75 59 76 60 77 61 78 62 54 63 55 64 64 65
REMARK SMILES IDX 56 66 57 67 63 68 65 69 58 70 59 71 60 72 61 73 62 74 6 75
REMARK SMILES IDX 7 76 8 77 9 78 10 80 11 81 12 82 20 83 26 84 13 85 19 86
REMARK SMILES IDX 21 87 22 88 14 89 18 90 15 92 17 93 16 94 23 95 24 96 25 97
REMARK H PARENT 3 6 86 24 52 35 8 79 22 91 25 98
REMARK Flexibility Score: inf
ROOT
ATOM      1  C   UNL A   1      35.602  23.002  24.522  1.00  0.00     0.023 C 
ENDROOT
BRANCH   1   2
ATOM      2  C   UNL A   1      36.858  23.703  25.032  1.00  0.00     0.116 C 
BRANCH   2   3
ATOM      3  N   UNL A   1      37.900  22.746  25.355  1.00  0.00    -0.352 N 
ATOM      4  O   UNL A   1      39.959  22.069  25.931  1.00  0.00    -0.269 OA
ATOM      5  C   UNL A   1      39.101  22.945  25.988  1.00  0.00     0.251 C 
ATOM      6  H   UNL A   1      37.718  21.819  25.081  1.00  0.00     0.163 HD
BRANCH   5   7
ATOM      7  C   UNL A   1      39.369  24.193  26.740  1.00  0.00     0.039 A 
ATOM      8  C   UNL A   1      40.151  25.186  26.139  1.00  0.00     0.014 A 
ATOM      9  C   UNL A   1      38.942  24.348  28.063  1.00  0.00     0.014 A 
ATOM     10  C   UNL A   1      40.492  26.337  26.855  1.00  0.00     0.010 A 
ATOM     11  C   UNL A   1      39.248  25.517  28.762  1.00  0.00     0.010 A 
ATOM     12  C   UNL A   1      40.043  26.514  28.173  1.00  0.00    -0.014 A 
BRANCH  12  13
ATOM     13  C   UNL A   1      40.451  27.695  28.978  1.00  0.00     0.031 A 
ATOM     14  C   UNL A   1      41.803  27.706  29.644  1.00  0.00     0.074 A 
ATOM     15  C   UNL A   1      39.614  28.738  29.129  1.00  0.00     0.049 A 
ATOM     16  N   UNL A   1      42.301  28.570  30.492  1.00  0.00    -0.248 NA
ATOM     17  C   UNL A   1      42.710  26.592  29.320  1.00  0.00     0.031 C 
ATOM     18  C   UNL A   1      38.289  28.860  28.518  1.00  0.00     0.029 A 
ATOM     19  N   UNL A   1      39.752  29.899  29.851  1.00  0.00    -0.354 N 
ATOM     20  C   UNL A   1      43.572  28.104  30.805  1.00  0.00     0.074 A 
ATOM     21  C   UNL A   1      43.756  26.860  30.089  1.00  0.00     0.031 C 
ATOM     22  C   UNL A   1      37.745  30.036  28.876  1.00  0.00     0.029 A 
ATOM     23  C   UNL A   1      38.660  30.732  29.776  1.00  0.00     0.049 A 
ATOM     24  H   UNL A   1      40.559  30.114  30.372  1.00  0.00     0.167 HD
ATOM     25  C   UNL A   1      44.510  28.672  31.600  1.00  0.00     0.037 A 
ATOM     26  C   UNL A   1      38.422  31.914  30.376  1.00  0.00     0.037 A 
ATOM     27  C   UNL A   1      44.333  29.921  32.294  1.00  0.00     0.049 A 
ATOM     28  C   UNL A   1      39.462  32.498  31.296  1.00  0.00     0.074 A 
ATOM     29  C   UNL A   1      45.213  30.565  33.148  1.00  0.00     0.029 A 
ATOM     30  N   UNL A   1      43.211  30.729  32.195  1.00  0.00    -0.354 N 
ATOM     31  N   UNL A   1      40.642  32.020  31.616  1.00  0.00    -0.248 NA
ATOM     32  C   UNL A   1      39.140  33.780  31.937  1.00  0.00     0.031 C 
ATOM     33  C   UNL A   1      44.617  31.754  33.578  1.00  0.00     0.029 A 
ATOM     34  C   UNL A   1      43.381  31.868  32.962  1.00  0.00     0.049 A 
ATOM     35  H   UNL A   1      42.412  30.523  31.659  1.00  0.00     0.167 HD
ATOM     36  C   UNL A   1      41.216  32.964  32.460  1.00  0.00     0.074 A 
ATOM     37  C   UNL A   1      40.257  34.040  32.601  1.00  0.00     0.031 C 
ATOM     38  C   UNL A   1      42.430  32.945  33.063  1.00  0.00     0.037 A 
BRANCH  25  39
ATOM     39  C   UNL A   1      45.829  27.968  31.749  1.00  0.00     0.058 A 
ATOM     40  C   UNL A   1      46.030  27.006  32.751  1.00  0.00     0.135 A 
ATOM     41  C   UNL A   1      46.870  28.188  30.832  1.00  0.00     0.135 A 
ATOM     42  F   UNL A   1      45.074  26.775  33.665  1.00  0.00    -0.206 F 
ATOM     43  C   UNL A   1      47.215  26.284  32.838  1.00  0.00     0.059 A 
ATOM     44  C   UNL A   1      48.056  27.460  30.887  1.00  0.00     0.059 A 
ATOM     45  F   UNL A   1      46.732  29.101  29.858  1.00  0.00    -0.206 F 
ATOM     46  C   UNL A   1      48.219  26.511  31.896  1.00  0.00     0.060 A 
BRANCH  46  47
ATOM     47  S   UNL A   1      49.726  25.522  31.992  1.00  0.00     0.124 S 
ATOM     48  O   UNL A   1      49.891  25.105  30.603  1.00  0.00    -0.237 OA
ATOM     49  O   UNL A   1      50.702  26.489  32.483  1.00  0.00    -0.237 OA
ATOM     50  O   UNL A   1      49.376  24.458  32.929  1.00  0.00    -0.744 OA
ENDBRANCH  46  47
ENDBRANCH  25  39
BRANCH  26  51
ATOM     51  C   UNL A   1      37.151  32.647  30.125  1.00  0.00     0.058 A 
ATOM     52  C   UNL A   1      37.089  33.662  29.158  1.00  0.00     0.135 A 
ATOM     53  C   UNL A   1      35.991  32.378  30.865  1.00  0.00     0.135 A 
ATOM     54  F   UNL A   1      38.176  33.961  28.430  1.00  0.00    -0.206 F 
ATOM     55  C   UNL A   1      35.932  34.406  28.954  1.00  0.00     0.059 A 
ATOM     56  C   UNL A   1      34.813  33.092  30.663  1.00  0.00     0.059 A 
ATOM     57  F   UNL A   1      35.993  31.408  31.793  1.00  0.00    -0.206 F 
ATOM     58  C   UNL A   1      34.799  34.116  29.716  1.00  0.00     0.060 A 
BRANCH  58  59
ATOM     59  S   UNL A   1      33.299  35.081  29.439  1.00  0.00     0.124 S 
ATOM     60  O   UNL A   1      32.609  34.272  28.442  1.00  0.00    -0.237 OA
ATOM     61  O   UNL A   1      32.699  35.106  30.770  1.00  0.00    -0.237 OA
ATOM     62  O   UNL A   1      33.810  36.365  28.968  1.00  0.00    -0.744 OA
ENDBRANCH  58  59
ENDBRANCH  26  51
BRANCH  38  63
ATOM     63  C   UNL A   1      42.822  34.148  33.874  1.00  0.00     0.058 A 
ATOM     64  C   UNL A   1      42.634  34.200  35.263  1.00  0.00     0.135 A 
ATOM     65  C   UNL A   1      43.435  35.247  33.250  1.00  0.00     0.135 A 
ATOM     66  F   UNL A   1      42.049  33.176  35.904  1.00  0.00    -0.206 F 
ATOM     67  C   UNL A   1      43.018  35.312  36.004  1.00  0.00     0.059 A 
ATOM     68  C   UNL A   1      43.849  36.360  33.976  1.00  0.00     0.059 A 
ATOM     69  F   UNL A   1      43.648  35.241  31.924  1.00  0.00    -0.206 F 
ATOM     70  C   UNL A   1      43.623  36.388  35.351  1.00  0.00     0.060 A 
BRANCH  70  71
ATOM     71  S   UNL A   1      44.135  37.817  36.329  1.00  0.00     0.124 S 
ATOM     72  O   UNL A   1      45.533  37.500  36.602  1.00  0.00    -0.237 OA
ATOM     73  O   UNL A   1      43.904  38.925  35.409  1.00  0.00    -0.237 OA
ATOM     74  O   UNL A   1      43.244  37.774  37.485  1.00  0.00    -0.744 OA
ENDBRANCH  70  71
ENDBRANCH  38  63
ENDBRANCH  12  13
ENDBRANCH   5   7
ENDBRANCH   2   3
ENDBRANCH   1   2
BRANCH   1  75
ATOM     75  C   UNL A   1      34.308  23.303  25.305  1.00  0.00     0.023 C 
BRANCH  75  76
ATOM     76  C   UNL A   1      33.074  23.670  24.460  1.00  0.00     0.116 C 
BRANCH  76  77
ATOM     77  N   UNL A   1      32.014  24.147  25.317  1.00  0.00    -0.355 N 
ATOM     78  C   UNL A   1      31.678  25.350  25.812  1.00  0.00     0.236 C 
ATOM     79  H   UNL A   1      31.400  23.430  25.603  1.00  0.00     0.163 HD
ATOM     80  O   UNL A   1      31.058  25.287  26.887  1.00  0.00    -0.274 OA
BRANCH  78  81
ATOM     81  C   UNL A   1      31.812  26.706  25.119  1.00  0.00     0.144 C 
ATOM     82  C   UNL A   1      33.311  26.816  24.780  1.00  0.00     0.253 C 
ATOM     83  C   UNL A   1      31.343  28.049  25.685  1.00  0.00     0.103 C 
ATOM     84  C   UNL A   1      30.937  26.565  23.843  1.00  0.00     0.283 C 
ATOM     85  O   UNL A   1      34.097  27.204  25.921  1.00  0.00    -0.492 OA
ATOM     86  C   UNL A   1      32.397  28.855  26.402  1.00  0.00     0.004 A 
ATOM     87  C   UNL A   1      30.976  28.845  24.413  1.00  0.00     0.272 C 
ATOM     88  N   UNL A   1      30.444  27.892  23.458  1.00  0.00    -0.331 N 
ATOM     89  C   UNL A   1      33.718  28.409  26.441  1.00  0.00     0.123 A 
ATOM     90  C   UNL A   1      32.099  30.134  26.907  1.00  0.00     0.008 A 
ATOM     91  H   UNL A   1      30.787  28.124  22.526  1.00  0.00     0.348 HD
ATOM     92  C   UNL A   1      34.721  29.201  26.999  1.00  0.00     0.047 A 
ATOM     93  C   UNL A   1      33.111  30.950  27.414  1.00  0.00     0.001 A 
ATOM     94  C   UNL A   1      34.422  30.483  27.463  1.00  0.00     0.004 A 
BRANCH  88  95
ATOM     95  C   UNL A   1      28.990  27.973  23.245  1.00  0.00     0.290 C 
BRANCH  95  96
ATOM     96  C   UNL A   1      28.414  29.211  22.528  1.00  0.00     0.217 C 
BRANCH  96  97
ATOM     97  O   UNL A   1      27.004  29.326  22.701  1.00  0.00    -0.391 OA
ATOM     98  H   UNL A   1      26.678  30.089  22.199  1.00  0.00     0.210 HD
ENDBRANCH  96  97
ENDBRANCH  95  96
ENDBRANCH  88  95
ENDBRANCH  78  81
ENDBRANCH  76  77
ENDBRANCH  75  76
ENDBRANCH   1  75
TORSDOF 17
ENDMDL
