MODEL 1
REMARK VINA RESULT:     -13.3      0.000      0.000
REMARK SMILES NS(=O)(=O)c1ccc(-c2cc(Cl)cc3c2O[C@H](C(F)(F)F)C(C(=O)NCCCCNC(=O)c2ccc(-c4c5nc(c(-c6c(F)cc(S(=O)(=O)[O-])cc6F)c6ccc([nH]6)c(-c6c(F)cc(S(=O)(=O)[O-])cc6F)c6nc(c(-c7c(F)cc(S(=O)(=O)[O-])cc7F)c7ccc4[nH]7)C=C6)C=C5)cc2)=C3)cc1
REMARK SMILES IDX 27 1 26 2 25 3 23 4 24 5 22 7 9 8 10 9 15 10 11 11 14 12
REMARK SMILES IDX 16 13 12 14 13 15 99 16 17 17 8 18 5 19 6 20 101 21 7 22
REMARK SMILES IDX 100 23 2 24 3 25 4 26 1 27 18 30 19 31 20 32 21 33 28 34
REMARK SMILES IDX 29 35 30 36 31 37 32 39 33 40 34 41 98 42 35 43 97 44 36 45
REMARK SMILES IDX 37 46 38 47 91 48 39 49 96 50 90 51 92 52 40 53 95 54 89 55
REMARK SMILES IDX 88 56 41 58 75 59 54 60 74 61 55 62 58 63 73 64 93 65 56 66
REMARK SMILES IDX 57 67 72 69 94 70 59 71 42 72 43 73 52 74 44 75 45 76 51 77
REMARK SMILES IDX 53 78 46 79 47 80 48 81 49 82 50 83 76 84 77 85 86 86 78 87
REMARK SMILES IDX 79 88 85 89 87 90 80 91 81 92 82 93 83 94 84 95 60 96 61 97
REMARK SMILES IDX 70 98 62 99 63 100 69 101 71 102 64 103 65 104 66 105 67 106
REMARK SMILES IDX 68 107
REMARK H PARENT 25 6 1 28 1 29 30 38 92 57 58 68
REMARK Flexibility Score: inf
ROOT
ATOM      1  C   UNL A   1      37.528  22.216  25.858  1.00  0.00     0.023 C 
ENDROOT
BRANCH   1   2
ATOM      2  C   UNL A   1      36.027  22.321  25.548  1.00  0.00     0.116 C 
BRANCH   2   3
ATOM      3  N   UNL A   1      35.538  23.623  25.946  1.00  0.00    -0.352 N 
ATOM      4  C   UNL A   1      34.636  24.425  25.336  1.00  0.00     0.251 C 
ATOM      5  O   UNL A   1      34.775  25.639  25.436  1.00  0.00    -0.270 OA
ATOM      6  H   UNL A   1      35.917  23.977  26.783  1.00  0.00     0.163 HD
BRANCH   4   7
ATOM      7  C   UNL A   1      33.449  23.796  24.680  1.00  0.00     0.067 C 
ATOM      8  C   UNL A   1      31.150  27.131  24.227  1.00  0.00     0.026 A 
ATOM      9  C   UNL A   1      31.230  27.830  25.462  1.00  0.00     0.033 A 
ATOM     10  C   UNL A   1      31.626  25.805  24.236  1.00  0.00     0.135 A 
ATOM     11  C   UNL A   1      31.572  27.209  26.661  1.00  0.00     0.042 A 
ATOM     12  C   UNL A   1      31.845  25.162  25.482  1.00  0.00     0.019 A 
ATOM     13  O   UNL A   1      31.964  25.099  23.087  1.00  0.00    -0.475 OA
ATOM     14  Cl  UNL A   1      31.676  28.137  28.102  1.00  0.00    -0.084 Cl
ATOM     15  C   UNL A   1      31.799  25.850  26.692  1.00  0.00     0.032 A 
ATOM     16  C   UNL A   1      32.357  23.774  25.468  1.00  0.00     0.025 C 
ATOM     17  C   UNL A   1      33.186  24.239  23.246  1.00  0.00     0.314 C 
BRANCH   8  18
ATOM     18  C   UNL A   1      30.344  27.833  23.183  1.00  0.00    -0.015 A 
ATOM     19  C   UNL A   1      28.905  30.046  22.147  1.00  0.00     0.082 A 
ATOM     20  C   UNL A   1      30.254  29.896  21.836  1.00  0.00     0.022 A 
ATOM     21  C   UNL A   1      28.235  29.037  22.846  1.00  0.00     0.022 A 
ATOM     22  C   UNL A   1      30.957  28.782  22.328  1.00  0.00     0.010 A 
ATOM     23  C   UNL A   1      28.950  27.936  23.352  1.00  0.00     0.010 A 
BRANCH  19  24
ATOM     24  S   UNL A   1      28.031  31.544  21.780  1.00  0.00     0.238 S 
ATOM     25  O   UNL A   1      27.125  31.825  22.866  1.00  0.00    -0.207 OA
ATOM     26  O   UNL A   1      27.599  31.502  20.400  1.00  0.00    -0.207 OA
BRANCH  24  27
ATOM     27  N   UNL A   1      29.186  32.766  21.840  1.00  0.00    -0.225 NA
ATOM     28  H   UNL A   1      30.100  32.361  22.044  1.00  0.00     0.137 HD
ATOM     29  H   UNL A   1      28.939  33.432  22.572  1.00  0.00     0.137 HD
ENDBRANCH  24  27
ENDBRANCH  19  24
ENDBRANCH   8  18
BRANCH  17  30
ATOM     30  C   UNL A   1      33.119  22.968  22.366  1.00  0.00     0.429 C 
ATOM     31  F   UNL A   1      33.211  23.240  21.045  1.00  0.00    -0.167 F 
ATOM     32  F   UNL A   1      34.113  22.101  22.677  1.00  0.00    -0.167 F 
ATOM     33  F   UNL A   1      31.957  22.279  22.534  1.00  0.00    -0.167 F 
ENDBRANCH  17  30
ENDBRANCH   4   7
ENDBRANCH   2   3
ENDBRANCH   1   2
BRANCH   1  34
ATOM     34  C   UNL A   1      38.232  23.550  26.147  1.00  0.00     0.023 C 
BRANCH  34  35
ATOM     35  C   UNL A   1      39.536  23.432  26.925  1.00  0.00     0.116 C 
BRANCH  35  36
ATOM     36  N   UNL A   1      40.684  23.806  26.116  1.00  0.00    -0.352 N 
ATOM     37  C   UNL A   1      41.498  24.909  26.220  1.00  0.00     0.251 C 
ATOM     38  H   UNL A   1      40.913  23.180  25.391  1.00  0.00     0.163 HD
ATOM     39  O   UNL A   1      42.293  25.167  25.322  1.00  0.00    -0.269 OA
BRANCH  37  40
ATOM     40  C   UNL A   1      41.392  25.793  27.402  1.00  0.00     0.039 A 
ATOM     41  C   UNL A   1      42.363  26.776  27.602  1.00  0.00     0.014 A 
ATOM     42  C   UNL A   1      40.335  25.657  28.306  1.00  0.00     0.014 A 
ATOM     43  C   UNL A   1      42.235  27.668  28.671  1.00  0.00     0.010 A 
ATOM     44  C   UNL A   1      40.167  26.594  29.324  1.00  0.00     0.010 A 
ATOM     45  C   UNL A   1      41.115  27.611  29.518  1.00  0.00    -0.014 A 
BRANCH  45  46
ATOM     46  C   UNL A   1      40.919  28.604  30.607  1.00  0.00     0.031 A 
ATOM     47  C   UNL A   1      41.746  28.522  31.864  1.00  0.00     0.074 A 
ATOM     48  C   UNL A   1      39.963  29.549  30.489  1.00  0.00     0.049 A 
ATOM     49  N   UNL A   1      41.667  29.242  32.953  1.00  0.00    -0.248 NA
ATOM     50  C   UNL A   1      42.785  27.479  31.912  1.00  0.00     0.031 C 
ATOM     51  C   UNL A   1      39.068  29.708  29.339  1.00  0.00     0.029 A 
ATOM     52  N   UNL A   1      39.573  30.547  31.348  1.00  0.00    -0.354 N 
ATOM     53  C   UNL A   1      42.641  28.744  33.811  1.00  0.00     0.074 A 
ATOM     54  C   UNL A   1      43.256  27.618  33.143  1.00  0.00     0.031 C 
ATOM     55  C   UNL A   1      38.250  30.751  29.557  1.00  0.00     0.029 A 
ATOM     56  C   UNL A   1      38.527  31.308  30.877  1.00  0.00     0.049 A 
ATOM     57  H   UNL A   1      40.002  30.703  32.220  1.00  0.00     0.167 HD
ATOM     58  C   UNL A   1      43.012  29.203  35.030  1.00  0.00     0.037 A 
ATOM     59  C   UNL A   1      37.857  32.328  31.449  1.00  0.00     0.037 A 
ATOM     60  C   UNL A   1      42.409  30.334  35.684  1.00  0.00     0.049 A 
ATOM     61  C   UNL A   1      38.268  32.792  32.823  1.00  0.00     0.074 A 
ATOM     62  C   UNL A   1      42.733  30.891  36.910  1.00  0.00     0.029 A 
ATOM     63  N   UNL A   1      41.365  31.088  35.168  1.00  0.00    -0.354 N 
ATOM     64  N   UNL A   1      39.227  32.339  33.597  1.00  0.00    -0.248 NA
ATOM     65  C   UNL A   1      37.512  33.913  33.402  1.00  0.00     0.031 C 
ATOM     66  C   UNL A   1      41.856  31.953  37.154  1.00  0.00     0.029 A 
ATOM     67  C   UNL A   1      41.025  32.095  36.055  1.00  0.00     0.049 A 
ATOM     68  H   UNL A   1      40.930  30.929  34.298  1.00  0.00     0.167 HD
ATOM     69  C   UNL A   1      39.211  33.143  34.731  1.00  0.00     0.074 A 
ATOM     70  C   UNL A   1      38.161  34.120  34.538  1.00  0.00     0.031 C 
ATOM     71  C   UNL A   1      39.994  33.078  35.837  1.00  0.00     0.037 A 
BRANCH  58  72
ATOM     72  C   UNL A   1      44.144  28.504  35.732  1.00  0.00     0.058 A 
ATOM     73  C   UNL A   1      43.909  27.436  36.612  1.00  0.00     0.135 A 
ATOM     74  C   UNL A   1      45.480  28.845  35.462  1.00  0.00     0.135 A 
ATOM     75  F   UNL A   1      42.652  27.078  36.921  1.00  0.00    -0.206 F 
ATOM     76  C   UNL A   1      44.954  26.737  37.205  1.00  0.00     0.059 A 
ATOM     77  C   UNL A   1      46.542  28.142  36.022  1.00  0.00     0.059 A 
ATOM     78  F   UNL A   1      45.763  29.861  34.630  1.00  0.00    -0.206 F 
ATOM     79  C   UNL A   1      46.268  27.090  36.895  1.00  0.00     0.060 A 
BRANCH  79  80
ATOM     80  S   UNL A   1      47.610  26.138  37.638  1.00  0.00     0.124 S 
ATOM     81  O   UNL A   1      48.101  27.068  38.651  1.00  0.00    -0.237 OA
ATOM     82  O   UNL A   1      46.910  24.961  38.144  1.00  0.00    -0.237 OA
ATOM     83  O   UNL A   1      48.516  25.895  36.520  1.00  0.00    -0.744 OA
ENDBRANCH  79  80
ENDBRANCH  58  72
BRANCH  59  84
ATOM     84  C   UNL A   1      36.722  32.984  30.741  1.00  0.00     0.058 A 
ATOM     85  C   UNL A   1      36.947  33.959  29.756  1.00  0.00     0.135 A 
ATOM     86  C   UNL A   1      35.390  32.688  31.070  1.00  0.00     0.135 A 
ATOM     87  F   UNL A   1      38.201  34.282  29.406  1.00  0.00    -0.206 F 
ATOM     88  C   UNL A   1      35.898  34.651  29.160  1.00  0.00     0.059 A 
ATOM     89  C   UNL A   1      34.322  33.341  30.462  1.00  0.00     0.059 A 
ATOM     90  F   UNL A   1      35.116  31.749  31.988  1.00  0.00    -0.206 F 
ATOM     91  C   UNL A   1      34.587  34.339  29.526  1.00  0.00     0.060 A 
BRANCH  91  92
ATOM     92  S   UNL A   1      33.231  35.252  28.758  1.00  0.00     0.124 S 
ATOM     93  O   UNL A   1      33.955  36.244  27.971  1.00  0.00    -0.237 OA
ATOM     94  O   UNL A   1      32.550  34.207  28.001  1.00  0.00    -0.237 OA
ATOM     95  O   UNL A   1      32.488  35.773  29.902  1.00  0.00    -0.744 OA
ENDBRANCH  91  92
ENDBRANCH  59  84
BRANCH  71  96
ATOM     96  C   UNL A   1      39.790  34.124  36.899  1.00  0.00     0.058 A 
ATOM     97  C   UNL A   1      38.956  33.905  38.006  1.00  0.00     0.135 A 
ATOM     98  C   UNL A   1      40.483  35.345  36.832  1.00  0.00     0.135 A 
ATOM     99  F   UNL A   1      38.265  32.759  38.116  1.00  0.00    -0.206 F 
ATOM    100  C   UNL A   1      38.794  34.870  38.995  1.00  0.00     0.059 A 
ATOM    101  C   UNL A   1      40.363  36.309  37.827  1.00  0.00     0.059 A 
ATOM    102  F   UNL A   1      41.304  35.601  35.800  1.00  0.00    -0.206 F 
ATOM    103  C   UNL A   1      39.506  36.067  38.899  1.00  0.00     0.060 A 
BRANCH 103 104
ATOM    104  S   UNL A   1      39.316  37.293  40.210  1.00  0.00     0.124 S 
ATOM    105  O   UNL A   1      40.701  37.693  40.443  1.00  0.00    -0.237 OA
ATOM    106  O   UNL A   1      38.465  38.296  39.577  1.00  0.00    -0.237 OA
ATOM    107  O   UNL A   1      38.689  36.541  41.293  1.00  0.00    -0.744 OA
ENDBRANCH 103 104
ENDBRANCH  71  96
ENDBRANCH  45  46
ENDBRANCH  37  40
ENDBRANCH  35  36
ENDBRANCH  34  35
ENDBRANCH   1  34
TORSDOF 18
ENDMDL
MODEL 2
REMARK VINA RESULT:     -13.2      6.742     12.119
REMARK SMILES NS(=O)(=O)c1ccc(-c2cc(Cl)cc3c2O[C@H](C(F)(F)F)C(C(=O)NCCCCNC(=O)c2ccc(-c4c5nc(c(-c6c(F)cc(S(=O)(=O)[O-])cc6F)c6ccc([nH]6)c(-c6c(F)cc(S(=O)(=O)[O-])cc6F)c6nc(c(-c7c(F)cc(S(=O)(=O)[O-])cc7F)c7ccc4[nH]7)C=C6)C=C5)cc2)=C3)cc1
REMARK SMILES IDX 27 1 26 2 25 3 23 4 24 5 22 7 9 8 10 9 15 10 11 11 14 12
REMARK SMILES IDX 16 13 12 14 13 15 99 16 17 17 8 18 5 19 6 20 101 21 7 22
REMARK SMILES IDX 100 23 2 24 3 25 4 26 1 27 18 30 19 31 20 32 21 33 28 34
REMARK SMILES IDX 29 35 30 36 31 37 32 39 33 40 34 41 98 42 35 43 97 44 36 45
REMARK SMILES IDX 37 46 38 47 91 48 39 49 96 50 90 51 92 52 40 53 95 54 89 55
REMARK SMILES IDX 88 56 41 58 75 59 54 60 74 61 55 62 58 63 73 64 93 65 56 66
REMARK SMILES IDX 57 67 72 69 94 70 59 71 42 72 43 73 52 74 44 75 45 76 51 77
REMARK SMILES IDX 53 78 46 79 47 80 48 81 49 82 50 83 76 84 77 85 86 86 78 87
REMARK SMILES IDX 79 88 85 89 87 90 80 91 81 92 82 93 83 94 84 95 60 96 61 97
REMARK SMILES IDX 70 98 62 99 63 100 69 101 71 102 64 103 65 104 66 105 67 106
REMARK SMILES IDX 68 107
REMARK H PARENT 25 6 1 28 1 29 30 38 92 57 58 68
REMARK Flexibility Score: inf
ROOT
ATOM      1  C   UNL A   1      32.913  29.619  26.871  1.00  0.00     0.023 C 
ENDROOT
BRANCH   1   2
ATOM      2  C   UNL A   1      33.043  29.055  25.449  1.00  0.00     0.116 C 
BRANCH   2   3
ATOM      3  N   UNL A   1      33.891  27.882  25.466  1.00  0.00    -0.352 N 
ATOM      4  C   UNL A   1      33.548  26.576  25.522  1.00  0.00     0.251 C 
ATOM      5  O   UNL A   1      34.298  25.802  26.108  1.00  0.00    -0.270 OA
ATOM      6  H   UNL A   1      34.858  28.063  25.431  1.00  0.00     0.163 HD
BRANCH   4   7
ATOM      7  C   UNL A   1      32.343  26.119  24.764  1.00  0.00     0.067 C 
ATOM      8  C   UNL A   1      33.313  22.180  24.371  1.00  0.00     0.026 A 
ATOM      9  C   UNL A   1      34.682  22.152  23.986  1.00  0.00     0.033 A 
ATOM     10  C   UNL A   1      32.674  23.432  24.286  1.00  0.00     0.135 A 
ATOM     11  C   UNL A   1      35.318  23.232  23.381  1.00  0.00     0.042 A 
ATOM     12  C   UNL A   1      33.298  24.475  23.553  1.00  0.00     0.019 A 
ATOM     13  O   UNL A   1      31.486  23.737  24.941  1.00  0.00    -0.475 OA
ATOM     14  Cl  UNL A   1      36.984  23.124  22.979  1.00  0.00    -0.084 Cl
ATOM     15  C   UNL A   1      34.604  24.374  23.083  1.00  0.00     0.032 A 
ATOM     16  C   UNL A   1      32.615  25.785  23.488  1.00  0.00     0.025 C 
ATOM     17  C   UNL A   1      31.447  25.131  25.501  1.00  0.00     0.314 C 
BRANCH   8  18
ATOM     18  C   UNL A   1      32.709  20.827  24.563  1.00  0.00    -0.015 A 
ATOM     19  C   UNL A   1      32.816  17.998  24.731  1.00  0.00     0.082 A 
ATOM     20  C   UNL A   1      32.916  18.761  25.892  1.00  0.00     0.022 A 
ATOM     21  C   UNL A   1      32.523  18.620  23.513  1.00  0.00     0.022 A 
ATOM     22  C   UNL A   1      32.833  20.162  25.808  1.00  0.00     0.010 A 
ATOM     23  C   UNL A   1      32.462  20.023  23.434  1.00  0.00     0.010 A 
BRANCH  19  24
ATOM     24  S   UNL A   1      33.166  16.260  24.731  1.00  0.00     0.238 S 
ATOM     25  O   UNL A   1      33.553  15.870  23.397  1.00  0.00    -0.207 OA
ATOM     26  O   UNL A   1      32.125  15.578  25.468  1.00  0.00    -0.207 OA
BRANCH  24  27
ATOM     27  N   UNL A   1      34.553  16.080  25.665  1.00  0.00    -0.225 NA
ATOM     28  H   UNL A   1      34.491  16.683  26.487  1.00  0.00     0.137 HD
ATOM     29  H   UNL A   1      35.371  16.341  25.114  1.00  0.00     0.137 HD
ENDBRANCH  24  27
ENDBRANCH  19  24
ENDBRANCH   8  18
BRANCH  17  30
ATOM     30  C   UNL A   1      30.012  25.713  25.508  1.00  0.00     0.429 C 
ATOM     31  F   UNL A   1      29.335  25.450  24.367  1.00  0.00    -0.167 F 
ATOM     32  F   UNL A   1      29.286  25.220  26.540  1.00  0.00    -0.167 F 
ATOM     33  F   UNL A   1      30.001  27.066  25.655  1.00  0.00    -0.167 F 
ENDBRANCH  17  30
ENDBRANCH   4   7
ENDBRANCH   2   3
ENDBRANCH   1   2
BRANCH   1  34
ATOM     34  C   UNL A   1      33.974  30.657  27.264  1.00  0.00     0.023 C 
BRANCH  34  35
ATOM     35  C   UNL A   1      35.170  30.098  28.024  1.00  0.00     0.116 C 
BRANCH  35  36
ATOM     36  N   UNL A   1      35.272  30.660  29.361  1.00  0.00    -0.352 N 
ATOM     37  C   UNL A   1      36.305  30.571  30.263  1.00  0.00     0.251 C 
ATOM     38  H   UNL A   1      34.491  31.179  29.662  1.00  0.00     0.163 HD
ATOM     39  O   UNL A   1      36.135  30.932  31.423  1.00  0.00    -0.269 OA
BRANCH  37  40
ATOM     40  C   UNL A   1      37.608  30.014  29.838  1.00  0.00     0.039 A 
ATOM     41  C   UNL A   1      38.019  30.183  28.514  1.00  0.00     0.014 A 
ATOM     42  C   UNL A   1      38.426  29.331  30.743  1.00  0.00     0.014 A 
ATOM     43  C   UNL A   1      39.279  29.730  28.117  1.00  0.00     0.010 A 
ATOM     44  C   UNL A   1      39.712  28.949  30.366  1.00  0.00     0.010 A 
ATOM     45  C   UNL A   1      40.154  29.144  29.048  1.00  0.00    -0.014 A 
BRANCH  45  46
ATOM     46  C   UNL A   1      41.530  28.734  28.663  1.00  0.00     0.031 A 
ATOM     47  C   UNL A   1      42.635  29.756  28.598  1.00  0.00     0.074 A 
ATOM     48  C   UNL A   1      41.776  27.451  28.322  1.00  0.00     0.049 A 
ATOM     49  N   UNL A   1      43.874  29.608  28.207  1.00  0.00    -0.248 NA
ATOM     50  C   UNL A   1      42.297  31.130  29.005  1.00  0.00     0.031 C 
ATOM     51  C   UNL A   1      40.782  26.374  28.305  1.00  0.00     0.029 A 
ATOM     52  N   UNL A   1      42.934  26.835  27.913  1.00  0.00    -0.354 N 
ATOM     53  C   UNL A   1      44.462  30.863  28.323  1.00  0.00     0.074 A 
ATOM     54  C   UNL A   1      43.428  31.775  28.758  1.00  0.00     0.031 C 
ATOM     55  C   UNL A   1      41.376  25.231  27.925  1.00  0.00     0.029 A 
ATOM     56  C   UNL A   1      42.780  25.498  27.628  1.00  0.00     0.049 A 
ATOM     57  H   UNL A   1      43.793  27.307  27.832  1.00  0.00     0.167 HD
ATOM     58  C   UNL A   1      45.753  31.217  28.117  1.00  0.00     0.037 A 
ATOM     59  C   UNL A   1      43.664  24.592  27.164  1.00  0.00     0.037 A 
ATOM     60  C   UNL A   1      46.784  30.302  27.701  1.00  0.00     0.049 A 
ATOM     61  C   UNL A   1      45.085  25.024  26.908  1.00  0.00     0.074 A 
ATOM     62  C   UNL A   1      48.128  30.561  27.489  1.00  0.00     0.029 A 
ATOM     63  N   UNL A   1      46.591  28.954  27.438  1.00  0.00    -0.354 N 
ATOM     64  N   UNL A   1      45.633  26.206  27.073  1.00  0.00    -0.248 NA
ATOM     65  C   UNL A   1      46.014  23.998  26.411  1.00  0.00     0.031 C 
ATOM     66  C   UNL A   1      48.738  29.380  27.057  1.00  0.00     0.029 A 
ATOM     67  C   UNL A   1      47.788  28.372  27.055  1.00  0.00     0.049 A 
ATOM     68  H   UNL A   1      45.731  28.481  27.513  1.00  0.00     0.167 HD
ATOM     69  C   UNL A   1      46.973  26.053  26.736  1.00  0.00     0.074 A 
ATOM     70  C   UNL A   1      47.159  24.664  26.374  1.00  0.00     0.031 C 
ATOM     71  C   UNL A   1      47.964  26.980  26.725  1.00  0.00     0.037 A 
BRANCH  58  72
ATOM     72  C   UNL A   1      46.140  32.649  28.367  1.00  0.00     0.058 A 
ATOM     73  C   UNL A   1      46.617  33.068  29.619  1.00  0.00     0.135 A 
ATOM     74  C   UNL A   1      46.115  33.594  27.328  1.00  0.00     0.135 A 
ATOM     75  F   UNL A   1      46.646  32.212  30.653  1.00  0.00    -0.206 F 
ATOM     76  C   UNL A   1      47.048  34.372  29.835  1.00  0.00     0.059 A 
ATOM     77  C   UNL A   1      46.567  34.897  27.514  1.00  0.00     0.059 A 
ATOM     78  F   UNL A   1      45.665  33.248  26.111  1.00  0.00    -0.206 F 
ATOM     79  C   UNL A   1      47.029  35.277  28.773  1.00  0.00     0.060 A 
BRANCH  79  80
ATOM     80  S   UNL A   1      47.638  36.952  29.062  1.00  0.00     0.124 S 
ATOM     81  O   UNL A   1      48.053  36.874  30.459  1.00  0.00    -0.237 OA
ATOM     82  O   UNL A   1      48.717  37.062  28.086  1.00  0.00    -0.237 OA
ATOM     83  O   UNL A   1      46.471  37.789  28.802  1.00  0.00    -0.744 OA
ENDBRANCH  79  80
ENDBRANCH  58  72
BRANCH  59  84
ATOM     84  C   UNL A   1      43.245  23.186  26.901  1.00  0.00     0.058 A 
ATOM     85  C   UNL A   1      43.008  22.289  27.954  1.00  0.00     0.135 A 
ATOM     86  C   UNL A   1      43.124  22.697  25.591  1.00  0.00     0.135 A 
ATOM     87  F   UNL A   1      43.113  22.705  29.225  1.00  0.00    -0.206 F 
ATOM     88  C   UNL A   1      42.715  20.950  27.721  1.00  0.00     0.059 A 
ATOM     89  C   UNL A   1      42.798  21.369  25.331  1.00  0.00     0.059 A 
ATOM     90  F   UNL A   1      43.318  23.515  24.545  1.00  0.00    -0.206 F 
ATOM     91  C   UNL A   1      42.620  20.497  26.405  1.00  0.00     0.060 A 
BRANCH  91  92
ATOM     92  S   UNL A   1      42.254  18.753  26.110  1.00  0.00     0.124 S 
ATOM     93  O   UNL A   1      40.854  18.813  25.706  1.00  0.00    -0.237 OA
ATOM     94  O   UNL A   1      43.209  18.413  25.060  1.00  0.00    -0.237 OA
ATOM     95  O   UNL A   1      42.511  18.134  27.407  1.00  0.00    -0.744 OA
ENDBRANCH  91  92
ENDBRANCH  59  84
BRANCH  71  96
ATOM     96  C   UNL A   1      49.349  26.516  26.366  1.00  0.00     0.058 A 
ATOM     97  C   UNL A   1      49.911  26.760  25.104  1.00  0.00     0.135 A 
ATOM     98  C   UNL A   1      50.146  25.863  27.322  1.00  0.00     0.135 A 
ATOM     99  F   UNL A   1      49.191  27.374  24.151  1.00  0.00    -0.206 F 
ATOM    100  C   UNL A   1      51.202  26.349  24.791  1.00  0.00     0.059 A 
ATOM    101  C   UNL A   1      51.452  25.474  27.043  1.00  0.00     0.059 A 
ATOM    102  F   UNL A   1      49.662  25.615  28.550  1.00  0.00    -0.206 F 
ATOM    103  C   UNL A   1      51.967  25.711  25.770  1.00  0.00     0.060 A 
BRANCH 103 104
ATOM    104  S   UNL A   1      53.655  25.218  25.363  1.00  0.00     0.124 S 
ATOM    105  O   UNL A   1      54.425  25.949  26.364  1.00  0.00    -0.237 OA
ATOM    106  O   UNL A   1      53.606  23.769  25.534  1.00  0.00    -0.237 OA
ATOM    107  O   UNL A   1      53.821  25.675  23.986  1.00  0.00    -0.744 OA
ENDBRANCH 103 104
ENDBRANCH  71  96
ENDBRANCH  45  46
ENDBRANCH  37  40
ENDBRANCH  35  36
ENDBRANCH  34  35
ENDBRANCH   1  34
TORSDOF 18
ENDMDL
MODEL 3
REMARK VINA RESULT:     -13.0      6.761     12.083
REMARK SMILES NS(=O)(=O)c1ccc(-c2cc(Cl)cc3c2O[C@H](C(F)(F)F)C(C(=O)NCCCCNC(=O)c2ccc(-c4c5nc(c(-c6c(F)cc(S(=O)(=O)[O-])cc6F)c6ccc([nH]6)c(-c6c(F)cc(S(=O)(=O)[O-])cc6F)c6nc(c(-c7c(F)cc(S(=O)(=O)[O-])cc7F)c7ccc4[nH]7)C=C6)C=C5)cc2)=C3)cc1
REMARK SMILES IDX 27 1 26 2 25 3 23 4 24 5 22 7 9 8 10 9 15 10 11 11 14 12
REMARK SMILES IDX 16 13 12 14 13 15 99 16 17 17 8 18 5 19 6 20 101 21 7 22
REMARK SMILES IDX 100 23 2 24 3 25 4 26 1 27 18 30 19 31 20 32 21 33 28 34
REMARK SMILES IDX 29 35 30 36 31 37 32 39 33 40 34 41 98 42 35 43 97 44 36 45
REMARK SMILES IDX 37 46 38 47 91 48 39 49 96 50 90 51 92 52 40 53 95 54 89 55
REMARK SMILES IDX 88 56 41 58 75 59 54 60 74 61 55 62 58 63 73 64 93 65 56 66
REMARK SMILES IDX 57 67 72 69 94 70 59 71 42 72 43 73 52 74 44 75 45 76 51 77
REMARK SMILES IDX 53 78 46 79 47 80 48 81 49 82 50 83 76 84 77 85 86 86 78 87
REMARK SMILES IDX 79 88 85 89 87 90 80 91 81 92 82 93 83 94 84 95 60 96 61 97
REMARK SMILES IDX 70 98 62 99 63 100 69 101 71 102 64 103 65 104 66 105 67 106
REMARK SMILES IDX 68 107
REMARK H PARENT 25 6 1 28 1 29 30 38 92 57 58 68
REMARK Flexibility Score: inf
ROOT
ATOM      1  C   UNL A   1      33.648  28.989  25.595  1.00  0.00     0.023 C 
ENDROOT
BRANCH   1   2
ATOM      2  C   UNL A   1      33.960  27.502  25.817  1.00  0.00     0.116 C 
BRANCH   2   3
ATOM      3  N   UNL A   1      33.440  26.726  24.713  1.00  0.00    -0.352 N 
ATOM      4  C   UNL A   1      34.028  25.731  24.010  1.00  0.00     0.251 C 
ATOM      5  O   UNL A   1      33.744  25.609  22.824  1.00  0.00    -0.270 OA
ATOM      6  H   UNL A   1      32.525  26.954  24.432  1.00  0.00     0.163 HD
BRANCH   4   7
ATOM      7  C   UNL A   1      34.895  24.756  24.740  1.00  0.00     0.067 C 
ATOM      8  C   UNL A   1      32.187  21.747  25.208  1.00  0.00     0.026 A 
ATOM      9  C   UNL A   1      30.980  22.370  25.631  1.00  0.00     0.033 A 
ATOM     10  C   UNL A   1      33.345  22.546  25.261  1.00  0.00     0.135 A 
ATOM     11  C   UNL A   1      30.950  23.621  26.240  1.00  0.00     0.042 A 
ATOM     12  C   UNL A   1      33.312  23.758  25.997  1.00  0.00     0.019 A 
ATOM     13  O   UNL A   1      34.516  22.252  24.570  1.00  0.00    -0.475 OA
ATOM     14  Cl  UNL A   1      29.445  24.315  26.689  1.00  0.00    -0.084 Cl
ATOM     15  C   UNL A   1      32.128  24.287  26.504  1.00  0.00     0.032 A 
ATOM     16  C   UNL A   1      34.536  24.587  26.028  1.00  0.00     0.025 C 
ATOM     17  C   UNL A   1      35.194  23.462  23.992  1.00  0.00     0.314 C 
BRANCH   8  18
ATOM     18  C   UNL A   1      32.072  20.269  25.016  1.00  0.00    -0.015 A 
ATOM     19  C   UNL A   1      33.130  17.676  24.568  1.00  0.00     0.082 A 
ATOM     20  C   UNL A   1      32.905  18.112  25.872  1.00  0.00     0.022 A 
ATOM     21  C   UNL A   1      32.704  18.458  23.490  1.00  0.00     0.022 A 
ATOM     22  C   UNL A   1      32.353  19.387  26.088  1.00  0.00     0.010 A 
ATOM     23  C   UNL A   1      32.171  19.740  23.715  1.00  0.00     0.010 A 
BRANCH  19  24
ATOM     24  S   UNL A   1      34.052  16.200  24.231  1.00  0.00     0.238 S 
ATOM     25  O   UNL A   1      34.449  16.214  22.845  1.00  0.00    -0.207 OA
ATOM     26  O   UNL A   1      33.365  15.078  24.831  1.00  0.00    -0.207 OA
BRANCH  24  27
ATOM     27  N   UNL A   1      35.483  16.354  25.103  1.00  0.00    -0.225 NA
ATOM     28  H   UNL A   1      35.545  17.296  25.492  1.00  0.00     0.137 HD
ATOM     29  H   UNL A   1      36.277  16.188  24.485  1.00  0.00     0.137 HD
ENDBRANCH  24  27
ENDBRANCH  19  24
ENDBRANCH   8  18
BRANCH  17  30
ATOM     30  C   UNL A   1      36.732  23.295  23.939  1.00  0.00     0.429 C 
ATOM     31  F   UNL A   1      37.256  23.650  22.744  1.00  0.00    -0.167 F 
ATOM     32  F   UNL A   1      37.341  24.042  24.892  1.00  0.00    -0.167 F 
ATOM     33  F   UNL A   1      37.124  22.012  24.162  1.00  0.00    -0.167 F 
ENDBRANCH  17  30
ENDBRANCH   4   7
ENDBRANCH   2   3
ENDBRANCH   1   2
BRANCH   1  34
ATOM     34  C   UNL A   1      33.835  29.889  26.826  1.00  0.00     0.023 C 
BRANCH  34  35
ATOM     35  C   UNL A   1      35.047  29.557  27.686  1.00  0.00     0.116 C 
BRANCH  35  36
ATOM     36  N   UNL A   1      35.149  30.436  28.839  1.00  0.00    -0.352 N 
ATOM     37  C   UNL A   1      36.208  30.624  29.696  1.00  0.00     0.251 C 
ATOM     38  H   UNL A   1      34.348  30.974  29.034  1.00  0.00     0.163 HD
ATOM     39  O   UNL A   1      36.045  31.252  30.737  1.00  0.00    -0.269 OA
BRANCH  37  40
ATOM     40  C   UNL A   1      37.530  30.046  29.371  1.00  0.00     0.039 A 
ATOM     41  C   UNL A   1      37.939  29.993  28.037  1.00  0.00     0.014 A 
ATOM     42  C   UNL A   1      38.368  29.561  30.380  1.00  0.00     0.014 A 
ATOM     43  C   UNL A   1      39.215  29.520  27.722  1.00  0.00     0.010 A 
ATOM     44  C   UNL A   1      39.667  29.162  30.072  1.00  0.00     0.010 A 
ATOM     45  C   UNL A   1      40.106  29.137  28.739  1.00  0.00    -0.014 A 
BRANCH  45  46
ATOM     46  C   UNL A   1      41.497  28.712  28.428  1.00  0.00     0.031 A 
ATOM     47  C   UNL A   1      42.609  29.728  28.390  1.00  0.00     0.074 A 
ATOM     48  C   UNL A   1      41.752  27.420  28.130  1.00  0.00     0.049 A 
ATOM     49  N   UNL A   1      43.864  29.566  28.061  1.00  0.00    -0.248 NA
ATOM     50  C   UNL A   1      42.259  31.113  28.748  1.00  0.00     0.031 C 
ATOM     51  C   UNL A   1      40.754  26.347  28.092  1.00  0.00     0.029 A 
ATOM     52  N   UNL A   1      42.923  26.790  27.790  1.00  0.00    -0.354 N 
ATOM     53  C   UNL A   1      44.452  30.820  28.174  1.00  0.00     0.074 A 
ATOM     54  C   UNL A   1      43.404  31.747  28.539  1.00  0.00     0.031 C 
ATOM     55  C   UNL A   1      41.359  25.192  27.768  1.00  0.00     0.029 A 
ATOM     56  C   UNL A   1      42.776  25.447  27.530  1.00  0.00     0.049 A 
ATOM     57  H   UNL A   1      43.789  27.256  27.737  1.00  0.00     0.167 HD
ATOM     58  C   UNL A   1      45.753  31.164  28.020  1.00  0.00     0.037 A 
ATOM     59  C   UNL A   1      43.676  24.527  27.129  1.00  0.00     0.037 A 
ATOM     60  C   UNL A   1      46.797  30.236  27.673  1.00  0.00     0.049 A 
ATOM     61  C   UNL A   1      45.110  24.946  26.929  1.00  0.00     0.074 A 
ATOM     62  C   UNL A   1      48.151  30.483  27.518  1.00  0.00     0.029 A 
ATOM     63  N   UNL A   1      46.610  28.882  27.435  1.00  0.00    -0.354 N 
ATOM     64  N   UNL A   1      45.655  26.129  27.091  1.00  0.00    -0.248 NA
ATOM     65  C   UNL A   1      46.056  23.906  26.500  1.00  0.00     0.031 C 
ATOM     66  C   UNL A   1      48.775  29.290  27.143  1.00  0.00     0.029 A 
ATOM     67  C   UNL A   1      47.820  28.286  27.122  1.00  0.00     0.049 A 
ATOM     68  H   UNL A   1      45.745  28.414  27.481  1.00  0.00     0.167 HD
ATOM     69  C   UNL A   1      47.009  25.964  26.820  1.00  0.00     0.074 A 
ATOM     70  C   UNL A   1      47.205  24.566  26.501  1.00  0.00     0.031 C 
ATOM     71  C   UNL A   1      48.004  26.886  26.833  1.00  0.00     0.037 A 
BRANCH  58  72
ATOM     72  C   UNL A   1      46.136  32.600  28.253  1.00  0.00     0.058 A 
ATOM     73  C   UNL A   1      46.116  33.540  27.210  1.00  0.00     0.135 A 
ATOM     74  C   UNL A   1      46.444  33.063  29.544  1.00  0.00     0.135 A 
ATOM     75  F   UNL A   1      45.846  33.149  25.954  1.00  0.00    -0.206 F 
ATOM     76  C   UNL A   1      46.395  34.883  27.435  1.00  0.00     0.059 A 
ATOM     77  C   UNL A   1      46.699  34.407  29.796  1.00  0.00     0.059 A 
ATOM     78  F   UNL A   1      46.481  32.207  30.577  1.00  0.00    -0.206 F 
ATOM     79  C   UNL A   1      46.675  35.309  28.734  1.00  0.00     0.060 A 
BRANCH  79  80
ATOM     80  S   UNL A   1      46.987  37.066  29.011  1.00  0.00     0.124 S 
ATOM     81  O   UNL A   1      48.409  37.163  28.699  1.00  0.00    -0.237 OA
ATOM     82  O   UNL A   1      46.084  37.695  28.051  1.00  0.00    -0.237 OA
ATOM     83  O   UNL A   1      46.639  37.256  30.415  1.00  0.00    -0.744 OA
ENDBRANCH  79  80
ENDBRANCH  58  72
BRANCH  59  84
ATOM     84  C   UNL A   1      43.263  23.117  26.880  1.00  0.00     0.058 A 
ATOM     85  C   UNL A   1      43.035  22.228  27.942  1.00  0.00     0.135 A 
ATOM     86  C   UNL A   1      43.137  22.615  25.575  1.00  0.00     0.135 A 
ATOM     87  F   UNL A   1      43.145  22.655  29.210  1.00  0.00    -0.206 F 
ATOM     88  C   UNL A   1      42.748  20.885  27.723  1.00  0.00     0.059 A 
ATOM     89  C   UNL A   1      42.816  21.283  25.329  1.00  0.00     0.059 A 
ATOM     90  F   UNL A   1      43.322  23.425  24.521  1.00  0.00    -0.206 F 
ATOM     91  C   UNL A   1      42.648  20.420  26.411  1.00  0.00     0.060 A 
BRANCH  91  92
ATOM     92  S   UNL A   1      42.288  18.672  26.133  1.00  0.00     0.124 S 
ATOM     93  O   UNL A   1      42.582  18.102  27.443  1.00  0.00    -0.237 OA
ATOM     94  O   UNL A   1      40.880  18.706  25.751  1.00  0.00    -0.237 OA
ATOM     95  O   UNL A   1      43.212  18.306  25.064  1.00  0.00    -0.744 OA
ENDBRANCH  91  92
ENDBRANCH  59  84
BRANCH  71  96
ATOM     96  C   UNL A   1      49.402  26.408  26.550  1.00  0.00     0.058 A 
ATOM     97  C   UNL A   1      49.946  26.426  25.257  1.00  0.00     0.135 A 
ATOM     98  C   UNL A   1      50.228  25.974  27.601  1.00  0.00     0.135 A 
ATOM     99  F   UNL A   1      49.199  26.825  24.214  1.00  0.00    -0.206 F 
ATOM    100  C   UNL A   1      51.249  26.006  25.011  1.00  0.00     0.059 A 
ATOM    101  C   UNL A   1      51.544  25.582  27.384  1.00  0.00     0.059 A 
ATOM    102  F   UNL A   1      49.761  25.948  28.861  1.00  0.00    -0.206 F 
ATOM    103  C   UNL A   1      52.042  25.590  26.082  1.00  0.00     0.060 A 
BRANCH 103 104
ATOM    104  S   UNL A   1      53.743  25.084  25.753  1.00  0.00     0.124 S 
ATOM    105  O   UNL A   1      53.559  23.705  25.310  1.00  0.00    -0.237 OA
ATOM    106  O   UNL A   1      54.156  26.031  24.722  1.00  0.00    -0.237 OA
ATOM    107  O   UNL A   1      54.404  25.245  27.045  1.00  0.00    -0.744 OA
ENDBRANCH 103 104
ENDBRANCH  71  96
ENDBRANCH  45  46
ENDBRANCH  37  40
ENDBRANCH  35  36
ENDBRANCH  34  35
ENDBRANCH   1  34
TORSDOF 18
ENDMDL
