MODEL 1
REMARK VINA RESULT:     -12.0      0.000      0.000
REMARK SMILES COC(=O)c1ccc(Cl)c(-c2ccc(F)cc2C(=O)NCCCCNC(=O)c2ccc(-c3c4nc(c(-c5c(F)cc(S(=O)(=O)[O-])cc5F)c5ccc([nH]5)c(-c5c(F)cc(S(=O)(=O)[O-])cc5F)c5nc(c(-c6c(F)cc(S(=O)(=O)[O-])cc6F)c6ccc3[nH]6)C=C5)C=C4)cc2)c1
REMARK SMILES IDX 22 1 21 2 20 3 18 4 19 5 17 7 11 8 12 9 13 10 16 11 14 12
REMARK SMILES IDX 15 13 10 14 5 15 6 16 94 17 7 18 8 19 9 20 3 21 4 22 2 23
REMARK SMILES IDX 1 24 23 25 24 26 25 27 26 28 27 30 28 31 29 32 93 33 30 34
REMARK SMILES IDX 92 35 31 36 32 37 33 38 86 39 34 40 91 41 85 42 87 43 35 44
REMARK SMILES IDX 90 45 84 46 83 47 36 49 70 50 49 51 69 52 50 53 53 54 68 55
REMARK SMILES IDX 88 56 51 57 52 58 67 60 89 61 54 62 37 63 38 64 47 65 39 66
REMARK SMILES IDX 40 67 46 68 48 69 41 70 42 71 43 72 44 73 45 74 71 75 72 76
REMARK SMILES IDX 81 77 73 78 74 79 80 80 82 81 75 82 76 83 77 84 78 85 79 86
REMARK SMILES IDX 55 87 56 88 65 89 57 90 58 91 64 92 66 93 59 94 60 95 61 96
REMARK SMILES IDX 62 97 63 98
REMARK H PARENT 20 6 25 29 87 48 53 59
REMARK Flexibility Score: inf
ROOT
ATOM      1  C   UNL A   1      32.579  27.291  26.166  1.00  0.00     0.023 C 
ENDROOT
BRANCH   1   2
ATOM      2  C   UNL A   1      33.279  26.007  25.748  1.00  0.00     0.116 C 
BRANCH   2   3
ATOM      3  N   UNL A   1      32.821  24.792  26.374  1.00  0.00    -0.352 N 
ATOM      4  C   UNL A   1      33.465  23.584  26.507  1.00  0.00     0.252 C 
ATOM      5  O   UNL A   1      32.927  22.705  27.180  1.00  0.00    -0.269 OA
ATOM      6  H   UNL A   1      31.917  24.832  26.763  1.00  0.00     0.163 HD
BRANCH   4   7
ATOM      7  C   UNL A   1      34.744  23.244  25.813  1.00  0.00     0.050 A 
ATOM      8  C   UNL A   1      34.894  22.428  24.662  1.00  0.00    -0.004 A 
ATOM      9  C   UNL A   1      36.186  22.318  24.095  1.00  0.00     0.012 A 
ATOM     10  C   UNL A   1      37.288  22.980  24.639  1.00  0.00     0.040 A 
ATOM     11  C   UNL A   1      35.862  23.927  26.335  1.00  0.00     0.053 A 
ATOM     12  C   UNL A   1      37.114  23.784  25.752  1.00  0.00     0.124 A 
ATOM     13  F   UNL A   1      38.163  24.441  26.261  1.00  0.00    -0.207 F 
BRANCH   8  14
ATOM     14  C   UNL A   1      33.783  21.723  23.990  1.00  0.00     0.002 A 
ATOM     15  C   UNL A   1      32.576  19.633  23.608  1.00  0.00     0.060 A 
ATOM     16  C   UNL A   1      31.848  20.216  22.568  1.00  0.00     0.017 A 
ATOM     17  C   UNL A   1      33.516  20.385  24.328  1.00  0.00     0.026 A 
ATOM     18  C   UNL A   1      32.047  21.562  22.262  1.00  0.00     0.022 A 
ATOM     19  C   UNL A   1      32.998  22.312  22.966  1.00  0.00     0.048 A 
ATOM     20  Cl  UNL A   1      33.246  23.944  22.435  1.00  0.00    -0.084 Cl
BRANCH  15  21
ATOM     21  C   UNL A   1      32.406  18.214  23.972  1.00  0.00     0.337 C 
ATOM     22  O   UNL A   1      31.989  17.849  25.059  1.00  0.00    -0.246 OA
BRANCH  21  23
ATOM     23  O   UNL A   1      32.872  17.432  22.969  1.00  0.00    -0.465 OA
ATOM     24  C   UNL A   1      34.044  16.696  23.324  1.00  0.00     0.282 C 
ENDBRANCH  21  23
ENDBRANCH  15  21
ENDBRANCH   8  14
ENDBRANCH   4   7
ENDBRANCH   2   3
ENDBRANCH   1   2
BRANCH   1  25
ATOM     25  C   UNL A   1      33.332  28.210  27.127  1.00  0.00     0.023 C 
BRANCH  25  26
ATOM     26  C   UNL A   1      33.777  29.581  26.618  1.00  0.00     0.116 C 
BRANCH  26  27
ATOM     27  N   UNL A   1      33.812  30.641  27.616  1.00  0.00    -0.352 N 
ATOM     28  C   UNL A   1      34.834  31.001  28.473  1.00  0.00     0.251 C 
ATOM     29  H   UNL A   1      32.991  31.178  27.691  1.00  0.00     0.163 HD
ATOM     30  O   UNL A   1      34.698  31.973  29.212  1.00  0.00    -0.269 OA
BRANCH  28  31
ATOM     31  C   UNL A   1      36.066  30.178  28.546  1.00  0.00     0.039 A 
ATOM     32  C   UNL A   1      36.956  30.194  27.465  1.00  0.00     0.014 A 
ATOM     33  C   UNL A   1      36.392  29.473  29.705  1.00  0.00     0.014 A 
ATOM     34  C   UNL A   1      38.229  29.633  27.608  1.00  0.00     0.010 A 
ATOM     35  C   UNL A   1      37.679  28.965  29.869  1.00  0.00     0.010 A 
ATOM     36  C   UNL A   1      38.625  29.087  28.840  1.00  0.00    -0.014 A 
BRANCH  36  37
ATOM     37  C   UNL A   1      40.044  28.753  29.134  1.00  0.00     0.031 A 
ATOM     38  C   UNL A   1      40.976  29.793  29.686  1.00  0.00     0.074 A 
ATOM     39  C   UNL A   1      40.516  27.541  28.775  1.00  0.00     0.049 A 
ATOM     40  N   UNL A   1      42.272  29.733  29.848  1.00  0.00    -0.248 NA
ATOM     41  C   UNL A   1      40.378  31.076  30.087  1.00  0.00     0.031 C 
ATOM     42  C   UNL A   1      39.717  26.460  28.192  1.00  0.00     0.029 A 
ATOM     43  N   UNL A   1      41.785  27.018  28.826  1.00  0.00    -0.354 N 
ATOM     44  C   UNL A   1      42.648  30.965  30.369  1.00  0.00     0.074 A 
ATOM     45  C   UNL A   1      41.448  31.770  30.454  1.00  0.00     0.031 C 
ATOM     46  C   UNL A   1      40.509  25.402  27.952  1.00  0.00     0.029 A 
ATOM     47  C   UNL A   1      41.879  25.741  28.322  1.00  0.00     0.049 A 
ATOM     48  H   UNL A   1      42.557  27.511  29.188  1.00  0.00     0.167 HD
ATOM     49  C   UNL A   1      43.877  31.375  30.760  1.00  0.00     0.037 A 
ATOM     50  C   UNL A   1      42.947  24.934  28.163  1.00  0.00     0.037 A 
ATOM     51  C   UNL A   1      45.064  30.564  30.683  1.00  0.00     0.049 A 
ATOM     52  C   UNL A   1      44.308  25.430  28.570  1.00  0.00     0.074 A 
ATOM     53  C   UNL A   1      46.351  30.885  31.081  1.00  0.00     0.029 A 
ATOM     54  N   UNL A   1      45.112  29.271  30.183  1.00  0.00    -0.354 N 
ATOM     55  N   UNL A   1      44.637  26.588  29.090  1.00  0.00    -0.248 NA
ATOM     56  C   UNL A   1      45.442  24.516  28.368  1.00  0.00     0.031 C 
ATOM     57  C   UNL A   1      47.182  29.799  30.797  1.00  0.00     0.029 A 
ATOM     58  C   UNL A   1      46.407  28.786  30.255  1.00  0.00     0.049 A 
ATOM     59  H   UNL A   1      44.341  28.773  29.828  1.00  0.00     0.167 HD
ATOM     60  C   UNL A   1      46.008  26.530  29.307  1.00  0.00     0.074 A 
ATOM     61  C   UNL A   1      46.449  25.224  28.861  1.00  0.00     0.031 C 
ATOM     62  C   UNL A   1      46.825  27.473  29.830  1.00  0.00     0.037 A 
BRANCH  49  63
ATOM     63  C   UNL A   1      44.007  32.755  31.339  1.00  0.00     0.058 A 
ATOM     64  C   UNL A   1      44.376  33.844  30.533  1.00  0.00     0.135 A 
ATOM     65  C   UNL A   1      43.852  32.979  32.716  1.00  0.00     0.135 A 
ATOM     66  F   UNL A   1      44.532  33.686  29.210  1.00  0.00    -0.206 F 
ATOM     67  C   UNL A   1      44.606  35.104  31.077  1.00  0.00     0.059 A 
ATOM     68  C   UNL A   1      44.056  34.236  33.278  1.00  0.00     0.059 A 
ATOM     69  F   UNL A   1      43.481  31.974  33.526  1.00  0.00    -0.206 F 
ATOM     70  C   UNL A   1      44.449  35.288  32.453  1.00  0.00     0.060 A 
BRANCH  70  71
ATOM     71  S   UNL A   1      44.736  36.931  33.144  1.00  0.00     0.124 S 
ATOM     72  O   UNL A   1      45.916  37.365  32.405  1.00  0.00    -0.237 OA
ATOM     73  O   UNL A   1      43.491  37.621  32.820  1.00  0.00    -0.237 OA
ATOM     74  O   UNL A   1      44.943  36.668  34.565  1.00  0.00    -0.744 OA
ENDBRANCH  70  71
ENDBRANCH  49  63
BRANCH  50  75
ATOM     75  C   UNL A   1      42.771  23.562  27.620  1.00  0.00     0.058 A 
ATOM     76  C   UNL A   1      42.513  22.466  28.455  1.00  0.00     0.135 A 
ATOM     77  C   UNL A   1      42.877  23.325  26.241  1.00  0.00     0.135 A 
ATOM     78  F   UNL A   1      42.414  22.637  29.782  1.00  0.00    -0.206 F 
ATOM     79  C   UNL A   1      42.380  21.178  27.944  1.00  0.00     0.059 A 
ATOM     80  C   UNL A   1      42.727  22.050  25.703  1.00  0.00     0.059 A 
ATOM     81  F   UNL A   1      43.113  24.346  25.403  1.00  0.00    -0.206 F 
ATOM     82  C   UNL A   1      42.491  20.980  26.566  1.00  0.00     0.060 A 
BRANCH  82  83
ATOM     83  S   UNL A   1      42.309  19.304  25.920  1.00  0.00     0.124 S 
ATOM     84  O   UNL A   1      40.867  19.229  25.709  1.00  0.00    -0.237 OA
ATOM     85  O   UNL A   1      43.127  19.351  24.712  1.00  0.00    -0.237 OA
ATOM     86  O   UNL A   1      42.832  18.469  26.996  1.00  0.00    -0.744 OA
ENDBRANCH  82  83
ENDBRANCH  50  75
BRANCH  62  87
ATOM     87  C   UNL A   1      48.278  27.134  29.996  1.00  0.00     0.058 A 
ATOM     88  C   UNL A   1      48.761  26.682  31.235  1.00  0.00     0.135 A 
ATOM     89  C   UNL A   1      49.206  27.367  28.971  1.00  0.00     0.135 A 
ATOM     90  F   UNL A   1      47.911  26.445  32.246  1.00  0.00    -0.206 F 
ATOM     91  C   UNL A   1      50.121  26.507  31.463  1.00  0.00     0.059 A 
ATOM     92  C   UNL A   1      50.571  27.178  29.171  1.00  0.00     0.059 A 
ATOM     93  F   UNL A   1      48.790  27.784  27.765  1.00  0.00    -0.206 F 
ATOM     94  C   UNL A   1      51.020  26.770  30.427  1.00  0.00     0.060 A 
BRANCH  94  95
ATOM     95  S   UNL A   1      52.785  26.575  30.751  1.00  0.00     0.124 S 
ATOM     96  O   UNL A   1      53.338  26.587  29.401  1.00  0.00    -0.237 OA
ATOM     97  O   UNL A   1      53.080  27.747  31.569  1.00  0.00    -0.237 OA
ATOM     98  O   UNL A   1      52.861  25.297  31.450  1.00  0.00    -0.744 OA
ENDBRANCH  94  95
ENDBRANCH  62  87
ENDBRANCH  36  37
ENDBRANCH  28  31
ENDBRANCH  26  27
ENDBRANCH  25  26
ENDBRANCH   1  25
TORSDOF 17
ENDMDL
MODEL 2
REMARK VINA RESULT:     -12.0      3.715      9.722
REMARK SMILES COC(=O)c1ccc(Cl)c(-c2ccc(F)cc2C(=O)NCCCCNC(=O)c2ccc(-c3c4nc(c(-c5c(F)cc(S(=O)(=O)[O-])cc5F)c5ccc([nH]5)c(-c5c(F)cc(S(=O)(=O)[O-])cc5F)c5nc(c(-c6c(F)cc(S(=O)(=O)[O-])cc6F)c6ccc3[nH]6)C=C5)C=C4)cc2)c1
REMARK SMILES IDX 22 1 21 2 20 3 18 4 19 5 17 7 11 8 12 9 13 10 16 11 14 12
REMARK SMILES IDX 15 13 10 14 5 15 6 16 94 17 7 18 8 19 9 20 3 21 4 22 2 23
REMARK SMILES IDX 1 24 23 25 24 26 25 27 26 28 27 30 28 31 29 32 93 33 30 34
REMARK SMILES IDX 92 35 31 36 32 37 33 38 86 39 34 40 91 41 85 42 87 43 35 44
REMARK SMILES IDX 90 45 84 46 83 47 36 49 70 50 49 51 69 52 50 53 53 54 68 55
REMARK SMILES IDX 88 56 51 57 52 58 67 60 89 61 54 62 37 63 38 64 47 65 39 66
REMARK SMILES IDX 40 67 46 68 48 69 41 70 42 71 43 72 44 73 45 74 71 75 72 76
REMARK SMILES IDX 81 77 73 78 74 79 80 80 82 81 75 82 76 83 77 84 78 85 79 86
REMARK SMILES IDX 55 87 56 88 65 89 57 90 58 91 64 92 66 93 59 94 60 95 61 96
REMARK SMILES IDX 62 97 63 98
REMARK H PARENT 20 6 25 29 87 48 53 59
REMARK Flexibility Score: inf
ROOT
ATOM      1  C   UNL A   1      35.239  23.629  24.235  1.00  0.00     0.023 C 
ENDROOT
BRANCH   1   2
ATOM      2  C   UNL A   1      34.354  24.815  24.587  1.00  0.00     0.116 C 
BRANCH   2   3
ATOM      3  N   UNL A   1      33.961  25.670  23.494  1.00  0.00    -0.352 N 
ATOM      4  C   UNL A   1      33.537  26.978  23.522  1.00  0.00     0.252 C 
ATOM      5  O   UNL A   1      33.354  27.556  22.450  1.00  0.00    -0.269 OA
ATOM      6  H   UNL A   1      34.003  25.259  22.601  1.00  0.00     0.163 HD
BRANCH   4   7
ATOM      7  C   UNL A   1      33.203  27.718  24.776  1.00  0.00     0.050 A 
ATOM      8  C   UNL A   1      31.904  28.025  25.261  1.00  0.00    -0.004 A 
ATOM      9  C   UNL A   1      31.802  28.641  26.531  1.00  0.00     0.012 A 
ATOM     10  C   UNL A   1      32.931  28.947  27.293  1.00  0.00     0.040 A 
ATOM     11  C   UNL A   1      34.331  28.010  25.571  1.00  0.00     0.053 A 
ATOM     12  C   UNL A   1      34.186  28.623  26.807  1.00  0.00     0.124 A 
ATOM     13  F   UNL A   1      35.268  28.891  27.547  1.00  0.00    -0.207 F 
BRANCH   8  14
ATOM     14  C   UNL A   1      30.651  27.702  24.547  1.00  0.00     0.002 A 
ATOM     15  C   UNL A   1      28.804  28.465  23.142  1.00  0.00     0.060 A 
ATOM     16  C   UNL A   1      28.118  27.266  23.351  1.00  0.00     0.017 A 
ATOM     17  C   UNL A   1      30.068  28.672  23.713  1.00  0.00     0.026 A 
ATOM     18  C   UNL A   1      28.710  26.262  24.118  1.00  0.00     0.022 A 
ATOM     19  C   UNL A   1      29.965  26.471  24.706  1.00  0.00     0.048 A 
ATOM     20  Cl  UNL A   1      30.561  25.205  25.729  1.00  0.00    -0.084 Cl
BRANCH  15  21
ATOM     21  C   UNL A   1      28.224  29.559  22.341  1.00  0.00     0.337 C 
ATOM     22  O   UNL A   1      28.641  29.872  21.238  1.00  0.00    -0.246 OA
BRANCH  21  23
ATOM     23  O   UNL A   1      27.264  30.187  23.063  1.00  0.00    -0.465 OA
ATOM     24  C   UNL A   1      27.629  31.510  23.457  1.00  0.00     0.282 C 
ENDBRANCH  21  23
ENDBRANCH  15  21
ENDBRANCH   8  14
ENDBRANCH   4   7
ENDBRANCH   2   3
ENDBRANCH   1   2
BRANCH   1  25
ATOM     25  C   UNL A   1      36.704  23.707  24.662  1.00  0.00     0.023 C 
BRANCH  25  26
ATOM     26  C   UNL A   1      37.160  22.852  25.845  1.00  0.00     0.116 C 
BRANCH  26  27
ATOM     27  N   UNL A   1      38.531  22.366  25.779  1.00  0.00    -0.352 N 
ATOM     28  C   UNL A   1      39.688  22.945  26.263  1.00  0.00     0.251 C 
ATOM     29  H   UNL A   1      38.651  21.502  25.323  1.00  0.00     0.163 HD
ATOM     30  O   UNL A   1      40.758  22.350  26.163  1.00  0.00    -0.269 OA
BRANCH  28  31
ATOM     31  C   UNL A   1      39.648  24.310  26.844  1.00  0.00     0.039 A 
ATOM     32  C   UNL A   1      39.059  24.494  28.100  1.00  0.00     0.014 A 
ATOM     33  C   UNL A   1      40.269  25.382  26.203  1.00  0.00     0.014 A 
ATOM     34  C   UNL A   1      39.229  25.708  28.774  1.00  0.00     0.010 A 
ATOM     35  C   UNL A   1      40.489  26.571  26.896  1.00  0.00     0.010 A 
ATOM     36  C   UNL A   1      40.015  26.725  28.207  1.00  0.00    -0.014 A 
BRANCH  36  37
ATOM     37  C   UNL A   1      40.470  27.901  28.996  1.00  0.00     0.031 A 
ATOM     38  C   UNL A   1      41.774  27.866  29.739  1.00  0.00     0.074 A 
ATOM     39  C   UNL A   1      39.633  28.950  29.142  1.00  0.00     0.049 A 
ATOM     40  N   UNL A   1      42.251  28.724  30.602  1.00  0.00    -0.248 NA
ATOM     41  C   UNL A   1      42.645  26.705  29.498  1.00  0.00     0.031 C 
ATOM     42  C   UNL A   1      38.321  29.083  28.503  1.00  0.00     0.029 A 
ATOM     43  N   UNL A   1      39.749  30.095  29.891  1.00  0.00    -0.354 N 
ATOM     44  C   UNL A   1      43.477  28.212  31.009  1.00  0.00     0.074 A 
ATOM     45  C   UNL A   1      43.649  26.944  30.331  1.00  0.00     0.031 C 
ATOM     46  C   UNL A   1      37.761  30.244  28.875  1.00  0.00     0.029 A 
ATOM     47  C   UNL A   1      38.651  30.922  29.812  1.00  0.00     0.049 A 
ATOM     48  H   UNL A   1      40.542  30.306  30.435  1.00  0.00     0.167 HD
ATOM     49  C   UNL A   1      44.382  28.760  31.853  1.00  0.00     0.037 A 
ATOM     50  C   UNL A   1      38.382  32.088  30.432  1.00  0.00     0.037 A 
ATOM     51  C   UNL A   1      44.208  30.028  32.514  1.00  0.00     0.049 A 
ATOM     52  C   UNL A   1      39.388  32.657  31.394  1.00  0.00     0.074 A 
ATOM     53  C   UNL A   1      45.084  30.678  33.366  1.00  0.00     0.029 A 
ATOM     54  N   UNL A   1      43.091  30.840  32.394  1.00  0.00    -0.354 N 
ATOM     55  N   UNL A   1      40.556  32.171  31.742  1.00  0.00    -0.248 NA
ATOM     56  C   UNL A   1      39.044  33.926  32.051  1.00  0.00     0.031 C 
ATOM     57  C   UNL A   1      44.485  31.870  33.783  1.00  0.00     0.029 A 
ATOM     58  C   UNL A   1      43.252  31.980  33.162  1.00  0.00     0.049 A 
ATOM     59  H   UNL A   1      42.300  30.636  31.844  1.00  0.00     0.167 HD
ATOM     60  C   UNL A   1      41.099  33.090  32.631  1.00  0.00     0.074 A 
ATOM     61  C   UNL A   1      40.133  34.161  32.772  1.00  0.00     0.031 C 
ATOM     62  C   UNL A   1      42.291  33.050  33.271  1.00  0.00     0.037 A 
BRANCH  49  63
ATOM     63  C   UNL A   1      45.664  28.015  32.092  1.00  0.00     0.058 A 
ATOM     64  C   UNL A   1      46.773  28.196  31.250  1.00  0.00     0.135 A 
ATOM     65  C   UNL A   1      45.761  27.052  33.108  1.00  0.00     0.135 A 
ATOM     66  F   UNL A   1      46.734  29.109  30.267  1.00  0.00    -0.206 F 
ATOM     67  C   UNL A   1      47.926  27.433  31.396  1.00  0.00     0.059 A 
ATOM     68  C   UNL A   1      46.914  26.292  33.285  1.00  0.00     0.059 A 
ATOM     69  F   UNL A   1      44.736  26.854  33.952  1.00  0.00    -0.206 F 
ATOM     70  C   UNL A   1      47.985  26.479  32.413  1.00  0.00     0.060 A 
BRANCH  70  71
ATOM     71  S   UNL A   1      49.494  25.505  32.600  1.00  0.00     0.124 S 
ATOM     72  O   UNL A   1      50.420  26.488  33.149  1.00  0.00    -0.237 OA
ATOM     73  O   UNL A   1      49.065  24.451  33.516  1.00  0.00    -0.237 OA
ATOM     74  O   UNL A   1      49.779  25.059  31.240  1.00  0.00    -0.744 OA
ENDBRANCH  70  71
ENDBRANCH  49  63
BRANCH  50  75
ATOM     75  C   UNL A   1      37.118  32.814  30.140  1.00  0.00     0.058 A 
ATOM     76  C   UNL A   1      35.939  32.558  30.855  1.00  0.00     0.135 A 
ATOM     77  C   UNL A   1      37.069  33.774  29.118  1.00  0.00     0.135 A 
ATOM     78  F   UNL A   1      35.930  31.641  31.835  1.00  0.00    -0.206 F 
ATOM     79  C   UNL A   1      34.750  33.218  30.558  1.00  0.00     0.059 A 
ATOM     80  C   UNL A   1      35.898  34.463  28.816  1.00  0.00     0.059 A 
ATOM     81  F   UNL A   1      38.175  34.059  28.415  1.00  0.00    -0.206 F 
ATOM     82  C   UNL A   1      34.739  34.167  29.534  1.00  0.00     0.060 A 
BRANCH  82  83
ATOM     83  S   UNL A   1      33.190  35.019  29.166  1.00  0.00     0.124 S 
ATOM     84  O   UNL A   1      32.593  34.122  28.182  1.00  0.00    -0.237 OA
ATOM     85  O   UNL A   1      32.541  35.053  30.472  1.00  0.00    -0.237 OA
ATOM     86  O   UNL A   1      33.631  36.312  28.653  1.00  0.00    -0.744 OA
ENDBRANCH  82  83
ENDBRANCH  50  75
BRANCH  62  87
ATOM     87  C   UNL A   1      42.656  34.206  34.156  1.00  0.00     0.058 A 
ATOM     88  C   UNL A   1      43.356  35.304  33.630  1.00  0.00     0.135 A 
ATOM     89  C   UNL A   1      42.418  34.175  35.537  1.00  0.00     0.135 A 
ATOM     90  F   UNL A   1      43.608  35.378  32.313  1.00  0.00    -0.206 F 
ATOM     91  C   UNL A   1      43.841  36.316  34.451  1.00  0.00     0.059 A 
ATOM     92  C   UNL A   1      42.876  35.188  36.376  1.00  0.00     0.059 A 
ATOM     93  F   UNL A   1      41.739  33.154  36.083  1.00  0.00    -0.206 F 
ATOM     94  C   UNL A   1      43.606  36.242  35.825  1.00  0.00     0.060 A 
BRANCH  94  95
ATOM     95  S   UNL A   1      44.276  37.543  36.882  1.00  0.00     0.124 S 
ATOM     96  O   UNL A   1      44.071  38.731  36.059  1.00  0.00    -0.237 OA
ATOM     97  O   UNL A   1      43.434  37.441  38.069  1.00  0.00    -0.237 OA
ATOM     98  O   UNL A   1      45.666  37.143  37.072  1.00  0.00    -0.744 OA
ENDBRANCH  94  95
ENDBRANCH  62  87
ENDBRANCH  36  37
ENDBRANCH  28  31
ENDBRANCH  26  27
ENDBRANCH  25  26
ENDBRANCH   1  25
TORSDOF 17
ENDMDL
MODEL 3
REMARK VINA RESULT:     -11.9      1.461      2.255
REMARK SMILES COC(=O)c1ccc(Cl)c(-c2ccc(F)cc2C(=O)NCCCCNC(=O)c2ccc(-c3c4nc(c(-c5c(F)cc(S(=O)(=O)[O-])cc5F)c5ccc([nH]5)c(-c5c(F)cc(S(=O)(=O)[O-])cc5F)c5nc(c(-c6c(F)cc(S(=O)(=O)[O-])cc6F)c6ccc3[nH]6)C=C5)C=C4)cc2)c1
REMARK SMILES IDX 22 1 21 2 20 3 18 4 19 5 17 7 11 8 12 9 13 10 16 11 14 12
REMARK SMILES IDX 15 13 10 14 5 15 6 16 94 17 7 18 8 19 9 20 3 21 4 22 2 23
REMARK SMILES IDX 1 24 23 25 24 26 25 27 26 28 27 30 28 31 29 32 93 33 30 34
REMARK SMILES IDX 92 35 31 36 32 37 33 38 86 39 34 40 91 41 85 42 87 43 35 44
REMARK SMILES IDX 90 45 84 46 83 47 36 49 70 50 49 51 69 52 50 53 53 54 68 55
REMARK SMILES IDX 88 56 51 57 52 58 67 60 89 61 54 62 37 63 38 64 47 65 39 66
REMARK SMILES IDX 40 67 46 68 48 69 41 70 42 71 43 72 44 73 45 74 71 75 72 76
REMARK SMILES IDX 81 77 73 78 74 79 80 80 82 81 75 82 76 83 77 84 78 85 79 86
REMARK SMILES IDX 55 87 56 88 65 89 57 90 58 91 64 92 66 93 59 94 60 95 61 96
REMARK SMILES IDX 62 97 63 98
REMARK H PARENT 20 6 25 29 87 48 53 59
REMARK Flexibility Score: inf
ROOT
ATOM      1  C   UNL A   1      31.547  28.094  26.963  1.00  0.00     0.023 C 
ENDROOT
BRANCH   1   2
ATOM      2  C   UNL A   1      32.283  26.803  26.636  1.00  0.00     0.116 C 
BRANCH   2   3
ATOM      3  N   UNL A   1      31.490  25.599  26.615  1.00  0.00    -0.352 N 
ATOM      4  C   UNL A   1      31.329  24.680  25.604  1.00  0.00     0.252 C 
ATOM      5  O   UNL A   1      30.685  23.658  25.841  1.00  0.00    -0.269 OA
ATOM      6  H   UNL A   1      30.994  25.406  27.444  1.00  0.00     0.163 HD
BRANCH   4   7
ATOM      7  C   UNL A   1      31.816  24.888  24.208  1.00  0.00     0.050 A 
ATOM      8  C   UNL A   1      32.727  24.065  23.494  1.00  0.00    -0.004 A 
ATOM      9  C   UNL A   1      32.976  24.378  22.137  1.00  0.00     0.012 A 
ATOM     10  C   UNL A   1      32.358  25.459  21.505  1.00  0.00     0.040 A 
ATOM     11  C   UNL A   1      31.180  25.959  23.547  1.00  0.00     0.053 A 
ATOM     12  C   UNL A   1      31.461  26.237  22.216  1.00  0.00     0.124 A 
ATOM     13  F   UNL A   1      30.846  27.257  21.606  1.00  0.00    -0.207 F 
BRANCH   8  14
ATOM     14  C   UNL A   1      33.397  22.877  24.063  1.00  0.00     0.002 A 
ATOM     15  C   UNL A   1      33.366  20.468  24.466  1.00  0.00     0.060 A 
ATOM     16  C   UNL A   1      34.459  20.574  25.329  1.00  0.00     0.017 A 
ATOM     17  C   UNL A   1      32.855  21.603  23.821  1.00  0.00     0.026 A 
ATOM     18  C   UNL A   1      35.056  21.819  25.529  1.00  0.00     0.022 A 
ATOM     19  C   UNL A   1      34.538  22.959  24.901  1.00  0.00     0.048 A 
ATOM     20  Cl  UNL A   1      35.284  24.471  25.303  1.00  0.00    -0.084 Cl
BRANCH  15  21
ATOM     21  C   UNL A   1      32.697  19.176  24.219  1.00  0.00     0.337 C 
ATOM     22  O   UNL A   1      32.367  18.797  23.108  1.00  0.00    -0.246 OA
BRANCH  21  23
ATOM     23  O   UNL A   1      32.435  18.571  25.403  1.00  0.00    -0.465 OA
ATOM     24  C   UNL A   1      32.384  17.147  25.310  1.00  0.00     0.282 C 
ENDBRANCH  21  23
ENDBRANCH  15  21
ENDBRANCH   8  14
ENDBRANCH   4   7
ENDBRANCH   2   3
ENDBRANCH   1   2
BRANCH   1  25
ATOM     25  C   UNL A   1      32.200  29.398  26.508  1.00  0.00     0.023 C 
BRANCH  25  26
ATOM     26  C   UNL A   1      33.605  29.721  27.016  1.00  0.00     0.116 C 
BRANCH  26  27
ATOM     27  N   UNL A   1      33.687  30.785  28.007  1.00  0.00    -0.352 N 
ATOM     28  C   UNL A   1      34.748  31.149  28.813  1.00  0.00     0.251 C 
ATOM     29  H   UNL A   1      32.869  31.321  28.120  1.00  0.00     0.163 HD
ATOM     30  O   UNL A   1      34.646  32.124  29.555  1.00  0.00    -0.269 OA
BRANCH  28  31
ATOM     31  C   UNL A   1      35.984  30.328  28.829  1.00  0.00     0.039 A 
ATOM     32  C   UNL A   1      36.782  30.284  27.681  1.00  0.00     0.014 A 
ATOM     33  C   UNL A   1      36.404  29.686  29.994  1.00  0.00     0.014 A 
ATOM     34  C   UNL A   1      38.064  29.728  27.749  1.00  0.00     0.010 A 
ATOM     35  C   UNL A   1      37.701  29.185  30.080  1.00  0.00     0.010 A 
ATOM     36  C   UNL A   1      38.560  29.249  28.972  1.00  0.00    -0.014 A 
BRANCH  36  37
ATOM     37  C   UNL A   1      39.999  28.928  29.167  1.00  0.00     0.031 A 
ATOM     38  C   UNL A   1      40.965  29.986  29.615  1.00  0.00     0.074 A 
ATOM     39  C   UNL A   1      40.449  27.707  28.809  1.00  0.00     0.049 A 
ATOM     40  N   UNL A   1      42.270  29.934  29.680  1.00  0.00    -0.248 NA
ATOM     41  C   UNL A   1      40.393  31.279  30.023  1.00  0.00     0.031 C 
ATOM     42  C   UNL A   1      39.613  26.606  28.320  1.00  0.00     0.029 A 
ATOM     43  N   UNL A   1      41.720  27.190  28.778  1.00  0.00    -0.354 N 
ATOM     44  C   UNL A   1      42.678  31.182  30.135  1.00  0.00     0.074 A 
ATOM     45  C   UNL A   1      41.484  31.986  30.287  1.00  0.00     0.031 C 
ATOM     46  C   UNL A   1      40.389  25.545  28.051  1.00  0.00     0.029 A 
ATOM     47  C   UNL A   1      41.782  25.898  28.306  1.00  0.00     0.049 A 
ATOM     48  H   UNL A   1      42.515  27.695  29.065  1.00  0.00     0.167 HD
ATOM     49  C   UNL A   1      43.931  31.607  30.418  1.00  0.00     0.037 A 
ATOM     50  C   UNL A   1      42.839  25.090  28.089  1.00  0.00     0.037 A 
ATOM     51  C   UNL A   1      45.113  30.797  30.275  1.00  0.00     0.049 A 
ATOM     52  C   UNL A   1      44.224  25.601  28.377  1.00  0.00     0.074 A 
ATOM     53  C   UNL A   1      46.424  31.134  30.564  1.00  0.00     0.029 A 
ATOM     54  N   UNL A   1      45.130  29.491  29.811  1.00  0.00    -0.354 N 
ATOM     55  N   UNL A   1      44.586  26.775  28.836  1.00  0.00    -0.248 NA
ATOM     56  C   UNL A   1      45.344  24.685  28.116  1.00  0.00     0.031 C 
ATOM     57  C   UNL A   1      47.237  30.042  30.249  1.00  0.00     0.029 A 
ATOM     58  C   UNL A   1      46.428  29.012  29.798  1.00  0.00     0.049 A 
ATOM     59  H   UNL A   1      44.336  28.981  29.531  1.00  0.00     0.167 HD
ATOM     60  C   UNL A   1      45.970  26.727  28.949  1.00  0.00     0.074 A 
ATOM     61  C   UNL A   1      46.383  25.410  28.509  1.00  0.00     0.031 C 
ATOM     62  C   UNL A   1      46.820  27.688  29.381  1.00  0.00     0.037 A 
BRANCH  49  63
ATOM     63  C   UNL A   1      44.098  33.004  30.945  1.00  0.00     0.058 A 
ATOM     64  C   UNL A   1      43.993  33.275  32.319  1.00  0.00     0.135 A 
ATOM     65  C   UNL A   1      44.275  34.090  30.073  1.00  0.00     0.135 A 
ATOM     66  F   UNL A   1      43.830  32.272  33.196  1.00  0.00    -0.206 F 
ATOM     67  C   UNL A   1      44.038  34.576  32.807  1.00  0.00     0.059 A 
ATOM     68  C   UNL A   1      44.343  35.398  30.543  1.00  0.00     0.059 A 
ATOM     69  F   UNL A   1      44.400  33.882  28.753  1.00  0.00    -0.206 F 
ATOM     70  C   UNL A   1      44.207  35.633  31.910  1.00  0.00     0.060 A 
BRANCH  70  71
ATOM     71  S   UNL A   1      44.277  37.316  32.558  1.00  0.00     0.124 S 
ATOM     72  O   UNL A   1      43.292  37.266  33.632  1.00  0.00    -0.237 OA
ATOM     73  O   UNL A   1      45.673  37.425  32.977  1.00  0.00    -0.237 OA
ATOM     74  O   UNL A   1      43.914  38.137  31.406  1.00  0.00    -0.744 OA
ENDBRANCH  70  71
ENDBRANCH  49  63
BRANCH  50  75
ATOM     75  C   UNL A   1      42.630  23.702  27.601  1.00  0.00     0.058 A 
ATOM     76  C   UNL A   1      42.516  22.619  28.484  1.00  0.00     0.135 A 
ATOM     77  C   UNL A   1      42.555  23.436  26.225  1.00  0.00     0.135 A 
ATOM     78  F   UNL A   1      42.592  22.818  29.809  1.00  0.00    -0.206 F 
ATOM     79  C   UNL A   1      42.351  21.317  28.021  1.00  0.00     0.059 A 
ATOM     80  C   UNL A   1      42.369  22.146  25.738  1.00  0.00     0.059 A 
ATOM     81  F   UNL A   1      42.649  24.443  25.344  1.00  0.00    -0.206 F 
ATOM     82  C   UNL A   1      42.281  21.090  26.645  1.00  0.00     0.060 A 
BRANCH  82  83
ATOM     83  S   UNL A   1      42.060  19.396  26.062  1.00  0.00     0.124 S 
ATOM     84  O   UNL A   1      40.627  19.369  25.786  1.00  0.00    -0.237 OA
ATOM     85  O   UNL A   1      42.933  19.357  24.894  1.00  0.00    -0.237 OA
ATOM     86  O   UNL A   1      42.498  18.589  27.196  1.00  0.00    -0.744 OA
ENDBRANCH  82  83
ENDBRANCH  50  75
BRANCH  62  87
ATOM     87  C   UNL A   1      48.283  27.358  29.446  1.00  0.00     0.058 A 
ATOM     88  C   UNL A   1      48.835  26.823  30.621  1.00  0.00     0.135 A 
ATOM     89  C   UNL A   1      49.153  27.678  28.394  1.00  0.00     0.135 A 
ATOM     90  F   UNL A   1      48.043  26.501  31.655  1.00  0.00    -0.206 F 
ATOM     91  C   UNL A   1      50.207  26.651  30.764  1.00  0.00     0.059 A 
ATOM     92  C   UNL A   1      50.528  27.495  28.508  1.00  0.00     0.059 A 
ATOM     93  F   UNL A   1      48.669  28.177  27.245  1.00  0.00    -0.206 F 
ATOM     94  C   UNL A   1      51.047  27.002  29.706  1.00  0.00     0.060 A 
BRANCH  94  95
ATOM     95  S   UNL A   1      52.829  26.809  29.922  1.00  0.00     0.124 S 
ATOM     96  O   UNL A   1      53.220  28.140  30.372  1.00  0.00    -0.237 OA
ATOM     97  O   UNL A   1      52.905  25.751  30.924  1.00  0.00    -0.237 OA
ATOM     98  O   UNL A   1      53.292  26.435  28.590  1.00  0.00    -0.744 OA
ENDBRANCH  94  95
ENDBRANCH  62  87
ENDBRANCH  36  37
ENDBRANCH  28  31
ENDBRANCH  26  27
ENDBRANCH  25  26
ENDBRANCH   1  25
TORSDOF 17
ENDMDL
