MODEL 1
REMARK VINA RESULT:     -11.7      0.000      0.000
REMARK SMILES Cc1ccsc1/C=C/C(=O)NC[C@H](CC(C)C)C(=O)NCCCCNC(=O)c1ccc(-c2c3nc(c(-c4c(F)cc(S(=O)(=O)[O-])cc4F)c4ccc([nH]4)c(-c4c(F)cc(S(=O)(=O)[O-])cc4F)c4nc(c(-c5c(F)cc(S(=O)(=O)[O-])cc5F)c5ccc2[nH]5)C=C4)C=C3)cc1
REMARK SMILES IDX 22 1 21 2 20 3 18 4 19 5 13 7 12 8 11 9 9 10 10 11 8 13 7 14
REMARK SMILES IDX 6 15 1 16 2 17 3 18 4 19 5 20 14 21 15 22 16 23 17 24 23 25
REMARK SMILES IDX 24 26 25 27 26 28 27 30 28 31 29 32 93 33 30 34 92 35 31 36
REMARK SMILES IDX 32 37 33 38 86 39 34 40 91 41 85 42 87 43 35 44 90 45 84 46
REMARK SMILES IDX 83 47 36 49 70 50 49 51 69 52 50 53 53 54 68 55 88 56 51 57
REMARK SMILES IDX 52 58 67 60 89 61 54 62 37 63 38 64 47 65 39 66 40 67 46 68
REMARK SMILES IDX 48 69 41 70 42 71 43 72 44 73 45 74 71 75 72 76 81 77 73 78
REMARK SMILES IDX 74 79 80 80 82 81 75 82 76 83 77 84 78 85 79 86 55 87 56 88
REMARK SMILES IDX 65 89 57 90 58 91 64 92 66 93 59 94 60 95 61 96 62 97 63 98
REMARK H PARENT 20 6 11 12 25 29 87 48 53 59
REMARK Flexibility Score: inf
ROOT
ATOM      1  C   UNL A   1      37.602  22.474  25.388  1.00  0.00     0.023 C 
ENDROOT
BRANCH   1   2
ATOM      2  C   UNL A   1      36.401  21.532  25.312  1.00  0.00     0.116 C 
BRANCH   2   3
ATOM      3  N   UNL A   1      35.539  21.640  26.469  1.00  0.00    -0.356 N 
ATOM      4  C   UNL A   1      34.227  21.359  26.672  1.00  0.00     0.224 C 
ATOM      5  O   UNL A   1      33.808  21.525  27.825  1.00  0.00    -0.275 OA
ATOM      6  H   UNL A   1      35.995  21.987  27.270  1.00  0.00     0.163 HD
BRANCH   4   7
ATOM      7  C   UNL A   1      33.248  20.891  25.592  1.00  0.00     0.098 C 
BRANCH   7   8
ATOM      8  C   UNL A   1      32.127  21.862  25.232  1.00  0.00     0.129 C 
BRANCH   8   9
ATOM      9  N   UNL A   1      31.139  22.092  26.266  1.00  0.00    -0.352 N 
ATOM     10  C   UNL A   1      30.588  23.264  26.684  1.00  0.00     0.244 C 
ATOM     11  O   UNL A   1      29.773  23.236  27.608  1.00  0.00    -0.270 OA
ATOM     12  H   UNL A   1      30.821  21.285  26.732  1.00  0.00     0.163 HD
BRANCH  10  13
ATOM     13  C   UNL A   1      30.973  24.596  26.130  1.00  0.00     0.072 C 
ATOM     14  C   UNL A   1      30.199  25.610  25.708  1.00  0.00     0.025 C 
BRANCH  14  15
ATOM     15  C   UNL A   1      30.707  26.867  25.228  1.00  0.00     0.030 A 
ATOM     16  C   UNL A   1      31.655  27.838  27.418  1.00  0.00     0.046 C 
ATOM     17  C   UNL A   1      31.381  27.856  25.950  1.00  0.00    -0.033 A 
ATOM     18  C   UNL A   1      31.799  28.944  25.115  1.00  0.00     0.016 A 
ATOM     19  C   UNL A   1      31.444  28.770  23.802  1.00  0.00     0.066 A 
ATOM     20  S   UNL A   1      30.607  27.310  23.560  1.00  0.00    -0.144 S 
ENDBRANCH  14  15
ENDBRANCH  10  13
ENDBRANCH   8   9
ENDBRANCH   7   8
BRANCH   7  21
ATOM     21  C   UNL A   1      32.816  19.408  25.744  1.00  0.00     0.018 C 
BRANCH  21  22
ATOM     22  C   UNL A   1      33.183  18.344  24.691  1.00  0.00    -0.017 C 
ATOM     23  C   UNL A   1      32.503  18.495  23.338  1.00  0.00     0.007 C 
ATOM     24  C   UNL A   1      34.700  18.330  24.463  1.00  0.00     0.007 C 
ENDBRANCH  21  22
ENDBRANCH   7  21
ENDBRANCH   4   7
ENDBRANCH   2   3
ENDBRANCH   1   2
BRANCH   1  25
ATOM     25  C   UNL A   1      37.384  23.777  26.140  1.00  0.00     0.023 C 
BRANCH  25  26
ATOM     26  C   UNL A   1      38.621  24.371  26.791  1.00  0.00     0.116 C 
BRANCH  26  27
ATOM     27  N   UNL A   1      39.756  24.545  25.894  1.00  0.00    -0.352 N 
ATOM     28  C   UNL A   1      40.882  25.321  26.093  1.00  0.00     0.251 C 
ATOM     29  H   UNL A   1      39.716  24.050  25.044  1.00  0.00     0.163 HD
ATOM     30  O   UNL A   1      41.737  25.419  25.231  1.00  0.00    -0.269 OA
BRANCH  28  31
ATOM     31  C   UNL A   1      40.988  26.075  27.363  1.00  0.00     0.039 A 
ATOM     32  C   UNL A   1      41.901  27.126  27.450  1.00  0.00     0.014 A 
ATOM     33  C   UNL A   1      40.085  25.826  28.397  1.00  0.00     0.014 A 
ATOM     34  C   UNL A   1      41.839  27.995  28.542  1.00  0.00     0.010 A 
ATOM     35  C   UNL A   1      39.960  26.747  29.429  1.00  0.00     0.010 A 
ATOM     36  C   UNL A   1      40.831  27.844  29.510  1.00  0.00    -0.014 A 
BRANCH  36  37
ATOM     37  C   UNL A   1      40.665  28.817  30.620  1.00  0.00     0.031 A 
ATOM     38  C   UNL A   1      41.525  28.696  31.849  1.00  0.00     0.074 A 
ATOM     39  C   UNL A   1      39.691  29.748  30.561  1.00  0.00     0.049 A 
ATOM     40  N   UNL A   1      41.470  29.374  32.965  1.00  0.00    -0.248 NA
ATOM     41  C   UNL A   1      42.557  27.645  31.834  1.00  0.00     0.031 C 
ATOM     42  C   UNL A   1      38.750  29.926  29.452  1.00  0.00     0.029 A 
ATOM     43  N   UNL A   1      39.325  30.717  31.462  1.00  0.00    -0.354 N 
ATOM     44  C   UNL A   1      42.440  28.818  33.790  1.00  0.00     0.074 A 
ATOM     45  C   UNL A   1      43.023  27.707  33.071  1.00  0.00     0.031 C 
ATOM     46  C   UNL A   1      37.939  30.962  29.724  1.00  0.00     0.029 A 
ATOM     47  C   UNL A   1      38.276  31.500  31.038  1.00  0.00     0.049 A 
ATOM     48  H   UNL A   1      39.772  30.840  32.330  1.00  0.00     0.167 HD
ATOM     49  C   UNL A   1      42.835  29.216  35.022  1.00  0.00     0.037 A 
ATOM     50  C   UNL A   1      37.660  32.535  31.641  1.00  0.00     0.037 A 
ATOM     51  C   UNL A   1      42.286  30.349  35.715  1.00  0.00     0.049 A 
ATOM     52  C   UNL A   1      38.134  32.978  32.999  1.00  0.00     0.074 A 
ATOM     53  C   UNL A   1      42.656  30.875  36.939  1.00  0.00     0.029 A 
ATOM     54  N   UNL A   1      41.251  31.140  35.236  1.00  0.00    -0.354 N 
ATOM     55  N   UNL A   1      39.091  32.475  33.742  1.00  0.00    -0.248 NA
ATOM     56  C   UNL A   1      37.449  34.131  33.599  1.00  0.00     0.031 C 
ATOM     57  C   UNL A   1      41.828  31.969  37.212  1.00  0.00     0.029 A 
ATOM     58  C   UNL A   1      40.964  32.145  36.142  1.00  0.00     0.049 A 
ATOM     59  H   UNL A   1      40.788  31.006  34.377  1.00  0.00     0.167 HD
ATOM     60  C   UNL A   1      39.141  33.266  34.884  1.00  0.00     0.074 A 
ATOM     61  C   UNL A   1      38.123  34.286  34.730  1.00  0.00     0.031 C 
ATOM     62  C   UNL A   1      39.955  33.158  35.963  1.00  0.00     0.037 A 
BRANCH  49  63
ATOM     63  C   UNL A   1      43.928  28.423  35.683  1.00  0.00     0.058 A 
ATOM     64  C   UNL A   1      43.639  27.363  36.557  1.00  0.00     0.135 A 
ATOM     65  C   UNL A   1      45.278  28.724  35.443  1.00  0.00     0.135 A 
ATOM     66  F   UNL A   1      42.364  27.046  36.837  1.00  0.00    -0.206 F 
ATOM     67  C   UNL A   1      44.647  26.657  37.204  1.00  0.00     0.059 A 
ATOM     68  C   UNL A   1      46.305  28.011  36.057  1.00  0.00     0.059 A 
ATOM     69  F   UNL A   1      45.611  29.727  34.615  1.00  0.00    -0.206 F 
ATOM     70  C   UNL A   1      45.977  26.993  36.952  1.00  0.00     0.060 A 
BRANCH  70  71
ATOM     71  S   UNL A   1      47.275  26.079  37.810  1.00  0.00     0.124 S 
ATOM     72  O   UNL A   1      46.510  24.994  38.419  1.00  0.00    -0.237 OA
ATOM     73  O   UNL A   1      48.163  25.691  36.718  1.00  0.00    -0.237 OA
ATOM     74  O   UNL A   1      47.823  27.061  38.741  1.00  0.00    -0.744 OA
ENDBRANCH  70  71
ENDBRANCH  49  63
BRANCH  50  75
ATOM     75  C   UNL A   1      36.559  33.254  30.947  1.00  0.00     0.058 A 
ATOM     76  C   UNL A   1      35.219  32.961  31.238  1.00  0.00     0.135 A 
ATOM     77  C   UNL A   1      36.818  34.251  29.994  1.00  0.00     0.135 A 
ATOM     78  F   UNL A   1      34.921  32.012  32.139  1.00  0.00    -0.206 F 
ATOM     79  C   UNL A   1      34.172  33.620  30.602  1.00  0.00     0.059 A 
ATOM     80  C   UNL A   1      35.788  34.939  29.357  1.00  0.00     0.059 A 
ATOM     81  F   UNL A   1      38.083  34.579  29.692  1.00  0.00    -0.206 F 
ATOM     82  C   UNL A   1      34.467  34.609  29.663  1.00  0.00     0.060 A 
BRANCH  82  83
ATOM     83  S   UNL A   1      33.102  35.497  28.881  1.00  0.00     0.124 S 
ATOM     84  O   UNL A   1      32.405  34.416  28.194  1.00  0.00    -0.237 OA
ATOM     85  O   UNL A   1      32.412  36.074  30.030  1.00  0.00    -0.237 OA
ATOM     86  O   UNL A   1      33.781  36.460  28.019  1.00  0.00    -0.744 OA
ENDBRANCH  82  83
ENDBRANCH  50  75
BRANCH  62  87
ATOM     87  C   UNL A   1      39.802  34.186  37.047  1.00  0.00     0.058 A 
ATOM     88  C   UNL A   1      40.351  35.471  36.925  1.00  0.00     0.135 A 
ATOM     89  C   UNL A   1      39.048  33.897  38.196  1.00  0.00     0.135 A 
ATOM     90  F   UNL A   1      41.085  35.793  35.847  1.00  0.00    -0.206 F 
ATOM     91  C   UNL A   1      40.173  36.432  37.914  1.00  0.00     0.059 A 
ATOM     92  C   UNL A   1      38.838  34.851  39.187  1.00  0.00     0.059 A 
ATOM     93  F   UNL A   1      38.495  32.685  38.356  1.00  0.00    -0.206 F 
ATOM     94  C   UNL A   1      39.414  36.112  39.041  1.00  0.00     0.060 A 
BRANCH  94  95
ATOM     95  S   UNL A   1      39.155  37.379  40.301  1.00  0.00     0.124 S 
ATOM     96  O   UNL A   1      38.568  36.599  41.385  1.00  0.00    -0.237 OA
ATOM     97  O   UNL A   1      40.510  37.872  40.535  1.00  0.00    -0.237 OA
ATOM     98  O   UNL A   1      38.255  38.326  39.649  1.00  0.00    -0.744 OA
ENDBRANCH  94  95
ENDBRANCH  62  87
ENDBRANCH  36  37
ENDBRANCH  28  31
ENDBRANCH  26  27
ENDBRANCH  25  26
ENDBRANCH   1  25
TORSDOF 20
ENDMDL
MODEL 2
REMARK VINA RESULT:     -11.4      0.648      8.214
REMARK SMILES Cc1ccsc1/C=C/C(=O)NC[C@H](CC(C)C)C(=O)NCCCCNC(=O)c1ccc(-c2c3nc(c(-c4c(F)cc(S(=O)(=O)[O-])cc4F)c4ccc([nH]4)c(-c4c(F)cc(S(=O)(=O)[O-])cc4F)c4nc(c(-c5c(F)cc(S(=O)(=O)[O-])cc5F)c5ccc2[nH]5)C=C4)C=C3)cc1
REMARK SMILES IDX 22 1 21 2 20 3 18 4 19 5 13 7 12 8 11 9 9 10 10 11 8 13 7 14
REMARK SMILES IDX 6 15 1 16 2 17 3 18 4 19 5 20 14 21 15 22 16 23 17 24 23 25
REMARK SMILES IDX 24 26 25 27 26 28 27 30 28 31 29 32 93 33 30 34 92 35 31 36
REMARK SMILES IDX 32 37 33 38 86 39 34 40 91 41 85 42 87 43 35 44 90 45 84 46
REMARK SMILES IDX 83 47 36 49 70 50 49 51 69 52 50 53 53 54 68 55 88 56 51 57
REMARK SMILES IDX 52 58 67 60 89 61 54 62 37 63 38 64 47 65 39 66 40 67 46 68
REMARK SMILES IDX 48 69 41 70 42 71 43 72 44 73 45 74 71 75 72 76 81 77 73 78
REMARK SMILES IDX 74 79 80 80 82 81 75 82 76 83 77 84 78 85 79 86 55 87 56 88
REMARK SMILES IDX 65 89 57 90 58 91 64 92 66 93 59 94 60 95 61 96 62 97 63 98
REMARK H PARENT 20 6 11 12 25 29 87 48 53 59
REMARK Flexibility Score: inf
ROOT
ATOM      1  C   UNL A   1      37.413  22.812  25.181  1.00  0.00     0.023 C 
ENDROOT
BRANCH   1   2
ATOM      2  C   UNL A   1      36.373  21.693  25.207  1.00  0.00     0.116 C 
BRANCH   2   3
ATOM      3  N   UNL A   1      35.521  21.756  26.374  1.00  0.00    -0.356 N 
ATOM      4  C   UNL A   1      34.232  21.394  26.598  1.00  0.00     0.224 C 
ATOM      5  O   UNL A   1      33.818  21.543  27.754  1.00  0.00    -0.275 OA
ATOM      6  H   UNL A   1      35.964  22.140  27.166  1.00  0.00     0.163 HD
BRANCH   4   7
ATOM      7  C   UNL A   1      33.271  20.854  25.534  1.00  0.00     0.098 C 
BRANCH   7   8
ATOM      8  C   UNL A   1      32.106  21.764  25.156  1.00  0.00     0.129 C 
BRANCH   8   9
ATOM      9  N   UNL A   1      31.110  21.971  26.187  1.00  0.00    -0.352 N 
ATOM     10  C   UNL A   1      30.600  23.137  26.669  1.00  0.00     0.244 C 
ATOM     11  O   UNL A   1      29.768  23.087  27.577  1.00  0.00    -0.270 OA
ATOM     12  H   UNL A   1      30.752  21.151  26.598  1.00  0.00     0.163 HD
BRANCH  10  13
ATOM     13  C   UNL A   1      31.048  24.483  26.203  1.00  0.00     0.072 C 
ATOM     14  C   UNL A   1      30.324  25.559  25.850  1.00  0.00     0.025 C 
BRANCH  14  15
ATOM     15  C   UNL A   1      30.891  26.819  25.453  1.00  0.00     0.030 A 
ATOM     16  C   UNL A   1      29.408  27.364  23.419  1.00  0.00     0.046 C 
ATOM     17  C   UNL A   1      30.490  27.654  24.407  1.00  0.00    -0.033 A 
ATOM     18  C   UNL A   1      31.252  28.867  24.360  1.00  0.00     0.016 A 
ATOM     19  C   UNL A   1      32.199  28.935  25.349  1.00  0.00     0.066 A 
ATOM     20  S   UNL A   1      32.188  27.550  26.335  1.00  0.00    -0.144 S 
ENDBRANCH  14  15
ENDBRANCH  10  13
ENDBRANCH   8   9
ENDBRANCH   7   8
BRANCH   7  21
ATOM     21  C   UNL A   1      32.908  19.358  25.727  1.00  0.00     0.018 C 
BRANCH  21  22
ATOM     22  C   UNL A   1      33.089  18.327  24.595  1.00  0.00    -0.017 C 
ATOM     23  C   UNL A   1      32.424  18.678  23.272  1.00  0.00     0.007 C 
ATOM     24  C   UNL A   1      34.582  18.093  24.331  1.00  0.00     0.007 C 
ENDBRANCH  21  22
ENDBRANCH   7  21
ENDBRANCH   4   7
ENDBRANCH   2   3
ENDBRANCH   1   2
BRANCH   1  25
ATOM     25  C   UNL A   1      37.316  23.841  26.295  1.00  0.00     0.023 C 
BRANCH  25  26
ATOM     26  C   UNL A   1      38.641  24.289  26.890  1.00  0.00     0.116 C 
BRANCH  26  27
ATOM     27  N   UNL A   1      39.624  24.739  25.913  1.00  0.00    -0.352 N 
ATOM     28  C   UNL A   1      40.634  25.665  26.094  1.00  0.00     0.251 C 
ATOM     29  H   UNL A   1      39.560  24.336  25.018  1.00  0.00     0.163 HD
ATOM     30  O   UNL A   1      41.358  25.991  25.171  1.00  0.00    -0.269 OA
BRANCH  28  31
ATOM     31  C   UNL A   1      40.771  26.288  27.429  1.00  0.00     0.039 A 
ATOM     32  C   UNL A   1      41.770  27.242  27.630  1.00  0.00     0.014 A 
ATOM     33  C   UNL A   1      39.823  26.029  28.420  1.00  0.00     0.014 A 
ATOM     34  C   UNL A   1      41.755  28.011  28.796  1.00  0.00     0.010 A 
ATOM     35  C   UNL A   1      39.752  26.861  29.529  1.00  0.00     0.010 A 
ATOM     36  C   UNL A   1      40.713  27.864  29.727  1.00  0.00    -0.014 A 
BRANCH  36  37
ATOM     37  C   UNL A   1      40.602  28.745  30.918  1.00  0.00     0.031 A 
ATOM     38  C   UNL A   1      39.573  29.843  30.938  1.00  0.00     0.074 A 
ATOM     39  C   UNL A   1      41.474  28.614  31.939  1.00  0.00     0.049 A 
ATOM     40  N   UNL A   1      39.382  30.779  31.829  1.00  0.00    -0.248 NA
ATOM     41  C   UNL A   1      38.668  29.922  29.779  1.00  0.00     0.031 C 
ATOM     42  C   UNL A   1      42.558  27.629  32.010  1.00  0.00     0.029 A 
ATOM     43  N   UNL A   1      41.594  29.319  33.110  1.00  0.00    -0.354 N 
ATOM     44  C   UNL A   1      38.353  31.568  31.329  1.00  0.00     0.074 A 
ATOM     45  C   UNL A   1      38.006  31.041  30.028  1.00  0.00     0.031 C 
ATOM     46  C   UNL A   1      43.207  27.772  33.177  1.00  0.00     0.029 A 
ATOM     47  C   UNL A   1      42.613  28.877  33.922  1.00  0.00     0.049 A 
ATOM     48  H   UNL A   1      41.004  30.071  33.347  1.00  0.00     0.167 HD
ATOM     49  C   UNL A   1      37.729  32.618  31.914  1.00  0.00     0.037 A 
ATOM     50  C   UNL A   1      43.018  29.315  35.130  1.00  0.00     0.037 A 
ATOM     51  C   UNL A   1      38.045  33.111  33.226  1.00  0.00     0.049 A 
ATOM     52  C   UNL A   1      42.292  30.465  35.773  1.00  0.00     0.074 A 
ATOM     53  C   UNL A   1      37.434  34.129  33.936  1.00  0.00     0.029 A 
ATOM     54  N   UNL A   1      39.059  32.613  34.032  1.00  0.00    -0.354 N 
ATOM     55  N   UNL A   1      41.285  31.165  35.309  1.00  0.00    -0.248 NA
ATOM     56  C   UNL A   1      42.754  30.883  37.104  1.00  0.00     0.031 C 
ATOM     57  C   UNL A   1      38.094  34.263  35.162  1.00  0.00     0.029 A 
ATOM     58  C   UNL A   1      39.095  33.306  35.230  1.00  0.00     0.049 A 
ATOM     59  H   UNL A   1      39.663  31.875  33.789  1.00  0.00     0.167 HD
ATOM     60  C   UNL A   1      40.974  32.088  36.302  1.00  0.00     0.074 A 
ATOM     61  C   UNL A   1      41.896  31.851  37.394  1.00  0.00     0.031 C 
ATOM     62  C   UNL A   1      40.013  33.045  36.309  1.00  0.00     0.037 A 
BRANCH  49  63
ATOM     63  C   UNL A   1      36.630  33.285  31.134  1.00  0.00     0.058 A 
ATOM     64  C   UNL A   1      35.277  33.080  31.453  1.00  0.00     0.135 A 
ATOM     65  C   UNL A   1      36.928  34.134  30.056  1.00  0.00     0.135 A 
ATOM     66  F   UNL A   1      34.937  32.261  32.462  1.00  0.00    -0.206 F 
ATOM     67  C   UNL A   1      34.258  33.659  30.705  1.00  0.00     0.059 A 
ATOM     68  C   UNL A   1      35.923  34.747  29.312  1.00  0.00     0.059 A 
ATOM     69  F   UNL A   1      38.204  34.364  29.709  1.00  0.00    -0.206 F 
ATOM     70  C   UNL A   1      34.591  34.486  29.632  1.00  0.00     0.060 A 
BRANCH  70  71
ATOM     71  S   UNL A   1      33.258  35.218  28.661  1.00  0.00     0.124 S 
ATOM     72  O   UNL A   1      32.450  35.843  29.705  1.00  0.00    -0.237 OA
ATOM     73  O   UNL A   1      33.976  36.137  27.783  1.00  0.00    -0.237 OA
ATOM     74  O   UNL A   1      32.650  34.069  27.999  1.00  0.00    -0.744 OA
ENDBRANCH  70  71
ENDBRANCH  49  63
BRANCH  50  75
ATOM     75  C   UNL A   1      44.138  28.633  35.832  1.00  0.00     0.058 A 
ATOM     76  C   UNL A   1      45.466  29.027  35.610  1.00  0.00     0.135 A 
ATOM     77  C   UNL A   1      43.909  27.590  36.742  1.00  0.00     0.135 A 
ATOM     78  F   UNL A   1      45.735  30.017  34.744  1.00  0.00    -0.206 F 
ATOM     79  C   UNL A   1      46.530  28.405  36.254  1.00  0.00     0.059 A 
ATOM     80  C   UNL A   1      44.956  26.964  37.415  1.00  0.00     0.059 A 
ATOM     81  F   UNL A   1      42.656  27.188  37.001  1.00  0.00    -0.206 F 
ATOM     82  C   UNL A   1      46.264  27.374  37.157  1.00  0.00     0.060 A 
BRANCH  82  83
ATOM     83  S   UNL A   1      47.647  26.608  38.030  1.00  0.00     0.124 S 
ATOM     84  O   UNL A   1      47.010  25.435  38.618  1.00  0.00    -0.237 OA
ATOM     85  O   UNL A   1      48.588  26.346  36.945  1.00  0.00    -0.237 OA
ATOM     86  O   UNL A   1      48.061  27.642  38.973  1.00  0.00    -0.744 OA
ENDBRANCH  82  83
ENDBRANCH  50  75
BRANCH  62  87
ATOM     87  C   UNL A   1      39.888  33.886  37.547  1.00  0.00     0.058 A 
ATOM     88  C   UNL A   1      40.563  35.108  37.678  1.00  0.00     0.135 A 
ATOM     89  C   UNL A   1      39.036  33.488  38.590  1.00  0.00     0.135 A 
ATOM     90  F   UNL A   1      41.393  35.528  36.710  1.00  0.00    -0.206 F 
ATOM     91  C   UNL A   1      40.412  35.902  38.810  1.00  0.00     0.059 A 
ATOM     92  C   UNL A   1      38.852  34.277  39.721  1.00  0.00     0.059 A 
ATOM     93  F   UNL A   1      38.360  32.330  38.508  1.00  0.00    -0.206 F 
ATOM     94  C   UNL A   1      39.553  35.477  39.826  1.00  0.00     0.060 A 
BRANCH  94  95
ATOM     95  S   UNL A   1      39.333  36.534  41.274  1.00  0.00     0.124 S 
ATOM     96  O   UNL A   1      40.692  36.591  41.803  1.00  0.00    -0.237 OA
ATOM     97  O   UNL A   1      38.828  37.771  40.687  1.00  0.00    -0.237 OA
ATOM     98  O   UNL A   1      38.372  35.796  42.088  1.00  0.00    -0.744 OA
ENDBRANCH  94  95
ENDBRANCH  62  87
ENDBRANCH  36  37
ENDBRANCH  28  31
ENDBRANCH  26  27
ENDBRANCH  25  26
ENDBRANCH   1  25
TORSDOF 20
ENDMDL
MODEL 3
REMARK VINA RESULT:     -11.2      2.678      8.962
REMARK SMILES Cc1ccsc1/C=C/C(=O)NC[C@H](CC(C)C)C(=O)NCCCCNC(=O)c1ccc(-c2c3nc(c(-c4c(F)cc(S(=O)(=O)[O-])cc4F)c4ccc([nH]4)c(-c4c(F)cc(S(=O)(=O)[O-])cc4F)c4nc(c(-c5c(F)cc(S(=O)(=O)[O-])cc5F)c5ccc2[nH]5)C=C4)C=C3)cc1
REMARK SMILES IDX 22 1 21 2 20 3 18 4 19 5 13 7 12 8 11 9 9 10 10 11 8 13 7 14
REMARK SMILES IDX 6 15 1 16 2 17 3 18 4 19 5 20 14 21 15 22 16 23 17 24 23 25
REMARK SMILES IDX 24 26 25 27 26 28 27 30 28 31 29 32 93 33 30 34 92 35 31 36
REMARK SMILES IDX 32 37 33 38 86 39 34 40 91 41 85 42 87 43 35 44 90 45 84 46
REMARK SMILES IDX 83 47 36 49 70 50 49 51 69 52 50 53 53 54 68 55 88 56 51 57
REMARK SMILES IDX 52 58 67 60 89 61 54 62 37 63 38 64 47 65 39 66 40 67 46 68
REMARK SMILES IDX 48 69 41 70 42 71 43 72 44 73 45 74 71 75 72 76 81 77 73 78
REMARK SMILES IDX 74 79 80 80 82 81 75 82 76 83 77 84 78 85 79 86 55 87 56 88
REMARK SMILES IDX 65 89 57 90 58 91 64 92 66 93 59 94 60 95 61 96 62 97 63 98
REMARK H PARENT 20 6 11 12 25 29 87 48 53 59
REMARK Flexibility Score: inf
ROOT
ATOM      1  C   UNL A   1      33.066  30.837  26.954  1.00  0.00     0.023 C 
ENDROOT
BRANCH   1   2
ATOM      2  C   UNL A   1      31.609  30.924  26.502  1.00  0.00     0.116 C 
BRANCH   2   3
ATOM      3  N   UNL A   1      31.410  30.391  25.172  1.00  0.00    -0.356 N 
ATOM      4  C   UNL A   1      31.636  29.171  24.622  1.00  0.00     0.224 C 
ATOM      5  O   UNL A   1      31.298  29.037  23.439  1.00  0.00    -0.275 OA
ATOM      6  H   UNL A   1      31.036  31.045  24.537  1.00  0.00     0.163 HD
BRANCH   4   7
ATOM      7  C   UNL A   1      32.291  27.989  25.341  1.00  0.00     0.098 C 
BRANCH   7   8
ATOM      8  C   UNL A   1      33.507  27.374  24.654  1.00  0.00     0.129 C 
BRANCH   8   9
ATOM      9  N   UNL A   1      33.369  27.125  23.235  1.00  0.00    -0.352 N 
ATOM     10  C   UNL A   1      33.625  25.989  22.531  1.00  0.00     0.244 C 
ATOM     11  O   UNL A   1      33.461  26.001  21.310  1.00  0.00    -0.270 OA
ATOM     12  H   UNL A   1      33.044  27.887  22.703  1.00  0.00     0.163 HD
BRANCH  10  13
ATOM     13  C   UNL A   1      34.165  24.743  23.152  1.00  0.00     0.072 C 
ATOM     14  C   UNL A   1      33.518  23.657  23.609  1.00  0.00     0.025 C 
BRANCH  14  15
ATOM     15  C   UNL A   1      34.171  22.498  24.154  1.00  0.00     0.030 A 
ATOM     16  C   UNL A   1      32.144  20.940  24.466  1.00  0.00     0.046 C 
ATOM     17  C   UNL A   1      33.599  21.274  24.513  1.00  0.00    -0.033 A 
ATOM     18  C   UNL A   1      34.580  20.328  24.956  1.00  0.00     0.016 A 
ATOM     19  C   UNL A   1      35.854  20.834  24.930  1.00  0.00     0.066 A 
ATOM     20  S   UNL A   1      35.885  22.443  24.380  1.00  0.00    -0.144 S 
ENDBRANCH  14  15
ENDBRANCH  10  13
ENDBRANCH   8   9
ENDBRANCH   7   8
BRANCH   7  21
ATOM     21  C   UNL A   1      31.272  26.971  25.919  1.00  0.00     0.018 C 
BRANCH  21  22
ATOM     22  C   UNL A   1      30.838  25.720  25.131  1.00  0.00    -0.017 C 
ATOM     23  C   UNL A   1      30.617  24.463  25.960  1.00  0.00     0.007 C 
ATOM     24  C   UNL A   1      29.550  26.010  24.351  1.00  0.00     0.007 C 
ENDBRANCH  21  22
ENDBRANCH   7  21
ENDBRANCH   4   7
ENDBRANCH   2   3
ENDBRANCH   1   2
BRANCH   1  25
ATOM     25  C   UNL A   1      33.510  31.864  27.983  1.00  0.00     0.023 C 
BRANCH  25  26
ATOM     26  C   UNL A   1      33.871  33.232  27.429  1.00  0.00     0.116 C 
BRANCH  26  27
ATOM     27  N   UNL A   1      33.073  34.331  27.957  1.00  0.00    -0.352 N 
ATOM     28  C   UNL A   1      33.238  34.997  29.157  1.00  0.00     0.251 C 
ATOM     29  H   UNL A   1      32.327  34.636  27.392  1.00  0.00     0.163 HD
ATOM     30  O   UNL A   1      32.462  35.869  29.502  1.00  0.00    -0.269 OA
BRANCH  28  31
ATOM     31  C   UNL A   1      34.355  34.577  30.034  1.00  0.00     0.039 A 
ATOM     32  C   UNL A   1      34.072  33.823  31.174  1.00  0.00     0.014 A 
ATOM     33  C   UNL A   1      35.674  34.810  29.642  1.00  0.00     0.014 A 
ATOM     34  C   UNL A   1      35.121  33.215  31.868  1.00  0.00     0.010 A 
ATOM     35  C   UNL A   1      36.703  34.125  30.273  1.00  0.00     0.010 A 
ATOM     36  C   UNL A   1      36.438  33.316  31.389  1.00  0.00    -0.014 A 
BRANCH  36  37
ATOM     37  C   UNL A   1      37.560  32.588  32.036  1.00  0.00     0.031 A 
ATOM     38  C   UNL A   1      38.084  33.061  33.365  1.00  0.00     0.074 A 
ATOM     39  C   UNL A   1      38.159  31.564  31.395  1.00  0.00     0.049 A 
ATOM     40  N   UNL A   1      39.114  32.633  34.045  1.00  0.00    -0.248 NA
ATOM     41  C   UNL A   1      37.378  34.192  33.990  1.00  0.00     0.031 C 
ATOM     42  C   UNL A   1      37.785  31.052  30.073  1.00  0.00     0.029 A 
ATOM     43  N   UNL A   1      39.217  30.773  31.766  1.00  0.00    -0.354 N 
ATOM     44  C   UNL A   1      39.193  33.454  35.163  1.00  0.00     0.074 A 
ATOM     45  C   UNL A   1      38.148  34.446  35.037  1.00  0.00     0.031 C 
ATOM     46  C   UNL A   1      38.578  30.014  29.762  1.00  0.00     0.029 A 
ATOM     47  C   UNL A   1      39.539  29.807  30.840  1.00  0.00     0.049 A 
ATOM     48  H   UNL A   1      39.701  30.887  32.615  1.00  0.00     0.167 HD
ATOM     49  C   UNL A   1      40.039  33.373  36.217  1.00  0.00     0.037 A 
ATOM     50  C   UNL A   1      40.499  28.862  30.863  1.00  0.00     0.037 A 
ATOM     51  C   UNL A   1      41.047  32.359  36.362  1.00  0.00     0.049 A 
ATOM     52  C   UNL A   1      41.409  28.772  32.058  1.00  0.00     0.074 A 
ATOM     53  C   UNL A   1      41.914  32.149  37.419  1.00  0.00     0.029 A 
ATOM     54  N   UNL A   1      41.316  31.375  35.421  1.00  0.00    -0.354 N 
ATOM     55  N   UNL A   1      41.434  29.524  33.132  1.00  0.00    -0.248 NA
ATOM     56  C   UNL A   1      42.418  27.704  32.047  1.00  0.00     0.031 C 
ATOM     57  C   UNL A   1      42.725  31.053  37.106  1.00  0.00     0.029 A 
ATOM     58  C   UNL A   1      42.340  30.559  35.869  1.00  0.00     0.049 A 
ATOM     59  H   UNL A   1      40.848  31.272  34.561  1.00  0.00     0.167 HD
ATOM     60  C   UNL A   1      42.441  29.003  33.937  1.00  0.00     0.074 A 
ATOM     61  C   UNL A   1      42.997  27.868  33.228  1.00  0.00     0.031 C 
ATOM     62  C   UNL A   1      42.869  29.427  35.152  1.00  0.00     0.037 A 
BRANCH  49  63
ATOM     63  C   UNL A   1      39.886  34.404  37.301  1.00  0.00     0.058 A 
ATOM     64  C   UNL A   1      39.146  34.140  38.465  1.00  0.00     0.135 A 
ATOM     65  C   UNL A   1      40.483  35.669  37.177  1.00  0.00     0.135 A 
ATOM     66  F   UNL A   1      38.538  32.953  38.625  1.00  0.00    -0.206 F 
ATOM     67  C   UNL A   1      38.965  35.107  39.447  1.00  0.00     0.059 A 
ATOM     68  C   UNL A   1      40.340  36.642  38.162  1.00  0.00     0.059 A 
ATOM     69  F   UNL A   1      41.202  35.973  36.085  1.00  0.00    -0.206 F 
ATOM     70  C   UNL A   1      39.562  36.358  39.284  1.00  0.00     0.060 A 
BRANCH  70  71
ATOM     71  S   UNL A   1      39.307  37.608  40.560  1.00  0.00     0.124 S 
ATOM     72  O   UNL A   1      38.232  38.405  39.973  1.00  0.00    -0.237 OA
ATOM     73  O   UNL A   1      38.935  36.803  41.720  1.00  0.00    -0.237 OA
ATOM     74  O   UNL A   1      40.604  38.271  40.649  1.00  0.00    -0.744 OA
ENDBRANCH  70  71
ENDBRANCH  49  63
BRANCH  50  75
ATOM     75  C   UNL A   1      40.619  27.895  29.740  1.00  0.00     0.058 A 
ATOM     76  C   UNL A   1      39.711  26.834  29.609  1.00  0.00     0.135 A 
ATOM     77  C   UNL A   1      41.628  28.014  28.772  1.00  0.00     0.135 A 
ATOM     78  F   UNL A   1      38.731  26.675  30.514  1.00  0.00    -0.206 F 
ATOM     79  C   UNL A   1      39.803  25.917  28.568  1.00  0.00     0.059 A 
ATOM     80  C   UNL A   1      41.730  27.121  27.709  1.00  0.00     0.059 A 
ATOM     81  F   UNL A   1      42.511  29.022  28.844  1.00  0.00    -0.206 F 
ATOM     82  C   UNL A   1      40.817  26.071  27.620  1.00  0.00     0.060 A 
BRANCH  82  83
ATOM     83  S   UNL A   1      40.897  24.907  26.240  1.00  0.00     0.124 S 
ATOM     84  O   UNL A   1      39.540  24.372  26.230  1.00  0.00    -0.237 OA
ATOM     85  O   UNL A   1      41.248  25.778  25.123  1.00  0.00    -0.237 OA
ATOM     86  O   UNL A   1      41.941  23.974  26.651  1.00  0.00    -0.744 OA
ENDBRANCH  82  83
ENDBRANCH  50  75
BRANCH  62  87
ATOM     87  C   UNL A   1      43.968  28.641  35.808  1.00  0.00     0.058 A 
ATOM     88  C   UNL A   1      45.319  28.956  35.606  1.00  0.00     0.135 A 
ATOM     89  C   UNL A   1      43.660  27.595  36.694  1.00  0.00     0.135 A 
ATOM     90  F   UNL A   1      45.664  29.944  34.763  1.00  0.00    -0.206 F 
ATOM     91  C   UNL A   1      46.332  28.251  36.247  1.00  0.00     0.059 A 
ATOM     92  C   UNL A   1      44.656  26.891  37.363  1.00  0.00     0.059 A 
ATOM     93  F   UNL A   1      42.381  27.261  36.928  1.00  0.00    -0.206 F 
ATOM     94  C   UNL A   1      45.989  27.220  37.124  1.00  0.00     0.060 A 
BRANCH  94  95
ATOM     95  S   UNL A   1      47.310  26.336  37.982  1.00  0.00     0.124 S 
ATOM     96  O   UNL A   1      47.152  24.987  37.449  1.00  0.00    -0.237 OA
ATOM     97  O   UNL A   1      48.504  27.054  37.547  1.00  0.00    -0.237 OA
ATOM     98  O   UNL A   1      46.966  26.499  39.391  1.00  0.00    -0.744 OA
ENDBRANCH  94  95
ENDBRANCH  62  87
ENDBRANCH  36  37
ENDBRANCH  28  31
ENDBRANCH  26  27
ENDBRANCH  25  26
ENDBRANCH   1  25
TORSDOF 20
ENDMDL
