MODEL 1
REMARK VINA RESULT:     -13.9      0.000      0.000
REMARK SMILES O=C(NCCCCNC(=O)c1ccccc1-c1ccc(/C=C2/SC(=S)N(Cc3ccccc3)C2=O)o1)c1ccc(-c2c3nc(c(-c4c(F)cc(S(=O)(=O)[O-])cc4F)c4ccc([nH]4)c(-c4c(F)cc(S(=O)(=O)[O-])cc4F)c4nc(c(-c5c(F)cc(S(=O)(=O)[O-])cc5F)c5ccc2[nH]5)C=C4)C=C3)cc1
REMARK SMILES IDX 6 1 5 2 4 3 3 4 1 5 2 6 37 8 38 9 102 10 39 11 101 12 40 13
REMARK SMILES IDX 41 14 42 15 95 16 43 17 100 18 94 19 96 20 44 21 99 22 93 23
REMARK SMILES IDX 92 24 45 26 79 27 58 28 78 29 59 30 62 31 77 32 97 33 60 34
REMARK SMILES IDX 61 35 76 37 98 38 63 39 46 40 47 41 56 42 48 43 49 44 55 45
REMARK SMILES IDX 57 46 50 47 51 48 52 49 53 50 54 51 80 52 81 53 90 54 82 55
REMARK SMILES IDX 83 56 89 57 91 58 84 59 85 60 86 61 87 62 88 63 64 64 65 65
REMARK SMILES IDX 74 66 66 67 67 68 73 69 75 70 68 71 69 72 70 73 71 74 72 75
REMARK SMILES IDX 7 76 8 77 9 78 10 80 11 81 12 82 16 83 13 84 15 85 14 86
REMARK SMILES IDX 17 87 18 88 36 89 19 90 20 91 21 92 22 93 23 94 34 95 24 96
REMARK SMILES IDX 26 97 35 98 25 99 27 100 28 101 29 102 33 103 30 104 32 105
REMARK SMILES IDX 31 106
REMARK H PARENT 3 7 96 25 62 36 8 79
REMARK Flexibility Score: inf
ROOT
ATOM      1  C   UNL A   1      32.854  29.575  27.211  1.00  0.00     0.023 C 
ENDROOT
BRANCH   1   2
ATOM      2  C   UNL A   1      34.198  28.920  26.891  1.00  0.00     0.023 C 
BRANCH   2   3
ATOM      3  C   UNL A   1      35.426  29.556  27.534  1.00  0.00     0.116 C 
BRANCH   3   4
ATOM      4  N   UNL A   1      35.272  29.813  28.960  1.00  0.00    -0.352 N 
ATOM      5  O   UNL A   1      35.891  30.104  31.108  1.00  0.00    -0.269 OA
ATOM      6  C   UNL A   1      36.231  29.931  29.941  1.00  0.00     0.251 C 
ATOM      7  H   UNL A   1      34.343  29.917  29.268  1.00  0.00     0.163 HD
BRANCH   6   8
ATOM      8  C   UNL A   1      37.662  29.793  29.591  1.00  0.00     0.039 A 
ATOM      9  C   UNL A   1      38.103  30.013  28.285  1.00  0.00     0.014 A 
ATOM     10  C   UNL A   1      38.563  29.380  30.576  1.00  0.00     0.014 A 
ATOM     11  C   UNL A   1      39.393  29.640  27.925  1.00  0.00     0.010 A 
ATOM     12  C   UNL A   1      39.887  29.095  30.228  1.00  0.00     0.010 A 
ATOM     13  C   UNL A   1      40.301  29.172  28.890  1.00  0.00    -0.014 A 
BRANCH  13  14
ATOM     14  C   UNL A   1      41.682  28.800  28.482  1.00  0.00     0.031 A 
ATOM     15  C   UNL A   1      42.799  29.811  28.490  1.00  0.00     0.074 A 
ATOM     16  C   UNL A   1      41.931  27.526  28.122  1.00  0.00     0.049 A 
ATOM     17  N   UNL A   1      44.061  29.648  28.177  1.00  0.00    -0.248 NA
ATOM     18  C   UNL A   1      42.457  31.183  28.894  1.00  0.00     0.031 C 
ATOM     19  C   UNL A   1      40.929  26.458  28.069  1.00  0.00     0.029 A 
ATOM     20  N   UNL A   1      43.095  26.907  27.747  1.00  0.00    -0.354 N 
ATOM     21  C   UNL A   1      44.659  30.896  28.322  1.00  0.00     0.074 A 
ATOM     22  C   UNL A   1      43.613  31.813  28.725  1.00  0.00     0.031 C 
ATOM     23  C   UNL A   1      41.529  25.308  27.733  1.00  0.00     0.029 A 
ATOM     24  C   UNL A   1      42.942  25.567  27.478  1.00  0.00     0.049 A 
ATOM     25  H   UNL A   1      43.957  27.376  27.677  1.00  0.00     0.167 HD
ATOM     26  C   UNL A   1      45.957  31.243  28.142  1.00  0.00     0.037 A 
ATOM     27  C   UNL A   1      43.832  24.649  27.059  1.00  0.00     0.037 A 
ATOM     28  C   UNL A   1      46.991  30.318  27.747  1.00  0.00     0.049 A 
ATOM     29  C   UNL A   1      45.258  25.063  26.836  1.00  0.00     0.074 A 
ATOM     30  C   UNL A   1      48.344  30.560  27.574  1.00  0.00     0.029 A 
ATOM     31  N   UNL A   1      46.790  28.977  27.451  1.00  0.00    -0.354 N 
ATOM     32  N   UNL A   1      45.810  26.239  27.010  1.00  0.00    -0.248 NA
ATOM     33  C   UNL A   1      46.179  24.026  26.358  1.00  0.00     0.031 C 
ATOM     34  C   UNL A   1      48.948  29.382  27.121  1.00  0.00     0.029 A 
ATOM     35  C   UNL A   1      47.985  28.387  27.070  1.00  0.00     0.049 A 
ATOM     36  H   UNL A   1      45.923  28.512  27.503  1.00  0.00     0.167 HD
ATOM     37  C   UNL A   1      47.152  26.079  26.687  1.00  0.00     0.074 A 
ATOM     38  C   UNL A   1      47.328  24.688  26.317  1.00  0.00     0.031 C 
ATOM     39  C   UNL A   1      48.148  27.000  26.702  1.00  0.00     0.037 A 
BRANCH  26  40
ATOM     40  C   UNL A   1      46.329  32.691  28.337  1.00  0.00     0.058 A 
ATOM     41  C   UNL A   1      46.727  33.198  29.585  1.00  0.00     0.135 A 
ATOM     42  C   UNL A   1      46.299  33.586  27.254  1.00  0.00     0.135 A 
ATOM     43  F   UNL A   1      46.768  32.394  30.660  1.00  0.00    -0.206 F 
ATOM     44  C   UNL A   1      47.037  34.543  29.762  1.00  0.00     0.059 A 
ATOM     45  C   UNL A   1      46.634  34.929  27.400  1.00  0.00     0.059 A 
ATOM     46  F   UNL A   1      45.934  33.158  26.035  1.00  0.00    -0.206 F 
ATOM     47  C   UNL A   1      46.979  35.403  28.664  1.00  0.00     0.060 A 
BRANCH  47  48
ATOM     48  S   UNL A   1      47.347  37.153  28.916  1.00  0.00     0.124 S 
ATOM     49  O   UNL A   1      48.125  37.460  27.719  1.00  0.00    -0.237 OA
ATOM     50  O   UNL A   1      46.016  37.748  28.975  1.00  0.00    -0.237 OA
ATOM     51  O   UNL A   1      48.094  37.169  30.169  1.00  0.00    -0.744 OA
ENDBRANCH  47  48
ENDBRANCH  26  40
BRANCH  27  52
ATOM     52  C   UNL A   1      43.387  23.248  26.843  1.00  0.00     0.058 A 
ATOM     53  C   UNL A   1      43.268  22.723  25.548  1.00  0.00     0.135 A 
ATOM     54  C   UNL A   1      43.133  22.390  27.924  1.00  0.00     0.135 A 
ATOM     55  F   UNL A   1      43.496  23.505  24.483  1.00  0.00    -0.206 F 
ATOM     56  C   UNL A   1      42.912  21.396  25.332  1.00  0.00     0.059 A 
ATOM     57  C   UNL A   1      42.803  21.053  27.735  1.00  0.00     0.059 A 
ATOM     58  F   UNL A   1      43.253  22.842  29.183  1.00  0.00    -0.206 F 
ATOM     59  C   UNL A   1      42.691  20.566  26.433  1.00  0.00     0.060 A 
BRANCH  59  60
ATOM     60  S   UNL A   1      42.309  18.826  26.139  1.00  0.00     0.124 S 
ATOM     61  O   UNL A   1      42.544  18.247  27.457  1.00  0.00    -0.237 OA
ATOM     62  O   UNL A   1      40.916  18.889  25.707  1.00  0.00    -0.237 OA
ATOM     63  O   UNL A   1      43.262  18.443  25.102  1.00  0.00    -0.744 OA
ENDBRANCH  59  60
ENDBRANCH  27  52
BRANCH  39  64
ATOM     64  C   UNL A   1      49.530  26.524  26.342  1.00  0.00     0.058 A 
ATOM     65  C   UNL A   1      50.091  26.759  25.077  1.00  0.00     0.135 A 
ATOM     66  C   UNL A   1      50.317  25.853  27.293  1.00  0.00     0.135 A 
ATOM     67  F   UNL A   1      49.379  27.388  24.128  1.00  0.00    -0.206 F 
ATOM     68  C   UNL A   1      51.372  26.323  24.758  1.00  0.00     0.059 A 
ATOM     69  C   UNL A   1      51.611  25.434  27.006  1.00  0.00     0.059 A 
ATOM     70  F   UNL A   1      49.833  25.609  28.521  1.00  0.00    -0.206 F 
ATOM     71  C   UNL A   1      52.126  25.662  25.731  1.00  0.00     0.060 A 
BRANCH  71  72
ATOM     72  S   UNL A   1      53.798  25.123  25.314  1.00  0.00     0.124 S 
ATOM     73  O   UNL A   1      54.600  25.888  26.263  1.00  0.00    -0.237 OA
ATOM     74  O   UNL A   1      53.731  23.684  25.553  1.00  0.00    -0.237 OA
ATOM     75  O   UNL A   1      53.942  25.512  23.914  1.00  0.00    -0.744 OA
ENDBRANCH  71  72
ENDBRANCH  39  64
ENDBRANCH  13  14
ENDBRANCH   6   8
ENDBRANCH   3   4
ENDBRANCH   2   3
ENDBRANCH   1   2
BRANCH   1  76
ATOM     76  C   UNL A   1      31.990  29.903  26.002  1.00  0.00     0.116 C 
BRANCH  76  77
ATOM     77  N   UNL A   1      32.635  29.679  24.721  1.00  0.00    -0.352 N 
ATOM     78  C   UNL A   1      32.107  29.076  23.604  1.00  0.00     0.252 C 
ATOM     79  H   UNL A   1      33.564  29.997  24.644  1.00  0.00     0.163 HD
ATOM     80  O   UNL A   1      32.758  29.002  22.566  1.00  0.00    -0.269 OA
BRANCH  78  81
ATOM     81  C   UNL A   1      30.768  28.446  23.659  1.00  0.00     0.050 A 
ATOM     82  C   UNL A   1      29.708  29.198  23.132  1.00  0.00     0.014 A 
ATOM     83  C   UNL A   1      30.541  27.170  24.200  1.00  0.00     0.030 A 
ATOM     84  C   UNL A   1      28.422  28.659  23.096  1.00  0.00     0.001 A 
ATOM     85  C   UNL A   1      29.245  26.637  24.143  1.00  0.00     0.013 A 
ATOM     86  C   UNL A   1      28.194  27.376  23.590  1.00  0.00     0.001 A 
BRANCH  83  87
ATOM     87  C   UNL A   1      31.607  26.391  24.802  1.00  0.00     0.135 A 
ATOM     88  C   UNL A   1      31.950  26.082  26.098  1.00  0.00     0.051 A 
ATOM     89  O   UNL A   1      32.571  25.948  23.943  1.00  0.00    -0.457 OA
ATOM     90  C   UNL A   1      33.211  25.450  26.025  1.00  0.00     0.051 A 
ATOM     91  C   UNL A   1      33.582  25.388  24.684  1.00  0.00     0.128 A 
BRANCH  91  92
ATOM     92  C   UNL A   1      34.801  24.912  24.132  1.00  0.00     0.068 C 
ATOM     93  C   UNL A   1      35.084  23.606  24.092  1.00  0.00     0.084 C 
ATOM     94  S   UNL A   1      36.655  22.950  23.855  1.00  0.00    -0.054 SA
ATOM     95  C   UNL A   1      34.144  22.510  24.411  1.00  0.00     0.266 C 
ATOM     96  C   UNL A   1      36.200  21.424  24.627  1.00  0.00     0.148 C 
ATOM     97  N   UNL A   1      34.842  21.414  24.865  1.00  0.00    -0.288 N 
ATOM     98  O   UNL A   1      32.934  22.569  24.225  1.00  0.00    -0.268 OA
ATOM     99  S   UNL A   1      37.315  20.229  24.950  1.00  0.00    -0.052 S 
BRANCH  97 100
ATOM    100  C   UNL A   1      34.084  20.325  25.473  1.00  0.00     0.163 C 
BRANCH 100 101
ATOM    101  C   UNL A   1      33.799  19.192  24.501  1.00  0.00    -0.028 A 
ATOM    102  C   UNL A   1      32.697  19.259  23.638  1.00  0.00     0.005 A 
ATOM    103  C   UNL A   1      34.597  18.035  24.471  1.00  0.00     0.005 A 
ATOM    104  C   UNL A   1      32.402  18.198  22.776  1.00  0.00     0.000 A 
ATOM    105  C   UNL A   1      34.315  16.985  23.596  1.00  0.00     0.000 A 
ATOM    106  C   UNL A   1      33.212  17.065  22.753  1.00  0.00     0.000 A 
ENDBRANCH 100 101
ENDBRANCH  97 100
ENDBRANCH  91  92
ENDBRANCH  83  87
ENDBRANCH  78  81
ENDBRANCH  76  77
ENDBRANCH   1  76
TORSDOF 18
ENDMDL
MODEL 2
REMARK VINA RESULT:     -13.3      1.165      7.957
REMARK SMILES O=C(NCCCCNC(=O)c1ccccc1-c1ccc(/C=C2/SC(=S)N(Cc3ccccc3)C2=O)o1)c1ccc(-c2c3nc(c(-c4c(F)cc(S(=O)(=O)[O-])cc4F)c4ccc([nH]4)c(-c4c(F)cc(S(=O)(=O)[O-])cc4F)c4nc(c(-c5c(F)cc(S(=O)(=O)[O-])cc5F)c5ccc2[nH]5)C=C4)C=C3)cc1
REMARK SMILES IDX 6 1 5 2 4 3 3 4 1 5 2 6 37 8 38 9 102 10 39 11 101 12 40 13
REMARK SMILES IDX 41 14 42 15 95 16 43 17 100 18 94 19 96 20 44 21 99 22 93 23
REMARK SMILES IDX 92 24 45 26 79 27 58 28 78 29 59 30 62 31 77 32 97 33 60 34
REMARK SMILES IDX 61 35 76 37 98 38 63 39 46 40 47 41 56 42 48 43 49 44 55 45
REMARK SMILES IDX 57 46 50 47 51 48 52 49 53 50 54 51 80 52 81 53 90 54 82 55
REMARK SMILES IDX 83 56 89 57 91 58 84 59 85 60 86 61 87 62 88 63 64 64 65 65
REMARK SMILES IDX 74 66 66 67 67 68 73 69 75 70 68 71 69 72 70 73 71 74 72 75
REMARK SMILES IDX 7 76 8 77 9 78 10 80 11 81 12 82 16 83 13 84 15 85 14 86
REMARK SMILES IDX 17 87 18 88 36 89 19 90 20 91 21 92 22 93 23 94 34 95 24 96
REMARK SMILES IDX 26 97 35 98 25 99 27 100 28 101 29 102 33 103 30 104 32 105
REMARK SMILES IDX 31 106
REMARK H PARENT 3 7 96 25 62 36 8 79
REMARK Flexibility Score: inf
ROOT
ATOM      1  C   UNL A   1      32.281  29.356  27.164  1.00  0.00     0.023 C 
ENDROOT
BRANCH   1   2
ATOM      2  C   UNL A   1      33.567  28.550  26.989  1.00  0.00     0.023 C 
BRANCH   2   3
ATOM      3  C   UNL A   1      34.869  29.293  27.271  1.00  0.00     0.116 C 
BRANCH   3   4
ATOM      4  N   UNL A   1      34.802  30.168  28.434  1.00  0.00    -0.352 N 
ATOM      5  O   UNL A   1      35.513  31.231  30.290  1.00  0.00    -0.269 OA
ATOM      6  C   UNL A   1      35.784  30.505  29.339  1.00  0.00     0.251 C 
ATOM      7  H   UNL A   1      33.923  30.580  28.597  1.00  0.00     0.163 HD
BRANCH   6   8
ATOM      8  C   UNL A   1      37.146  29.945  29.189  1.00  0.00     0.039 A 
ATOM      9  C   UNL A   1      37.805  29.367  30.276  1.00  0.00     0.014 A 
ATOM     10  C   UNL A   1      37.791  30.055  27.955  1.00  0.00     0.014 A 
ATOM     11  C   UNL A   1      39.161  29.077  30.180  1.00  0.00     0.010 A 
ATOM     12  C   UNL A   1      39.131  29.673  27.836  1.00  0.00     0.010 A 
ATOM     13  C   UNL A   1      39.843  29.229  28.960  1.00  0.00    -0.014 A 
BRANCH  13  14
ATOM     14  C   UNL A   1      41.289  28.891  28.879  1.00  0.00     0.031 A 
ATOM     15  C   UNL A   1      41.750  27.528  28.430  1.00  0.00     0.074 A 
ATOM     16  C   UNL A   1      42.196  29.837  29.193  1.00  0.00     0.049 A 
ATOM     17  N   UNL A   1      42.971  27.075  28.291  1.00  0.00    -0.248 NA
ATOM     18  C   UNL A   1      40.707  26.544  28.102  1.00  0.00     0.031 C 
ATOM     19  C   UNL A   1      41.871  31.192  29.647  1.00  0.00     0.029 A 
ATOM     20  N   UNL A   1      43.566  29.814  29.169  1.00  0.00    -0.354 N 
ATOM     21  C   UNL A   1      42.846  25.750  27.883  1.00  0.00     0.074 A 
ATOM     22  C   UNL A   1      41.428  25.465  27.824  1.00  0.00     0.031 C 
ATOM     23  C   UNL A   1      43.006  31.885  29.810  1.00  0.00     0.029 A 
ATOM     24  C   UNL A   1      44.140  31.007  29.542  1.00  0.00     0.049 A 
ATOM     25  H   UNL A   1      44.088  29.022  28.909  1.00  0.00     0.167 HD
ATOM     26  C   UNL A   1      43.822  24.859  27.580  1.00  0.00     0.037 A 
ATOM     27  C   UNL A   1      45.434  31.355  29.670  1.00  0.00     0.037 A 
ATOM     28  C   UNL A   1      45.233  25.157  27.637  1.00  0.00     0.049 A 
ATOM     29  C   UNL A   1      46.497  30.342  29.360  1.00  0.00     0.074 A 
ATOM     30  C   UNL A   1      46.301  24.336  27.314  1.00  0.00     0.029 A 
ATOM     31  N   UNL A   1      45.775  26.366  28.051  1.00  0.00    -0.354 N 
ATOM     32  N   UNL A   1      46.360  29.106  28.944  1.00  0.00    -0.248 NA
ATOM     33  C   UNL A   1      47.889  30.770  29.537  1.00  0.00     0.031 C 
ATOM     34  C   UNL A   1      47.486  25.028  27.587  1.00  0.00     0.029 A 
ATOM     35  C   UNL A   1      47.160  26.303  28.021  1.00  0.00     0.049 A 
ATOM     36  H   UNL A   1      45.252  27.153  28.328  1.00  0.00     0.167 HD
ATOM     37  C   UNL A   1      47.650  28.614  28.786  1.00  0.00     0.074 A 
ATOM     38  C   UNL A   1      48.553  29.692  29.141  1.00  0.00     0.031 C 
ATOM     39  C   UNL A   1      48.049  27.383  28.378  1.00  0.00     0.037 A 
BRANCH  26  40
ATOM     40  C   UNL A   1      43.401  23.463  27.195  1.00  0.00     0.058 A 
ATOM     41  C   UNL A   1      42.891  22.551  28.135  1.00  0.00     0.135 A 
ATOM     42  C   UNL A   1      43.496  23.034  25.860  1.00  0.00     0.135 A 
ATOM     43  F   UNL A   1      42.784  22.901  29.426  1.00  0.00    -0.206 F 
ATOM     44  C   UNL A   1      42.535  21.255  27.775  1.00  0.00     0.059 A 
ATOM     45  C   UNL A   1      43.118  21.752  25.472  1.00  0.00     0.059 A 
ATOM     46  F   UNL A   1      43.968  23.863  24.916  1.00  0.00    -0.206 F 
ATOM     47  C   UNL A   1      42.661  20.861  26.441  1.00  0.00     0.060 A 
BRANCH  47  48
ATOM     48  S   UNL A   1      42.231  19.164  25.996  1.00  0.00     0.124 S 
ATOM     49  O   UNL A   1      43.042  18.966  24.798  1.00  0.00    -0.237 OA
ATOM     50  O   UNL A   1      42.652  18.415  27.175  1.00  0.00    -0.237 OA
ATOM     51  O   UNL A   1      40.790  19.223  25.775  1.00  0.00    -0.744 OA
ENDBRANCH  47  48
ENDBRANCH  26  40
BRANCH  27  52
ATOM     52  C   UNL A   1      45.778  32.735  30.098  1.00  0.00     0.058 A 
ATOM     53  C   UNL A   1      46.009  33.033  31.449  1.00  0.00     0.135 A 
ATOM     54  C   UNL A   1      45.943  33.768  29.162  1.00  0.00     0.135 A 
ATOM     55  F   UNL A   1      45.860  32.080  32.381  1.00  0.00    -0.206 F 
ATOM     56  C   UNL A   1      46.392  34.306  31.858  1.00  0.00     0.059 A 
ATOM     57  C   UNL A   1      46.351  35.041  29.543  1.00  0.00     0.059 A 
ATOM     58  F   UNL A   1      45.751  33.528  27.856  1.00  0.00    -0.206 F 
ATOM     59  C   UNL A   1      46.570  35.301  30.895  1.00  0.00     0.060 A 
BRANCH  59  60
ATOM     60  S   UNL A   1      47.144  36.927  31.431  1.00  0.00     0.124 S 
ATOM     61  O   UNL A   1      48.477  36.616  31.935  1.00  0.00    -0.237 OA
ATOM     62  O   UNL A   1      47.092  37.693  30.190  1.00  0.00    -0.237 OA
ATOM     63  O   UNL A   1      46.162  37.315  32.440  1.00  0.00    -0.744 OA
ENDBRANCH  59  60
ENDBRANCH  27  52
BRANCH  39  64
ATOM     64  C   UNL A   1      49.530  27.145  28.256  1.00  0.00     0.058 A 
ATOM     65  C   UNL A   1      50.274  26.548  29.285  1.00  0.00     0.135 A 
ATOM     66  C   UNL A   1      50.207  27.492  27.075  1.00  0.00     0.135 A 
ATOM     67  F   UNL A   1      49.679  26.206  30.440  1.00  0.00    -0.206 F 
ATOM     68  C   UNL A   1      51.641  26.325  29.159  1.00  0.00     0.059 A 
ATOM     69  C   UNL A   1      51.567  27.251  26.915  1.00  0.00     0.059 A 
ATOM     70  F   UNL A   1      49.543  28.059  26.056  1.00  0.00    -0.206 F 
ATOM     71  C   UNL A   1      52.279  26.679  27.968  1.00  0.00     0.060 A 
BRANCH  71  72
ATOM     72  S   UNL A   1      54.049  26.361  27.805  1.00  0.00     0.124 S 
ATOM     73  O   UNL A   1      54.056  25.131  27.020  1.00  0.00    -0.237 OA
ATOM     74  O   UNL A   1      54.519  27.558  27.113  1.00  0.00    -0.237 OA
ATOM     75  O   UNL A   1      54.499  26.227  29.187  1.00  0.00    -0.744 OA
ENDBRANCH  71  72
ENDBRANCH  39  64
ENDBRANCH  13  14
ENDBRANCH   6   8
ENDBRANCH   3   4
ENDBRANCH   2   3
ENDBRANCH   1   2
BRANCH   1  76
ATOM     76  C   UNL A   1      31.778  30.055  25.909  1.00  0.00     0.116 C 
BRANCH  76  77
ATOM     77  N   UNL A   1      32.495  29.704  24.696  1.00  0.00    -0.352 N 
ATOM     78  C   UNL A   1      32.013  29.037  23.594  1.00  0.00     0.252 C 
ATOM     79  H   UNL A   1      33.440  29.975  24.658  1.00  0.00     0.163 HD
ATOM     80  O   UNL A   1      32.725  28.854  22.611  1.00  0.00    -0.269 OA
BRANCH  78  81
ATOM     81  C   UNL A   1      30.645  28.470  23.605  1.00  0.00     0.050 A 
ATOM     82  C   UNL A   1      29.629  29.294  23.099  1.00  0.00     0.014 A 
ATOM     83  C   UNL A   1      30.350  27.183  24.086  1.00  0.00     0.030 A 
ATOM     84  C   UNL A   1      28.320  28.819  23.023  1.00  0.00     0.001 A 
ATOM     85  C   UNL A   1      29.031  26.716  23.989  1.00  0.00     0.013 A 
ATOM     86  C   UNL A   1      28.024  27.528  23.457  1.00  0.00     0.001 A 
BRANCH  83  87
ATOM     87  C   UNL A   1      31.370  26.329  24.666  1.00  0.00     0.135 A 
ATOM     88  C   UNL A   1      31.639  25.895  25.942  1.00  0.00     0.051 A 
ATOM     89  O   UNL A   1      32.369  25.946  23.818  1.00  0.00    -0.457 OA
ATOM     90  C   UNL A   1      32.891  25.244  25.874  1.00  0.00     0.051 A 
ATOM     91  C   UNL A   1      33.331  25.297  24.554  1.00  0.00     0.128 A 
BRANCH  91  92
ATOM     92  C   UNL A   1      34.568  24.848  24.022  1.00  0.00     0.068 C 
ATOM     93  C   UNL A   1      34.893  23.551  24.016  1.00  0.00     0.084 C 
ATOM     94  S   UNL A   1      36.485  22.940  23.806  1.00  0.00    -0.054 SA
ATOM     95  C   UNL A   1      33.986  22.434  24.354  1.00  0.00     0.266 C 
ATOM     96  C   UNL A   1      36.073  21.419  24.611  1.00  0.00     0.148 C 
ATOM     97  N   UNL A   1      34.715  21.371  24.840  1.00  0.00    -0.288 N 
ATOM     98  O   UNL A   1      32.776  22.449  24.159  1.00  0.00    -0.268 OA
ATOM     99  S   UNL A   1      37.223  20.268  24.971  1.00  0.00    -0.052 S 
BRANCH  97 100
ATOM    100  C   UNL A   1      33.988  20.274  25.469  1.00  0.00     0.163 C 
BRANCH 100 101
ATOM    101  C   UNL A   1      33.728  19.118  24.517  1.00  0.00    -0.028 A 
ATOM    102  C   UNL A   1      34.550  17.983  24.539  1.00  0.00     0.005 A 
ATOM    103  C   UNL A   1      32.695  19.172  23.565  1.00  0.00     0.005 A 
ATOM    104  C   UNL A   1      34.346  16.939  23.632  1.00  0.00     0.000 A 
ATOM    105  C   UNL A   1      32.479  18.119  22.674  1.00  0.00     0.000 A 
ATOM    106  C   UNL A   1      33.309  17.005  22.704  1.00  0.00     0.000 A 
ENDBRANCH 100 101
ENDBRANCH  97 100
ENDBRANCH  91  92
ENDBRANCH  83  87
ENDBRANCH  78  81
ENDBRANCH  76  77
ENDBRANCH   1  76
TORSDOF 18
ENDMDL
MODEL 3
REMARK VINA RESULT:     -13.0      1.257      2.355
REMARK SMILES O=C(NCCCCNC(=O)c1ccccc1-c1ccc(/C=C2/SC(=S)N(Cc3ccccc3)C2=O)o1)c1ccc(-c2c3nc(c(-c4c(F)cc(S(=O)(=O)[O-])cc4F)c4ccc([nH]4)c(-c4c(F)cc(S(=O)(=O)[O-])cc4F)c4nc(c(-c5c(F)cc(S(=O)(=O)[O-])cc5F)c5ccc2[nH]5)C=C4)C=C3)cc1
REMARK SMILES IDX 6 1 5 2 4 3 3 4 1 5 2 6 37 8 38 9 102 10 39 11 101 12 40 13
REMARK SMILES IDX 41 14 42 15 95 16 43 17 100 18 94 19 96 20 44 21 99 22 93 23
REMARK SMILES IDX 92 24 45 26 79 27 58 28 78 29 59 30 62 31 77 32 97 33 60 34
REMARK SMILES IDX 61 35 76 37 98 38 63 39 46 40 47 41 56 42 48 43 49 44 55 45
REMARK SMILES IDX 57 46 50 47 51 48 52 49 53 50 54 51 80 52 81 53 90 54 82 55
REMARK SMILES IDX 83 56 89 57 91 58 84 59 85 60 86 61 87 62 88 63 64 64 65 65
REMARK SMILES IDX 74 66 66 67 67 68 73 69 75 70 68 71 69 72 70 73 71 74 72 75
REMARK SMILES IDX 7 76 8 77 9 78 10 80 11 81 12 82 16 83 13 84 15 85 14 86
REMARK SMILES IDX 17 87 18 88 36 89 19 90 20 91 21 92 22 93 23 94 34 95 24 96
REMARK SMILES IDX 26 97 35 98 25 99 27 100 28 101 29 102 33 103 30 104 32 105
REMARK SMILES IDX 31 106
REMARK H PARENT 3 7 96 25 62 36 8 79
REMARK Flexibility Score: inf
ROOT
ATOM      1  C   UNL A   1      32.931  29.338  26.992  1.00  0.00     0.023 C 
ENDROOT
BRANCH   1   2
ATOM      2  C   UNL A   1      34.400  29.416  26.577  1.00  0.00     0.023 C 
BRANCH   2   3
ATOM      3  C   UNL A   1      35.419  28.986  27.627  1.00  0.00     0.116 C 
BRANCH   3   4
ATOM      4  N   UNL A   1      35.275  29.681  28.900  1.00  0.00    -0.352 N 
ATOM      5  O   UNL A   1      35.916  30.687  30.813  1.00  0.00    -0.269 OA
ATOM      6  C   UNL A   1      36.244  30.165  29.751  1.00  0.00     0.251 C 
ATOM      7  H   UNL A   1      34.348  29.826  29.195  1.00  0.00     0.163 HD
BRANCH   6   8
ATOM      8  C   UNL A   1      37.673  30.004  29.407  1.00  0.00     0.039 A 
ATOM      9  C   UNL A   1      38.099  30.048  28.078  1.00  0.00     0.014 A 
ATOM     10  C   UNL A   1      38.590  29.745  30.429  1.00  0.00     0.014 A 
ATOM     11  C   UNL A   1      39.392  29.650  27.758  1.00  0.00     0.010 A 
ATOM     12  C   UNL A   1      39.916  29.437  30.109  1.00  0.00     0.010 A 
ATOM     13  C   UNL A   1      40.316  29.335  28.769  1.00  0.00    -0.014 A 
BRANCH  13  14
ATOM     14  C   UNL A   1      41.700  28.932  28.400  1.00  0.00     0.031 A 
ATOM     15  C   UNL A   1      42.835  29.923  28.423  1.00  0.00     0.074 A 
ATOM     16  C   UNL A   1      41.934  27.649  28.063  1.00  0.00     0.049 A 
ATOM     17  N   UNL A   1      44.101  29.733  28.144  1.00  0.00    -0.248 NA
ATOM     18  C   UNL A   1      42.509  31.306  28.800  1.00  0.00     0.031 C 
ATOM     19  C   UNL A   1      40.914  26.599  27.999  1.00  0.00     0.029 A 
ATOM     20  N   UNL A   1      43.096  27.004  27.726  1.00  0.00    -0.354 N 
ATOM     21  C   UNL A   1      44.718  30.972  28.288  1.00  0.00     0.074 A 
ATOM     22  C   UNL A   1      43.679  31.913  28.652  1.00  0.00     0.031 C 
ATOM     23  C   UNL A   1      41.501  25.434  27.693  1.00  0.00     0.029 A 
ATOM     24  C   UNL A   1      42.925  25.664  27.471  1.00  0.00     0.049 A 
ATOM     25  H   UNL A   1      43.968  27.457  27.672  1.00  0.00     0.167 HD
ATOM     26  C   UNL A   1      46.027  31.293  28.136  1.00  0.00     0.037 A 
ATOM     27  C   UNL A   1      43.808  24.724  27.086  1.00  0.00     0.037 A 
ATOM     28  C   UNL A   1      47.053  30.344  27.778  1.00  0.00     0.049 A 
ATOM     29  C   UNL A   1      45.246  25.109  26.893  1.00  0.00     0.074 A 
ATOM     30  C   UNL A   1      48.414  30.560  27.636  1.00  0.00     0.029 A 
ATOM     31  N   UNL A   1      46.835  29.003  27.495  1.00  0.00    -0.354 N 
ATOM     32  N   UNL A   1      45.816  26.278  27.066  1.00  0.00    -0.248 NA
ATOM     33  C   UNL A   1      46.160  24.050  26.452  1.00  0.00     0.031 C 
ATOM     34  C   UNL A   1      49.007  29.365  27.214  1.00  0.00     0.029 A 
ATOM     35  C   UNL A   1      48.028  28.387  27.152  1.00  0.00     0.049 A 
ATOM     36  H   UNL A   1      45.958  28.555  27.532  1.00  0.00     0.167 HD
ATOM     37  C   UNL A   1      47.163  26.089  26.779  1.00  0.00     0.074 A 
ATOM     38  C   UNL A   1      47.322  24.691  26.432  1.00  0.00     0.031 C 
ATOM     39  C   UNL A   1      48.174  26.992  26.806  1.00  0.00     0.037 A 
BRANCH  26  40
ATOM     40  C   UNL A   1      46.420  32.737  28.321  1.00  0.00     0.058 A 
ATOM     41  C   UNL A   1      46.826  33.246  29.566  1.00  0.00     0.135 A 
ATOM     42  C   UNL A   1      46.404  33.624  27.232  1.00  0.00     0.135 A 
ATOM     43  F   UNL A   1      46.854  32.449  30.645  1.00  0.00    -0.206 F 
ATOM     44  C   UNL A   1      47.156  34.588  29.733  1.00  0.00     0.059 A 
ATOM     45  C   UNL A   1      46.759  34.963  27.369  1.00  0.00     0.059 A 
ATOM     46  F   UNL A   1      46.032  33.194  26.015  1.00  0.00    -0.206 F 
ATOM     47  C   UNL A   1      47.110  35.441  28.629  1.00  0.00     0.060 A 
BRANCH  47  48
ATOM     48  S   UNL A   1      47.504  37.187  28.870  1.00  0.00     0.124 S 
ATOM     49  O   UNL A   1      46.848  37.458  30.146  1.00  0.00    -0.237 OA
ATOM     50  O   UNL A   1      48.963  37.179  28.898  1.00  0.00    -0.237 OA
ATOM     51  O   UNL A   1      46.906  37.836  27.708  1.00  0.00    -0.744 OA
ENDBRANCH  47  48
ENDBRANCH  26  40
BRANCH  27  52
ATOM     52  C   UNL A   1      43.343  23.329  26.877  1.00  0.00     0.058 A 
ATOM     53  C   UNL A   1      43.252  22.787  25.587  1.00  0.00     0.135 A 
ATOM     54  C   UNL A   1      43.042  22.492  27.963  1.00  0.00     0.135 A 
ATOM     55  F   UNL A   1      43.526  23.548  24.518  1.00  0.00    -0.206 F 
ATOM     56  C   UNL A   1      42.877  21.463  25.380  1.00  0.00     0.059 A 
ATOM     57  C   UNL A   1      42.692  21.159  27.783  1.00  0.00     0.059 A 
ATOM     58  F   UNL A   1      43.133  22.960  29.217  1.00  0.00    -0.206 F 
ATOM     59  C   UNL A   1      42.609  20.654  26.486  1.00  0.00     0.060 A 
BRANCH  59  60
ATOM     60  S   UNL A   1      42.202  18.918  26.206  1.00  0.00     0.124 S 
ATOM     61  O   UNL A   1      42.481  18.337  27.514  1.00  0.00    -0.237 OA
ATOM     62  O   UNL A   1      40.795  18.992  25.826  1.00  0.00    -0.237 OA
ATOM     63  O   UNL A   1      43.113  18.528  25.134  1.00  0.00    -0.744 OA
ENDBRANCH  59  60
ENDBRANCH  27  52
BRANCH  39  64
ATOM     64  C   UNL A   1      49.556  26.487  26.487  1.00  0.00     0.058 A 
ATOM     65  C   UNL A   1      50.417  26.001  27.483  1.00  0.00     0.135 A 
ATOM     66  C   UNL A   1      50.009  26.459  25.158  1.00  0.00     0.135 A 
ATOM     67  F   UNL A   1      50.039  26.015  28.771  1.00  0.00    -0.206 F 
ATOM     68  C   UNL A   1      51.690  25.529  27.176  1.00  0.00     0.059 A 
ATOM     69  C   UNL A   1      51.265  25.964  24.825  1.00  0.00     0.059 A 
ATOM     70  F   UNL A   1      49.223  26.904  24.165  1.00  0.00    -0.206 F 
ATOM     71  C   UNL A   1      52.104  25.513  25.843  1.00  0.00     0.060 A 
BRANCH  71  72
ATOM     72  S   UNL A   1      53.747  24.874  25.453  1.00  0.00     0.124 S 
ATOM     73  O   UNL A   1      53.442  23.505  25.048  1.00  0.00    -0.237 OA
ATOM     74  O   UNL A   1      54.186  25.769  24.386  1.00  0.00    -0.237 OA
ATOM     75  O   UNL A   1      54.472  25.008  26.713  1.00  0.00    -0.744 OA
ENDBRANCH  71  72
ENDBRANCH  39  64
ENDBRANCH  13  14
ENDBRANCH   6   8
ENDBRANCH   3   4
ENDBRANCH   2   3
ENDBRANCH   1   2
BRANCH   1  76
ATOM     76  C   UNL A   1      31.928  29.576  25.873  1.00  0.00     0.116 C 
BRANCH  76  77
ATOM     77  N   UNL A   1      32.490  29.507  24.536  1.00  0.00    -0.352 N 
ATOM     78  C   UNL A   1      31.816  29.401  23.342  1.00  0.00     0.252 C 
ATOM     79  H   UNL A   1      33.472  29.540  24.478  1.00  0.00     0.163 HD
ATOM     80  O   UNL A   1      32.426  29.406  22.276  1.00  0.00    -0.269 OA
BRANCH  78  81
ATOM     81  C   UNL A   1      30.348  29.211  23.328  1.00  0.00     0.050 A 
ATOM     82  C   UNL A   1      29.572  30.368  23.490  1.00  0.00     0.014 A 
ATOM     83  C   UNL A   1      29.737  27.957  23.162  1.00  0.00     0.030 A 
ATOM     84  C   UNL A   1      28.181  30.288  23.437  1.00  0.00     0.001 A 
ATOM     85  C   UNL A   1      28.338  27.896  23.096  1.00  0.00     0.013 A 
ATOM     86  C   UNL A   1      27.566  29.055  23.229  1.00  0.00     0.001 A 
BRANCH  83  87
ATOM     87  C   UNL A   1      30.512  26.735  23.047  1.00  0.00     0.135 A 
ATOM     88  C   UNL A   1      31.212  26.142  22.023  1.00  0.00     0.051 A 
ATOM     89  O   UNL A   1      30.464  25.904  24.128  1.00  0.00    -0.457 OA
ATOM     90  C   UNL A   1      31.579  24.862  22.496  1.00  0.00     0.051 A 
ATOM     91  C   UNL A   1      31.096  24.731  23.795  1.00  0.00     0.128 A 
BRANCH  91  92
ATOM     92  C   UNL A   1      31.152  23.592  24.641  1.00  0.00     0.068 C 
ATOM     93  C   UNL A   1      32.308  22.974  24.902  1.00  0.00     0.084 C 
ATOM     94  S   UNL A   1      32.450  21.383  25.537  1.00  0.00    -0.054 SA
ATOM     95  C   UNL A   1      33.652  23.471  24.537  1.00  0.00     0.266 C 
ATOM     96  C   UNL A   1      34.085  21.203  24.886  1.00  0.00     0.148 C 
ATOM     97  N   UNL A   1      34.515  22.410  24.377  1.00  0.00    -0.288 N 
ATOM     98  O   UNL A   1      33.947  24.658  24.460  1.00  0.00    -0.268 OA
ATOM     99  S   UNL A   1      34.909  19.757  24.951  1.00  0.00    -0.052 S 
BRANCH  97 100
ATOM    100  C   UNL A   1      35.815  22.671  23.767  1.00  0.00     0.163 C 
BRANCH 100 101
ATOM    101  C   UNL A   1      36.936  22.763  24.789  1.00  0.00    -0.028 A 
ATOM    102  C   UNL A   1      37.120  23.935  25.536  1.00  0.00     0.005 A 
ATOM    103  C   UNL A   1      37.840  21.704  24.981  1.00  0.00     0.005 A 
ATOM    104  C   UNL A   1      38.180  24.042  26.442  1.00  0.00     0.000 A 
ATOM    105  C   UNL A   1      38.885  21.804  25.901  1.00  0.00     0.000 A 
ATOM    106  C   UNL A   1      39.058  22.977  26.627  1.00  0.00     0.000 A 
ENDBRANCH 100 101
ENDBRANCH  97 100
ENDBRANCH  91  92
ENDBRANCH  83  87
ENDBRANCH  78  81
ENDBRANCH  76  77
ENDBRANCH   1  76
TORSDOF 18
ENDMDL
