MODEL 1
REMARK VINA RESULT:      -9.8      0.000      0.000
REMARK SMILES CN1C(=O)/C(=C/c2ccc(OCC(=O)NCCCCNC(=O)c3ccc(-c4c5nc(c(-c6c(F)cc(S(=O)(=O)[O-])cc6F)c6ccc([nH]6)c(-c6c(F)cc(S(=O)(=O)[O-])cc6F)c6nc(c(-c7c(F)cc(S(=O)(=O)[O-])cc7F)c7ccc4[nH]7)C=C6)C=C5)cc3)c(Br)c2)C(=O)NC1=S
REMARK SMILES IDX 17 1 16 2 15 3 13 4 14 5 12 7 11 8 10 9 7 10 8 11 91 12 9 13
REMARK SMILES IDX 89 14 90 15 6 16 1 17 2 18 3 19 95 20 4 21 5 22 94 23 96 24
REMARK SMILES IDX 92 25 93 27 18 28 19 29 20 30 21 31 22 33 23 34 24 35 88 36
REMARK SMILES IDX 25 37 87 38 26 39 27 40 28 41 81 42 29 43 86 44 80 45 82 46
REMARK SMILES IDX 30 47 85 48 79 49 78 50 31 52 65 53 44 54 64 55 45 56 48 57
REMARK SMILES IDX 63 58 83 59 46 60 47 61 62 63 84 64 49 65 32 66 33 67 42 68
REMARK SMILES IDX 34 69 35 70 41 71 43 72 36 73 37 74 38 75 39 76 40 77 66 78
REMARK SMILES IDX 67 79 76 80 68 81 69 82 75 83 77 84 70 85 71 86 72 87 73 88
REMARK SMILES IDX 74 89 50 90 51 91 60 92 52 93 53 94 59 95 61 96 54 97 55 98
REMARK SMILES IDX 56 99 57 100 58 101
REMARK H PARENT 15 6 94 26 20 32 82 51 48 62
REMARK Flexibility Score: inf
ROOT
ATOM      1  C   UNL A   1      36.445  33.021  30.418  1.00  0.00     0.023 C 
ENDROOT
BRANCH   1   2
ATOM      2  C   UNL A   1      35.763  32.579  31.710  1.00  0.00     0.116 C 
BRANCH   2   3
ATOM      3  N   UNL A   1      35.252  33.698  32.475  1.00  0.00    -0.353 N 
ATOM      4  C   UNL A   1      35.803  34.316  33.560  1.00  0.00     0.257 C 
ATOM      5  O   UNL A   1      35.240  35.313  34.015  1.00  0.00    -0.271 OA
ATOM      6  H   UNL A   1      34.390  34.063  32.172  1.00  0.00     0.163 HD
BRANCH   4   7
ATOM      7  C   UNL A   1      37.133  33.804  34.128  1.00  0.00     0.329 C 
BRANCH   7   8
ATOM      8  O   UNL A   1      37.229  32.473  34.598  1.00  0.00    -0.483 OA
BRANCH   8   9
ATOM      9  C   UNL A   1      38.427  31.818  34.587  1.00  0.00     0.134 A 
ATOM     10  C   UNL A   1      40.744  30.263  34.139  1.00  0.00    -0.023 A 
ATOM     11  C   UNL A   1      39.566  29.947  33.477  1.00  0.00     0.012 A 
ATOM     12  C   UNL A   1      40.759  31.341  35.033  1.00  0.00     0.027 A 
ATOM     13  C   UNL A   1      38.424  30.727  33.697  1.00  0.00     0.048 A 
ATOM     14  C   UNL A   1      39.622  32.136  35.240  1.00  0.00     0.060 A 
ATOM     15  Br  UNL A   1      39.937  33.688  36.289  1.00  0.00    -0.047 Br
BRANCH  10  16
ATOM     16  C   UNL A   1      42.018  29.588  33.877  1.00  0.00     0.027 C 
ATOM     17  C   UNL A   1      44.131  25.442  33.081  1.00  0.00     0.156 C 
ATOM     18  N   UNL A   1      43.352  26.273  33.998  1.00  0.00    -0.288 N 
ATOM     19  C   UNL A   1      43.450  27.655  33.803  1.00  0.00     0.265 C 
ATOM     20  C   UNL A   1      42.569  25.687  34.986  1.00  0.00     0.182 C 
ATOM     21  O   UNL A   1      44.278  28.188  33.069  1.00  0.00    -0.268 OA
ATOM     22  C   UNL A   1      42.411  28.457  34.497  1.00  0.00     0.106 C 
ATOM     23  N   UNL A   1      41.865  26.535  35.796  1.00  0.00    -0.298 N 
ATOM     24  S   UNL A   1      42.408  24.046  35.302  1.00  0.00    -0.040 S 
ATOM     25  C   UNL A   1      41.747  27.890  35.683  1.00  0.00     0.263 C 
ATOM     26  H   UNL A   1      41.387  26.119  36.549  1.00  0.00     0.172 HD
ATOM     27  O   UNL A   1      41.152  28.539  36.536  1.00  0.00    -0.269 OA
ENDBRANCH  10  16
ENDBRANCH   8   9
ENDBRANCH   7   8
ENDBRANCH   4   7
ENDBRANCH   2   3
ENDBRANCH   1   2
BRANCH   1  28
ATOM     28  C   UNL A   1      35.544  33.743  29.413  1.00  0.00     0.023 C 
BRANCH  28  29
ATOM     29  C   UNL A   1      35.468  33.119  28.025  1.00  0.00     0.116 C 
BRANCH  29  30
ATOM     30  N   UNL A   1      34.462  32.075  27.924  1.00  0.00    -0.352 N 
ATOM     31  C   UNL A   1      34.626  30.710  27.969  1.00  0.00     0.251 C 
ATOM     32  H   UNL A   1      33.535  32.387  27.809  1.00  0.00     0.163 HD
ATOM     33  O   UNL A   1      33.672  29.970  27.751  1.00  0.00    -0.269 OA
BRANCH  31  34
ATOM     34  C   UNL A   1      35.964  30.139  28.240  1.00  0.00     0.039 A 
ATOM     35  C   UNL A   1      36.921  30.145  27.221  1.00  0.00     0.014 A 
ATOM     36  C   UNL A   1      36.282  29.623  29.499  1.00  0.00     0.014 A 
ATOM     37  C   UNL A   1      38.221  29.705  27.486  1.00  0.00     0.010 A 
ATOM     38  C   UNL A   1      37.592  29.244  29.779  1.00  0.00     0.010 A 
ATOM     39  C   UNL A   1      38.576  29.287  28.779  1.00  0.00    -0.014 A 
BRANCH  39  40
ATOM     40  C   UNL A   1      39.969  28.901  29.119  1.00  0.00     0.031 A 
ATOM     41  C   UNL A   1      40.910  29.920  29.697  1.00  0.00     0.074 A 
ATOM     42  C   UNL A   1      40.417  27.669  28.810  1.00  0.00     0.049 A 
ATOM     43  N   UNL A   1      42.194  29.827  29.923  1.00  0.00    -0.248 NA
ATOM     44  C   UNL A   1      40.332  31.230  30.037  1.00  0.00     0.031 C 
ATOM     45  C   UNL A   1      39.617  26.606  28.198  1.00  0.00     0.029 A 
ATOM     46  N   UNL A   1      41.666  27.113  28.938  1.00  0.00    -0.354 N 
ATOM     47  C   UNL A   1      42.585  31.069  30.405  1.00  0.00     0.074 A 
ATOM     48  C   UNL A   1      41.408  31.912  30.401  1.00  0.00     0.031 C 
ATOM     49  C   UNL A   1      40.395  25.530  28.001  1.00  0.00     0.029 A 
ATOM     50  C   UNL A   1      41.755  25.836  28.436  1.00  0.00     0.049 A 
ATOM     51  H   UNL A   1      42.427  27.584  29.350  1.00  0.00     0.167 HD
ATOM     52  C   UNL A   1      43.810  31.469  30.825  1.00  0.00     0.037 A 
ATOM     53  C   UNL A   1      42.813  25.011  28.319  1.00  0.00     0.037 A 
ATOM     54  C   UNL A   1      44.972  30.621  30.851  1.00  0.00     0.049 A 
ATOM     55  C   UNL A   1      44.159  25.461  28.813  1.00  0.00     0.074 A 
ATOM     56  C   UNL A   1      46.241  30.913  31.315  1.00  0.00     0.029 A 
ATOM     57  N   UNL A   1      45.005  29.312  30.391  1.00  0.00    -0.354 N 
ATOM     58  N   UNL A   1      44.500  26.621  29.323  1.00  0.00    -0.248 NA
ATOM     59  C   UNL A   1      45.262  24.494  28.727  1.00  0.00     0.031 C 
ATOM     60  C   UNL A   1      47.051  29.790  31.108  1.00  0.00     0.029 A 
ATOM     61  C   UNL A   1      46.276  28.786  30.548  1.00  0.00     0.049 A 
ATOM     62  H   UNL A   1      44.238  28.828  30.008  1.00  0.00     0.167 HD
ATOM     63  C   UNL A   1      45.851  26.517  29.635  1.00  0.00     0.074 A 
ATOM     64  C   UNL A   1      46.265  25.180  29.263  1.00  0.00     0.031 C 
ATOM     65  C   UNL A   1      46.671  27.448  30.183  1.00  0.00     0.037 A 
BRANCH  52  66
ATOM     66  C   UNL A   1      43.944  32.895  31.281  1.00  0.00     0.058 A 
ATOM     67  C   UNL A   1      43.806  33.251  32.633  1.00  0.00     0.135 A 
ATOM     68  C   UNL A   1      44.195  33.920  30.356  1.00  0.00     0.135 A 
ATOM     69  F   UNL A   1      43.552  32.310  33.557  1.00  0.00    -0.206 F 
ATOM     70  C   UNL A   1      43.860  34.578  33.044  1.00  0.00     0.059 A 
ATOM     71  C   UNL A   1      44.280  35.253  30.750  1.00  0.00     0.059 A 
ATOM     72  F   UNL A   1      44.341  33.636  29.053  1.00  0.00    -0.206 F 
ATOM     73  C   UNL A   1      44.084  35.574  32.092  1.00  0.00     0.060 A 
BRANCH  73  74
ATOM     74  S   UNL A   1      44.102  37.297  32.629  1.00  0.00     0.124 S 
ATOM     75  O   UNL A   1      43.008  37.310  33.593  1.00  0.00    -0.237 OA
ATOM     76  O   UNL A   1      45.442  37.440  33.189  1.00  0.00    -0.237 OA
ATOM     77  O   UNL A   1      43.862  38.038  31.394  1.00  0.00    -0.744 OA
ENDBRANCH  73  74
ENDBRANCH  52  66
BRANCH  53  78
ATOM     78  C   UNL A   1      42.624  23.667  27.715  1.00  0.00     0.058 A 
ATOM     79  C   UNL A   1      42.724  23.480  26.329  1.00  0.00     0.135 A 
ATOM     80  C   UNL A   1      42.408  22.535  28.516  1.00  0.00     0.135 A 
ATOM     81  F   UNL A   1      42.923  24.534  25.523  1.00  0.00    -0.206 F 
ATOM     82  C   UNL A   1      42.622  22.216  25.757  1.00  0.00     0.059 A 
ATOM     83  C   UNL A   1      42.322  21.259  27.969  1.00  0.00     0.059 A 
ATOM     84  F   UNL A   1      42.323  22.662  29.849  1.00  0.00    -0.206 F 
ATOM     85  C   UNL A   1      42.430  21.110  26.586  1.00  0.00     0.060 A 
BRANCH  85  86
ATOM     86  S   UNL A   1      42.394  19.464  25.843  1.00  0.00     0.124 S 
ATOM     87  O   UNL A   1      43.383  19.599  24.780  1.00  0.00    -0.237 OA
ATOM     88  O   UNL A   1      42.775  18.611  26.965  1.00  0.00    -0.237 OA
ATOM     89  O   UNL A   1      41.009  19.326  25.405  1.00  0.00    -0.744 OA
ENDBRANCH  85  86
ENDBRANCH  53  78
BRANCH  65  90
ATOM     90  C   UNL A   1      48.096  27.053  30.446  1.00  0.00     0.058 A 
ATOM     91  C   UNL A   1      49.119  27.345  29.533  1.00  0.00     0.135 A 
ATOM     92  C   UNL A   1      48.452  26.458  31.667  1.00  0.00     0.135 A 
ATOM     93  F   UNL A   1      48.829  27.905  28.349  1.00  0.00    -0.206 F 
ATOM     94  C   UNL A   1      50.450  27.058  29.820  1.00  0.00     0.059 A 
ATOM     95  C   UNL A   1      49.778  26.181  31.984  1.00  0.00     0.059 A 
ATOM     96  F   UNL A   1      47.509  26.166  32.577  1.00  0.00    -0.206 F 
ATOM     97  C   UNL A   1      50.771  26.483  31.052  1.00  0.00     0.060 A 
BRANCH  97  98
ATOM     98  S   UNL A   1      52.508  26.181  31.443  1.00  0.00     0.124 S 
ATOM     99  O   UNL A   1      53.122  26.231  30.121  1.00  0.00    -0.237 OA
ATOM    100  O   UNL A   1      52.827  27.292  32.334  1.00  0.00    -0.237 OA
ATOM    101  O   UNL A   1      52.488  24.866  32.078  1.00  0.00    -0.744 OA
ENDBRANCH  97  98
ENDBRANCH  65  90
ENDBRANCH  39  40
ENDBRANCH  31  34
ENDBRANCH  29  30
ENDBRANCH  28  29
ENDBRANCH   1  28
TORSDOF 17
ENDMDL
MODEL 2
REMARK VINA RESULT:      -9.7      5.319     12.396
REMARK SMILES CN1C(=O)/C(=C/c2ccc(OCC(=O)NCCCCNC(=O)c3ccc(-c4c5nc(c(-c6c(F)cc(S(=O)(=O)[O-])cc6F)c6ccc([nH]6)c(-c6c(F)cc(S(=O)(=O)[O-])cc6F)c6nc(c(-c7c(F)cc(S(=O)(=O)[O-])cc7F)c7ccc4[nH]7)C=C6)C=C5)cc3)c(Br)c2)C(=O)NC1=S
REMARK SMILES IDX 17 1 16 2 15 3 13 4 14 5 12 7 11 8 10 9 7 10 8 11 91 12 9 13
REMARK SMILES IDX 89 14 90 15 6 16 1 17 2 18 3 19 95 20 4 21 5 22 94 23 96 24
REMARK SMILES IDX 92 25 93 27 18 28 19 29 20 30 21 31 22 33 23 34 24 35 88 36
REMARK SMILES IDX 25 37 87 38 26 39 27 40 28 41 81 42 29 43 86 44 80 45 82 46
REMARK SMILES IDX 30 47 85 48 79 49 78 50 31 52 65 53 44 54 64 55 45 56 48 57
REMARK SMILES IDX 63 58 83 59 46 60 47 61 62 63 84 64 49 65 32 66 33 67 42 68
REMARK SMILES IDX 34 69 35 70 41 71 43 72 36 73 37 74 38 75 39 76 40 77 66 78
REMARK SMILES IDX 67 79 76 80 68 81 69 82 75 83 77 84 70 85 71 86 72 87 73 88
REMARK SMILES IDX 74 89 50 90 51 91 60 92 52 93 53 94 59 95 61 96 54 97 55 98
REMARK SMILES IDX 56 99 57 100 58 101
REMARK H PARENT 15 6 94 26 20 32 82 51 48 62
REMARK Flexibility Score: inf
ROOT
ATOM      1  C   UNL A   1      37.765  22.033  25.495  1.00  0.00     0.023 C 
ENDROOT
BRANCH   1   2
ATOM      2  C   UNL A   1      36.852  21.507  24.391  1.00  0.00     0.116 C 
BRANCH   2   3
ATOM      3  N   UNL A   1      36.050  20.382  24.828  1.00  0.00    -0.353 N 
ATOM      4  C   UNL A   1      34.691  20.251  24.834  1.00  0.00     0.257 C 
ATOM      5  O   UNL A   1      34.209  19.168  25.172  1.00  0.00    -0.271 OA
ATOM      6  H   UNL A   1      36.552  19.606  25.166  1.00  0.00     0.163 HD
BRANCH   4   7
ATOM      7  C   UNL A   1      33.816  21.414  24.352  1.00  0.00     0.329 C 
BRANCH   7   8
ATOM      8  O   UNL A   1      32.847  21.969  25.220  1.00  0.00    -0.483 OA
BRANCH   8   9
ATOM      9  C   UNL A   1      32.896  23.291  25.561  1.00  0.00     0.134 A 
ATOM     10  C   UNL A   1      33.347  26.057  25.918  1.00  0.00    -0.023 A 
ATOM     11  C   UNL A   1      34.300  25.284  25.269  1.00  0.00     0.012 A 
ATOM     12  C   UNL A   1      32.183  25.447  26.400  1.00  0.00     0.027 A 
ATOM     13  C   UNL A   1      34.065  23.915  25.089  1.00  0.00     0.048 A 
ATOM     14  C   UNL A   1      31.937  24.080  26.203  1.00  0.00     0.060 A 
ATOM     15  Br  UNL A   1      30.193  23.521  26.707  1.00  0.00    -0.047 Br
BRANCH  10  16
ATOM     16  C   UNL A   1      33.444  27.514  26.040  1.00  0.00     0.027 C 
ATOM     17  C   UNL A   1      31.049  31.583  26.048  1.00  0.00     0.156 C 
ATOM     18  N   UNL A   1      31.447  30.387  25.305  1.00  0.00    -0.288 N 
ATOM     19  C   UNL A   1      32.614  29.754  25.747  1.00  0.00     0.265 C 
ATOM     20  C   UNL A   1      30.681  29.936  24.236  1.00  0.00     0.182 C 
ATOM     21  O   UNL A   1      33.397  30.244  26.556  1.00  0.00    -0.268 OA
ATOM     22  C   UNL A   1      32.814  28.380  25.221  1.00  0.00     0.106 C 
ATOM     23  N   UNL A   1      31.118  28.806  23.601  1.00  0.00    -0.298 N 
ATOM     24  S   UNL A   1      29.284  30.642  23.630  1.00  0.00    -0.040 S 
ATOM     25  C   UNL A   1      32.157  27.997  23.959  1.00  0.00     0.263 C 
ATOM     26  H   UNL A   1      30.624  28.545  22.790  1.00  0.00     0.172 HD
ATOM     27  O   UNL A   1      32.495  27.060  23.245  1.00  0.00    -0.269 OA
ENDBRANCH  10  16
ENDBRANCH   8   9
ENDBRANCH   7   8
ENDBRANCH   4   7
ENDBRANCH   2   3
ENDBRANCH   1   2
BRANCH   1  28
ATOM     28  C   UNL A   1      37.522  23.485  25.913  1.00  0.00     0.023 C 
BRANCH  28  29
ATOM     29  C   UNL A   1      38.636  24.136  26.723  1.00  0.00     0.116 C 
BRANCH  29  30
ATOM     30  N   UNL A   1      39.928  24.084  26.060  1.00  0.00    -0.352 N 
ATOM     31  C   UNL A   1      41.068  24.805  26.332  1.00  0.00     0.251 C 
ATOM     32  H   UNL A   1      39.998  23.446  25.314  1.00  0.00     0.163 HD
ATOM     33  O   UNL A   1      42.042  24.714  25.591  1.00  0.00    -0.269 OA
BRANCH  31  34
ATOM     34  C   UNL A   1      41.100  25.718  27.495  1.00  0.00     0.039 A 
ATOM     35  C   UNL A   1      42.084  26.711  27.549  1.00  0.00     0.014 A 
ATOM     36  C   UNL A   1      40.151  25.614  28.516  1.00  0.00     0.014 A 
ATOM     37  C   UNL A   1      42.069  27.647  28.586  1.00  0.00     0.010 A 
ATOM     38  C   UNL A   1      40.100  26.584  29.513  1.00  0.00     0.010 A 
ATOM     39  C   UNL A   1      41.054  27.614  29.555  1.00  0.00    -0.014 A 
BRANCH  39  40
ATOM     40  C   UNL A   1      40.955  28.647  30.617  1.00  0.00     0.031 A 
ATOM     41  C   UNL A   1      41.820  28.550  31.842  1.00  0.00     0.074 A 
ATOM     42  C   UNL A   1      40.015  29.608  30.531  1.00  0.00     0.049 A 
ATOM     43  N   UNL A   1      41.784  29.259  32.940  1.00  0.00    -0.248 NA
ATOM     44  C   UNL A   1      42.843  27.492  31.841  1.00  0.00     0.031 C 
ATOM     45  C   UNL A   1      39.079  29.779  29.418  1.00  0.00     0.029 A 
ATOM     46  N   UNL A   1      39.670  30.605  31.411  1.00  0.00    -0.354 N 
ATOM     47  C   UNL A   1      42.756  28.719  33.771  1.00  0.00     0.074 A 
ATOM     48  C   UNL A   1      43.339  27.598  33.065  1.00  0.00     0.031 C 
ATOM     49  C   UNL A   1      38.265  30.813  29.685  1.00  0.00     0.029 A 
ATOM     50  C   UNL A   1      38.594  31.355  31.000  1.00  0.00     0.049 A 
ATOM     51  H   UNL A   1      40.148  30.765  32.257  1.00  0.00     0.167 HD
ATOM     52  C   UNL A   1      43.139  29.128  35.005  1.00  0.00     0.037 A 
ATOM     53  C   UNL A   1      37.934  32.354  31.617  1.00  0.00     0.037 A 
ATOM     54  C   UNL A   1      42.574  30.258  35.693  1.00  0.00     0.049 A 
ATOM     55  C   UNL A   1      38.388  32.811  32.975  1.00  0.00     0.074 A 
ATOM     56  C   UNL A   1      42.935  30.789  36.918  1.00  0.00     0.029 A 
ATOM     57  N   UNL A   1      41.527  31.032  35.214  1.00  0.00    -0.354 N 
ATOM     58  N   UNL A   1      39.350  32.327  33.724  1.00  0.00    -0.248 NA
ATOM     59  C   UNL A   1      37.676  33.951  33.570  1.00  0.00     0.031 C 
ATOM     60  C   UNL A   1      42.084  31.866  37.195  1.00  0.00     0.029 A 
ATOM     61  C   UNL A   1      41.218  32.029  36.125  1.00  0.00     0.049 A 
ATOM     62  H   UNL A   1      41.069  30.893  34.354  1.00  0.00     0.167 HD
ATOM     63  C   UNL A   1      39.373  33.115  34.869  1.00  0.00     0.074 A 
ATOM     64  C   UNL A   1      38.332  34.111  34.713  1.00  0.00     0.031 C 
ATOM     65  C   UNL A   1      40.186  33.020  35.951  1.00  0.00     0.037 A 
BRANCH  52  66
ATOM     66  C   UNL A   1      44.217  28.331  35.685  1.00  0.00     0.058 A 
ATOM     67  C   UNL A   1      43.910  27.288  36.575  1.00  0.00     0.135 A 
ATOM     68  C   UNL A   1      45.571  28.623  35.459  1.00  0.00     0.135 A 
ATOM     69  F   UNL A   1      42.631  26.976  36.836  1.00  0.00    -0.206 F 
ATOM     70  C   UNL A   1      44.907  26.598  37.257  1.00  0.00     0.059 A 
ATOM     71  C   UNL A   1      46.586  27.926  36.111  1.00  0.00     0.059 A 
ATOM     72  F   UNL A   1      45.920  29.605  34.614  1.00  0.00    -0.206 F 
ATOM     73  C   UNL A   1      46.242  26.935  37.028  1.00  0.00     0.060 A 
BRANCH  73  74
ATOM     74  S   UNL A   1      47.526  26.067  37.955  1.00  0.00     0.124 S 
ATOM     75  O   UNL A   1      48.325  27.182  38.452  1.00  0.00    -0.237 OA
ATOM     76  O   UNL A   1      46.755  25.342  38.961  1.00  0.00    -0.237 OA
ATOM     77  O   UNL A   1      48.168  25.234  36.943  1.00  0.00    -0.744 OA
ENDBRANCH  73  74
ENDBRANCH  52  66
BRANCH  53  78
ATOM     78  C   UNL A   1      36.777  32.991  30.936  1.00  0.00     0.058 A 
ATOM     79  C   UNL A   1      35.463  32.704  31.330  1.00  0.00     0.135 A 
ATOM     80  C   UNL A   1      36.966  33.947  29.926  1.00  0.00     0.135 A 
ATOM     81  F   UNL A   1      35.233  31.792  32.287  1.00  0.00    -0.206 F 
ATOM     82  C   UNL A   1      34.373  33.347  30.751  1.00  0.00     0.059 A 
ATOM     83  C   UNL A   1      35.894  34.617  29.346  1.00  0.00     0.059 A 
ATOM     84  F   UNL A   1      38.207  34.266  29.528  1.00  0.00    -0.206 F 
ATOM     85  C   UNL A   1      34.600  34.310  29.766  1.00  0.00     0.060 A 
BRANCH  85  86
ATOM     86  S   UNL A   1      33.186  35.207  29.089  1.00  0.00     0.124 S 
ATOM     87  O   UNL A   1      32.642  34.235  28.149  1.00  0.00    -0.237 OA
ATOM     88  O   UNL A   1      32.384  35.462  30.282  1.00  0.00    -0.237 OA
ATOM     89  O   UNL A   1      33.797  36.391  28.492  1.00  0.00    -0.744 OA
ENDBRANCH  85  86
ENDBRANCH  53  78
BRANCH  65  90
ATOM     90  C   UNL A   1      40.011  34.035  37.045  1.00  0.00     0.058 A 
ATOM     91  C   UNL A   1      40.536  35.331  36.934  1.00  0.00     0.135 A 
ATOM     92  C   UNL A   1      39.233  33.733  38.173  1.00  0.00     0.135 A 
ATOM     93  F   UNL A   1      41.293  35.666  35.878  1.00  0.00    -0.206 F 
ATOM     94  C   UNL A   1      40.296  36.295  37.908  1.00  0.00     0.059 A 
ATOM     95  C   UNL A   1      38.963  34.687  39.149  1.00  0.00     0.059 A 
ATOM     96  F   UNL A   1      38.703  32.508  38.321  1.00  0.00    -0.206 F 
ATOM     97  C   UNL A   1      39.502  35.966  39.009  1.00  0.00     0.060 A 
BRANCH  97  98
ATOM     98  S   UNL A   1      39.137  37.245  40.231  1.00  0.00     0.124 S 
ATOM     99  O   UNL A   1      38.271  36.527  41.159  1.00  0.00    -0.237 OA
ATOM    100  O   UNL A   1      40.464  37.585  40.734  1.00  0.00    -0.237 OA
ATOM    101  O   UNL A   1      38.487  38.289  39.444  1.00  0.00    -0.744 OA
ENDBRANCH  97  98
ENDBRANCH  65  90
ENDBRANCH  39  40
ENDBRANCH  31  34
ENDBRANCH  29  30
ENDBRANCH  28  29
ENDBRANCH   1  28
TORSDOF 17
ENDMDL
MODEL 3
REMARK VINA RESULT:      -9.7      4.849      7.671
REMARK SMILES CN1C(=O)/C(=C/c2ccc(OCC(=O)NCCCCNC(=O)c3ccc(-c4c5nc(c(-c6c(F)cc(S(=O)(=O)[O-])cc6F)c6ccc([nH]6)c(-c6c(F)cc(S(=O)(=O)[O-])cc6F)c6nc(c(-c7c(F)cc(S(=O)(=O)[O-])cc7F)c7ccc4[nH]7)C=C6)C=C5)cc3)c(Br)c2)C(=O)NC1=S
REMARK SMILES IDX 17 1 16 2 15 3 13 4 14 5 12 7 11 8 10 9 7 10 8 11 91 12 9 13
REMARK SMILES IDX 89 14 90 15 6 16 1 17 2 18 3 19 95 20 4 21 5 22 94 23 96 24
REMARK SMILES IDX 92 25 93 27 18 28 19 29 20 30 21 31 22 33 23 34 24 35 88 36
REMARK SMILES IDX 25 37 87 38 26 39 27 40 28 41 81 42 29 43 86 44 80 45 82 46
REMARK SMILES IDX 30 47 85 48 79 49 78 50 31 52 65 53 44 54 64 55 45 56 48 57
REMARK SMILES IDX 63 58 83 59 46 60 47 61 62 63 84 64 49 65 32 66 33 67 42 68
REMARK SMILES IDX 34 69 35 70 41 71 43 72 36 73 37 74 38 75 39 76 40 77 66 78
REMARK SMILES IDX 67 79 76 80 68 81 69 82 75 83 77 84 70 85 71 86 72 87 73 88
REMARK SMILES IDX 74 89 50 90 51 91 60 92 52 93 53 94 59 95 61 96 54 97 55 98
REMARK SMILES IDX 56 99 57 100 58 101
REMARK H PARENT 15 6 94 26 20 32 82 51 48 62
REMARK Flexibility Score: inf
ROOT
ATOM      1  C   UNL A   1      32.715  29.535  26.855  1.00  0.00     0.023 C 
ENDROOT
BRANCH   1   2
ATOM      2  C   UNL A   1      32.584  29.733  25.348  1.00  0.00     0.116 C 
BRANCH   2   3
ATOM      3  N   UNL A   1      31.371  30.438  24.987  1.00  0.00    -0.353 N 
ATOM      4  C   UNL A   1      30.415  30.088  24.078  1.00  0.00     0.257 C 
ATOM      5  O   UNL A   1      29.410  30.794  23.983  1.00  0.00    -0.271 OA
ATOM      6  H   UNL A   1      31.213  31.286  25.463  1.00  0.00     0.163 HD
BRANCH   4   7
ATOM      7  C   UNL A   1      30.581  28.798  23.264  1.00  0.00     0.329 C 
BRANCH   7   8
ATOM      8  O   UNL A   1      30.207  27.558  23.832  1.00  0.00    -0.483 OA
BRANCH   8   9
ATOM      9  C   UNL A   1      31.157  26.645  24.193  1.00  0.00     0.134 A 
ATOM     10  C   UNL A   1      32.859  24.713  25.357  1.00  0.00    -0.023 A 
ATOM     11  C   UNL A   1      31.981  25.429  26.160  1.00  0.00     0.012 A 
ATOM     12  C   UNL A   1      32.896  24.973  23.981  1.00  0.00     0.027 A 
ATOM     13  C   UNL A   1      31.136  26.379  25.575  1.00  0.00     0.048 A 
ATOM     14  C   UNL A   1      32.035  25.910  23.390  1.00  0.00     0.060 A 
ATOM     15  Br  UNL A   1      32.075  25.917  21.491  1.00  0.00    -0.047 Br
BRANCH  10  16
ATOM     16  C   UNL A   1      33.688  23.613  25.856  1.00  0.00     0.027 C 
ATOM     17  C   UNL A   1      35.487  19.354  24.897  1.00  0.00     0.156 C 
ATOM     18  N   UNL A   1      34.290  20.172  25.092  1.00  0.00    -0.288 N 
ATOM     19  C   UNL A   1      34.462  21.334  25.853  1.00  0.00     0.265 C 
ATOM     20  C   UNL A   1      33.076  19.787  24.534  1.00  0.00     0.182 C 
ATOM     21  O   UNL A   1      35.471  21.584  26.507  1.00  0.00    -0.268 OA
ATOM     22  C   UNL A   1      33.349  22.311  25.757  1.00  0.00     0.106 C 
ATOM     23  N   UNL A   1      32.008  20.612  24.758  1.00  0.00    -0.298 N 
ATOM     24  S   UNL A   1      32.777  18.406  23.629  1.00  0.00    -0.040 S 
ATOM     25  C   UNL A   1      32.010  21.832  25.370  1.00  0.00     0.263 C 
ATOM     26  H   UNL A   1      31.135  20.288  24.439  1.00  0.00     0.172 HD
ATOM     27  O   UNL A   1      30.960  22.427  25.582  1.00  0.00    -0.269 OA
ENDBRANCH  10  16
ENDBRANCH   8   9
ENDBRANCH   7   8
ENDBRANCH   4   7
ENDBRANCH   2   3
ENDBRANCH   1   2
BRANCH   1  28
ATOM     28  C   UNL A   1      33.884  28.655  27.304  1.00  0.00     0.023 C 
BRANCH  28  29
ATOM     29  C   UNL A   1      35.211  29.373  27.514  1.00  0.00     0.116 C 
BRANCH  29  30
ATOM     30  N   UNL A   1      35.226  30.206  28.706  1.00  0.00    -0.352 N 
ATOM     31  C   UNL A   1      36.260  30.438  29.583  1.00  0.00     0.251 C 
ATOM     32  H   UNL A   1      34.382  30.667  28.913  1.00  0.00     0.163 HD
ATOM     33  O   UNL A   1      36.061  31.084  30.607  1.00  0.00    -0.269 OA
BRANCH  31  34
ATOM     34  C   UNL A   1      37.600  29.875  29.307  1.00  0.00     0.039 A 
ATOM     35  C   UNL A   1      38.057  29.835  27.986  1.00  0.00     0.014 A 
ATOM     36  C   UNL A   1      38.412  29.411  30.346  1.00  0.00     0.014 A 
ATOM     37  C   UNL A   1      39.358  29.402  27.715  1.00  0.00     0.010 A 
ATOM     38  C   UNL A   1      39.727  29.040  30.081  1.00  0.00     0.010 A 
ATOM     39  C   UNL A   1      40.216  29.038  28.765  1.00  0.00    -0.014 A 
BRANCH  39  40
ATOM     40  C   UNL A   1      41.631  28.662  28.522  1.00  0.00     0.031 A 
ATOM     41  C   UNL A   1      42.692  29.724  28.471  1.00  0.00     0.074 A 
ATOM     42  C   UNL A   1      41.947  27.382  28.241  1.00  0.00     0.049 A 
ATOM     43  N   UNL A   1      43.950  29.623  28.129  1.00  0.00    -0.248 NA
ATOM     44  C   UNL A   1      42.271  31.090  28.822  1.00  0.00     0.031 C 
ATOM     45  C   UNL A   1      41.000  26.266  28.208  1.00  0.00     0.029 A 
ATOM     46  N   UNL A   1      43.147  26.810  27.898  1.00  0.00    -0.354 N 
ATOM     47  C   UNL A   1      44.465  30.911  28.196  1.00  0.00     0.074 A 
ATOM     48  C   UNL A   1      43.373  31.783  28.574  1.00  0.00     0.031 C 
ATOM     49  C   UNL A   1      41.654  25.146  27.861  1.00  0.00     0.029 A 
ATOM     50  C   UNL A   1      43.056  25.469  27.610  1.00  0.00     0.049 A 
ATOM     51  H   UNL A   1      43.993  27.313  27.862  1.00  0.00     0.167 HD
ATOM     52  C   UNL A   1      45.736  31.329  27.977  1.00  0.00     0.037 A 
ATOM     53  C   UNL A   1      43.988  24.600  27.173  1.00  0.00     0.037 A 
ATOM     54  C   UNL A   1      46.824  30.456  27.625  1.00  0.00     0.049 A 
ATOM     55  C   UNL A   1      45.397  25.075  26.959  1.00  0.00     0.074 A 
ATOM     56  C   UNL A   1      48.158  30.773  27.442  1.00  0.00     0.029 A 
ATOM     57  N   UNL A   1      46.702  29.092  27.403  1.00  0.00    -0.354 N 
ATOM     58  N   UNL A   1      45.883  26.287  27.086  1.00  0.00    -0.248 NA
ATOM     59  C   UNL A   1      46.388  24.069  26.552  1.00  0.00     0.031 C 
ATOM     60  C   UNL A   1      48.838  29.604  27.079  1.00  0.00     0.029 A 
ATOM     61  C   UNL A   1      47.935  28.553  27.071  1.00  0.00     0.049 A 
ATOM     62  H   UNL A   1      45.863  28.581  27.471  1.00  0.00     0.167 HD
ATOM     63  C   UNL A   1      47.238  26.187  26.793  1.00  0.00     0.074 A 
ATOM     64  C   UNL A   1      47.499  24.795  26.488  1.00  0.00     0.031 C 
ATOM     65  C   UNL A   1      48.180  27.163  26.781  1.00  0.00     0.037 A 
BRANCH  52  66
ATOM     66  C   UNL A   1      46.002  32.803  28.105  1.00  0.00     0.058 A 
ATOM     67  C   UNL A   1      46.399  33.375  29.325  1.00  0.00     0.135 A 
ATOM     68  C   UNL A   1      45.842  33.656  27.002  1.00  0.00     0.135 A 
ATOM     69  F   UNL A   1      46.554  32.605  30.414  1.00  0.00    -0.206 F 
ATOM     70  C   UNL A   1      46.576  34.748  29.460  1.00  0.00     0.059 A 
ATOM     71  C   UNL A   1      46.041  35.030  27.109  1.00  0.00     0.059 A 
ATOM     72  F   UNL A   1      45.470  33.162  25.811  1.00  0.00    -0.206 F 
ATOM     73  C   UNL A   1      46.381  35.569  28.348  1.00  0.00     0.060 A 
BRANCH  73  74
ATOM     74  S   UNL A   1      46.566  37.354  28.547  1.00  0.00     0.124 S 
ATOM     75  O   UNL A   1      45.875  37.848  27.360  1.00  0.00    -0.237 OA
ATOM     76  O   UNL A   1      45.896  37.602  29.819  1.00  0.00    -0.237 OA
ATOM     77  O   UNL A   1      48.013  37.543  28.558  1.00  0.00    -0.744 OA
ENDBRANCH  73  74
ENDBRANCH  52  66
BRANCH  53  78
ATOM     78  C   UNL A   1      43.604  23.186  26.925  1.00  0.00     0.058 A 
ATOM     79  C   UNL A   1      43.326  22.318  27.990  1.00  0.00     0.135 A 
ATOM     80  C   UNL A   1      43.442  22.696  25.620  1.00  0.00     0.135 A 
ATOM     81  F   UNL A   1      43.473  22.741  29.255  1.00  0.00    -0.206 F 
ATOM     82  C   UNL A   1      42.895  21.014  27.772  1.00  0.00     0.059 A 
ATOM     83  C   UNL A   1      42.995  21.402  25.376  1.00  0.00     0.059 A 
ATOM     84  F   UNL A   1      43.681  23.496  24.569  1.00  0.00    -0.206 F 
ATOM     85  C   UNL A   1      42.724  20.568  26.460  1.00  0.00     0.060 A 
BRANCH  85  86
ATOM     86  S   UNL A   1      42.073  18.905  26.188  1.00  0.00     0.124 S 
ATOM     87  O   UNL A   1      40.703  19.187  25.777  1.00  0.00    -0.237 OA
ATOM     88  O   UNL A   1      42.960  18.394  25.146  1.00  0.00    -0.237 OA
ATOM     89  O   UNL A   1      42.225  18.269  27.493  1.00  0.00    -0.744 OA
ENDBRANCH  85  86
ENDBRANCH  53  78
BRANCH  65  90
ATOM     90  C   UNL A   1      49.592  26.764  26.457  1.00  0.00     0.058 A 
ATOM     91  C   UNL A   1      50.432  26.190  27.422  1.00  0.00     0.135 A 
ATOM     92  C   UNL A   1      50.076  26.875  25.144  1.00  0.00     0.135 A 
ATOM     93  F   UNL A   1      50.018  26.070  28.693  1.00  0.00    -0.206 F 
ATOM     94  C   UNL A   1      51.708  25.739  27.097  1.00  0.00     0.059 A 
ATOM     95  C   UNL A   1      51.340  26.413  24.792  1.00  0.00     0.059 A 
ATOM     96  F   UNL A   1      49.306  27.412  24.183  1.00  0.00    -0.206 F 
ATOM     97  C   UNL A   1      52.150  25.848  25.776  1.00  0.00     0.060 A 
BRANCH  97  98
ATOM     98  S   UNL A   1      53.779  25.196  25.349  1.00  0.00     0.124 S 
ATOM     99  O   UNL A   1      53.955  25.706  23.994  1.00  0.00    -0.237 OA
ATOM    100  O   UNL A   1      54.634  25.795  26.369  1.00  0.00    -0.237 OA
ATOM    101  O   UNL A   1      53.604  23.750  25.460  1.00  0.00    -0.744 OA
ENDBRANCH  97  98
ENDBRANCH  65  90
ENDBRANCH  39  40
ENDBRANCH  31  34
ENDBRANCH  29  30
ENDBRANCH  28  29
ENDBRANCH   1  28
TORSDOF 17
ENDMDL
