MODEL 1
REMARK VINA RESULT:     -12.1      0.000      0.000
REMARK SMILES Cc1cc(C)c2c(c1)C=C(C(=O)NCCCCNC(=O)c1ccc(-c3c4nc(c(-c5c(F)cc(S(=O)(=O)[O-])cc5F)c5ccc([nH]5)c(-c5c(F)cc(S(=O)(=O)[O-])cc5F)c5nc(c(-c6c(F)cc(S(=O)(=O)[O-])cc6F)c6ccc3[nH]6)C=C5)C=C4)cc1)[C@@H](C(F)(F)F)O2
REMARK SMILES IDX 16 1 15 2 14 3 13 4 11 5 12 6 10 8 1 9 2 10 3 11 8 12 4 13
REMARK SMILES IDX 7 14 5 15 6 16 9 17 92 18 87 19 88 20 89 21 90 22 91 23
REMARK SMILES IDX 17 24 18 25 19 26 20 28 21 29 22 30 86 31 23 32 85 33 24 34
REMARK SMILES IDX 25 35 26 36 79 37 27 38 84 39 78 40 80 41 28 42 83 43 77 44
REMARK SMILES IDX 76 45 29 47 63 48 42 49 62 50 43 51 46 52 61 53 81 54 44 55
REMARK SMILES IDX 45 56 60 58 82 59 47 60 30 61 31 62 40 63 32 64 33 65 39 66
REMARK SMILES IDX 41 67 34 68 35 69 36 70 37 71 38 72 64 73 65 74 74 75 66 76
REMARK SMILES IDX 67 77 73 78 75 79 68 80 69 81 70 82 71 83 72 84 48 85 49 86
REMARK SMILES IDX 58 87 50 88 51 89 57 90 59 91 52 92 53 93 54 94 55 95 56 96
REMARK H PARENT 13 7 18 27 80 46 46 57
REMARK Flexibility Score: inf
ROOT
ATOM      1  C   UNL A   1      33.705  28.172  25.751  1.00  0.00     0.023 C 
ENDROOT
BRANCH   1   2
ATOM      2  C   UNL A   1      32.553  28.656  24.865  1.00  0.00     0.023 C 
BRANCH   2   3
ATOM      3  C   UNL A   1      31.739  27.532  24.232  1.00  0.00     0.116 C 
BRANCH   3   4
ATOM      4  N   UNL A   1      30.896  26.858  25.202  1.00  0.00    -0.352 N 
ATOM      5  C   UNL A   1      30.855  25.646  25.802  1.00  0.00     0.251 C 
ATOM      6  O   UNL A   1      29.923  25.480  26.594  1.00  0.00    -0.270 OA
ATOM      7  H   UNL A   1      30.157  27.435  25.504  1.00  0.00     0.163 HD
BRANCH   5   8
ATOM      8  C   UNL A   1      31.831  24.537  25.574  1.00  0.00     0.067 C 
ATOM      9  C   UNL A   1      37.895  23.378  25.966  1.00  0.00     0.044 C 
ATOM     10  C   UNL A   1      36.440  23.062  25.781  1.00  0.00    -0.050 A 
ATOM     11  C   UNL A   1      36.042  21.777  25.387  1.00  0.00     0.010 A 
ATOM     12  C   UNL A   1      35.470  24.059  25.949  1.00  0.00     0.015 A 
ATOM     13  C   UNL A   1      34.689  21.474  25.189  1.00  0.00    -0.008 A 
ATOM     14  C   UNL A   1      34.117  23.772  25.749  1.00  0.00     0.018 A 
ATOM     15  C   UNL A   1      34.272  20.091  24.777  1.00  0.00     0.048 C 
ATOM     16  C   UNL A   1      33.736  22.484  25.368  1.00  0.00     0.130 A 
ATOM     17  C   UNL A   1      33.095  24.788  25.966  1.00  0.00     0.025 C 
ATOM     18  O   UNL A   1      32.422  22.142  25.201  1.00  0.00    -0.475 OA
ATOM     19  C   UNL A   1      31.500  23.229  24.916  1.00  0.00     0.314 C 
BRANCH  19  20
ATOM     20  C   UNL A   1      31.326  23.356  23.391  1.00  0.00     0.429 C 
ATOM     21  F   UNL A   1      31.576  22.167  22.786  1.00  0.00    -0.167 F 
ATOM     22  F   UNL A   1      30.069  23.709  23.037  1.00  0.00    -0.167 F 
ATOM     23  F   UNL A   1      32.161  24.270  22.844  1.00  0.00    -0.167 F 
ENDBRANCH  19  20
ENDBRANCH   5   8
ENDBRANCH   3   4
ENDBRANCH   2   3
ENDBRANCH   1   2
BRANCH   1  24
ATOM     24  C   UNL A   1      33.517  28.395  27.251  1.00  0.00     0.116 C 
BRANCH  24  25
ATOM     25  N   UNL A   1      33.400  29.798  27.624  1.00  0.00    -0.352 N 
ATOM     26  C   UNL A   1      34.368  30.616  28.155  1.00  0.00     0.251 C 
ATOM     27  H   UNL A   1      32.518  30.211  27.479  1.00  0.00     0.163 HD
ATOM     28  O   UNL A   1      34.096  31.763  28.497  1.00  0.00    -0.269 OA
BRANCH  26  29
ATOM     29  C   UNL A   1      35.727  30.076  28.345  1.00  0.00     0.039 A 
ATOM     30  C   UNL A   1      36.608  30.078  27.262  1.00  0.00     0.014 A 
ATOM     31  C   UNL A   1      36.140  29.640  29.606  1.00  0.00     0.014 A 
ATOM     32  C   UNL A   1      37.936  29.700  27.462  1.00  0.00     0.010 A 
ATOM     33  C   UNL A   1      37.477  29.318  29.815  1.00  0.00     0.010 A 
ATOM     34  C   UNL A   1      38.386  29.350  28.746  1.00  0.00    -0.014 A 
BRANCH  34  35
ATOM     35  C   UNL A   1      39.806  29.003  28.989  1.00  0.00     0.031 A 
ATOM     36  C   UNL A   1      40.732  30.029  29.576  1.00  0.00     0.074 A 
ATOM     37  C   UNL A   1      40.268  27.789  28.632  1.00  0.00     0.049 A 
ATOM     38  N   UNL A   1      42.017  29.946  29.803  1.00  0.00    -0.248 NA
ATOM     39  C   UNL A   1      40.140  31.328  29.933  1.00  0.00     0.031 C 
ATOM     40  C   UNL A   1      39.469  26.727  28.017  1.00  0.00     0.029 A 
ATOM     41  N   UNL A   1      41.522  27.246  28.731  1.00  0.00    -0.354 N 
ATOM     42  C   UNL A   1      42.388  31.180  30.318  1.00  0.00     0.074 A 
ATOM     43  C   UNL A   1      41.205  32.012  30.324  1.00  0.00     0.031 C 
ATOM     44  C   UNL A   1      40.247  25.649  27.822  1.00  0.00     0.029 A 
ATOM     45  C   UNL A   1      41.603  25.955  28.267  1.00  0.00     0.049 A 
ATOM     46  H   UNL A   1      42.293  27.735  29.100  1.00  0.00     0.167 HD
ATOM     47  C   UNL A   1      43.601  31.576  30.773  1.00  0.00     0.037 A 
ATOM     48  C   UNL A   1      42.654  25.113  28.210  1.00  0.00     0.037 A 
ATOM     49  C   UNL A   1      44.767  30.736  30.792  1.00  0.00     0.049 A 
ATOM     50  C   UNL A   1      43.991  25.576  28.715  1.00  0.00     0.074 A 
ATOM     51  C   UNL A   1      46.031  31.026  31.274  1.00  0.00     0.029 A 
ATOM     52  N   UNL A   1      44.810  29.434  30.312  1.00  0.00    -0.354 N 
ATOM     53  N   UNL A   1      44.318  26.737  29.233  1.00  0.00    -0.248 NA
ATOM     54  C   UNL A   1      45.103  24.620  28.627  1.00  0.00     0.031 C 
ATOM     55  C   UNL A   1      46.846  29.909  31.061  1.00  0.00     0.029 A 
ATOM     56  C   UNL A   1      46.081  28.912  30.475  1.00  0.00     0.049 A 
ATOM     57  H   UNL A   1      44.049  28.954  29.914  1.00  0.00     0.167 HD
ATOM     58  C   UNL A   1      45.670  26.647  29.544  1.00  0.00     0.074 A 
ATOM     59  C   UNL A   1      46.096  25.313  29.170  1.00  0.00     0.031 C 
ATOM     60  C   UNL A   1      46.485  27.584  30.087  1.00  0.00     0.037 A 
BRANCH  47  61
ATOM     61  C   UNL A   1      43.712  32.978  31.301  1.00  0.00     0.058 A 
ATOM     62  C   UNL A   1      44.080  34.045  30.466  1.00  0.00     0.135 A 
ATOM     63  C   UNL A   1      43.442  33.261  32.649  1.00  0.00     0.135 A 
ATOM     64  F   UNL A   1      44.368  33.823  29.174  1.00  0.00    -0.206 F 
ATOM     65  C   UNL A   1      44.208  35.339  30.955  1.00  0.00     0.059 A 
ATOM     66  C   UNL A   1      43.542  34.554  33.155  1.00  0.00     0.059 A 
ATOM     67  F   UNL A   1      43.091  32.276  33.490  1.00  0.00    -0.206 F 
ATOM     68  C   UNL A   1      43.941  35.584  32.304  1.00  0.00     0.060 A 
BRANCH  68  69
ATOM     69  S   UNL A   1      44.122  37.267  32.926  1.00  0.00     0.124 S 
ATOM     70  O   UNL A   1      45.462  37.221  33.503  1.00  0.00    -0.237 OA
ATOM     71  O   UNL A   1      43.981  38.067  31.713  1.00  0.00    -0.237 OA
ATOM     72  O   UNL A   1      43.029  37.394  33.886  1.00  0.00    -0.744 OA
ENDBRANCH  68  69
ENDBRANCH  47  61
BRANCH  48  73
ATOM     73  C   UNL A   1      42.468  23.736  27.685  1.00  0.00     0.058 A 
ATOM     74  C   UNL A   1      42.470  23.493  26.305  1.00  0.00     0.135 A 
ATOM     75  C   UNL A   1      42.319  22.638  28.546  1.00  0.00     0.135 A 
ATOM     76  F   UNL A   1      42.602  24.514  25.444  1.00  0.00    -0.206 F 
ATOM     77  C   UNL A   1      42.332  22.207  25.791  1.00  0.00     0.059 A 
ATOM     78  C   UNL A   1      42.196  21.341  28.057  1.00  0.00     0.059 A 
ATOM     79  F   UNL A   1      42.324  22.820  29.875  1.00  0.00    -0.206 F 
ATOM     80  C   UNL A   1      42.201  21.136  26.677  1.00  0.00     0.060 A 
BRANCH  80  81
ATOM     81  S   UNL A   1      42.094  19.464  26.001  1.00  0.00     0.124 S 
ATOM     82  O   UNL A   1      42.579  18.663  27.119  1.00  0.00    -0.237 OA
ATOM     83  O   UNL A   1      40.669  19.346  25.702  1.00  0.00    -0.237 OA
ATOM     84  O   UNL A   1      42.968  19.518  24.834  1.00  0.00    -0.744 OA
ENDBRANCH  80  81
ENDBRANCH  48  73
BRANCH  60  85
ATOM     85  C   UNL A   1      47.919  27.202  30.312  1.00  0.00     0.058 A 
ATOM     86  C   UNL A   1      48.907  27.489  29.357  1.00  0.00     0.135 A 
ATOM     87  C   UNL A   1      48.320  26.604  31.517  1.00  0.00     0.135 A 
ATOM     88  F   UNL A   1      48.571  28.052  28.186  1.00  0.00    -0.206 F 
ATOM     89  C   UNL A   1      50.244  27.187  29.586  1.00  0.00     0.059 A 
ATOM     90  C   UNL A   1      49.656  26.312  31.775  1.00  0.00     0.059 A 
ATOM     91  F   UNL A   1      47.413  26.319  32.464  1.00  0.00    -0.206 F 
ATOM     92  C   UNL A   1      50.610  26.601  30.799  1.00  0.00     0.060 A 
BRANCH  92  93
ATOM     93  S   UNL A   1      52.355  26.257  31.103  1.00  0.00     0.124 S 
ATOM     94  O   UNL A   1      52.889  26.231  29.745  1.00  0.00    -0.237 OA
ATOM     95  O   UNL A   1      52.762  27.393  31.922  1.00  0.00    -0.237 OA
ATOM     96  O   UNL A   1      52.332  24.971  31.794  1.00  0.00    -0.744 OA
ENDBRANCH  92  93
ENDBRANCH  60  85
ENDBRANCH  34  35
ENDBRANCH  26  29
ENDBRANCH  24  25
ENDBRANCH   1  24
TORSDOF 15
ENDMDL
MODEL 2
REMARK VINA RESULT:     -11.7      4.905     10.455
REMARK SMILES Cc1cc(C)c2c(c1)C=C(C(=O)NCCCCNC(=O)c1ccc(-c3c4nc(c(-c5c(F)cc(S(=O)(=O)[O-])cc5F)c5ccc([nH]5)c(-c5c(F)cc(S(=O)(=O)[O-])cc5F)c5nc(c(-c6c(F)cc(S(=O)(=O)[O-])cc6F)c6ccc3[nH]6)C=C5)C=C4)cc1)[C@@H](C(F)(F)F)O2
REMARK SMILES IDX 16 1 15 2 14 3 13 4 11 5 12 6 10 8 1 9 2 10 3 11 8 12 4 13
REMARK SMILES IDX 7 14 5 15 6 16 9 17 92 18 87 19 88 20 89 21 90 22 91 23
REMARK SMILES IDX 17 24 18 25 19 26 20 28 21 29 22 30 86 31 23 32 85 33 24 34
REMARK SMILES IDX 25 35 26 36 79 37 27 38 84 39 78 40 80 41 28 42 83 43 77 44
REMARK SMILES IDX 76 45 29 47 63 48 42 49 62 50 43 51 46 52 61 53 81 54 44 55
REMARK SMILES IDX 45 56 60 58 82 59 47 60 30 61 31 62 40 63 32 64 33 65 39 66
REMARK SMILES IDX 41 67 34 68 35 69 36 70 37 71 38 72 64 73 65 74 74 75 66 76
REMARK SMILES IDX 67 77 73 78 75 79 68 80 69 81 70 82 71 83 72 84 48 85 49 86
REMARK SMILES IDX 58 87 50 88 51 89 57 90 59 91 52 92 53 93 54 94 55 95 56 96
REMARK H PARENT 13 7 18 27 80 46 46 57
REMARK Flexibility Score: inf
ROOT
ATOM      1  C   UNL A   1      40.109  22.505  27.586  1.00  0.00     0.023 C 
ENDROOT
BRANCH   1   2
ATOM      2  C   UNL A   1      39.331  22.166  26.311  1.00  0.00     0.023 C 
BRANCH   2   3
ATOM      3  C   UNL A   1      38.155  23.098  26.033  1.00  0.00     0.116 C 
BRANCH   3   4
ATOM      4  N   UNL A   1      37.718  23.025  24.652  1.00  0.00    -0.352 N 
ATOM      5  C   UNL A   1      36.552  23.154  23.977  1.00  0.00     0.251 C 
ATOM      6  O   UNL A   1      36.630  23.001  22.754  1.00  0.00    -0.270 OA
ATOM      7  H   UNL A   1      38.467  22.829  24.043  1.00  0.00     0.163 HD
BRANCH   5   8
ATOM      8  C   UNL A   1      35.226  23.457  24.595  1.00  0.00     0.067 C 
ATOM      9  C   UNL A   1      32.024  28.228  26.890  1.00  0.00     0.044 C 
ATOM     10  C   UNL A   1      32.255  26.823  26.413  1.00  0.00    -0.050 A 
ATOM     11  C   UNL A   1      31.259  25.851  26.575  1.00  0.00     0.010 A 
ATOM     12  C   UNL A   1      33.485  26.459  25.850  1.00  0.00     0.015 A 
ATOM     13  C   UNL A   1      31.469  24.531  26.155  1.00  0.00    -0.008 A 
ATOM     14  C   UNL A   1      33.710  25.144  25.431  1.00  0.00     0.018 A 
ATOM     15  C   UNL A   1      30.391  23.498  26.325  1.00  0.00     0.048 C 
ATOM     16  C   UNL A   1      32.704  24.190  25.589  1.00  0.00     0.130 A 
ATOM     17  C   UNL A   1      34.968  24.763  24.801  1.00  0.00     0.025 C 
ATOM     18  O   UNL A   1      32.860  22.901  25.158  1.00  0.00    -0.475 OA
ATOM     19  C   UNL A   1      34.226  22.422  25.024  1.00  0.00     0.314 C 
BRANCH  19  20
ATOM     20  C   UNL A   1      34.636  21.698  26.319  1.00  0.00     0.429 C 
ATOM     21  F   UNL A   1      34.990  22.598  27.272  1.00  0.00    -0.167 F 
ATOM     22  F   UNL A   1      33.631  20.960  26.844  1.00  0.00    -0.167 F 
ATOM     23  F   UNL A   1      35.686  20.864  26.142  1.00  0.00    -0.167 F 
ENDBRANCH  19  20
ENDBRANCH   5   8
ENDBRANCH   3   4
ENDBRANCH   2   3
ENDBRANCH   1   2
BRANCH   1  24
ATOM     24  C   UNL A   1      41.492  23.116  27.367  1.00  0.00     0.116 C 
BRANCH  24  25
ATOM     25  N   UNL A   1      41.582  23.953  26.177  1.00  0.00    -0.352 N 
ATOM     26  C   UNL A   1      41.500  25.322  26.097  1.00  0.00     0.251 C 
ATOM     27  H   UNL A   1      41.717  23.478  25.325  1.00  0.00     0.163 HD
ATOM     28  O   UNL A   1      41.512  25.884  25.006  1.00  0.00    -0.269 OA
BRANCH  26  29
ATOM     29  C   UNL A   1      41.355  26.098  27.343  1.00  0.00     0.039 A 
ATOM     30  C   UNL A   1      42.429  26.876  27.779  1.00  0.00     0.014 A 
ATOM     31  C   UNL A   1      40.138  26.105  28.029  1.00  0.00     0.014 A 
ATOM     32  C   UNL A   1      42.259  27.721  28.876  1.00  0.00     0.010 A 
ATOM     33  C   UNL A   1      39.954  26.989  29.086  1.00  0.00     0.010 A 
ATOM     34  C   UNL A   1      41.011  27.806  29.515  1.00  0.00    -0.014 A 
BRANCH  34  35
ATOM     35  C   UNL A   1      40.795  28.741  30.645  1.00  0.00     0.031 A 
ATOM     36  C   UNL A   1      41.643  28.624  31.879  1.00  0.00     0.074 A 
ATOM     37  C   UNL A   1      39.806  29.654  30.578  1.00  0.00     0.049 A 
ATOM     38  N   UNL A   1      41.569  29.297  32.997  1.00  0.00    -0.248 NA
ATOM     39  C   UNL A   1      42.696  27.597  31.862  1.00  0.00     0.031 C 
ATOM     40  C   UNL A   1      38.895  29.833  29.445  1.00  0.00     0.029 A 
ATOM     41  N   UNL A   1      39.401  30.599  31.484  1.00  0.00    -0.354 N 
ATOM     42  C   UNL A   1      42.556  28.772  33.818  1.00  0.00     0.074 A 
ATOM     43  C   UNL A   1      43.182  27.689  33.092  1.00  0.00     0.031 C 
ATOM     44  C   UNL A   1      38.056  30.848  29.714  1.00  0.00     0.029 A 
ATOM     45  C   UNL A   1      38.349  31.368  31.046  1.00  0.00     0.049 A 
ATOM     46  H   UNL A   1      39.822  30.716  32.366  1.00  0.00     0.167 HD
ATOM     47  C   UNL A   1      42.928  29.173  35.057  1.00  0.00     0.037 A 
ATOM     48  C   UNL A   1      37.698  32.380  31.651  1.00  0.00     0.037 A 
ATOM     49  C   UNL A   1      42.321  30.269  35.763  1.00  0.00     0.049 A 
ATOM     50  C   UNL A   1      38.123  32.805  33.028  1.00  0.00     0.074 A 
ATOM     51  C   UNL A   1      42.653  30.785  37.003  1.00  0.00     0.029 A 
ATOM     52  N   UNL A   1      41.258  31.023  35.288  1.00  0.00    -0.354 N 
ATOM     53  N   UNL A   1      39.083  32.320  33.779  1.00  0.00    -0.248 NA
ATOM     54  C   UNL A   1      37.378  33.912  33.643  1.00  0.00     0.031 C 
ATOM     55  C   UNL A   1      41.774  31.834  37.289  1.00  0.00     0.029 A 
ATOM     56  C   UNL A   1      40.913  31.992  36.214  1.00  0.00     0.049 A 
ATOM     57  H   UNL A   1      40.814  30.888  34.420  1.00  0.00     0.167 HD
ATOM     58  C   UNL A   1      39.066  33.068  34.950  1.00  0.00     0.074 A 
ATOM     59  C   UNL A   1      38.010  34.050  34.802  1.00  0.00     0.031 C 
ATOM     60  C   UNL A   1      39.852  32.953  36.049  1.00  0.00     0.037 A 
BRANCH  47  61
ATOM     61  C   UNL A   1      44.054  28.427  35.712  1.00  0.00     0.058 A 
ATOM     62  C   UNL A   1      43.811  27.332  36.557  1.00  0.00     0.135 A 
ATOM     63  C   UNL A   1      45.388  28.802  35.490  1.00  0.00     0.135 A 
ATOM     64  F   UNL A   1      42.551  26.947  36.818  1.00  0.00    -0.206 F 
ATOM     65  C   UNL A   1      44.849  26.655  37.184  1.00  0.00     0.059 A 
ATOM     66  C   UNL A   1      46.445  28.122  36.090  1.00  0.00     0.059 A 
ATOM     67  F   UNL A   1      45.675  29.844  34.694  1.00  0.00    -0.206 F 
ATOM     68  C   UNL A   1      46.164  27.060  36.948  1.00  0.00     0.060 A 
BRANCH  68  69
ATOM     69  S   UNL A   1      47.500  26.176  37.778  1.00  0.00     0.124 S 
ATOM     70  O   UNL A   1      47.228  26.488  39.179  1.00  0.00    -0.237 OA
ATOM     71  O   UNL A   1      47.256  24.793  37.380  1.00  0.00    -0.237 OA
ATOM     72  O   UNL A   1      48.706  26.782  37.222  1.00  0.00    -0.744 OA
ENDBRANCH  68  69
ENDBRANCH  47  61
BRANCH  48  73
ATOM     73  C   UNL A   1      36.599  33.081  30.938  1.00  0.00     0.058 A 
ATOM     74  C   UNL A   1      35.265  32.900  31.331  1.00  0.00     0.135 A 
ATOM     75  C   UNL A   1      36.858  33.965  29.880  1.00  0.00     0.135 A 
ATOM     76  F   UNL A   1      34.970  32.058  32.333  1.00  0.00    -0.206 F 
ATOM     77  C   UNL A   1      34.223  33.572  30.700  1.00  0.00     0.059 A 
ATOM     78  C   UNL A   1      35.835  34.662  29.245  1.00  0.00     0.059 A 
ATOM     79  F   UNL A   1      38.120  34.181  29.478  1.00  0.00    -0.206 F 
ATOM     80  C   UNL A   1      34.519  34.456  29.661  1.00  0.00     0.060 A 
BRANCH  80  81
ATOM     81  S   UNL A   1      33.165  35.376  28.897  1.00  0.00     0.124 S 
ATOM     82  O   UNL A   1      32.449  35.871  30.067  1.00  0.00    -0.237 OA
ATOM     83  O   UNL A   1      33.881  36.380  28.114  1.00  0.00    -0.237 OA
ATOM     84  O   UNL A   1      32.470  34.360  28.113  1.00  0.00    -0.744 OA
ENDBRANCH  80  81
ENDBRANCH  48  73
BRANCH  60  85
ATOM     85  C   UNL A   1      39.601  33.910  37.177  1.00  0.00     0.058 A 
ATOM     86  C   UNL A   1      38.766  33.566  38.252  1.00  0.00     0.135 A 
ATOM     87  C   UNL A   1      40.251  35.154  37.219  1.00  0.00     0.135 A 
ATOM     88  F   UNL A   1      38.117  32.392  38.253  1.00  0.00    -0.206 F 
ATOM     89  C   UNL A   1      38.576  34.428  39.325  1.00  0.00     0.059 A 
ATOM     90  C   UNL A   1      40.091  36.023  38.293  1.00  0.00     0.059 A 
ATOM     91  F   UNL A   1      41.067  35.523  36.218  1.00  0.00    -0.206 F 
ATOM     92  C   UNL A   1      39.245  35.653  39.339  1.00  0.00     0.060 A 
BRANCH  92  93
ATOM     93  S   UNL A   1      39.026  36.743  40.761  1.00  0.00     0.124 S 
ATOM     94  O   UNL A   1      40.401  36.906  41.220  1.00  0.00    -0.237 OA
ATOM     95  O   UNL A   1      38.414  37.923  40.161  1.00  0.00    -0.237 OA
ATOM     96  O   UNL A   1      38.155  35.974  41.646  1.00  0.00    -0.744 OA
ENDBRANCH  92  93
ENDBRANCH  60  85
ENDBRANCH  34  35
ENDBRANCH  26  29
ENDBRANCH  24  25
ENDBRANCH   1  24
TORSDOF 15
ENDMDL
MODEL 3
REMARK VINA RESULT:     -11.6      3.034      4.622
REMARK SMILES Cc1cc(C)c2c(c1)C=C(C(=O)NCCCCNC(=O)c1ccc(-c3c4nc(c(-c5c(F)cc(S(=O)(=O)[O-])cc5F)c5ccc([nH]5)c(-c5c(F)cc(S(=O)(=O)[O-])cc5F)c5nc(c(-c6c(F)cc(S(=O)(=O)[O-])cc6F)c6ccc3[nH]6)C=C5)C=C4)cc1)[C@@H](C(F)(F)F)O2
REMARK SMILES IDX 16 1 15 2 14 3 13 4 11 5 12 6 10 8 1 9 2 10 3 11 8 12 4 13
REMARK SMILES IDX 7 14 5 15 6 16 9 17 92 18 87 19 88 20 89 21 90 22 91 23
REMARK SMILES IDX 17 24 18 25 19 26 20 28 21 29 22 30 86 31 23 32 85 33 24 34
REMARK SMILES IDX 25 35 26 36 79 37 27 38 84 39 78 40 80 41 28 42 83 43 77 44
REMARK SMILES IDX 76 45 29 47 63 48 42 49 62 50 43 51 46 52 61 53 81 54 44 55
REMARK SMILES IDX 45 56 60 58 82 59 47 60 30 61 31 62 40 63 32 64 33 65 39 66
REMARK SMILES IDX 41 67 34 68 35 69 36 70 37 71 38 72 64 73 65 74 74 75 66 76
REMARK SMILES IDX 67 77 73 78 75 79 68 80 69 81 70 82 71 83 72 84 48 85 49 86
REMARK SMILES IDX 58 87 50 88 51 89 57 90 59 91 52 92 53 93 54 94 55 95 56 96
REMARK H PARENT 13 7 18 27 80 46 46 57
REMARK Flexibility Score: inf
ROOT
ATOM      1  C   UNL A   1      33.809  29.285  27.170  1.00  0.00     0.023 C 
ENDROOT
BRANCH   1   2
ATOM      2  C   UNL A   1      33.742  28.642  25.782  1.00  0.00     0.023 C 
BRANCH   2   3
ATOM      3  C   UNL A   1      33.869  27.122  25.792  1.00  0.00     0.116 C 
BRANCH   3   4
ATOM      4  N   UNL A   1      33.818  26.563  24.455  1.00  0.00    -0.352 N 
ATOM      5  C   UNL A   1      32.906  26.464  23.459  1.00  0.00     0.251 C 
ATOM      6  O   UNL A   1      33.293  25.878  22.445  1.00  0.00    -0.270 OA
ATOM      7  H   UNL A   1      34.672  26.143  24.203  1.00  0.00     0.163 HD
BRANCH   5   8
ATOM      8  C   UNL A   1      31.512  27.002  23.510  1.00  0.00     0.067 C 
ATOM      9  C   UNL A   1      28.421  32.300  22.707  1.00  0.00     0.044 C 
ATOM     10  C   UNL A   1      28.598  30.825  22.920  1.00  0.00    -0.050 A 
ATOM     11  C   UNL A   1      27.486  30.012  23.177  1.00  0.00     0.010 A 
ATOM     12  C   UNL A   1      29.878  30.255  22.916  1.00  0.00     0.015 A 
ATOM     13  C   UNL A   1      27.637  28.637  23.399  1.00  0.00    -0.008 A 
ATOM     14  C   UNL A   1      30.044  28.886  23.141  1.00  0.00     0.018 A 
ATOM     15  C   UNL A   1      26.438  27.772  23.664  1.00  0.00     0.048 C 
ATOM     16  C   UNL A   1      28.926  28.087  23.384  1.00  0.00     0.130 A 
ATOM     17  C   UNL A   1      31.366  28.274  23.093  1.00  0.00     0.025 C 
ATOM     18  O   UNL A   1      29.032  26.736  23.570  1.00  0.00    -0.475 OA
ATOM     19  C   UNL A   1      30.322  26.243  24.023  1.00  0.00     0.314 C 
BRANCH  19  20
ATOM     20  C   UNL A   1      30.307  26.128  25.559  1.00  0.00     0.429 C 
ATOM     21  F   UNL A   1      31.204  25.197  25.972  1.00  0.00    -0.167 F 
ATOM     22  F   UNL A   1      30.647  27.285  26.172  1.00  0.00    -0.167 F 
ATOM     23  F   UNL A   1      29.097  25.765  26.044  1.00  0.00    -0.167 F 
ENDBRANCH  19  20
ENDBRANCH   5   8
ENDBRANCH   3   4
ENDBRANCH   2   3
ENDBRANCH   1   2
BRANCH   1  24
ATOM     24  C   UNL A   1      35.216  29.565  27.697  1.00  0.00     0.116 C 
BRANCH  24  25
ATOM     25  N   UNL A   1      35.236  30.273  28.969  1.00  0.00    -0.352 N 
ATOM     26  C   UNL A   1      36.284  30.408  29.847  1.00  0.00     0.251 C 
ATOM     27  H   UNL A   1      34.393  30.708  29.233  1.00  0.00     0.163 HD
ATOM     28  O   UNL A   1      36.125  30.969  30.927  1.00  0.00    -0.269 OA
BRANCH  26  29
ATOM     29  C   UNL A   1      37.591  29.828  29.486  1.00  0.00     0.039 A 
ATOM     30  C   UNL A   1      37.999  29.869  28.152  1.00  0.00     0.014 A 
ATOM     31  C   UNL A   1      38.431  29.314  30.478  1.00  0.00     0.014 A 
ATOM     32  C   UNL A   1      39.287  29.451  27.818  1.00  0.00     0.010 A 
ATOM     33  C   UNL A   1      39.733  28.951  30.151  1.00  0.00     0.010 A 
ATOM     34  C   UNL A   1      40.172  29.021  28.821  1.00  0.00    -0.014 A 
BRANCH  34  35
ATOM     35  C   UNL A   1      41.564  28.629  28.494  1.00  0.00     0.031 A 
ATOM     36  C   UNL A   1      42.652  29.664  28.515  1.00  0.00     0.074 A 
ATOM     37  C   UNL A   1      41.832  27.361  28.128  1.00  0.00     0.049 A 
ATOM     38  N   UNL A   1      43.914  29.540  28.197  1.00  0.00    -0.248 NA
ATOM     39  C   UNL A   1      42.265  31.023  28.925  1.00  0.00     0.031 C 
ATOM     40  C   UNL A   1      40.848  26.281  28.035  1.00  0.00     0.029 A 
ATOM     41  N   UNL A   1      43.013  26.768  27.764  1.00  0.00    -0.354 N 
ATOM     42  C   UNL A   1      44.468  30.802  28.358  1.00  0.00     0.074 A 
ATOM     43  C   UNL A   1      43.397  31.690  28.752  1.00  0.00     0.031 C 
ATOM     44  C   UNL A   1      41.473  25.149  27.667  1.00  0.00     0.029 A 
ATOM     45  C   UNL A   1      42.891  25.431  27.469  1.00  0.00     0.049 A 
ATOM     46  H   UNL A   1      43.869  27.253  27.718  1.00  0.00     0.167 HD
ATOM     47  C   UNL A   1      45.761  31.182  28.218  1.00  0.00     0.037 A 
ATOM     48  C   UNL A   1      43.821  24.535  27.085  1.00  0.00     0.037 A 
ATOM     49  C   UNL A   1      46.827  30.289  27.854  1.00  0.00     0.049 A 
ATOM     50  C   UNL A   1      45.248  24.980  26.930  1.00  0.00     0.074 A 
ATOM     51  C   UNL A   1      48.177  30.564  27.730  1.00  0.00     0.029 A 
ATOM     52  N   UNL A   1      46.664  28.942  27.562  1.00  0.00    -0.354 N 
ATOM     53  N   UNL A   1      45.763  26.172  27.120  1.00  0.00    -0.248 NA
ATOM     54  C   UNL A   1      46.220  23.963  26.507  1.00  0.00     0.031 C 
ATOM     55  C   UNL A   1      48.827  29.390  27.336  1.00  0.00     0.029 A 
ATOM     56  C   UNL A   1      47.886  28.376  27.245  1.00  0.00     0.049 A 
ATOM     57  H   UNL A   1      45.805  28.461  27.577  1.00  0.00     0.167 HD
ATOM     58  C   UNL A   1      47.120  26.046  26.851  1.00  0.00     0.074 A 
ATOM     59  C   UNL A   1      47.350  24.659  26.500  1.00  0.00     0.031 C 
ATOM     60  C   UNL A   1      48.090  26.993  26.890  1.00  0.00     0.037 A 
BRANCH  47  61
ATOM     61  C   UNL A   1      46.083  32.626  28.477  1.00  0.00     0.058 A 
ATOM     62  C   UNL A   1      46.064  33.575  27.443  1.00  0.00     0.135 A 
ATOM     63  C   UNL A   1      46.409  33.067  29.769  1.00  0.00     0.135 A 
ATOM     64  F   UNL A   1      45.779  33.199  26.187  1.00  0.00    -0.206 F 
ATOM     65  C   UNL A   1      46.387  34.906  27.674  1.00  0.00     0.059 A 
ATOM     66  C   UNL A   1      46.713  34.401  30.027  1.00  0.00     0.059 A 
ATOM     67  F   UNL A   1      46.446  32.199  30.792  1.00  0.00    -0.206 F 
ATOM     68  C   UNL A   1      46.715  35.310  28.970  1.00  0.00     0.060 A 
BRANCH  68  69
ATOM     69  S   UNL A   1      47.141  37.040  29.251  1.00  0.00     0.124 S 
ATOM     70  O   UNL A   1      45.951  37.523  29.948  1.00  0.00    -0.237 OA
ATOM     71  O   UNL A   1      48.351  36.938  30.061  1.00  0.00    -0.237 OA
ATOM     72  O   UNL A   1      47.336  37.566  27.903  1.00  0.00    -0.744 OA
ENDBRANCH  68  69
ENDBRANCH  47  61
BRANCH  48  73
ATOM     73  C   UNL A   1      43.431  23.120  26.856  1.00  0.00     0.058 A 
ATOM     74  C   UNL A   1      43.390  22.593  25.558  1.00  0.00     0.135 A 
ATOM     75  C   UNL A   1      43.126  22.262  27.924  1.00  0.00     0.135 A 
ATOM     76  F   UNL A   1      43.665  23.378  24.506  1.00  0.00    -0.206 F 
ATOM     77  C   UNL A   1      43.060  21.261  25.322  1.00  0.00     0.059 A 
ATOM     78  C   UNL A   1      42.812  20.922  27.715  1.00  0.00     0.059 A 
ATOM     79  F   UNL A   1      43.166  22.717  29.185  1.00  0.00    -0.206 F 
ATOM     80  C   UNL A   1      42.777  20.432  26.410  1.00  0.00     0.060 A 
BRANCH  80  81
ATOM     81  S   UNL A   1      42.421  18.689  26.097  1.00  0.00     0.124 S 
ATOM     82  O   UNL A   1      42.705  18.093  27.398  1.00  0.00    -0.237 OA
ATOM     83  O   UNL A   1      41.015  18.729  25.706  1.00  0.00    -0.237 OA
ATOM     84  O   UNL A   1      43.351  18.344  25.026  1.00  0.00    -0.744 OA
ENDBRANCH  80  81
ENDBRANCH  48  73
BRANCH  60  85
ATOM     85  C   UNL A   1      49.485  26.564  26.545  1.00  0.00     0.058 A 
ATOM     86  C   UNL A   1      50.333  26.000  27.510  1.00  0.00     0.135 A 
ATOM     87  C   UNL A   1      49.957  26.656  25.225  1.00  0.00     0.135 A 
ATOM     88  F   UNL A   1      49.930  25.898  28.786  1.00  0.00    -0.206 F 
ATOM     89  C   UNL A   1      51.606  25.550  27.182  1.00  0.00     0.059 A 
ATOM     90  C   UNL A   1      51.220  26.194  24.871  1.00  0.00     0.059 A 
ATOM     91  F   UNL A   1      49.179  27.180  24.265  1.00  0.00    -0.206 F 
ATOM     92  C   UNL A   1      52.040  25.648  25.858  1.00  0.00     0.060 A 
BRANCH  92  93
ATOM     93  S   UNL A   1      53.678  25.018  25.436  1.00  0.00     0.124 S 
ATOM     94  O   UNL A   1      53.975  25.764  24.218  1.00  0.00    -0.237 OA
ATOM     95  O   UNL A   1      54.466  25.381  26.609  1.00  0.00    -0.237 OA
ATOM     96  O   UNL A   1      53.455  23.586  25.258  1.00  0.00    -0.744 OA
ENDBRANCH  92  93
ENDBRANCH  60  85
ENDBRANCH  34  35
ENDBRANCH  26  29
ENDBRANCH  24  25
ENDBRANCH   1  24
TORSDOF 15
ENDMDL
