MODEL 1
REMARK VINA RESULT:     -11.0      0.000      0.000
REMARK SMILES Cc1nsc(N(C)C(=O)[C@@H](C)CCC[C@H](C)[NH3+])c1C(=O)NCCCCNC(=O)c1ccc(-c2c3nc(c(-c4c(F)cc(S(=O)(=O)[O-])cc4F)c4ccc([nH]4)c(-c4c(F)cc(S(=O)(=O)[O-])cc4F)c4nc(c(-c5c(F)cc(S(=O)(=O)[O-])cc5F)c5ccc2[nH]5)C=C4)C=C3)cc1
REMARK SMILES IDX 19 1 20 2 21 3 18 5 1 6 2 7 3 8 4 9 5 10 6 11 7 12 8 13 9 14
REMARK SMILES IDX 10 15 11 16 12 17 13 18 14 19 15 20 16 21 17 22 22 26 23 27
REMARK SMILES IDX 24 28 25 29 26 30 27 31 28 33 29 34 30 35 94 36 31 37 93 38
REMARK SMILES IDX 32 39 33 40 34 41 87 42 35 43 92 44 86 45 88 46 36 47 91 48
REMARK SMILES IDX 85 49 84 50 37 52 71 53 50 54 70 55 51 56 54 57 69 58 89 59
REMARK SMILES IDX 52 60 53 61 68 63 90 64 55 65 38 66 39 67 48 68 40 69 41 70
REMARK SMILES IDX 47 71 49 72 42 73 43 74 44 75 45 76 46 77 72 78 73 79 82 80
REMARK SMILES IDX 74 81 75 82 81 83 83 84 76 85 77 86 78 87 79 88 80 89 56 90
REMARK SMILES IDX 57 91 66 92 58 93 59 94 65 95 67 96 60 97 61 98 62 99 63 100
REMARK SMILES IDX 64 101
REMARK H PARENT 21 4 17 23 17 24 17 25 26 32 88 51 54 62
REMARK Flexibility Score: inf
ROOT
ATOM      1  C   UNL A   1      36.650  22.882  23.893  1.00  0.00     0.256 C 
ATOM      2  O   UNL A   1      36.710  23.055  22.672  1.00  0.00    -0.269 OA
ATOM      3  N   UNL A   1      37.707  23.413  24.620  1.00  0.00    -0.352 N 
ATOM      4  H   UNL A   1      38.557  23.471  24.125  1.00  0.00     0.163 HD
ENDROOT
BRANCH   1   5
ATOM      5  C   UNL A   1      35.529  22.116  24.478  1.00  0.00     0.097 A 
ATOM      6  C   UNL A   1      36.498  19.629  24.916  1.00  0.00     0.069 C 
ATOM      7  C   UNL A   1      35.472  20.713  24.928  1.00  0.00     0.066 A 
ATOM      8  N   UNL A   1      34.330  20.316  25.488  1.00  0.00    -0.195 NA
ATOM      9  S   UNL A   1      33.356  21.596  25.696  1.00  0.00    -0.017 S 
ATOM     10  C   UNL A   1      34.329  22.752  24.880  1.00  0.00     0.131 A 
BRANCH  10  11
ATOM     11  N   UNL A   1      33.776  24.067  24.781  1.00  0.00    -0.305 N 
ATOM     12  C   UNL A   1      33.638  24.932  25.959  1.00  0.00     0.154 C 
BRANCH  11  13
ATOM     13  C   UNL A   1      33.269  24.470  23.543  1.00  0.00     0.230 C 
ATOM     14  O   UNL A   1      33.999  25.008  22.695  1.00  0.00    -0.274 OA
BRANCH  13  15
ATOM     15  C   UNL A   1      31.823  24.107  23.104  1.00  0.00     0.076 C 
ATOM     16  C   UNL A   1      31.783  22.681  22.538  1.00  0.00     0.018 C 
BRANCH  15  17
ATOM     17  C   UNL A   1      30.639  24.350  24.064  1.00  0.00     0.013 C 
BRANCH  17  18
ATOM     18  C   UNL A   1      29.947  25.716  23.946  1.00  0.00     0.007 C 
BRANCH  18  19
ATOM     19  C   UNL A   1      30.854  26.926  24.213  1.00  0.00     0.064 C 
BRANCH  19  20
ATOM     20  C   UNL A   1      30.504  28.170  23.369  1.00  0.00     0.177 C 
ATOM     21  C   UNL A   1      29.002  28.231  23.090  1.00  0.00     0.075 C 
BRANCH  20  22
ATOM     22  N   UNL A   1      31.227  28.209  22.105  1.00  0.00    -0.355 N 
ATOM     23  H   UNL A   1      31.187  27.292  21.661  1.00  0.00     0.344 HD
ATOM     24  H   UNL A   1      32.201  28.460  22.277  1.00  0.00     0.344 HD
ATOM     25  H   UNL A   1      30.801  28.903  21.491  1.00  0.00     0.344 HD
ENDBRANCH  20  22
ENDBRANCH  19  20
ENDBRANCH  18  19
ENDBRANCH  17  18
ENDBRANCH  15  17
ENDBRANCH  13  15
ENDBRANCH  11  13
ENDBRANCH  10  11
ENDBRANCH   1   5
BRANCH   3  26
ATOM     26  C   UNL A   1      37.768  23.894  25.978  1.00  0.00     0.116 C 
BRANCH  26  27
ATOM     27  C   UNL A   1      38.981  23.554  26.838  1.00  0.00     0.023 C 
BRANCH  27  28
ATOM     28  C   UNL A   1      39.679  22.204  26.667  1.00  0.00     0.023 C 
BRANCH  28  29
ATOM     29  C   UNL A   1      41.089  22.090  27.230  1.00  0.00     0.116 C 
BRANCH  29  30
ATOM     30  N   UNL A   1      42.154  22.001  26.223  1.00  0.00    -0.352 N 
ATOM     31  C   UNL A   1      42.717  23.050  25.497  1.00  0.00     0.251 C 
ATOM     32  H   UNL A   1      42.509  21.101  26.041  1.00  0.00     0.163 HD
ATOM     33  O   UNL A   1      43.288  22.858  24.441  1.00  0.00    -0.269 OA
BRANCH  31  34
ATOM     34  C   UNL A   1      42.619  24.408  26.069  1.00  0.00     0.039 A 
ATOM     35  C   UNL A   1      41.767  25.396  25.562  1.00  0.00     0.014 A 
ATOM     36  C   UNL A   1      43.380  24.641  27.205  1.00  0.00     0.014 A 
ATOM     37  C   UNL A   1      41.630  26.587  26.275  1.00  0.00     0.010 A 
ATOM     38  C   UNL A   1      43.073  25.697  28.010  1.00  0.00     0.010 A 
ATOM     39  C   UNL A   1      42.278  26.719  27.511  1.00  0.00    -0.014 A 
BRANCH  39  40
ATOM     40  C   UNL A   1      42.109  27.883  28.370  1.00  0.00     0.031 A 
ATOM     41  C   UNL A   1      43.140  28.941  28.205  1.00  0.00     0.074 A 
ATOM     42  C   UNL A   1      40.945  28.099  29.025  1.00  0.00     0.049 A 
ATOM     43  N   UNL A   1      44.035  29.309  29.060  1.00  0.00    -0.248 NA
ATOM     44  C   UNL A   1      43.301  29.564  26.879  1.00  0.00     0.031 C 
ATOM     45  C   UNL A   1      39.714  27.296  28.985  1.00  0.00     0.029 A 
ATOM     46  N   UNL A   1      40.560  29.177  29.752  1.00  0.00    -0.354 N 
ATOM     47  C   UNL A   1      44.701  30.383  28.476  1.00  0.00     0.074 A 
ATOM     48  C   UNL A   1      44.374  30.335  27.076  1.00  0.00     0.031 C 
ATOM     49  C   UNL A   1      38.674  28.038  29.421  1.00  0.00     0.029 A 
ATOM     50  C   UNL A   1      39.184  29.296  29.929  1.00  0.00     0.049 A 
ATOM     51  H   UNL A   1      41.202  29.825  30.124  1.00  0.00     0.167 HD
ATOM     52  C   UNL A   1      45.252  31.373  29.236  1.00  0.00     0.037 A 
ATOM     53  C   UNL A   1      38.526  30.385  30.402  1.00  0.00     0.037 A 
ATOM     54  C   UNL A   1      45.310  30.984  30.625  1.00  0.00     0.049 A 
ATOM     55  C   UNL A   1      39.535  31.193  31.149  1.00  0.00     0.074 A 
ATOM     56  C   UNL A   1      45.860  29.910  31.303  1.00  0.00     0.029 A 
ATOM     57  N   UNL A   1      44.380  31.526  31.483  1.00  0.00    -0.354 N 
ATOM     58  N   UNL A   1      40.128  30.779  32.240  1.00  0.00    -0.248 NA
ATOM     59  C   UNL A   1      40.252  32.224  30.412  1.00  0.00     0.031 C 
ATOM     60  C   UNL A   1      44.879  29.555  32.275  1.00  0.00     0.029 A 
ATOM     61  C   UNL A   1      43.843  30.487  32.202  1.00  0.00     0.049 A 
ATOM     62  H   UNL A   1      44.144  32.478  31.564  1.00  0.00     0.167 HD
ATOM     63  C   UNL A   1      41.456  31.163  32.096  1.00  0.00     0.074 A 
ATOM     64  C   UNL A   1      41.454  32.115  30.986  1.00  0.00     0.031 C 
ATOM     65  C   UNL A   1      42.474  30.454  32.674  1.00  0.00     0.037 A 
BRANCH  52  66
ATOM     66  C   UNL A   1      45.398  32.816  28.806  1.00  0.00     0.058 A 
ATOM     67  C   UNL A   1      46.656  33.444  28.930  1.00  0.00     0.135 A 
ATOM     68  C   UNL A   1      44.314  33.681  28.539  1.00  0.00     0.135 A 
ATOM     69  F   UNL A   1      47.759  32.723  29.190  1.00  0.00    -0.206 F 
ATOM     70  C   UNL A   1      46.810  34.830  28.871  1.00  0.00     0.059 A 
ATOM     71  C   UNL A   1      44.456  35.058  28.417  1.00  0.00     0.059 A 
ATOM     72  F   UNL A   1      43.049  33.251  28.481  1.00  0.00    -0.206 F 
ATOM     73  C   UNL A   1      45.699  35.630  28.628  1.00  0.00     0.060 A 
BRANCH  73  74
ATOM     74  S   UNL A   1      45.873  37.421  28.656  1.00  0.00     0.124 S 
ATOM     75  O   UNL A   1      46.897  37.627  27.638  1.00  0.00    -0.237 OA
ATOM     76  O   UNL A   1      44.527  37.861  28.307  1.00  0.00    -0.237 OA
ATOM     77  O   UNL A   1      46.281  37.697  30.030  1.00  0.00    -0.744 OA
ENDBRANCH  73  74
ENDBRANCH  52  66
BRANCH  53  78
ATOM     78  C   UNL A   1      37.222  30.930  29.921  1.00  0.00     0.058 A 
ATOM     79  C   UNL A   1      36.332  31.572  30.800  1.00  0.00     0.135 A 
ATOM     80  C   UNL A   1      36.932  31.072  28.546  1.00  0.00     0.135 A 
ATOM     81  F   UNL A   1      36.529  31.503  32.126  1.00  0.00    -0.206 F 
ATOM     82  C   UNL A   1      35.265  32.359  30.345  1.00  0.00     0.059 A 
ATOM     83  C   UNL A   1      35.867  31.837  28.069  1.00  0.00     0.059 A 
ATOM     84  F   UNL A   1      37.733  30.550  27.606  1.00  0.00    -0.206 F 
ATOM     85  C   UNL A   1      35.057  32.507  28.973  1.00  0.00     0.060 A 
BRANCH  85  86
ATOM     86  S   UNL A   1      33.820  33.685  28.374  1.00  0.00     0.124 S 
ATOM     87  O   UNL A   1      33.355  34.295  29.613  1.00  0.00    -0.237 OA
ATOM     88  O   UNL A   1      34.616  34.536  27.498  1.00  0.00    -0.237 OA
ATOM     89  O   UNL A   1      32.843  32.841  27.686  1.00  0.00    -0.744 OA
ENDBRANCH  85  86
ENDBRANCH  53  78
BRANCH  65  90
ATOM     90  C   UNL A   1      42.147  29.400  33.706  1.00  0.00     0.058 A 
ATOM     91  C   UNL A   1      41.883  28.048  33.419  1.00  0.00     0.135 A 
ATOM     92  C   UNL A   1      42.287  29.744  35.059  1.00  0.00     0.135 A 
ATOM     93  F   UNL A   1      41.847  27.603  32.157  1.00  0.00    -0.206 F 
ATOM     94  C   UNL A   1      41.718  27.096  34.428  1.00  0.00     0.059 A 
ATOM     95  C   UNL A   1      42.161  28.806  36.081  1.00  0.00     0.059 A 
ATOM     96  F   UNL A   1      42.605  31.002  35.404  1.00  0.00    -0.206 F 
ATOM     97  C   UNL A   1      41.860  27.486  35.760  1.00  0.00     0.060 A 
BRANCH  97  98
ATOM     98  S   UNL A   1      41.704  26.246  37.062  1.00  0.00     0.124 S 
ATOM     99  O   UNL A   1      40.432  26.608  37.678  1.00  0.00    -0.237 OA
ATOM    100  O   UNL A   1      41.712  24.993  36.312  1.00  0.00    -0.237 OA
ATOM    101  O   UNL A   1      42.885  26.472  37.893  1.00  0.00    -0.744 OA
ENDBRANCH  97  98
ENDBRANCH  65  90
ENDBRANCH  39  40
ENDBRANCH  31  34
ENDBRANCH  29  30
ENDBRANCH  28  29
ENDBRANCH  27  28
ENDBRANCH  26  27
ENDBRANCH   3  26
TORSDOF 22
ENDMDL
MODEL 2
REMARK VINA RESULT:     -10.8      1.263      2.083
REMARK SMILES Cc1nsc(N(C)C(=O)[C@@H](C)CCC[C@H](C)[NH3+])c1C(=O)NCCCCNC(=O)c1ccc(-c2c3nc(c(-c4c(F)cc(S(=O)(=O)[O-])cc4F)c4ccc([nH]4)c(-c4c(F)cc(S(=O)(=O)[O-])cc4F)c4nc(c(-c5c(F)cc(S(=O)(=O)[O-])cc5F)c5ccc2[nH]5)C=C4)C=C3)cc1
REMARK SMILES IDX 19 1 20 2 21 3 18 5 1 6 2 7 3 8 4 9 5 10 6 11 7 12 8 13 9 14
REMARK SMILES IDX 10 15 11 16 12 17 13 18 14 19 15 20 16 21 17 22 22 26 23 27
REMARK SMILES IDX 24 28 25 29 26 30 27 31 28 33 29 34 30 35 94 36 31 37 93 38
REMARK SMILES IDX 32 39 33 40 34 41 87 42 35 43 92 44 86 45 88 46 36 47 91 48
REMARK SMILES IDX 85 49 84 50 37 52 71 53 50 54 70 55 51 56 54 57 69 58 89 59
REMARK SMILES IDX 52 60 53 61 68 63 90 64 55 65 38 66 39 67 48 68 40 69 41 70
REMARK SMILES IDX 47 71 49 72 42 73 43 74 44 75 45 76 46 77 72 78 73 79 82 80
REMARK SMILES IDX 74 81 75 82 81 83 83 84 76 85 77 86 78 87 79 88 80 89 56 90
REMARK SMILES IDX 57 91 66 92 58 93 59 94 65 95 67 96 60 97 61 98 62 99 63 100
REMARK SMILES IDX 64 101
REMARK H PARENT 21 4 17 23 17 24 17 25 26 32 88 51 54 62
REMARK Flexibility Score: inf
ROOT
ATOM      1  C   UNL A   1      34.293  23.277  23.659  1.00  0.00     0.256 C 
ATOM      2  O   UNL A   1      34.363  23.643  22.482  1.00  0.00    -0.269 OA
ATOM      3  N   UNL A   1      35.468  22.765  24.192  1.00  0.00    -0.352 N 
ATOM      4  H   UNL A   1      36.069  22.347  23.533  1.00  0.00     0.163 HD
ENDROOT
BRANCH   1   5
ATOM      5  C   UNL A   1      33.008  23.362  24.384  1.00  0.00     0.097 A 
ATOM      6  C   UNL A   1      32.232  20.802  24.788  1.00  0.00     0.069 C 
ATOM      7  C   UNL A   1      32.126  22.288  24.880  1.00  0.00     0.066 A 
ATOM      8  N   UNL A   1      31.055  22.673  25.573  1.00  0.00    -0.195 NA
ATOM      9  S   UNL A   1      31.133  24.269  25.846  1.00  0.00    -0.017 S 
ATOM     10  C   UNL A   1      32.526  24.592  24.895  1.00  0.00     0.131 A 
BRANCH  10  11
ATOM     11  N   UNL A   1      32.919  25.965  24.818  1.00  0.00    -0.305 N 
ATOM     12  C   UNL A   1      33.705  26.599  25.882  1.00  0.00     0.154 C 
BRANCH  11  13
ATOM     13  C   UNL A   1      32.440  26.720  23.745  1.00  0.00     0.230 C 
ATOM     14  O   UNL A   1      32.911  26.585  22.604  1.00  0.00    -0.274 OA
BRANCH  13  15
ATOM     15  C   UNL A   1      31.187  27.628  23.890  1.00  0.00     0.076 C 
ATOM     16  C   UNL A   1      31.506  28.831  24.789  1.00  0.00     0.018 C 
BRANCH  15  17
ATOM     17  C   UNL A   1      30.402  28.072  22.638  1.00  0.00     0.013 C 
BRANCH  17  18
ATOM     18  C   UNL A   1      28.949  28.509  22.876  1.00  0.00     0.007 C 
BRANCH  18  19
ATOM     19  C   UNL A   1      28.517  29.769  22.111  1.00  0.00     0.064 C 
BRANCH  19  20
ATOM     20  C   UNL A   1      28.810  31.087  22.857  1.00  0.00     0.177 C 
ATOM     21  C   UNL A   1      27.589  31.541  23.656  1.00  0.00     0.075 C 
BRANCH  20  22
ATOM     22  N   UNL A   1      29.220  32.159  21.959  1.00  0.00    -0.355 N 
ATOM     23  H   UNL A   1      29.989  31.835  21.372  1.00  0.00     0.344 HD
ATOM     24  H   UNL A   1      29.526  32.963  22.506  1.00  0.00     0.344 HD
ATOM     25  H   UNL A   1      28.433  32.428  21.370  1.00  0.00     0.344 HD
ENDBRANCH  20  22
ENDBRANCH  19  20
ENDBRANCH  18  19
ENDBRANCH  17  18
ENDBRANCH  15  17
ENDBRANCH  13  15
ENDBRANCH  11  13
ENDBRANCH  10  11
ENDBRANCH   1   5
BRANCH   3  26
ATOM     26  C   UNL A   1      35.954  22.743  25.549  1.00  0.00     0.116 C 
BRANCH  26  27
ATOM     27  C   UNL A   1      37.341  23.301  25.855  1.00  0.00     0.023 C 
BRANCH  27  28
ATOM     28  C   UNL A   1      38.582  22.457  25.559  1.00  0.00     0.023 C 
BRANCH  28  29
ATOM     29  C   UNL A   1      39.764  22.629  26.503  1.00  0.00     0.116 C 
BRANCH  29  30
ATOM     30  N   UNL A   1      41.068  22.263  25.938  1.00  0.00    -0.352 N 
ATOM     31  C   UNL A   1      42.098  23.126  25.565  1.00  0.00     0.251 C 
ATOM     32  H   UNL A   1      41.233  21.301  25.806  1.00  0.00     0.163 HD
ATOM     33  O   UNL A   1      42.953  22.792  24.768  1.00  0.00    -0.269 OA
BRANCH  31  34
ATOM     34  C   UNL A   1      42.131  24.462  26.195  1.00  0.00     0.039 A 
ATOM     35  C   UNL A   1      41.441  25.569  25.688  1.00  0.00     0.014 A 
ATOM     36  C   UNL A   1      42.841  24.551  27.384  1.00  0.00     0.014 A 
ATOM     37  C   UNL A   1      41.406  26.738  26.448  1.00  0.00     0.010 A 
ATOM     38  C   UNL A   1      42.615  25.604  28.220  1.00  0.00     0.010 A 
ATOM     39  C   UNL A   1      41.986  26.737  27.725  1.00  0.00    -0.014 A 
BRANCH  39  40
ATOM     40  C   UNL A   1      41.906  27.878  28.627  1.00  0.00     0.031 A 
ATOM     41  C   UNL A   1      42.994  28.879  28.472  1.00  0.00     0.074 A 
ATOM     42  C   UNL A   1      40.774  28.138  29.319  1.00  0.00     0.049 A 
ATOM     43  N   UNL A   1      43.930  29.163  29.315  1.00  0.00    -0.248 NA
ATOM     44  C   UNL A   1      43.160  29.539  27.165  1.00  0.00     0.031 C 
ATOM     45  C   UNL A   1      39.496  27.410  29.283  1.00  0.00     0.029 A 
ATOM     46  N   UNL A   1      40.471  29.210  30.092  1.00  0.00    -0.354 N 
ATOM     47  C   UNL A   1      44.644  30.216  28.752  1.00  0.00     0.074 A 
ATOM     48  C   UNL A   1      44.282  30.238  27.359  1.00  0.00     0.031 C 
ATOM     49  C   UNL A   1      38.513  28.196  29.771  1.00  0.00     0.029 A 
ATOM     50  C   UNL A   1      39.109  29.403  30.308  1.00  0.00     0.049 A 
ATOM     51  H   UNL A   1      41.158  29.805  30.470  1.00  0.00     0.167 HD
ATOM     52  C   UNL A   1      45.270  31.145  29.530  1.00  0.00     0.037 A 
ATOM     53  C   UNL A   1      38.528  30.511  30.836  1.00  0.00     0.037 A 
ATOM     54  C   UNL A   1      45.339  30.703  30.904  1.00  0.00     0.049 A 
ATOM     55  C   UNL A   1      39.601  31.231  31.584  1.00  0.00     0.074 A 
ATOM     56  C   UNL A   1      45.840  29.576  31.530  1.00  0.00     0.029 A 
ATOM     57  N   UNL A   1      44.463  31.268  31.803  1.00  0.00    -0.354 N 
ATOM     58  N   UNL A   1      40.193  30.744  32.644  1.00  0.00    -0.248 NA
ATOM     59  C   UNL A   1      40.360  32.245  30.864  1.00  0.00     0.031 C 
ATOM     60  C   UNL A   1      44.863  29.244  32.514  1.00  0.00     0.029 A 
ATOM     61  C   UNL A   1      43.883  30.237  32.500  1.00  0.00     0.049 A 
ATOM     62  H   UNL A   1      44.286  32.229  31.924  1.00  0.00     0.167 HD
ATOM     63  C   UNL A   1      41.538  31.055  32.479  1.00  0.00     0.074 A 
ATOM     64  C   UNL A   1      41.567  32.044  31.403  1.00  0.00     0.031 C 
ATOM     65  C   UNL A   1      42.526  30.268  33.005  1.00  0.00     0.037 A 
BRANCH  52  66
ATOM     66  C   UNL A   1      45.492  32.591  29.147  1.00  0.00     0.058 A 
ATOM     67  C   UNL A   1      44.373  33.408  28.876  1.00  0.00     0.135 A 
ATOM     68  C   UNL A   1      46.742  33.133  28.773  1.00  0.00     0.135 A 
ATOM     69  F   UNL A   1      43.133  32.995  29.183  1.00  0.00    -0.206 F 
ATOM     70  C   UNL A   1      44.483  34.632  28.214  1.00  0.00     0.059 A 
ATOM     71  C   UNL A   1      46.878  34.376  28.166  1.00  0.00     0.059 A 
ATOM     72  F   UNL A   1      47.884  32.447  28.884  1.00  0.00    -0.206 F 
ATOM     73  C   UNL A   1      45.740  35.100  27.849  1.00  0.00     0.060 A 
BRANCH  73  74
ATOM     74  S   UNL A   1      45.878  36.624  26.903  1.00  0.00     0.124 S 
ATOM     75  O   UNL A   1      46.851  36.245  25.884  1.00  0.00    -0.237 OA
ATOM     76  O   UNL A   1      44.509  36.817  26.439  1.00  0.00    -0.237 OA
ATOM     77  O   UNL A   1      46.342  37.593  27.892  1.00  0.00    -0.744 OA
ENDBRANCH  73  74
ENDBRANCH  52  66
BRANCH  53  78
ATOM     78  C   UNL A   1      37.247  31.148  30.407  1.00  0.00     0.058 A 
ATOM     79  C   UNL A   1      36.360  31.703  31.347  1.00  0.00     0.135 A 
ATOM     80  C   UNL A   1      36.985  31.466  29.056  1.00  0.00     0.135 A 
ATOM     81  F   UNL A   1      36.533  31.466  32.656  1.00  0.00    -0.206 F 
ATOM     82  C   UNL A   1      35.323  32.570  30.977  1.00  0.00     0.059 A 
ATOM     83  C   UNL A   1      35.950  32.314  28.663  1.00  0.00     0.059 A 
ATOM     84  F   UNL A   1      37.787  31.040  28.070  1.00  0.00    -0.206 F 
ATOM     85  C   UNL A   1      35.142  32.891  29.631  1.00  0.00     0.060 A 
BRANCH  85  86
ATOM     86  S   UNL A   1      33.948  34.169  29.165  1.00  0.00     0.124 S 
ATOM     87  O   UNL A   1      34.814  35.222  28.649  1.00  0.00    -0.237 OA
ATOM     88  O   UNL A   1      33.130  33.471  28.181  1.00  0.00    -0.237 OA
ATOM     89  O   UNL A   1      33.266  34.479  30.421  1.00  0.00    -0.744 OA
ENDBRANCH  85  86
ENDBRANCH  53  78
BRANCH  65  90
ATOM     90  C   UNL A   1      42.162  29.198  34.009  1.00  0.00     0.058 A 
ATOM     91  C   UNL A   1      41.703  27.909  33.680  1.00  0.00     0.135 A 
ATOM     92  C   UNL A   1      42.465  29.436  35.358  1.00  0.00     0.135 A 
ATOM     93  F   UNL A   1      41.497  27.552  32.406  1.00  0.00    -0.206 F 
ATOM     94  C   UNL A   1      41.509  26.923  34.650  1.00  0.00     0.059 A 
ATOM     95  C   UNL A   1      42.313  28.458  36.338  1.00  0.00     0.059 A 
ATOM     96  F   UNL A   1      42.971  30.622  35.735  1.00  0.00    -0.206 F 
ATOM     97  C   UNL A   1      41.819  27.207  35.980  1.00  0.00     0.060 A 
BRANCH  97  98
ATOM     98  S   UNL A   1      41.624  25.916  37.226  1.00  0.00     0.124 S 
ATOM     99  O   UNL A   1      41.869  24.704  36.452  1.00  0.00    -0.237 OA
ATOM    100  O   UNL A   1      42.650  26.261  38.206  1.00  0.00    -0.237 OA
ATOM    101  O   UNL A   1      40.248  26.092  37.689  1.00  0.00    -0.744 OA
ENDBRANCH  97  98
ENDBRANCH  65  90
ENDBRANCH  39  40
ENDBRANCH  31  34
ENDBRANCH  29  30
ENDBRANCH  28  29
ENDBRANCH  27  28
ENDBRANCH  26  27
ENDBRANCH   3  26
TORSDOF 22
ENDMDL
MODEL 3
REMARK VINA RESULT:     -10.4      2.824      9.205
REMARK SMILES Cc1nsc(N(C)C(=O)[C@@H](C)CCC[C@H](C)[NH3+])c1C(=O)NCCCCNC(=O)c1ccc(-c2c3nc(c(-c4c(F)cc(S(=O)(=O)[O-])cc4F)c4ccc([nH]4)c(-c4c(F)cc(S(=O)(=O)[O-])cc4F)c4nc(c(-c5c(F)cc(S(=O)(=O)[O-])cc5F)c5ccc2[nH]5)C=C4)C=C3)cc1
REMARK SMILES IDX 19 1 20 2 21 3 18 5 1 6 2 7 3 8 4 9 5 10 6 11 7 12 8 13 9 14
REMARK SMILES IDX 10 15 11 16 12 17 13 18 14 19 15 20 16 21 17 22 22 26 23 27
REMARK SMILES IDX 24 28 25 29 26 30 27 31 28 33 29 34 30 35 94 36 31 37 93 38
REMARK SMILES IDX 32 39 33 40 34 41 87 42 35 43 92 44 86 45 88 46 36 47 91 48
REMARK SMILES IDX 85 49 84 50 37 52 71 53 50 54 70 55 51 56 54 57 69 58 89 59
REMARK SMILES IDX 52 60 53 61 68 63 90 64 55 65 38 66 39 67 48 68 40 69 41 70
REMARK SMILES IDX 47 71 49 72 42 73 43 74 44 75 45 76 46 77 72 78 73 79 82 80
REMARK SMILES IDX 74 81 75 82 81 83 83 84 76 85 77 86 78 87 79 88 80 89 56 90
REMARK SMILES IDX 57 91 66 92 58 93 59 94 65 95 67 96 60 97 61 98 62 99 63 100
REMARK SMILES IDX 64 101
REMARK H PARENT 21 4 17 23 17 24 17 25 26 32 88 51 54 62
REMARK Flexibility Score: inf
ROOT
ATOM      1  C   UNL A   1      33.218  26.881  22.510  1.00  0.00     0.256 C 
ATOM      2  O   UNL A   1      33.661  26.625  21.386  1.00  0.00    -0.269 OA
ATOM      3  N   UNL A   1      33.901  27.870  23.205  1.00  0.00    -0.352 N 
ATOM      4  H   UNL A   1      34.854  27.954  22.968  1.00  0.00     0.163 HD
ENDROOT
BRANCH   1   5
ATOM      5  C   UNL A   1      32.068  26.122  23.042  1.00  0.00     0.097 A 
ATOM      6  C   UNL A   1      29.969  27.826  22.952  1.00  0.00     0.069 C 
ATOM      7  C   UNL A   1      30.662  26.532  23.222  1.00  0.00     0.066 A 
ATOM      8  N   UNL A   1      29.823  25.596  23.662  1.00  0.00    -0.195 NA
ATOM      9  S   UNL A   1      30.580  24.163  23.696  1.00  0.00    -0.017 S 
ATOM     10  C   UNL A   1      32.150  24.730  23.291  1.00  0.00     0.131 A 
BRANCH  10  11
ATOM     11  N   UNL A   1      33.180  23.738  23.269  1.00  0.00    -0.305 N 
ATOM     12  C   UNL A   1      33.475  22.964  22.058  1.00  0.00     0.154 C 
BRANCH  11  13
ATOM     13  C   UNL A   1      33.832  23.449  24.471  1.00  0.00     0.230 C 
ATOM     14  O   UNL A   1      34.133  24.351  25.270  1.00  0.00    -0.274 OA
BRANCH  13  15
ATOM     15  C   UNL A   1      34.050  21.984  24.941  1.00  0.00     0.076 C 
ATOM     16  C   UNL A   1      35.189  21.921  25.968  1.00  0.00     0.018 C 
BRANCH  15  17
ATOM     17  C   UNL A   1      32.849  21.132  25.401  1.00  0.00     0.013 C 
BRANCH  17  18
ATOM     18  C   UNL A   1      32.414  20.011  24.445  1.00  0.00     0.007 C 
BRANCH  18  19
ATOM     19  C   UNL A   1      33.414  18.853  24.306  1.00  0.00     0.064 C 
BRANCH  19  20
ATOM     20  C   UNL A   1      32.870  17.646  23.514  1.00  0.00     0.177 C 
ATOM     21  C   UNL A   1      34.008  16.720  23.088  1.00  0.00     0.075 C 
BRANCH  20  22
ATOM     22  N   UNL A   1      32.112  18.047  22.335  1.00  0.00    -0.355 N 
ATOM     23  H   UNL A   1      31.590  18.899  22.540  1.00  0.00     0.344 HD
ATOM     24  H   UNL A   1      31.463  17.304  22.079  1.00  0.00     0.344 HD
ATOM     25  H   UNL A   1      32.754  18.220  21.561  1.00  0.00     0.344 HD
ENDBRANCH  20  22
ENDBRANCH  19  20
ENDBRANCH  18  19
ENDBRANCH  17  18
ENDBRANCH  15  17
ENDBRANCH  13  15
ENDBRANCH  11  13
ENDBRANCH  10  11
ENDBRANCH   1   5
BRANCH   3  26
ATOM     26  C   UNL A   1      33.448  28.795  24.214  1.00  0.00     0.116 C 
BRANCH  26  27
ATOM     27  C   UNL A   1      33.015  28.261  25.576  1.00  0.00     0.023 C 
BRANCH  27  28
ATOM     28  C   UNL A   1      33.054  29.178  26.799  1.00  0.00     0.023 C 
BRANCH  28  29
ATOM     29  C   UNL A   1      34.408  29.776  27.160  1.00  0.00     0.116 C 
BRANCH  29  30
ATOM     30  N   UNL A   1      34.363  31.152  27.668  1.00  0.00    -0.352 N 
ATOM     31  C   UNL A   1      35.090  31.681  28.734  1.00  0.00     0.251 C 
ATOM     32  H   UNL A   1      33.750  31.769  27.206  1.00  0.00     0.163 HD
ATOM     33  O   UNL A   1      34.720  32.678  29.325  1.00  0.00    -0.269 OA
BRANCH  31  34
ATOM     34  C   UNL A   1      36.346  31.001  29.109  1.00  0.00     0.039 A 
ATOM     35  C   UNL A   1      36.521  29.615  29.038  1.00  0.00     0.014 A 
ATOM     36  C   UNL A   1      37.396  31.831  29.475  1.00  0.00     0.014 A 
ATOM     37  C   UNL A   1      37.796  29.091  29.256  1.00  0.00     0.010 A 
ATOM     38  C   UNL A   1      38.669  31.345  29.461  1.00  0.00     0.010 A 
ATOM     39  C   UNL A   1      38.869  29.972  29.451  1.00  0.00    -0.014 A 
BRANCH  39  40
ATOM     40  C   UNL A   1      40.247  29.519  29.583  1.00  0.00     0.031 A 
ATOM     41  C   UNL A   1      40.707  29.305  30.980  1.00  0.00     0.074 A 
ATOM     42  C   UNL A   1      40.927  29.046  28.514  1.00  0.00     0.049 A 
ATOM     43  N   UNL A   1      41.600  29.978  31.627  1.00  0.00    -0.248 NA
ATOM     44  C   UNL A   1      39.987  28.328  31.815  1.00  0.00     0.031 C 
ATOM     45  C   UNL A   1      40.451  28.877  27.132  1.00  0.00     0.029 A 
ATOM     46  N   UNL A   1      42.152  28.466  28.468  1.00  0.00    -0.354 N 
ATOM     47  C   UNL A   1      41.735  29.344  32.859  1.00  0.00     0.074 A 
ATOM     48  C   UNL A   1      40.574  28.507  33.002  1.00  0.00     0.031 C 
ATOM     49  C   UNL A   1      41.256  28.013  26.478  1.00  0.00     0.029 A 
ATOM     50  C   UNL A   1      42.390  27.705  27.326  1.00  0.00     0.049 A 
ATOM     51  H   UNL A   1      42.819  28.572  29.184  1.00  0.00     0.167 HD
ATOM     52  C   UNL A   1      42.918  29.361  33.538  1.00  0.00     0.037 A 
ATOM     53  C   UNL A   1      43.420  26.840  27.138  1.00  0.00     0.037 A 
ATOM     54  C   UNL A   1      43.823  30.335  32.974  1.00  0.00     0.049 A 
ATOM     55  C   UNL A   1      44.478  27.228  28.117  1.00  0.00     0.074 A 
ATOM     56  C   UNL A   1      43.742  31.693  32.721  1.00  0.00     0.029 A 
ATOM     57  N   UNL A   1      44.853  29.873  32.186  1.00  0.00    -0.354 N 
ATOM     58  N   UNL A   1      45.115  28.371  28.076  1.00  0.00    -0.248 NA
ATOM     59  C   UNL A   1      44.463  26.577  29.419  1.00  0.00     0.031 C 
ATOM     60  C   UNL A   1      44.344  31.859  31.440  1.00  0.00     0.029 A 
ATOM     61  C   UNL A   1      44.846  30.621  31.035  1.00  0.00     0.049 A 
ATOM     62  H   UNL A   1      45.476  29.144  32.406  1.00  0.00     0.167 HD
ATOM     63  C   UNL A   1      45.196  28.785  29.401  1.00  0.00     0.074 A 
ATOM     64  C   UNL A   1      44.845  27.602  30.187  1.00  0.00     0.031 C 
ATOM     65  C   UNL A   1      45.236  30.111  29.738  1.00  0.00     0.037 A 
BRANCH  52  66
ATOM     66  C   UNL A   1      43.404  28.266  34.462  1.00  0.00     0.058 A 
ATOM     67  C   UNL A   1      43.862  28.610  35.752  1.00  0.00     0.135 A 
ATOM     68  C   UNL A   1      43.693  26.946  34.050  1.00  0.00     0.135 A 
ATOM     69  F   UNL A   1      43.649  29.840  36.249  1.00  0.00    -0.206 F 
ATOM     70  C   UNL A   1      44.615  27.737  36.538  1.00  0.00     0.059 A 
ATOM     71  C   UNL A   1      44.391  26.041  34.841  1.00  0.00     0.059 A 
ATOM     72  F   UNL A   1      43.404  26.497  32.824  1.00  0.00    -0.206 F 
ATOM     73  C   UNL A   1      44.887  26.458  36.065  1.00  0.00     0.060 A 
BRANCH  73  74
ATOM     74  S   UNL A   1      45.946  25.364  37.025  1.00  0.00     0.124 S 
ATOM     75  O   UNL A   1      45.003  24.326  37.425  1.00  0.00    -0.237 OA
ATOM     76  O   UNL A   1      46.949  24.973  36.040  1.00  0.00    -0.237 OA
ATOM     77  O   UNL A   1      46.433  26.226  38.098  1.00  0.00    -0.744 OA
ENDBRANCH  73  74
ENDBRANCH  52  66
BRANCH  53  78
ATOM     78  C   UNL A   1      43.368  25.512  26.458  1.00  0.00     0.058 A 
ATOM     79  C   UNL A   1      44.120  25.258  25.297  1.00  0.00     0.135 A 
ATOM     80  C   UNL A   1      42.793  24.378  27.074  1.00  0.00     0.135 A 
ATOM     81  F   UNL A   1      44.715  26.270  24.647  1.00  0.00    -0.206 F 
ATOM     82  C   UNL A   1      44.343  23.960  24.816  1.00  0.00     0.059 A 
ATOM     83  C   UNL A   1      42.987  23.078  26.605  1.00  0.00     0.059 A 
ATOM     84  F   UNL A   1      42.097  24.481  28.215  1.00  0.00    -0.206 F 
ATOM     85  C   UNL A   1      43.792  22.872  25.495  1.00  0.00     0.060 A 
BRANCH  85  86
ATOM     86  S   UNL A   1      44.246  21.188  25.011  1.00  0.00     0.124 S 
ATOM     87  O   UNL A   1      45.447  20.956  25.805  1.00  0.00    -0.237 OA
ATOM     88  O   UNL A   1      43.062  20.434  25.402  1.00  0.00    -0.237 OA
ATOM     89  O   UNL A   1      44.461  21.290  23.567  1.00  0.00    -0.744 OA
ENDBRANCH  85  86
ENDBRANCH  53  78
BRANCH  65  90
ATOM     90  C   UNL A   1      45.470  31.140  28.656  1.00  0.00     0.058 A 
ATOM     91  C   UNL A   1      44.459  31.736  27.880  1.00  0.00     0.135 A 
ATOM     92  C   UNL A   1      46.762  31.673  28.530  1.00  0.00     0.135 A 
ATOM     93  F   UNL A   1      43.178  31.374  28.017  1.00  0.00    -0.206 F 
ATOM     94  C   UNL A   1      44.728  32.777  26.988  1.00  0.00     0.059 A 
ATOM     95  C   UNL A   1      47.048  32.733  27.673  1.00  0.00     0.059 A 
ATOM     96  F   UNL A   1      47.764  31.198  29.288  1.00  0.00    -0.206 F 
ATOM     97  C   UNL A   1      46.029  33.271  26.892  1.00  0.00     0.060 A 
BRANCH  97  98
ATOM     98  S   UNL A   1      46.367  34.654  25.782  1.00  0.00     0.124 S 
ATOM     99  O   UNL A   1      45.407  34.427  24.709  1.00  0.00    -0.237 OA
ATOM    100  O   UNL A   1      46.107  35.813  26.631  1.00  0.00    -0.237 OA
ATOM    101  O   UNL A   1      47.769  34.463  25.416  1.00  0.00    -0.744 OA
ENDBRANCH  97  98
ENDBRANCH  65  90
ENDBRANCH  39  40
ENDBRANCH  31  34
ENDBRANCH  29  30
ENDBRANCH  28  29
ENDBRANCH  27  28
ENDBRANCH  26  27
ENDBRANCH   3  26
TORSDOF 22
ENDMDL
