MODEL 1
REMARK VINA RESULT:     -13.2      0.000      0.000
REMARK SMILES O=C(NCCCCNC(=O)[C@H]1[C@H]2CC[C@H](C2)[C@@H]1C(=O)N1CC[NH+](C2CCCCC2)CC1)c1ccc(-c2c3nc(c(-c4c(F)cc(S(=O)(=O)[O-])cc4F)c4ccc([nH]4)c(-c4c(F)cc(S(=O)(=O)[O-])cc4F)c4nc(c(-c5c(F)cc(S(=O)(=O)[O-])cc5F)c5ccc2[nH]5)C=C4)C=C3)cc1
REMARK SMILES IDX 5 1 4 2 3 3 1 4 2 5 32 7 33 8 97 9 34 10 96 11 35 12 36 13
REMARK SMILES IDX 37 14 90 15 38 16 95 17 89 18 91 19 39 20 94 21 88 22 87 23
REMARK SMILES IDX 40 25 74 26 53 27 73 28 54 29 57 30 72 31 92 32 55 33 56 34
REMARK SMILES IDX 71 36 93 37 58 38 41 39 42 40 51 41 43 42 44 43 50 44 52 45
REMARK SMILES IDX 45 46 46 47 47 48 48 49 49 50 75 51 76 52 85 53 77 54 78 55
REMARK SMILES IDX 84 56 86 57 79 58 80 59 81 60 82 61 83 62 59 63 60 64 69 65
REMARK SMILES IDX 61 66 62 67 68 68 70 69 63 70 64 71 65 72 66 73 67 74 6 75
REMARK SMILES IDX 7 76 8 77 9 78 10 80 11 81 12 82 17 83 13 84 16 85 15 86
REMARK SMILES IDX 14 87 18 88 19 89 20 90 21 91 31 92 22 93 30 94 23 95 24 97
REMARK SMILES IDX 25 98 29 99 26 100 28 101 27 102
REMARK H PARENT 3 6 91 24 57 35 8 79 23 96
REMARK Flexibility Score: inf
ROOT
ATOM      1  C   UNL A   1      34.899  30.793  27.708  1.00  0.00     0.023 C 
ENDROOT
BRANCH   1   2
ATOM      2  C   UNL A   1      35.965  31.305  28.656  1.00  0.00     0.116 C 
BRANCH   2   3
ATOM      3  N   UNL A   1      35.719  30.939  30.041  1.00  0.00    -0.352 N 
ATOM      4  O   UNL A   1      36.194  29.918  32.001  1.00  0.00    -0.269 OA
ATOM      5  C   UNL A   1      36.569  30.277  30.894  1.00  0.00     0.251 C 
ATOM      6  H   UNL A   1      34.842  31.193  30.409  1.00  0.00     0.163 HD
BRANCH   5   7
ATOM      7  C   UNL A   1      37.938  29.982  30.425  1.00  0.00     0.039 A 
ATOM      8  C   UNL A   1      38.982  29.856  31.346  1.00  0.00     0.014 A 
ATOM      9  C   UNL A   1      38.177  29.870  29.054  1.00  0.00     0.014 A 
ATOM     10  C   UNL A   1      40.286  29.717  30.891  1.00  0.00     0.010 A 
ATOM     11  C   UNL A   1      39.479  29.654  28.602  1.00  0.00     0.010 A 
ATOM     12  C   UNL A   1      40.540  29.584  29.517  1.00  0.00    -0.014 A 
BRANCH  12  13
ATOM     13  C   UNL A   1      41.906  29.230  29.067  1.00  0.00     0.031 A 
ATOM     14  C   UNL A   1      42.988  30.263  28.964  1.00  0.00     0.074 A 
ATOM     15  C   UNL A   1      42.136  27.946  28.728  1.00  0.00     0.049 A 
ATOM     16  N   UNL A   1      44.214  30.120  28.533  1.00  0.00    -0.248 NA
ATOM     17  C   UNL A   1      42.657  31.632  29.387  1.00  0.00     0.031 C 
ATOM     18  C   UNL A   1      41.136  26.873  28.771  1.00  0.00     0.029 A 
ATOM     19  N   UNL A   1      43.268  27.323  28.274  1.00  0.00    -0.354 N 
ATOM     20  C   UNL A   1      44.794  31.379  28.605  1.00  0.00     0.074 A 
ATOM     21  C   UNL A   1      43.787  32.280  29.120  1.00  0.00     0.031 C 
ATOM     22  C   UNL A   1      41.701  25.726  28.372  1.00  0.00     0.029 A 
ATOM     23  C   UNL A   1      43.080  25.993  27.986  1.00  0.00     0.049 A 
ATOM     24  H   UNL A   1      44.131  27.784  28.164  1.00  0.00     0.167 HD
ATOM     25  C   UNL A   1      46.057  31.738  28.269  1.00  0.00     0.037 A 
ATOM     26  C   UNL A   1      43.912  25.094  27.428  1.00  0.00     0.037 A 
ATOM     27  C   UNL A   1      47.054  30.815  27.788  1.00  0.00     0.049 A 
ATOM     28  C   UNL A   1      45.294  25.531  27.048  1.00  0.00     0.074 A 
ATOM     29  C   UNL A   1      48.389  31.059  27.516  1.00  0.00     0.029 A 
ATOM     30  N   UNL A   1      46.823  29.479  27.492  1.00  0.00    -0.354 N 
ATOM     31  N   UNL A   1      45.852  26.708  27.195  1.00  0.00    -0.248 NA
ATOM     32  C   UNL A   1      46.158  24.526  26.414  1.00  0.00     0.031 C 
ATOM     33  C   UNL A   1      48.954  29.884  27.008  1.00  0.00     0.029 A 
ATOM     34  C   UNL A   1      47.980  28.898  27.000  1.00  0.00     0.049 A 
ATOM     35  H   UNL A   1      45.965  29.013  27.615  1.00  0.00     0.167 HD
ATOM     36  C   UNL A   1      47.130  26.589  26.669  1.00  0.00     0.074 A 
ATOM     37  C   UNL A   1      47.274  25.217  26.227  1.00  0.00     0.031 C 
ATOM     38  C   UNL A   1      48.095  27.533  26.553  1.00  0.00     0.037 A 
BRANCH  25  39
ATOM     39  C   UNL A   1      46.447  33.183  28.390  1.00  0.00     0.058 A 
ATOM     40  C   UNL A   1      47.027  33.697  29.558  1.00  0.00     0.135 A 
ATOM     41  C   UNL A   1      46.340  34.037  27.280  1.00  0.00     0.135 A 
ATOM     42  F   UNL A   1      47.142  32.927  30.652  1.00  0.00    -0.206 F 
ATOM     43  C   UNL A   1      47.490  35.008  29.624  1.00  0.00     0.059 A 
ATOM     44  C   UNL A   1      46.812  35.346  27.316  1.00  0.00     0.059 A 
ATOM     45  F   UNL A   1      45.791  33.594  26.138  1.00  0.00    -0.206 F 
ATOM     46  C   UNL A   1      47.385  35.824  28.494  1.00  0.00     0.060 A 
BRANCH  46  47
ATOM     47  S   UNL A   1      48.038  37.505  28.577  1.00  0.00     0.124 S 
ATOM     48  O   UNL A   1      48.807  37.458  29.816  1.00  0.00    -0.237 OA
ATOM     49  O   UNL A   1      48.821  37.598  27.350  1.00  0.00    -0.237 OA
ATOM     50  O   UNL A   1      46.838  38.336  28.616  1.00  0.00    -0.744 OA
ENDBRANCH  46  47
ENDBRANCH  25  39
BRANCH  26  51
ATOM     51  C   UNL A   1      43.431  23.718  27.151  1.00  0.00     0.058 A 
ATOM     52  C   UNL A   1      43.355  22.756  28.166  1.00  0.00     0.135 A 
ATOM     53  C   UNL A   1      43.019  23.345  25.861  1.00  0.00     0.135 A 
ATOM     54  F   UNL A   1      43.737  23.065  29.414  1.00  0.00    -0.206 F 
ATOM     55  C   UNL A   1      42.905  21.464  27.910  1.00  0.00     0.059 A 
ATOM     56  C   UNL A   1      42.542  22.070  25.585  1.00  0.00     0.059 A 
ATOM     57  F   UNL A   1      43.053  24.238  24.859  1.00  0.00    -0.206 F 
ATOM     58  C   UNL A   1      42.502  21.131  26.615  1.00  0.00     0.060 A 
BRANCH  58  59
ATOM     59  S   UNL A   1      41.890  19.463  26.292  1.00  0.00     0.124 S 
ATOM     60  O   UNL A   1      42.319  18.758  27.494  1.00  0.00    -0.237 OA
ATOM     61  O   UNL A   1      40.452  19.681  26.160  1.00  0.00    -0.237 OA
ATOM     62  O   UNL A   1      42.574  19.090  25.058  1.00  0.00    -0.744 OA
ENDBRANCH  58  59
ENDBRANCH  26  51
BRANCH  38  63
ATOM     63  C   UNL A   1      49.385  27.112  25.915  1.00  0.00     0.058 A 
ATOM     64  C   UNL A   1      49.605  27.289  24.541  1.00  0.00     0.135 A 
ATOM     65  C   UNL A   1      50.425  26.573  26.688  1.00  0.00     0.135 A 
ATOM     66  F   UNL A   1      48.633  27.787  23.759  1.00  0.00    -0.206 F 
ATOM     67  C   UNL A   1      50.813  26.935  23.950  1.00  0.00     0.059 A 
ATOM     68  C   UNL A   1      51.649  26.235  26.121  1.00  0.00     0.059 A 
ATOM     69  F   UNL A   1      50.263  26.390  28.007  1.00  0.00    -0.206 F 
ATOM     70  C   UNL A   1      51.830  26.412  24.750  1.00  0.00     0.060 A 
BRANCH  70  71
ATOM     71  S   UNL A   1      53.409  26.000  23.980  1.00  0.00     0.124 S 
ATOM     72  O   UNL A   1      53.713  24.715  24.603  1.00  0.00    -0.237 OA
ATOM     73  O   UNL A   1      53.065  25.952  22.563  1.00  0.00    -0.237 OA
ATOM     74  O   UNL A   1      54.276  27.108  24.371  1.00  0.00    -0.744 OA
ENDBRANCH  70  71
ENDBRANCH  38  63
ENDBRANCH  12  13
ENDBRANCH   5   7
ENDBRANCH   2   3
ENDBRANCH   1   2
BRANCH   1  75
ATOM     75  C   UNL A   1      34.903  29.281  27.501  1.00  0.00     0.023 C 
BRANCH  75  76
ATOM     76  C   UNL A   1      33.790  28.757  26.591  1.00  0.00     0.116 C 
BRANCH  76  77
ATOM     77  N   UNL A   1      33.945  29.234  25.237  1.00  0.00    -0.356 N 
ATOM     78  C   UNL A   1      33.531  28.737  24.049  1.00  0.00     0.224 C 
ATOM     79  H   UNL A   1      34.446  30.079  25.165  1.00  0.00     0.163 HD
ATOM     80  O   UNL A   1      33.868  29.391  23.053  1.00  0.00    -0.275 OA
BRANCH  78  81
ATOM     81  C   UNL A   1      32.598  27.535  23.889  1.00  0.00     0.094 C 
ATOM     82  C   UNL A   1      31.223  27.888  24.547  1.00  0.00     0.002 C 
ATOM     83  C   UNL A   1      32.146  27.002  22.510  1.00  0.00     0.094 C 
ATOM     84  C   UNL A   1      30.531  29.047  23.794  1.00  0.00     0.005 C 
ATOM     85  C   UNL A   1      30.359  26.714  24.118  1.00  0.00     0.009 C 
ATOM     86  C   UNL A   1      30.607  26.950  22.628  1.00  0.00     0.002 C 
ATOM     87  C   UNL A   1      30.086  28.393  22.478  1.00  0.00     0.005 C 
BRANCH  83  88
ATOM     88  C   UNL A   1      32.824  25.695  22.079  1.00  0.00     0.227 C 
ATOM     89  O   UNL A   1      33.229  25.551  20.923  1.00  0.00    -0.275 OA
ATOM     90  N   UNL A   1      33.078  24.748  23.047  1.00  0.00    -0.331 N 
ATOM     91  C   UNL A   1      34.409  24.140  23.064  1.00  0.00     0.181 C 
ATOM     92  C   UNL A   1      32.018  23.829  23.440  1.00  0.00     0.181 C 
ATOM     93  C   UNL A   1      34.696  23.392  24.389  1.00  0.00     0.284 C 
ATOM     94  C   UNL A   1      32.324  23.227  24.814  1.00  0.00     0.284 C 
ATOM     95  N   UNL A   1      33.611  22.516  24.887  1.00  0.00    -0.330 N 
ATOM     96  H   UNL A   1      33.765  22.338  25.879  1.00  0.00     0.348 HD
BRANCH  95  97
ATOM     97  C   UNL A   1      33.659  21.114  24.421  1.00  0.00     0.184 C 
ATOM     98  C   UNL A   1      34.780  20.306  25.114  1.00  0.00     0.065 C 
ATOM     99  C   UNL A   1      32.327  20.333  24.433  1.00  0.00     0.065 C 
ATOM    100  C   UNL A   1      34.898  18.881  24.588  1.00  0.00     0.006 C 
ATOM    101  C   UNL A   1      32.479  18.887  23.957  1.00  0.00     0.006 C 
ATOM    102  C   UNL A   1      33.569  18.150  24.721  1.00  0.00     0.000 C 
ENDBRANCH  95  97
ENDBRANCH  83  88
ENDBRANCH  78  81
ENDBRANCH  76  77
ENDBRANCH  75  76
ENDBRANCH   1  75
TORSDOF 16
ENDMDL
MODEL 2
REMARK VINA RESULT:     -13.1      2.507      8.691
REMARK SMILES O=C(NCCCCNC(=O)[C@H]1[C@H]2CC[C@H](C2)[C@@H]1C(=O)N1CC[NH+](C2CCCCC2)CC1)c1ccc(-c2c3nc(c(-c4c(F)cc(S(=O)(=O)[O-])cc4F)c4ccc([nH]4)c(-c4c(F)cc(S(=O)(=O)[O-])cc4F)c4nc(c(-c5c(F)cc(S(=O)(=O)[O-])cc5F)c5ccc2[nH]5)C=C4)C=C3)cc1
REMARK SMILES IDX 5 1 4 2 3 3 1 4 2 5 32 7 33 8 97 9 34 10 96 11 35 12 36 13
REMARK SMILES IDX 37 14 90 15 38 16 95 17 89 18 91 19 39 20 94 21 88 22 87 23
REMARK SMILES IDX 40 25 74 26 53 27 73 28 54 29 57 30 72 31 92 32 55 33 56 34
REMARK SMILES IDX 71 36 93 37 58 38 41 39 42 40 51 41 43 42 44 43 50 44 52 45
REMARK SMILES IDX 45 46 46 47 47 48 48 49 49 50 75 51 76 52 85 53 77 54 78 55
REMARK SMILES IDX 84 56 86 57 79 58 80 59 81 60 82 61 83 62 59 63 60 64 69 65
REMARK SMILES IDX 61 66 62 67 68 68 70 69 63 70 64 71 65 72 66 73 67 74 6 75
REMARK SMILES IDX 7 76 8 77 9 78 10 80 11 81 12 82 17 83 13 84 16 85 15 86
REMARK SMILES IDX 14 87 18 88 19 89 20 90 21 91 31 92 22 93 30 94 23 95 24 97
REMARK SMILES IDX 25 98 29 99 26 100 28 101 27 102
REMARK H PARENT 3 6 91 24 57 35 8 79 23 96
REMARK Flexibility Score: inf
ROOT
ATOM      1  C   UNL A   1      37.915  20.535  25.010  1.00  0.00     0.023 C 
ENDROOT
BRANCH   1   2
ATOM      2  C   UNL A   1      39.045  20.733  26.001  1.00  0.00     0.116 C 
BRANCH   2   3
ATOM      3  N   UNL A   1      40.007  19.644  25.991  1.00  0.00    -0.352 N 
ATOM      4  O   UNL A   1      42.085  18.751  26.001  1.00  0.00    -0.269 OA
ATOM      5  C   UNL A   1      41.370  19.731  26.154  1.00  0.00     0.251 C 
ATOM      6  H   UNL A   1      39.642  18.741  25.850  1.00  0.00     0.163 HD
BRANCH   5   7
ATOM      7  C   UNL A   1      41.949  21.048  26.488  1.00  0.00     0.039 A 
ATOM      8  C   UNL A   1      42.255  21.956  25.470  1.00  0.00     0.014 A 
ATOM      9  C   UNL A   1      42.219  21.353  27.823  1.00  0.00     0.014 A 
ATOM     10  C   UNL A   1      42.924  23.133  25.778  1.00  0.00     0.010 A 
ATOM     11  C   UNL A   1      42.824  22.570  28.138  1.00  0.00     0.010 A 
ATOM     12  C   UNL A   1      43.186  23.462  27.117  1.00  0.00    -0.014 A 
BRANCH  12  13
ATOM     13  C   UNL A   1      43.711  24.809  27.439  1.00  0.00     0.031 A 
ATOM     14  C   UNL A   1      42.807  25.907  27.913  1.00  0.00     0.074 A 
ATOM     15  C   UNL A   1      45.031  25.021  27.267  1.00  0.00     0.049 A 
ATOM     16  N   UNL A   1      43.106  27.152  28.180  1.00  0.00    -0.248 NA
ATOM     17  C   UNL A   1      41.386  25.577  28.105  1.00  0.00     0.031 C 
ATOM     18  C   UNL A   1      45.987  24.019  26.784  1.00  0.00     0.029 A 
ATOM     19  N   UNL A   1      45.797  26.138  27.465  1.00  0.00    -0.354 N 
ATOM     20  C   UNL A   1      41.913  27.762  28.545  1.00  0.00     0.074 A 
ATOM     21  C   UNL A   1      40.880  26.752  28.464  1.00  0.00     0.031 C 
ATOM     22  C   UNL A   1      47.210  24.562  26.734  1.00  0.00     0.029 A 
ATOM     23  C   UNL A   1      47.115  25.964  27.119  1.00  0.00     0.049 A 
ATOM     24  H   UNL A   1      45.438  26.984  27.819  1.00  0.00     0.167 HD
ATOM     25  C   UNL A   1      41.711  29.050  28.912  1.00  0.00     0.037 A 
ATOM     26  C   UNL A   1      48.131  26.846  27.072  1.00  0.00     0.037 A 
ATOM     27  C   UNL A   1      42.762  30.031  29.016  1.00  0.00     0.049 A 
ATOM     28  C   UNL A   1      47.867  28.268  27.465  1.00  0.00     0.074 A 
ATOM     29  C   UNL A   1      42.678  31.334  29.476  1.00  0.00     0.029 A 
ATOM     30  N   UNL A   1      44.082  29.823  28.642  1.00  0.00    -0.354 N 
ATOM     31  N   UNL A   1      46.748  28.810  27.881  1.00  0.00    -0.248 NA
ATOM     32  C   UNL A   1      48.995  29.204  27.369  1.00  0.00     0.031 C 
ATOM     33  C   UNL A   1      43.936  31.929  29.333  1.00  0.00     0.029 A 
ATOM     34  C   UNL A   1      44.812  30.987  28.820  1.00  0.00     0.049 A 
ATOM     35  H   UNL A   1      44.446  28.974  28.301  1.00  0.00     0.167 HD
ATOM     36  C   UNL A   1      47.034  30.152  28.093  1.00  0.00     0.074 A 
ATOM     37  C   UNL A   1      48.438  30.333  27.788  1.00  0.00     0.031 C 
ATOM     38  C   UNL A   1      46.207  31.146  28.495  1.00  0.00     0.037 A 
BRANCH  25  39
ATOM     39  C   UNL A   1      40.310  29.497  29.220  1.00  0.00     0.058 A 
ATOM     40  C   UNL A   1      39.901  29.800  30.526  1.00  0.00     0.135 A 
ATOM     41  C   UNL A   1      39.400  29.730  28.176  1.00  0.00     0.135 A 
ATOM     42  F   UNL A   1      40.728  29.584  31.561  1.00  0.00    -0.206 F 
ATOM     43  C   UNL A   1      38.638  30.321  30.789  1.00  0.00     0.059 A 
ATOM     44  C   UNL A   1      38.137  30.267  28.413  1.00  0.00     0.059 A 
ATOM     45  F   UNL A   1      39.742  29.454  26.907  1.00  0.00    -0.206 F 
ATOM     46  C   UNL A   1      37.764  30.558  29.724  1.00  0.00     0.060 A 
BRANCH  46  47
ATOM     47  S   UNL A   1      36.149  31.284  30.076  1.00  0.00     0.124 S 
ATOM     48  O   UNL A   1      35.356  30.787  28.956  1.00  0.00    -0.237 OA
ATOM     49  O   UNL A   1      35.827  30.714  31.380  1.00  0.00    -0.237 OA
ATOM     50  O   UNL A   1      36.411  32.720  30.070  1.00  0.00    -0.744 OA
ENDBRANCH  46  47
ENDBRANCH  25  39
BRANCH  26  51
ATOM     51  C   UNL A   1      49.463  26.411  26.584  1.00  0.00     0.058 A 
ATOM     52  C   UNL A   1      49.876  26.673  25.271  1.00  0.00     0.135 A 
ATOM     53  C   UNL A   1      50.357  25.739  27.432  1.00  0.00     0.135 A 
ATOM     54  F   UNL A   1      49.056  27.312  24.423  1.00  0.00    -0.206 F 
ATOM     55  C   UNL A   1      51.124  26.266  24.809  1.00  0.00     0.059 A 
ATOM     56  C   UNL A   1      51.618  25.347  27.002  1.00  0.00     0.059 A 
ATOM     57  F   UNL A   1      50.015  25.485  28.705  1.00  0.00    -0.206 F 
ATOM     58  C   UNL A   1      51.987  25.602  25.683  1.00  0.00     0.060 A 
BRANCH  58  59
ATOM     59  S   UNL A   1      53.618  25.104  25.088  1.00  0.00     0.124 S 
ATOM     60  O   UNL A   1      54.494  25.852  25.981  1.00  0.00    -0.237 OA
ATOM     61  O   UNL A   1      53.591  23.657  25.285  1.00  0.00    -0.237 OA
ATOM     62  O   UNL A   1      53.611  25.537  23.694  1.00  0.00    -0.744 OA
ENDBRANCH  58  59
ENDBRANCH  26  51
BRANCH  38  63
ATOM     63  C   UNL A   1      46.801  32.517  28.618  1.00  0.00     0.058 A 
ATOM     64  C   UNL A   1      47.419  32.936  29.805  1.00  0.00     0.135 A 
ATOM     65  C   UNL A   1      46.794  33.402  27.528  1.00  0.00     0.135 A 
ATOM     66  F   UNL A   1      47.437  32.129  30.879  1.00  0.00    -0.206 F 
ATOM     67  C   UNL A   1      48.004  34.192  29.913  1.00  0.00     0.059 A 
ATOM     68  C   UNL A   1      47.394  34.654  27.607  1.00  0.00     0.059 A 
ATOM     69  F   UNL A   1      46.218  33.044  26.370  1.00  0.00    -0.206 F 
ATOM     70  C   UNL A   1      47.989  35.043  28.806  1.00  0.00     0.060 A 
BRANCH  70  71
ATOM     71  S   UNL A   1      48.792  36.653  28.943  1.00  0.00     0.124 S 
ATOM     72  O   UNL A   1      47.646  37.539  29.121  1.00  0.00    -0.237 OA
ATOM     73  O   UNL A   1      49.647  36.480  30.113  1.00  0.00    -0.237 OA
ATOM     74  O   UNL A   1      49.499  36.788  27.673  1.00  0.00    -0.744 OA
ENDBRANCH  70  71
ENDBRANCH  38  63
ENDBRANCH  12  13
ENDBRANCH   5   7
ENDBRANCH   2   3
ENDBRANCH   1   2
BRANCH   1  75
ATOM     75  C   UNL A   1      37.352  21.826  24.421  1.00  0.00     0.023 C 
BRANCH  75  76
ATOM     76  C   UNL A   1      36.863  22.841  25.456  1.00  0.00     0.116 C 
BRANCH  76  77
ATOM     77  N   UNL A   1      36.091  22.207  26.498  1.00  0.00    -0.356 N 
ATOM     78  C   UNL A   1      34.758  22.096  26.697  1.00  0.00     0.224 C 
ATOM     79  H   UNL A   1      36.637  21.773  27.193  1.00  0.00     0.163 HD
ATOM     80  O   UNL A   1      34.422  21.503  27.731  1.00  0.00    -0.275 OA
BRANCH  78  81
ATOM     81  C   UNL A   1      33.691  22.531  25.690  1.00  0.00     0.094 C 
ATOM     82  C   UNL A   1      33.950  21.779  24.343  1.00  0.00     0.002 C 
ATOM     83  C   UNL A   1      32.182  22.265  25.899  1.00  0.00     0.094 C 
ATOM     84  C   UNL A   1      33.756  20.255  24.513  1.00  0.00     0.005 C 
ATOM     85  C   UNL A   1      32.709  22.135  23.540  1.00  0.00     0.009 C 
ATOM     86  C   UNL A   1      31.750  21.571  24.588  1.00  0.00     0.002 C 
ATOM     87  C   UNL A   1      32.234  20.110  24.661  1.00  0.00     0.005 C 
BRANCH  83  88
ATOM     88  C   UNL A   1      31.366  23.502  26.297  1.00  0.00     0.227 C 
ATOM     89  O   UNL A   1      30.740  23.524  27.358  1.00  0.00    -0.275 OA
ATOM     90  N   UNL A   1      31.460  24.622  25.500  1.00  0.00    -0.331 N 
ATOM     91  C   UNL A   1      31.666  25.909  26.165  1.00  0.00     0.181 C 
ATOM     92  C   UNL A   1      30.635  24.715  24.302  1.00  0.00     0.181 C 
ATOM     93  C   UNL A   1      32.124  27.013  25.180  1.00  0.00     0.284 C 
ATOM     94  C   UNL A   1      31.227  25.741  23.332  1.00  0.00     0.284 C 
ATOM     95  N   UNL A   1      31.380  27.090  23.902  1.00  0.00    -0.330 N 
ATOM     96  H   UNL A   1      31.945  27.606  23.227  1.00  0.00     0.348 HD
BRANCH  95  97
ATOM     97  C   UNL A   1      30.202  27.983  23.902  1.00  0.00     0.184 C 
ATOM     98  C   UNL A   1      30.552  29.411  23.424  1.00  0.00     0.065 C 
ATOM     99  C   UNL A   1      28.934  27.459  23.195  1.00  0.00     0.065 C 
ATOM    100  C   UNL A   1      29.368  30.368  23.495  1.00  0.00     0.006 C 
ATOM    101  C   UNL A   1      27.776  28.459  23.226  1.00  0.00     0.006 C 
ATOM    102  C   UNL A   1      28.191  29.823  22.697  1.00  0.00     0.000 C 
ENDBRANCH  95  97
ENDBRANCH  83  88
ENDBRANCH  78  81
ENDBRANCH  76  77
ENDBRANCH  75  76
ENDBRANCH   1  75
TORSDOF 16
ENDMDL
MODEL 3
REMARK VINA RESULT:     -13.0      0.579      8.103
REMARK SMILES O=C(NCCCCNC(=O)[C@H]1[C@H]2CC[C@H](C2)[C@@H]1C(=O)N1CC[NH+](C2CCCCC2)CC1)c1ccc(-c2c3nc(c(-c4c(F)cc(S(=O)(=O)[O-])cc4F)c4ccc([nH]4)c(-c4c(F)cc(S(=O)(=O)[O-])cc4F)c4nc(c(-c5c(F)cc(S(=O)(=O)[O-])cc5F)c5ccc2[nH]5)C=C4)C=C3)cc1
REMARK SMILES IDX 5 1 4 2 3 3 1 4 2 5 32 7 33 8 97 9 34 10 96 11 35 12 36 13
REMARK SMILES IDX 37 14 90 15 38 16 95 17 89 18 91 19 39 20 94 21 88 22 87 23
REMARK SMILES IDX 40 25 74 26 53 27 73 28 54 29 57 30 72 31 92 32 55 33 56 34
REMARK SMILES IDX 71 36 93 37 58 38 41 39 42 40 51 41 43 42 44 43 50 44 52 45
REMARK SMILES IDX 45 46 46 47 47 48 48 49 49 50 75 51 76 52 85 53 77 54 78 55
REMARK SMILES IDX 84 56 86 57 79 58 80 59 81 60 82 61 83 62 59 63 60 64 69 65
REMARK SMILES IDX 61 66 62 67 68 68 70 69 63 70 64 71 65 72 66 73 67 74 6 75
REMARK SMILES IDX 7 76 8 77 9 78 10 80 11 81 12 82 17 83 13 84 16 85 15 86
REMARK SMILES IDX 14 87 18 88 19 89 20 90 21 91 31 92 22 93 30 94 23 95 24 97
REMARK SMILES IDX 25 98 29 99 26 100 28 101 27 102
REMARK H PARENT 3 6 91 24 57 35 8 79 23 96
REMARK Flexibility Score: inf
ROOT
ATOM      1  C   UNL A   1      34.844  30.762  27.892  1.00  0.00     0.023 C 
ENDROOT
BRANCH   1   2
ATOM      2  C   UNL A   1      35.965  31.224  28.802  1.00  0.00     0.116 C 
BRANCH   2   3
ATOM      3  N   UNL A   1      35.800  30.783  30.177  1.00  0.00    -0.352 N 
ATOM      4  O   UNL A   1      36.369  29.630  32.037  1.00  0.00    -0.269 OA
ATOM      5  C   UNL A   1      36.681  30.042  30.929  1.00  0.00     0.251 C 
ATOM      6  H   UNL A   1      34.961  31.044  30.621  1.00  0.00     0.163 HD
BRANCH   5   7
ATOM      7  C   UNL A   1      38.002  29.730  30.347  1.00  0.00     0.039 A 
ATOM      8  C   UNL A   1      39.068  29.379  31.180  1.00  0.00     0.014 A 
ATOM      9  C   UNL A   1      38.176  29.826  28.965  1.00  0.00     0.014 A 
ATOM     10  C   UNL A   1      40.338  29.222  30.642  1.00  0.00     0.010 A 
ATOM     11  C   UNL A   1      39.438  29.593  28.417  1.00  0.00     0.010 A 
ATOM     12  C   UNL A   1      40.526  29.298  29.253  1.00  0.00    -0.014 A 
BRANCH  12  13
ATOM     13  C   UNL A   1      41.840  28.924  28.681  1.00  0.00     0.031 A 
ATOM     14  C   UNL A   1      42.112  27.532  28.194  1.00  0.00     0.074 A 
ATOM     15  C   UNL A   1      42.794  29.874  28.637  1.00  0.00     0.049 A 
ATOM     16  N   UNL A   1      43.227  27.036  27.722  1.00  0.00    -0.248 NA
ATOM     17  C   UNL A   1      41.003  26.568  28.249  1.00  0.00     0.031 C 
ATOM     18  C   UNL A   1      42.630  31.253  29.113  1.00  0.00     0.029 A 
ATOM     19  N   UNL A   1      44.085  29.834  28.185  1.00  0.00    -0.354 N 
ATOM     20  C   UNL A   1      42.965  25.701  27.448  1.00  0.00     0.074 A 
ATOM     21  C   UNL A   1      41.586  25.457  27.808  1.00  0.00     0.031 C 
ATOM     22  C   UNL A   1      43.770  31.927  28.918  1.00  0.00     0.029 A 
ATOM     23  C   UNL A   1      44.763  31.017  28.364  1.00  0.00     0.049 A 
ATOM     24  H   UNL A   1      44.490  29.036  27.773  1.00  0.00     0.167 HD
ATOM     25  C   UNL A   1      43.810  24.770  26.942  1.00  0.00     0.037 A 
ATOM     26  C   UNL A   1      46.055  31.324  28.149  1.00  0.00     0.037 A 
ATOM     27  C   UNL A   1      45.173  25.044  26.560  1.00  0.00     0.049 A 
ATOM     28  C   UNL A   1      46.967  30.265  27.608  1.00  0.00     0.074 A 
ATOM     29  C   UNL A   1      46.079  24.198  25.945  1.00  0.00     0.029 A 
ATOM     30  N   UNL A   1      45.830  26.248  26.771  1.00  0.00    -0.354 N 
ATOM     31  N   UNL A   1      46.684  29.027  27.283  1.00  0.00    -0.248 NA
ATOM     32  C   UNL A   1      48.376  30.634  27.418  1.00  0.00     0.031 C 
ATOM     33  C   UNL A   1      47.298  24.873  25.829  1.00  0.00     0.029 A 
ATOM     34  C   UNL A   1      47.142  26.152  26.337  1.00  0.00     0.049 A 
ATOM     35  H   UNL A   1      45.423  27.052  27.169  1.00  0.00     0.167 HD
ATOM     36  C   UNL A   1      47.879  28.466  26.853  1.00  0.00     0.074 A 
ATOM     37  C   UNL A   1      48.881  29.508  26.932  1.00  0.00     0.031 C 
ATOM     38  C   UNL A   1      48.125  27.200  26.439  1.00  0.00     0.037 A 
BRANCH  25  39
ATOM     39  C   UNL A   1      43.311  23.363  26.775  1.00  0.00     0.058 A 
ATOM     40  C   UNL A   1      43.043  22.819  25.511  1.00  0.00     0.135 A 
ATOM     41  C   UNL A   1      43.206  22.516  27.890  1.00  0.00     0.135 A 
ATOM     42  F   UNL A   1      43.117  23.588  24.413  1.00  0.00    -0.206 F 
ATOM     43  C   UNL A   1      42.691  21.481  25.356  1.00  0.00     0.059 A 
ATOM     44  C   UNL A   1      42.872  21.171  27.759  1.00  0.00     0.059 A 
ATOM     45  F   UNL A   1      43.449  22.990  29.123  1.00  0.00    -0.206 F 
ATOM     46  C   UNL A   1      42.614  20.663  26.486  1.00  0.00     0.060 A 
BRANCH  46  47
ATOM     47  S   UNL A   1      42.207  18.918  26.264  1.00  0.00     0.124 S 
ATOM     48  O   UNL A   1      40.828  18.998  25.794  1.00  0.00    -0.237 OA
ATOM     49  O   UNL A   1      43.189  18.491  25.273  1.00  0.00    -0.237 OA
ATOM     50  O   UNL A   1      42.382  18.353  27.599  1.00  0.00    -0.744 OA
ENDBRANCH  46  47
ENDBRANCH  25  39
BRANCH  26  51
ATOM     51  C   UNL A   1      46.560  32.675  28.501  1.00  0.00     0.058 A 
ATOM     52  C   UNL A   1      46.552  33.719  27.568  1.00  0.00     0.135 A 
ATOM     53  C   UNL A   1      47.045  32.949  29.790  1.00  0.00     0.135 A 
ATOM     54  F   UNL A   1      46.099  33.505  26.323  1.00  0.00    -0.206 F 
ATOM     55  C   UNL A   1      47.026  34.987  27.894  1.00  0.00     0.059 A 
ATOM     56  C   UNL A   1      47.498  34.213  30.147  1.00  0.00     0.059 A 
ATOM     57  F   UNL A   1      47.052  31.986  30.725  1.00  0.00    -0.206 F 
ATOM     58  C   UNL A   1      47.498  35.222  29.186  1.00  0.00     0.060 A 
BRANCH  58  59
ATOM     59  S   UNL A   1      48.082  36.876  29.615  1.00  0.00     0.124 S 
ATOM     60  O   UNL A   1      49.301  36.572  30.355  1.00  0.00    -0.237 OA
ATOM     61  O   UNL A   1      48.268  37.489  28.303  1.00  0.00    -0.237 OA
ATOM     62  O   UNL A   1      46.981  37.425  30.402  1.00  0.00    -0.744 OA
ENDBRANCH  58  59
ENDBRANCH  26  51
BRANCH  38  63
ATOM     63  C   UNL A   1      49.537  26.875  26.050  1.00  0.00     0.058 A 
ATOM     64  C   UNL A   1      50.438  26.336  26.980  1.00  0.00     0.135 A 
ATOM     65  C   UNL A   1      49.977  27.057  24.730  1.00  0.00     0.135 A 
ATOM     66  F   UNL A   1      50.065  26.157  28.258  1.00  0.00    -0.206 F 
ATOM     67  C   UNL A   1      51.737  25.997  26.617  1.00  0.00     0.059 A 
ATOM     68  C   UNL A   1      51.264  26.703  24.340  1.00  0.00     0.059 A 
ATOM     69  F   UNL A   1      49.149  27.565  23.805  1.00  0.00    -0.206 F 
ATOM     70  C   UNL A   1      52.139  26.182  25.293  1.00  0.00     0.060 A 
BRANCH  70  71
ATOM     71  S   UNL A   1      53.812  25.695  24.822  1.00  0.00     0.124 S 
ATOM     72  O   UNL A   1      54.607  26.331  25.868  1.00  0.00    -0.237 OA
ATOM     73  O   UNL A   1      53.742  24.239  24.876  1.00  0.00    -0.237 OA
ATOM     74  O   UNL A   1      53.965  26.260  23.485  1.00  0.00    -0.744 OA
ENDBRANCH  70  71
ENDBRANCH  38  63
ENDBRANCH  12  13
ENDBRANCH   5   7
ENDBRANCH   2   3
ENDBRANCH   1   2
BRANCH   1  75
ATOM     75  C   UNL A   1      35.033  29.365  27.308  1.00  0.00     0.023 C 
BRANCH  75  76
ATOM     76  C   UNL A   1      33.852  28.852  26.480  1.00  0.00     0.116 C 
BRANCH  76  77
ATOM     77  N   UNL A   1      33.942  29.284  25.105  1.00  0.00    -0.356 N 
ATOM     78  C   UNL A   1      33.499  28.733  23.953  1.00  0.00     0.224 C 
ATOM     79  H   UNL A   1      34.414  30.141  24.985  1.00  0.00     0.163 HD
ATOM     80  O   UNL A   1      33.779  29.360  22.922  1.00  0.00    -0.275 OA
BRANCH  78  81
ATOM     81  C   UNL A   1      32.598  27.499  23.871  1.00  0.00     0.094 C 
ATOM     82  C   UNL A   1      31.245  27.830  24.584  1.00  0.00     0.002 C 
ATOM     83  C   UNL A   1      32.097  26.914  22.531  1.00  0.00     0.094 C 
ATOM     84  C   UNL A   1      30.482  28.946  23.835  1.00  0.00     0.005 C 
ATOM     85  C   UNL A   1      30.398  26.618  24.230  1.00  0.00     0.009 C 
ATOM     86  C   UNL A   1      30.567  26.819  22.724  1.00  0.00     0.002 C 
ATOM     87  C   UNL A   1      29.996  28.241  22.559  1.00  0.00     0.005 C 
BRANCH  83  88
ATOM     88  C   UNL A   1      32.794  25.616  22.102  1.00  0.00     0.227 C 
ATOM     89  O   UNL A   1      33.231  25.488  20.957  1.00  0.00    -0.275 OA
ATOM     90  N   UNL A   1      33.028  24.660  23.066  1.00  0.00    -0.331 N 
ATOM     91  C   UNL A   1      34.362  24.059  23.112  1.00  0.00     0.181 C 
ATOM     92  C   UNL A   1      31.963  23.730  23.420  1.00  0.00     0.181 C 
ATOM     93  C   UNL A   1      34.618  23.297  24.436  1.00  0.00     0.284 C 
ATOM     94  C   UNL A   1      32.236  23.113  24.795  1.00  0.00     0.284 C 
ATOM     95  N   UNL A   1      33.525  22.409  24.894  1.00  0.00    -0.330 N 
ATOM     96  H   UNL A   1      33.653  22.221  25.888  1.00  0.00     0.348 HD
BRANCH  95  97
ATOM     97  C   UNL A   1      33.593  21.013  24.414  1.00  0.00     0.184 C 
ATOM     98  C   UNL A   1      34.713  20.209  25.115  1.00  0.00     0.065 C 
ATOM     99  C   UNL A   1      32.270  20.218  24.398  1.00  0.00     0.065 C 
ATOM    100  C   UNL A   1      34.853  18.791  24.575  1.00  0.00     0.006 C 
ATOM    101  C   UNL A   1      32.443  18.779  23.909  1.00  0.00     0.006 C 
ATOM    102  C   UNL A   1      33.530  18.046  24.680  1.00  0.00     0.000 C 
ENDBRANCH  95  97
ENDBRANCH  83  88
ENDBRANCH  78  81
ENDBRANCH  76  77
ENDBRANCH  75  76
ENDBRANCH   1  75
TORSDOF 16
ENDMDL
