MODEL 1
REMARK VINA RESULT:     -12.2      0.000      0.000
REMARK SMILES C[NH2+]CCC(=O)N1Cc2nc[nH]c2C[C@H]1C(=O)NCCCCNC(=O)c1ccc(-c2c3nc(c(-c4c(F)cc(S(=O)(=O)[O-])cc4F)c4ccc([nH]4)c(-c4c(F)cc(S(=O)(=O)[O-])cc4F)c4nc(c(-c5c(F)cc(S(=O)(=O)[O-])cc5F)c5ccc2[nH]5)C=C4)C=C3)cc1
REMARK SMILES IDX 20 1 19 2 18 3 16 4 17 5 15 7 7 8 8 9 9 10 14 11 10 12 13 13
REMARK SMILES IDX 11 14 12 15 5 17 6 18 4 19 3 20 2 21 1 22 21 25 22 26 23 27
REMARK SMILES IDX 24 28 25 30 26 31 27 32 91 33 28 34 90 35 29 36 30 37 31 38
REMARK SMILES IDX 84 39 32 40 89 41 83 42 85 43 33 44 88 45 82 46 81 47 34 49
REMARK SMILES IDX 68 50 47 51 67 52 48 53 51 54 66 55 86 56 49 57 50 58 65 60
REMARK SMILES IDX 87 61 52 62 35 63 36 64 45 65 37 66 38 67 44 68 46 69 39 70
REMARK SMILES IDX 40 71 41 72 42 73 43 74 69 75 70 76 79 77 71 78 72 79 78 80
REMARK SMILES IDX 80 81 73 82 74 83 75 84 76 85 77 86 53 87 54 88 63 89 55 90
REMARK SMILES IDX 56 91 62 92 64 93 57 94 58 95 59 96 60 97 61 98
REMARK H PARENT 18 6 12 16 2 23 2 24 23 29 85 48 51 59
REMARK Flexibility Score: inf
ROOT
ATOM      1  C   UNL A   1      36.419  22.760  23.493  1.00  0.00     0.023 C 
ENDROOT
BRANCH   1   2
ATOM      2  C   UNL A   1      34.946  23.150  23.602  1.00  0.00     0.116 C 
BRANCH   2   3
ATOM      3  N   UNL A   1      34.735  24.455  24.190  1.00  0.00    -0.354 N 
ATOM      4  C   UNL A   1      34.104  24.860  25.319  1.00  0.00     0.243 C 
ATOM      5  O   UNL A   1      34.462  25.977  25.723  1.00  0.00    -0.273 OA
ATOM      6  H   UNL A   1      35.127  25.192  23.668  1.00  0.00     0.163 HD
BRANCH   4   7
ATOM      7  C   UNL A   1      33.110  24.036  26.193  1.00  0.00     0.180 C 
ATOM      8  N   UNL A   1      31.706  23.739  25.750  1.00  0.00    -0.324 N 
ATOM      9  C   UNL A   1      31.464  22.564  24.893  1.00  0.00     0.178 C 
ATOM     10  C   UNL A   1      32.436  21.479  25.184  1.00  0.00     0.081 A 
ATOM     11  C   UNL A   1      33.811  22.804  26.847  1.00  0.00     0.091 C 
ATOM     12  N   UNL A   1      32.567  20.342  24.431  1.00  0.00    -0.240 NA
ATOM     13  C   UNL A   1      33.493  21.594  26.059  1.00  0.00     0.042 A 
ATOM     14  C   UNL A   1      33.666  19.763  24.869  1.00  0.00     0.197 A 
ATOM     15  N   UNL A   1      34.245  20.469  25.894  1.00  0.00    -0.348 N 
ATOM     16  H   UNL A   1      35.045  20.213  26.408  1.00  0.00     0.167 HD
BRANCH   8  17
ATOM     17  C   UNL A   1      30.575  24.309  26.326  1.00  0.00     0.229 C 
ATOM     18  O   UNL A   1      29.953  23.741  27.229  1.00  0.00    -0.275 OA
BRANCH  17  19
ATOM     19  C   UNL A   1      29.968  25.563  25.719  1.00  0.00     0.161 C 
BRANCH  19  20
ATOM     20  C   UNL A   1      30.882  26.769  25.493  1.00  0.00     0.270 C 
BRANCH  20  21
ATOM     21  N   UNL A   1      30.661  27.624  24.327  1.00  0.00    -0.348 N 
ATOM     22  C   UNL A   1      31.523  28.793  24.231  1.00  0.00     0.330 C 
ATOM     23  H   UNL A   1      30.805  27.059  23.491  1.00  0.00     0.346 HD
ATOM     24  H   UNL A   1      29.712  27.986  24.424  1.00  0.00     0.346 HD
ENDBRANCH  20  21
ENDBRANCH  19  20
ENDBRANCH  17  19
ENDBRANCH   8  17
ENDBRANCH   4   7
ENDBRANCH   2   3
ENDBRANCH   1   2
BRANCH   1  25
ATOM     25  C   UNL A   1      36.968  21.926  24.656  1.00  0.00     0.023 C 
BRANCH  25  26
ATOM     26  C   UNL A   1      37.886  22.682  25.610  1.00  0.00     0.116 C 
BRANCH  26  27
ATOM     27  N   UNL A   1      38.756  21.819  26.414  1.00  0.00    -0.352 N 
ATOM     28  C   UNL A   1      39.967  22.172  27.000  1.00  0.00     0.251 C 
ATOM     29  H   UNL A   1      38.450  20.894  26.555  1.00  0.00     0.163 HD
ATOM     30  O   UNL A   1      40.812  21.350  27.292  1.00  0.00    -0.269 OA
BRANCH  28  31
ATOM     31  C   UNL A   1      40.154  23.600  27.309  1.00  0.00     0.039 A 
ATOM     32  C   UNL A   1      39.129  24.547  27.228  1.00  0.00     0.014 A 
ATOM     33  C   UNL A   1      41.415  23.930  27.796  1.00  0.00     0.014 A 
ATOM     34  C   UNL A   1      39.374  25.830  27.720  1.00  0.00     0.010 A 
ATOM     35  C   UNL A   1      41.574  25.105  28.466  1.00  0.00     0.010 A 
ATOM     36  C   UNL A   1      40.600  26.090  28.345  1.00  0.00    -0.014 A 
BRANCH  36  37
ATOM     37  C   UNL A   1      40.912  27.357  28.989  1.00  0.00     0.031 A 
ATOM     38  C   UNL A   1      41.989  28.132  28.319  1.00  0.00     0.074 A 
ATOM     39  C   UNL A   1      40.073  27.883  29.912  1.00  0.00     0.049 A 
ATOM     40  N   UNL A   1      43.199  28.316  28.731  1.00  0.00    -0.248 NA
ATOM     41  C   UNL A   1      41.765  28.596  26.938  1.00  0.00     0.031 C 
ATOM     42  C   UNL A   1      38.793  27.341  30.397  1.00  0.00     0.029 A 
ATOM     43  N   UNL A   1      40.131  29.085  30.539  1.00  0.00    -0.354 N 
ATOM     44  C   UNL A   1      43.793  29.159  27.793  1.00  0.00     0.074 A 
ATOM     45  C   UNL A   1      42.971  29.070  26.619  1.00  0.00     0.031 C 
ATOM     46  C   UNL A   1      38.103  28.302  31.048  1.00  0.00     0.029 A 
ATOM     47  C   UNL A   1      38.956  29.465  31.186  1.00  0.00     0.049 A 
ATOM     48  H   UNL A   1      40.941  29.645  30.539  1.00  0.00     0.167 HD
ATOM     49  C   UNL A   1      44.730  30.076  28.174  1.00  0.00     0.037 A 
ATOM     50  C   UNL A   1      38.708  30.661  31.781  1.00  0.00     0.037 A 
ATOM     51  C   UNL A   1      45.163  29.811  29.527  1.00  0.00     0.049 A 
ATOM     52  C   UNL A   1      40.036  31.279  32.048  1.00  0.00     0.074 A 
ATOM     53  C   UNL A   1      45.775  28.753  30.168  1.00  0.00     0.029 A 
ATOM     54  N   UNL A   1      44.600  30.581  30.519  1.00  0.00    -0.354 N 
ATOM     55  N   UNL A   1      40.910  30.765  32.873  1.00  0.00    -0.248 NA
ATOM     56  C   UNL A   1      40.588  32.152  31.023  1.00  0.00     0.031 C 
ATOM     57  C   UNL A   1      45.147  28.686  31.447  1.00  0.00     0.029 A 
ATOM     58  C   UNL A   1      44.257  29.757  31.558  1.00  0.00     0.049 A 
ATOM     59  H   UNL A   1      44.465  31.555  30.487  1.00  0.00     0.167 HD
ATOM     60  C   UNL A   1      42.134  30.894  32.227  1.00  0.00     0.074 A 
ATOM     61  C   UNL A   1      41.881  31.824  31.126  1.00  0.00     0.031 C 
ATOM     62  C   UNL A   1      43.150  30.007  32.457  1.00  0.00     0.037 A 
BRANCH  49  63
ATOM     63  C   UNL A   1      44.949  31.440  27.540  1.00  0.00     0.058 A 
ATOM     64  C   UNL A   1      46.155  31.664  26.837  1.00  0.00     0.135 A 
ATOM     65  C   UNL A   1      44.202  32.601  27.833  1.00  0.00     0.135 A 
ATOM     66  F   UNL A   1      46.933  30.636  26.463  1.00  0.00    -0.206 F 
ATOM     67  C   UNL A   1      46.645  32.943  26.574  1.00  0.00     0.059 A 
ATOM     68  C   UNL A   1      44.650  33.884  27.536  1.00  0.00     0.059 A 
ATOM     69  F   UNL A   1      43.045  32.572  28.499  1.00  0.00    -0.206 F 
ATOM     70  C   UNL A   1      45.896  34.048  26.956  1.00  0.00     0.060 A 
BRANCH  70  71
ATOM     71  S   UNL A   1      46.583  35.698  26.743  1.00  0.00     0.124 S 
ATOM     72  O   UNL A   1      47.279  35.885  28.011  1.00  0.00    -0.237 OA
ATOM     73  O   UNL A   1      47.427  35.523  25.566  1.00  0.00    -0.237 OA
ATOM     74  O   UNL A   1      45.400  36.530  26.543  1.00  0.00    -0.744 OA
ENDBRANCH  70  71
ENDBRANCH  49  63
BRANCH  50  75
ATOM     75  C   UNL A   1      37.429  31.420  31.799  1.00  0.00     0.058 A 
ATOM     76  C   UNL A   1      36.749  31.718  32.994  1.00  0.00     0.135 A 
ATOM     77  C   UNL A   1      36.978  32.099  30.648  1.00  0.00     0.135 A 
ATOM     78  F   UNL A   1      37.128  31.142  34.145  1.00  0.00    -0.206 F 
ATOM     79  C   UNL A   1      35.699  32.648  33.048  1.00  0.00     0.059 A 
ATOM     80  C   UNL A   1      35.936  33.028  30.676  1.00  0.00     0.059 A 
ATOM     81  F   UNL A   1      37.597  31.937  29.468  1.00  0.00    -0.206 F 
ATOM     82  C   UNL A   1      35.309  33.310  31.883  1.00  0.00     0.060 A 
BRANCH  82  83
ATOM     83  S   UNL A   1      34.044  34.604  31.961  1.00  0.00     0.124 S 
ATOM     84  O   UNL A   1      34.820  35.757  32.404  1.00  0.00    -0.237 OA
ATOM     85  O   UNL A   1      33.560  34.649  30.586  1.00  0.00    -0.237 OA
ATOM     86  O   UNL A   1      33.090  34.085  32.938  1.00  0.00    -0.744 OA
ENDBRANCH  82  83
ENDBRANCH  50  75
BRANCH  62  87
ATOM     87  C   UNL A   1      43.026  29.065  33.630  1.00  0.00     0.058 A 
ATOM     88  C   UNL A   1      43.219  29.429  34.975  1.00  0.00     0.135 A 
ATOM     89  C   UNL A   1      42.502  27.788  33.385  1.00  0.00     0.135 A 
ATOM     90  F   UNL A   1      43.626  30.661  35.304  1.00  0.00    -0.206 F 
ATOM     91  C   UNL A   1      42.929  28.554  36.025  1.00  0.00     0.059 A 
ATOM     92  C   UNL A   1      42.178  26.911  34.415  1.00  0.00     0.059 A 
ATOM     93  F   UNL A   1      42.234  27.405  32.125  1.00  0.00    -0.206 F 
ATOM     94  C   UNL A   1      42.403  27.296  35.734  1.00  0.00     0.060 A 
BRANCH  94  95
ATOM     95  S   UNL A   1      41.948  26.194  37.090  1.00  0.00     0.124 S 
ATOM     96  O   UNL A   1      40.676  26.758  37.529  1.00  0.00    -0.237 OA
ATOM     97  O   UNL A   1      41.872  24.894  36.430  1.00  0.00    -0.237 OA
ATOM     98  O   UNL A   1      43.054  26.339  38.034  1.00  0.00    -0.744 OA
ENDBRANCH  94  95
ENDBRANCH  62  87
ENDBRANCH  36  37
ENDBRANCH  28  31
ENDBRANCH  26  27
ENDBRANCH  25  26
ENDBRANCH   1  25
TORSDOF 18
ENDMDL
MODEL 2
REMARK VINA RESULT:     -12.1      2.342      3.337
REMARK SMILES C[NH2+]CCC(=O)N1Cc2nc[nH]c2C[C@H]1C(=O)NCCCCNC(=O)c1ccc(-c2c3nc(c(-c4c(F)cc(S(=O)(=O)[O-])cc4F)c4ccc([nH]4)c(-c4c(F)cc(S(=O)(=O)[O-])cc4F)c4nc(c(-c5c(F)cc(S(=O)(=O)[O-])cc5F)c5ccc2[nH]5)C=C4)C=C3)cc1
REMARK SMILES IDX 20 1 19 2 18 3 16 4 17 5 15 7 7 8 8 9 9 10 14 11 10 12 13 13
REMARK SMILES IDX 11 14 12 15 5 17 6 18 4 19 3 20 2 21 1 22 21 25 22 26 23 27
REMARK SMILES IDX 24 28 25 30 26 31 27 32 91 33 28 34 90 35 29 36 30 37 31 38
REMARK SMILES IDX 84 39 32 40 89 41 83 42 85 43 33 44 88 45 82 46 81 47 34 49
REMARK SMILES IDX 68 50 47 51 67 52 48 53 51 54 66 55 86 56 49 57 50 58 65 60
REMARK SMILES IDX 87 61 52 62 35 63 36 64 45 65 37 66 38 67 44 68 46 69 39 70
REMARK SMILES IDX 40 71 41 72 42 73 43 74 69 75 70 76 79 77 71 78 72 79 78 80
REMARK SMILES IDX 80 81 73 82 74 83 75 84 76 85 77 86 53 87 54 88 63 89 55 90
REMARK SMILES IDX 56 91 62 92 64 93 57 94 58 95 59 96 60 97 61 98
REMARK H PARENT 18 6 12 16 2 23 2 24 23 29 85 48 51 59
REMARK Flexibility Score: inf
ROOT
ATOM      1  C   UNL A   1      40.153  21.996  26.503  1.00  0.00     0.023 C 
ENDROOT
BRANCH   1   2
ATOM      2  C   UNL A   1      38.662  22.302  26.368  1.00  0.00     0.116 C 
BRANCH   2   3
ATOM      3  N   UNL A   1      38.139  22.056  25.042  1.00  0.00    -0.354 N 
ATOM      4  C   UNL A   1      36.958  22.364  24.451  1.00  0.00     0.243 C 
ATOM      5  O   UNL A   1      37.002  22.371  23.211  1.00  0.00    -0.273 OA
ATOM      6  H   UNL A   1      38.763  21.574  24.454  1.00  0.00     0.163 HD
BRANCH   4   7
ATOM      7  C   UNL A   1      35.641  22.816  25.153  1.00  0.00     0.180 C 
ATOM      8  N   UNL A   1      34.523  23.487  24.408  1.00  0.00    -0.324 N 
ATOM      9  C   UNL A   1      33.520  22.649  23.725  1.00  0.00     0.178 C 
ATOM     10  C   UNL A   1      33.321  21.362  24.440  1.00  0.00     0.081 A 
ATOM     11  C   UNL A   1      35.135  21.741  26.165  1.00  0.00     0.091 C 
ATOM     12  N   UNL A   1      32.586  20.316  23.948  1.00  0.00    -0.240 NA
ATOM     13  C   UNL A   1      34.053  20.956  25.532  1.00  0.00     0.042 A 
ATOM     14  C   UNL A   1      32.843  19.305  24.752  1.00  0.00     0.197 A 
ATOM     15  N   UNL A   1      33.702  19.659  25.762  1.00  0.00    -0.348 N 
ATOM     16  H   UNL A   1      34.005  19.089  26.505  1.00  0.00     0.167 HD
BRANCH   8  17
ATOM     17  C   UNL A   1      34.186  24.829  24.559  1.00  0.00     0.229 C 
ATOM     18  O   UNL A   1      34.247  25.390  25.658  1.00  0.00    -0.275 OA
BRANCH  17  19
ATOM     19  C   UNL A   1      33.550  25.584  23.404  1.00  0.00     0.161 C 
BRANCH  19  20
ATOM     20  C   UNL A   1      32.633  26.763  23.733  1.00  0.00     0.270 C 
BRANCH  20  21
ATOM     21  N   UNL A   1      31.431  26.531  24.534  1.00  0.00    -0.348 N 
ATOM     22  C   UNL A   1      31.333  27.305  25.762  1.00  0.00     0.330 C 
ATOM     23  H   UNL A   1      30.621  26.755  23.957  1.00  0.00     0.346 HD
ATOM     24  H   UNL A   1      31.474  25.553  24.824  1.00  0.00     0.346 HD
ENDBRANCH  20  21
ENDBRANCH  19  20
ENDBRANCH  17  19
ENDBRANCH   8  17
ENDBRANCH   4   7
ENDBRANCH   2   3
ENDBRANCH   1   2
BRANCH   1  25
ATOM     25  C   UNL A   1      40.532  20.513  26.425  1.00  0.00     0.023 C 
BRANCH  25  26
ATOM     26  C   UNL A   1      41.822  20.142  27.146  1.00  0.00     0.116 C 
BRANCH  26  27
ATOM     27  N   UNL A   1      42.912  19.734  26.254  1.00  0.00    -0.352 N 
ATOM     28  C   UNL A   1      43.621  20.550  25.379  1.00  0.00     0.251 C 
ATOM     29  H   UNL A   1      43.168  18.784  26.277  1.00  0.00     0.163 HD
ATOM     30  O   UNL A   1      44.203  20.111  24.408  1.00  0.00    -0.269 OA
BRANCH  28  31
ATOM     31  C   UNL A   1      43.684  21.981  25.723  1.00  0.00     0.039 A 
ATOM     32  C   UNL A   1      43.067  22.983  24.968  1.00  0.00     0.014 A 
ATOM     33  C   UNL A   1      44.320  22.263  26.928  1.00  0.00     0.014 A 
ATOM     34  C   UNL A   1      43.037  24.278  25.488  1.00  0.00     0.010 A 
ATOM     35  C   UNL A   1      44.098  23.468  27.523  1.00  0.00     0.010 A 
ATOM     36  C   UNL A   1      43.549  24.502  26.773  1.00  0.00    -0.014 A 
BRANCH  36  37
ATOM     37  C   UNL A   1      43.465  25.787  27.450  1.00  0.00     0.031 A 
ATOM     38  C   UNL A   1      44.525  26.753  27.058  1.00  0.00     0.074 A 
ATOM     39  C   UNL A   1      42.344  26.137  28.122  1.00  0.00     0.049 A 
ATOM     40  N   UNL A   1      45.543  27.132  27.756  1.00  0.00    -0.248 NA
ATOM     41  C   UNL A   1      44.578  27.206  25.656  1.00  0.00     0.031 C 
ATOM     42  C   UNL A   1      41.098  25.370  28.280  1.00  0.00     0.029 A 
ATOM     43  N   UNL A   1      42.034  27.314  28.721  1.00  0.00    -0.354 N 
ATOM     44  C   UNL A   1      46.197  28.088  26.982  1.00  0.00     0.074 A 
ATOM     45  C   UNL A   1      45.725  27.889  25.641  1.00  0.00     0.031 C 
ATOM     46  C   UNL A   1      40.111  26.181  28.718  1.00  0.00     0.029 A 
ATOM     47  C   UNL A   1      40.687  27.470  29.045  1.00  0.00     0.049 A 
ATOM     48  H   UNL A   1      42.709  28.005  28.913  1.00  0.00     0.167 HD
ATOM     49  C   UNL A   1      46.836  29.143  27.568  1.00  0.00     0.037 A 
ATOM     50  C   UNL A   1      40.095  28.590  29.536  1.00  0.00     0.037 A 
ATOM     51  C   UNL A   1      46.955  28.922  28.992  1.00  0.00     0.049 A 
ATOM     52  C   UNL A   1      41.185  29.421  30.115  1.00  0.00     0.074 A 
ATOM     53  C   UNL A   1      47.560  27.969  29.786  1.00  0.00     0.029 A 
ATOM     54  N   UNL A   1      46.037  29.558  29.796  1.00  0.00    -0.354 N 
ATOM     55  N   UNL A   1      41.900  29.044  31.143  1.00  0.00    -0.248 NA
ATOM     56  C   UNL A   1      41.817  30.401  29.246  1.00  0.00     0.031 C 
ATOM     57  C   UNL A   1      46.653  27.762  30.868  1.00  0.00     0.029 A 
ATOM     58  C   UNL A   1      45.592  28.661  30.731  1.00  0.00     0.049 A 
ATOM     59  H   UNL A   1      45.748  30.495  29.713  1.00  0.00     0.167 HD
ATOM     60  C   UNL A   1      43.206  29.398  30.823  1.00  0.00     0.074 A 
ATOM     61  C   UNL A   1      43.080  30.298  29.676  1.00  0.00     0.031 C 
ATOM     62  C   UNL A   1      44.269  28.694  31.318  1.00  0.00     0.037 A 
BRANCH  49  63
ATOM     63  C   UNL A   1      46.967  30.539  26.984  1.00  0.00     0.058 A 
ATOM     64  C   UNL A   1      48.236  31.163  27.022  1.00  0.00     0.135 A 
ATOM     65  C   UNL A   1      45.889  31.395  26.675  1.00  0.00     0.135 A 
ATOM     66  F   UNL A   1      49.346  30.447  27.263  1.00  0.00    -0.206 F 
ATOM     67  C   UNL A   1      48.399  32.543  26.904  1.00  0.00     0.059 A 
ATOM     68  C   UNL A   1      46.037  32.768  26.505  1.00  0.00     0.059 A 
ATOM     69  F   UNL A   1      44.623  30.974  26.609  1.00  0.00    -0.206 F 
ATOM     70  C   UNL A   1      47.285  33.340  26.675  1.00  0.00     0.060 A 
BRANCH  70  71
ATOM     71  S   UNL A   1      47.468  35.130  26.656  1.00  0.00     0.124 S 
ATOM     72  O   UNL A   1      48.543  35.318  27.625  1.00  0.00    -0.237 OA
ATOM     73  O   UNL A   1      47.810  35.384  25.260  1.00  0.00    -0.237 OA
ATOM     74  O   UNL A   1      46.153  35.606  27.072  1.00  0.00    -0.744 OA
ENDBRANCH  70  71
ENDBRANCH  49  63
BRANCH  50  75
ATOM     75  C   UNL A   1      38.740  29.116  29.217  1.00  0.00     0.058 A 
ATOM     76  C   UNL A   1      37.801  29.428  30.217  1.00  0.00     0.135 A 
ATOM     77  C   UNL A   1      38.432  29.572  27.918  1.00  0.00     0.135 A 
ATOM     78  F   UNL A   1      38.025  29.061  31.487  1.00  0.00    -0.206 F 
ATOM     79  C   UNL A   1      36.638  30.166  29.949  1.00  0.00     0.059 A 
ATOM     80  C   UNL A   1      37.281  30.307  27.627  1.00  0.00     0.059 A 
ATOM     81  F   UNL A   1      39.289  29.385  26.902  1.00  0.00    -0.206 F 
ATOM     82  C   UNL A   1      36.394  30.614  28.650  1.00  0.00     0.060 A 
BRANCH  82  83
ATOM     83  S   UNL A   1      34.963  31.674  28.316  1.00  0.00     0.124 S 
ATOM     84  O   UNL A   1      34.516  32.010  29.663  1.00  0.00    -0.237 OA
ATOM     85  O   UNL A   1      35.556  32.763  27.548  1.00  0.00    -0.237 OA
ATOM     86  O   UNL A   1      34.065  30.801  27.563  1.00  0.00    -0.744 OA
ENDBRANCH  82  83
ENDBRANCH  50  75
BRANCH  62  87
ATOM     87  C   UNL A   1      44.020  27.715  32.440  1.00  0.00     0.058 A 
ATOM     88  C   UNL A   1      43.881  26.325  32.275  1.00  0.00     0.135 A 
ATOM     89  C   UNL A   1      44.119  28.194  33.754  1.00  0.00     0.135 A 
ATOM     90  F   UNL A   1      43.873  25.772  31.056  1.00  0.00    -0.206 F 
ATOM     91  C   UNL A   1      43.817  25.455  33.368  1.00  0.00     0.059 A 
ATOM     92  C   UNL A   1      44.089  27.345  34.855  1.00  0.00     0.059 A 
ATOM     93  F   UNL A   1      44.318  29.504  33.975  1.00  0.00    -0.206 F 
ATOM     94  C   UNL A   1      43.928  25.976  34.656  1.00  0.00     0.060 A 
BRANCH  94  95
ATOM     95  S   UNL A   1      43.930  24.849  36.066  1.00  0.00     0.124 S 
ATOM     96  O   UNL A   1      42.594  24.268  35.996  1.00  0.00    -0.237 OA
ATOM     97  O   UNL A   1      45.033  23.945  35.748  1.00  0.00    -0.237 OA
ATOM     98  O   UNL A   1      44.169  25.729  37.207  1.00  0.00    -0.744 OA
ENDBRANCH  94  95
ENDBRANCH  62  87
ENDBRANCH  36  37
ENDBRANCH  28  31
ENDBRANCH  26  27
ENDBRANCH  25  26
ENDBRANCH   1  25
TORSDOF 18
ENDMDL
MODEL 3
REMARK VINA RESULT:     -12.0      1.432      2.836
REMARK SMILES C[NH2+]CCC(=O)N1Cc2nc[nH]c2C[C@H]1C(=O)NCCCCNC(=O)c1ccc(-c2c3nc(c(-c4c(F)cc(S(=O)(=O)[O-])cc4F)c4ccc([nH]4)c(-c4c(F)cc(S(=O)(=O)[O-])cc4F)c4nc(c(-c5c(F)cc(S(=O)(=O)[O-])cc5F)c5ccc2[nH]5)C=C4)C=C3)cc1
REMARK SMILES IDX 20 1 19 2 18 3 16 4 17 5 15 7 7 8 8 9 9 10 14 11 10 12 13 13
REMARK SMILES IDX 11 14 12 15 5 17 6 18 4 19 3 20 2 21 1 22 21 25 22 26 23 27
REMARK SMILES IDX 24 28 25 30 26 31 27 32 91 33 28 34 90 35 29 36 30 37 31 38
REMARK SMILES IDX 84 39 32 40 89 41 83 42 85 43 33 44 88 45 82 46 81 47 34 49
REMARK SMILES IDX 68 50 47 51 67 52 48 53 51 54 66 55 86 56 49 57 50 58 65 60
REMARK SMILES IDX 87 61 52 62 35 63 36 64 45 65 37 66 38 67 44 68 46 69 39 70
REMARK SMILES IDX 40 71 41 72 42 73 43 74 69 75 70 76 79 77 71 78 72 79 78 80
REMARK SMILES IDX 80 81 73 82 74 83 75 84 76 85 77 86 53 87 54 88 63 89 55 90
REMARK SMILES IDX 56 91 62 92 64 93 57 94 58 95 59 96 60 97 61 98
REMARK H PARENT 18 6 12 16 2 23 2 24 23 29 85 48 51 59
REMARK Flexibility Score: inf
ROOT
ATOM      1  C   UNL A   1      35.395  22.831  24.136  1.00  0.00     0.023 C 
ENDROOT
BRANCH   1   2
ATOM      2  C   UNL A   1      34.896  24.255  24.375  1.00  0.00     0.116 C 
BRANCH   2   3
ATOM      3  N   UNL A   1      34.044  24.754  23.318  1.00  0.00    -0.354 N 
ATOM      4  C   UNL A   1      33.115  25.741  23.277  1.00  0.00     0.243 C 
ATOM      5  O   UNL A   1      32.880  26.166  22.136  1.00  0.00    -0.273 OA
ATOM      6  H   UNL A   1      34.164  24.287  22.460  1.00  0.00     0.163 HD
BRANCH   4   7
ATOM      7  C   UNL A   1      32.441  26.452  24.490  1.00  0.00     0.180 C 
ATOM      8  N   UNL A   1      32.841  27.828  24.941  1.00  0.00    -0.324 N 
ATOM      9  C   UNL A   1      32.221  28.997  24.291  1.00  0.00     0.178 C 
ATOM     10  C   UNL A   1      30.836  28.692  23.849  1.00  0.00     0.081 A 
ATOM     11  C   UNL A   1      30.894  26.243  24.486  1.00  0.00     0.091 C 
ATOM     12  N   UNL A   1      30.080  29.523  23.065  1.00  0.00    -0.240 NA
ATOM     13  C   UNL A   1      30.246  27.452  23.933  1.00  0.00     0.042 A 
ATOM     14  C   UNL A   1      29.033  28.805  22.711  1.00  0.00     0.197 A 
ATOM     15  N   UNL A   1      29.068  27.546  23.253  1.00  0.00    -0.348 N 
ATOM     16  H   UNL A   1      28.379  26.847  23.167  1.00  0.00     0.167 HD
BRANCH   8  17
ATOM     17  C   UNL A   1      33.526  28.087  26.124  1.00  0.00     0.229 C 
ATOM     18  O   UNL A   1      34.422  27.340  26.528  1.00  0.00    -0.275 OA
BRANCH  17  19
ATOM     19  C   UNL A   1      33.051  29.199  27.045  1.00  0.00     0.161 C 
BRANCH  19  20
ATOM     20  C   UNL A   1      34.032  30.324  27.379  1.00  0.00     0.270 C 
BRANCH  20  21
ATOM     21  N   UNL A   1      35.439  30.180  27.005  1.00  0.00    -0.348 N 
ATOM     22  C   UNL A   1      36.330  29.731  28.065  1.00  0.00     0.330 C 
ATOM     23  H   UNL A   1      35.494  29.504  26.243  1.00  0.00     0.346 HD
ATOM     24  H   UNL A   1      35.757  31.115  26.751  1.00  0.00     0.346 HD
ENDBRANCH  20  21
ENDBRANCH  19  20
ENDBRANCH  17  19
ENDBRANCH   8  17
ENDBRANCH   4   7
ENDBRANCH   2   3
ENDBRANCH   1   2
BRANCH   1  25
ATOM     25  C   UNL A   1      36.910  22.635  24.256  1.00  0.00     0.023 C 
BRANCH  25  26
ATOM     26  C   UNL A   1      37.541  23.253  25.499  1.00  0.00     0.116 C 
BRANCH  26  27
ATOM     27  N   UNL A   1      38.355  22.320  26.285  1.00  0.00    -0.352 N 
ATOM     28  C   UNL A   1      39.579  22.587  26.887  1.00  0.00     0.251 C 
ATOM     29  H   UNL A   1      37.996  21.410  26.398  1.00  0.00     0.163 HD
ATOM     30  O   UNL A   1      40.374  21.711  27.162  1.00  0.00    -0.269 OA
BRANCH  28  31
ATOM     31  C   UNL A   1      39.846  23.994  27.236  1.00  0.00     0.039 A 
ATOM     32  C   UNL A   1      38.886  25.006  27.139  1.00  0.00     0.014 A 
ATOM     33  C   UNL A   1      41.105  24.231  27.777  1.00  0.00     0.014 A 
ATOM     34  C   UNL A   1      39.193  26.260  27.669  1.00  0.00     0.010 A 
ATOM     35  C   UNL A   1      41.312  25.380  28.479  1.00  0.00     0.010 A 
ATOM     36  C   UNL A   1      40.409  26.428  28.346  1.00  0.00    -0.014 A 
BRANCH  36  37
ATOM     37  C   UNL A   1      40.775  27.658  29.030  1.00  0.00     0.031 A 
ATOM     38  C   UNL A   1      41.874  28.416  28.375  1.00  0.00     0.074 A 
ATOM     39  C   UNL A   1      39.968  28.182  29.980  1.00  0.00     0.049 A 
ATOM     40  N   UNL A   1      43.095  28.539  28.778  1.00  0.00    -0.248 NA
ATOM     41  C   UNL A   1      41.653  28.937  27.013  1.00  0.00     0.031 C 
ATOM     42  C   UNL A   1      38.673  27.672  30.462  1.00  0.00     0.029 A 
ATOM     43  N   UNL A   1      40.078  29.358  30.649  1.00  0.00    -0.354 N 
ATOM     44  C   UNL A   1      43.710  29.392  27.863  1.00  0.00     0.074 A 
ATOM     45  C   UNL A   1      42.873  29.376  26.696  1.00  0.00     0.031 C 
ATOM     46  C   UNL A   1      38.028  28.634  31.154  1.00  0.00     0.029 A 
ATOM     47  C   UNL A   1      38.926  29.759  31.324  1.00  0.00     0.049 A 
ATOM     48  H   UNL A   1      40.909  29.886  30.659  1.00  0.00     0.167 HD
ATOM     49  C   UNL A   1      44.685  30.259  28.264  1.00  0.00     0.037 A 
ATOM     50  C   UNL A   1      38.730  30.941  31.963  1.00  0.00     0.037 A 
ATOM     51  C   UNL A   1      45.123  29.930  29.602  1.00  0.00     0.049 A 
ATOM     52  C   UNL A   1      40.083  31.499  32.235  1.00  0.00     0.074 A 
ATOM     53  C   UNL A   1      45.701  28.826  30.198  1.00  0.00     0.029 A 
ATOM     54  N   UNL A   1      44.600  30.684  30.628  1.00  0.00    -0.354 N 
ATOM     55  N   UNL A   1      40.946  30.923  33.031  1.00  0.00    -0.248 NA
ATOM     56  C   UNL A   1      40.657  32.386  31.236  1.00  0.00     0.031 C 
ATOM     57  C   UNL A   1      45.085  28.738  31.481  1.00  0.00     0.029 A 
ATOM     58  C   UNL A   1      44.237  29.837  31.641  1.00  0.00     0.049 A 
ATOM     59  H   UNL A   1      44.503  31.663  30.632  1.00  0.00     0.167 HD
ATOM     60  C   UNL A   1      42.167  31.028  32.375  1.00  0.00     0.074 A 
ATOM     61  C   UNL A   1      41.937  32.006  31.311  1.00  0.00     0.031 C 
ATOM     62  C   UNL A   1      43.150  30.096  32.562  1.00  0.00     0.037 A 
BRANCH  49  63
ATOM     63  C   UNL A   1      44.949  31.635  27.676  1.00  0.00     0.058 A 
ATOM     64  C   UNL A   1      46.185  31.858  27.026  1.00  0.00     0.135 A 
ATOM     65  C   UNL A   1      44.210  32.800  27.972  1.00  0.00     0.135 A 
ATOM     66  F   UNL A   1      46.961  30.827  26.654  1.00  0.00    -0.206 F 
ATOM     67  C   UNL A   1      46.704  33.135  26.817  1.00  0.00     0.059 A 
ATOM     68  C   UNL A   1      44.688  34.082  27.727  1.00  0.00     0.059 A 
ATOM     69  F   UNL A   1      43.028  32.772  28.593  1.00  0.00    -0.206 F 
ATOM     70  C   UNL A   1      45.958  34.242  27.200  1.00  0.00     0.060 A 
BRANCH  70  71
ATOM     71  S   UNL A   1      46.677  35.885  27.057  1.00  0.00     0.124 S 
ATOM     72  O   UNL A   1      45.565  36.724  27.491  1.00  0.00    -0.237 OA
ATOM     73  O   UNL A   1      47.810  35.798  27.973  1.00  0.00    -0.237 OA
ATOM     74  O   UNL A   1      47.025  35.977  25.643  1.00  0.00    -0.744 OA
ENDBRANCH  70  71
ENDBRANCH  49  63
BRANCH  50  75
ATOM     75  C   UNL A   1      37.480  31.746  32.024  1.00  0.00     0.058 A 
ATOM     76  C   UNL A   1      36.839  32.048  33.239  1.00  0.00     0.135 A 
ATOM     77  C   UNL A   1      37.030  32.462  30.895  1.00  0.00     0.135 A 
ATOM     78  F   UNL A   1      37.223  31.439  34.370  1.00  0.00    -0.206 F 
ATOM     79  C   UNL A   1      35.827  33.016  33.333  1.00  0.00     0.059 A 
ATOM     80  C   UNL A   1      36.025  33.428  30.963  1.00  0.00     0.059 A 
ATOM     81  F   UNL A   1      37.615  32.298  29.698  1.00  0.00    -0.206 F 
ATOM     82  C   UNL A   1      35.436  33.713  32.188  1.00  0.00     0.060 A 
BRANCH  82  83
ATOM     83  S   UNL A   1      34.222  35.051  32.317  1.00  0.00     0.124 S 
ATOM     84  O   UNL A   1      34.038  35.427  30.920  1.00  0.00    -0.237 OA
ATOM     85  O   UNL A   1      33.092  34.384  32.954  1.00  0.00    -0.237 OA
ATOM     86  O   UNL A   1      34.903  36.045  33.144  1.00  0.00    -0.744 OA
ENDBRANCH  82  83
ENDBRANCH  50  75
BRANCH  62  87
ATOM     87  C   UNL A   1      43.004  29.118  33.702  1.00  0.00     0.058 A 
ATOM     88  C   UNL A   1      43.216  29.429  35.057  1.00  0.00     0.135 A 
ATOM     89  C   UNL A   1      42.438  27.868  33.416  1.00  0.00     0.135 A 
ATOM     90  F   UNL A   1      43.663  30.636  35.426  1.00  0.00    -0.206 F 
ATOM     91  C   UNL A   1      42.904  28.527  36.079  1.00  0.00     0.059 A 
ATOM     92  C   UNL A   1      42.092  26.966  34.417  1.00  0.00     0.059 A 
ATOM     93  F   UNL A   1      42.151  27.537  32.146  1.00  0.00    -0.206 F 
ATOM     94  C   UNL A   1      42.337  27.298  35.747  1.00  0.00     0.060 A 
BRANCH  94  95
ATOM     95  S   UNL A   1      41.855  26.164  37.067  1.00  0.00     0.124 S 
ATOM     96  O   UNL A   1      40.583  26.728  37.507  1.00  0.00    -0.237 OA
ATOM     97  O   UNL A   1      41.774  24.883  36.371  1.00  0.00    -0.237 OA
ATOM     98  O   UNL A   1      42.951  26.272  38.028  1.00  0.00    -0.744 OA
ENDBRANCH  94  95
ENDBRANCH  62  87
ENDBRANCH  36  37
ENDBRANCH  28  31
ENDBRANCH  26  27
ENDBRANCH  25  26
ENDBRANCH   1  25
TORSDOF 18
ENDMDL
