MODEL 1
REMARK VINA RESULT:     -10.1      0.000      0.000
REMARK SMILES CC[C@H](O)C[C@@H](Cc1ccccc1OC)C(=O)NCCCCNC(=O)c1ccc(-c2c3nc(c(-c4c(F)cc(S(=O)(=O)[O-])cc4F)c4ccc([nH]4)c(-c4c(F)cc(S(=O)(=O)[O-])cc4F)c4nc(c(-c5c(F)cc(S(=O)(=O)[O-])cc5F)c5ccc2[nH]5)C=C4)C=C3)cc1
REMARK SMILES IDX 20 1 19 2 18 3 16 4 17 5 6 7 5 8 3 9 2 10 1 11 4 12 7 14
REMARK SMILES IDX 8 15 9 16 13 17 10 18 12 19 11 20 14 21 15 22 21 23 22 24
REMARK SMILES IDX 23 25 24 26 25 28 26 29 27 30 91 31 28 32 90 33 29 34 30 35
REMARK SMILES IDX 31 36 84 37 32 38 89 39 83 40 85 41 33 42 88 43 82 44 81 45
REMARK SMILES IDX 34 47 68 48 47 49 67 50 48 51 51 52 66 53 86 54 49 55 50 56
REMARK SMILES IDX 65 58 87 59 52 60 35 61 36 62 45 63 37 64 38 65 44 66 46 67
REMARK SMILES IDX 39 68 40 69 41 70 42 71 43 72 69 73 70 74 79 75 71 76 72 77
REMARK SMILES IDX 78 78 80 79 73 80 74 81 75 82 76 83 77 84 53 85 54 86 63 87
REMARK SMILES IDX 55 88 56 89 62 90 64 91 57 92 58 93 59 94 60 95 61 96
REMARK H PARENT 18 6 4 13 23 27 85 46 51 57
REMARK Flexibility Score: inf
ROOT
ATOM      1  C   UNL A   1      41.125  20.742  27.422  1.00  0.00     0.023 C 
ENDROOT
BRANCH   1   2
ATOM      2  C   UNL A   1      42.140  20.373  26.352  1.00  0.00     0.116 C 
BRANCH   2   3
ATOM      3  N   UNL A   1      42.312  21.389  25.332  1.00  0.00    -0.356 N 
ATOM      4  C   UNL A   1      43.314  22.292  25.151  1.00  0.00     0.223 C 
ATOM      5  O   UNL A   1      43.367  22.880  24.066  1.00  0.00    -0.275 OA
ATOM      6  H   UNL A   1      41.589  21.433  24.665  1.00  0.00     0.163 HD
BRANCH   4   7
ATOM      7  C   UNL A   1      44.344  22.624  26.234  1.00  0.00     0.085 C 
BRANCH   7   8
ATOM      8  C   UNL A   1      45.697  21.917  25.983  1.00  0.00     0.045 C 
BRANCH   8   9
ATOM      9  C   UNL A   1      45.965  21.431  24.552  1.00  0.00     0.115 C 
BRANCH   9  10
ATOM     10  C   UNL A   1      46.655  20.054  24.548  1.00  0.00     0.028 C 
ATOM     11  C   UNL A   1      45.853  18.940  25.206  1.00  0.00     0.006 C 
ENDBRANCH   9  10
BRANCH   9  12
ATOM     12  O   UNL A   1      46.755  22.361  23.820  1.00  0.00    -0.393 OA
ATOM     13  H   UNL A   1      46.240  22.704  23.072  1.00  0.00     0.210 HD
ENDBRANCH   9  12
ENDBRANCH   8   9
ENDBRANCH   7   8
BRANCH   7  14
ATOM     14  C   UNL A   1      44.328  24.095  26.712  1.00  0.00     0.053 C 
BRANCH  14  15
ATOM     15  C   UNL A   1      44.474  24.437  28.175  1.00  0.00    -0.005 A 
ATOM     16  C   UNL A   1      43.824  23.603  29.110  1.00  0.00     0.007 A 
ATOM     17  C   UNL A   1      45.241  25.507  28.675  1.00  0.00     0.122 A 
ATOM     18  C   UNL A   1      43.972  23.787  30.486  1.00  0.00     0.001 A 
ATOM     19  C   UNL A   1      45.375  25.691  30.061  1.00  0.00     0.047 A 
ATOM     20  C   UNL A   1      44.750  24.832  30.964  1.00  0.00     0.004 A 
BRANCH  17  21
ATOM     21  O   UNL A   1      46.083  26.298  27.941  1.00  0.00    -0.496 OA
ATOM     22  C   UNL A   1      45.732  27.670  27.824  1.00  0.00     0.278 C 
ENDBRANCH  17  21
ENDBRANCH  14  15
ENDBRANCH   7  14
ENDBRANCH   4   7
ENDBRANCH   2   3
ENDBRANCH   1   2
BRANCH   1  23
ATOM     23  C   UNL A   1      40.040  21.712  26.954  1.00  0.00     0.023 C 
BRANCH  23  24
ATOM     24  C   UNL A   1      40.255  23.186  27.302  1.00  0.00     0.116 C 
BRANCH  24  25
ATOM     25  N   UNL A   1      40.631  24.017  26.165  1.00  0.00    -0.352 N 
ATOM     26  C   UNL A   1      40.980  25.348  26.150  1.00  0.00     0.251 C 
ATOM     27  H   UNL A   1      40.635  23.565  25.289  1.00  0.00     0.163 HD
ATOM     28  O   UNL A   1      41.216  25.921  25.091  1.00  0.00    -0.269 OA
BRANCH  26  29
ATOM     29  C   UNL A   1      41.032  26.088  27.428  1.00  0.00     0.039 A 
ATOM     30  C   UNL A   1      42.093  26.964  27.663  1.00  0.00     0.014 A 
ATOM     31  C   UNL A   1      39.990  25.970  28.353  1.00  0.00     0.014 A 
ATOM     32  C   UNL A   1      42.060  27.800  28.780  1.00  0.00     0.010 A 
ATOM     33  C   UNL A   1      39.930  26.845  29.434  1.00  0.00     0.010 A 
ATOM     34  C   UNL A   1      40.953  27.783  29.646  1.00  0.00    -0.014 A 
BRANCH  34  35
ATOM     35  C   UNL A   1      40.817  28.782  30.738  1.00  0.00     0.031 A 
ATOM     36  C   UNL A   1      41.658  28.676  31.978  1.00  0.00     0.074 A 
ATOM     37  C   UNL A   1      39.868  29.736  30.645  1.00  0.00     0.049 A 
ATOM     38  N   UNL A   1      41.625  29.409  33.061  1.00  0.00    -0.248 NA
ATOM     39  C   UNL A   1      42.647  27.588  32.017  1.00  0.00     0.031 C 
ATOM     40  C   UNL A   1      38.946  29.905  29.518  1.00  0.00     0.029 A 
ATOM     41  N   UNL A   1      39.510  30.733  31.517  1.00  0.00    -0.354 N 
ATOM     42  C   UNL A   1      42.578  28.867  33.915  1.00  0.00     0.074 A 
ATOM     43  C   UNL A   1      43.141  27.716  33.240  1.00  0.00     0.031 C 
ATOM     44  C   UNL A   1      38.141  30.952  29.761  1.00  0.00     0.029 A 
ATOM     45  C   UNL A   1      38.464  31.508  31.071  1.00  0.00     0.049 A 
ATOM     46  H   UNL A   1      39.959  30.880  32.380  1.00  0.00     0.167 HD
ATOM     47  C   UNL A   1      42.962  29.301  35.139  1.00  0.00     0.037 A 
ATOM     48  C   UNL A   1      37.830  32.544  31.654  1.00  0.00     0.037 A 
ATOM     49  C   UNL A   1      42.415  30.459  35.796  1.00  0.00     0.049 A 
ATOM     50  C   UNL A   1      38.282  33.014  33.009  1.00  0.00     0.074 A 
ATOM     51  C   UNL A   1      42.787  31.019  37.007  1.00  0.00     0.029 A 
ATOM     52  N   UNL A   1      41.376  31.235  35.302  1.00  0.00    -0.354 N 
ATOM     53  N   UNL A   1      39.236  32.533  33.770  1.00  0.00    -0.248 NA
ATOM     54  C   UNL A   1      37.576  34.168  33.583  1.00  0.00     0.031 C 
ATOM     55  C   UNL A   1      41.949  32.110  37.261  1.00  0.00     0.029 A 
ATOM     56  C   UNL A   1      41.082  32.256  36.191  1.00  0.00     0.049 A 
ATOM     57  H   UNL A   1      40.916  31.083  34.444  1.00  0.00     0.167 HD
ATOM     58  C   UNL A   1      39.257  33.337  34.905  1.00  0.00     0.074 A 
ATOM     59  C   UNL A   1      38.230  34.344  34.724  1.00  0.00     0.031 C 
ATOM     60  C   UNL A   1      40.056  33.250  35.998  1.00  0.00     0.037 A 
BRANCH  47  61
ATOM     61  C   UNL A   1      44.034  28.520  35.846  1.00  0.00     0.058 A 
ATOM     62  C   UNL A   1      43.718  27.464  36.715  1.00  0.00     0.135 A 
ATOM     63  C   UNL A   1      45.390  28.810  35.633  1.00  0.00     0.135 A 
ATOM     64  F   UNL A   1      42.436  27.154  36.965  1.00  0.00    -0.206 F 
ATOM     65  C   UNL A   1      44.709  26.740  37.370  1.00  0.00     0.059 A 
ATOM     66  C   UNL A   1      46.399  28.083  36.259  1.00  0.00     0.059 A 
ATOM     67  F   UNL A   1      45.747  29.811  34.812  1.00  0.00    -0.206 F 
ATOM     68  C   UNL A   1      46.048  27.060  37.138  1.00  0.00     0.060 A 
BRANCH  68  69
ATOM     69  S   UNL A   1      47.323  26.114  37.997  1.00  0.00     0.124 S 
ATOM     70  O   UNL A   1      48.364  27.123  38.172  1.00  0.00    -0.237 OA
ATOM     71  O   UNL A   1      46.636  25.694  39.215  1.00  0.00    -0.237 OA
ATOM     72  O   UNL A   1      47.639  25.041  37.059  1.00  0.00    -0.744 OA
ENDBRANCH  68  69
ENDBRANCH  47  61
BRANCH  48  73
ATOM     73  C   UNL A   1      36.714  33.223  30.945  1.00  0.00     0.058 A 
ATOM     74  C   UNL A   1      35.379  32.933  31.263  1.00  0.00     0.135 A 
ATOM     75  C   UNL A   1      36.958  34.185  29.954  1.00  0.00     0.135 A 
ATOM     76  F   UNL A   1      35.097  32.014  32.199  1.00  0.00    -0.206 F 
ATOM     77  C   UNL A   1      34.323  33.565  30.615  1.00  0.00     0.059 A 
ATOM     78  C   UNL A   1      35.919  34.847  29.308  1.00  0.00     0.059 A 
ATOM     79  F   UNL A   1      38.218  34.510  29.627  1.00  0.00    -0.206 F 
ATOM     80  C   UNL A   1      34.603  34.524  29.640  1.00  0.00     0.060 A 
BRANCH  80  81
ATOM     81  S   UNL A   1      33.226  35.381  28.846  1.00  0.00     0.124 S 
ATOM     82  O   UNL A   1      33.927  36.327  27.985  1.00  0.00    -0.237 OA
ATOM     83  O   UNL A   1      32.534  34.290  28.167  1.00  0.00    -0.237 OA
ATOM     84  O   UNL A   1      32.504  35.965  29.972  1.00  0.00    -0.744 OA
ENDBRANCH  80  81
ENDBRANCH  48  73
BRANCH  60  85
ATOM     85  C   UNL A   1      39.864  34.279  37.075  1.00  0.00     0.058 A 
ATOM     86  C   UNL A   1      40.507  35.525  37.022  1.00  0.00     0.135 A 
ATOM     87  C   UNL A   1      38.993  34.034  38.148  1.00  0.00     0.135 A 
ATOM     88  F   UNL A   1      41.356  35.806  36.021  1.00  0.00    -0.206 F 
ATOM     89  C   UNL A   1      40.307  36.487  38.006  1.00  0.00     0.059 A 
ATOM     90  C   UNL A   1      38.760  34.990  39.132  1.00  0.00     0.059 A 
ATOM     91  F   UNL A   1      38.347  32.861  38.240  1.00  0.00    -0.206 F 
ATOM     92  C   UNL A   1      39.431  36.211  39.058  1.00  0.00     0.060 A 
BRANCH  92  93
ATOM     93  S   UNL A   1      39.153  37.479  40.313  1.00  0.00     0.124 S 
ATOM     94  O   UNL A   1      38.540  36.701  41.385  1.00  0.00    -0.237 OA
ATOM     95  O   UNL A   1      40.505  37.964  40.574  1.00  0.00    -0.237 OA
ATOM     96  O   UNL A   1      38.271  38.430  39.643  1.00  0.00    -0.744 OA
ENDBRANCH  92  93
ENDBRANCH  60  85
ENDBRANCH  34  35
ENDBRANCH  26  29
ENDBRANCH  24  25
ENDBRANCH  23  24
ENDBRANCH   1  23
TORSDOF 21
ENDMDL
MODEL 2
REMARK VINA RESULT:      -9.8      5.976      9.108
REMARK SMILES CC[C@H](O)C[C@@H](Cc1ccccc1OC)C(=O)NCCCCNC(=O)c1ccc(-c2c3nc(c(-c4c(F)cc(S(=O)(=O)[O-])cc4F)c4ccc([nH]4)c(-c4c(F)cc(S(=O)(=O)[O-])cc4F)c4nc(c(-c5c(F)cc(S(=O)(=O)[O-])cc5F)c5ccc2[nH]5)C=C4)C=C3)cc1
REMARK SMILES IDX 20 1 19 2 18 3 16 4 17 5 6 7 5 8 3 9 2 10 1 11 4 12 7 14
REMARK SMILES IDX 8 15 9 16 13 17 10 18 12 19 11 20 14 21 15 22 21 23 22 24
REMARK SMILES IDX 23 25 24 26 25 28 26 29 27 30 91 31 28 32 90 33 29 34 30 35
REMARK SMILES IDX 31 36 84 37 32 38 89 39 83 40 85 41 33 42 88 43 82 44 81 45
REMARK SMILES IDX 34 47 68 48 47 49 67 50 48 51 51 52 66 53 86 54 49 55 50 56
REMARK SMILES IDX 65 58 87 59 52 60 35 61 36 62 45 63 37 64 38 65 44 66 46 67
REMARK SMILES IDX 39 68 40 69 41 70 42 71 43 72 69 73 70 74 79 75 71 76 72 77
REMARK SMILES IDX 78 78 80 79 73 80 74 81 75 82 76 83 77 84 53 85 54 86 63 87
REMARK SMILES IDX 55 88 56 89 62 90 64 91 57 92 58 93 59 94 60 95 61 96
REMARK H PARENT 18 6 4 13 23 27 85 46 51 57
REMARK Flexibility Score: inf
ROOT
ATOM      1  C   UNL A   1      34.400  21.909  25.128  1.00  0.00     0.023 C 
ENDROOT
BRANCH   1   2
ATOM      2  C   UNL A   1      33.070  22.586  24.834  1.00  0.00     0.116 C 
BRANCH   2   3
ATOM      3  N   UNL A   1      32.266  22.836  26.015  1.00  0.00    -0.356 N 
ATOM      4  C   UNL A   1      31.390  23.842  26.284  1.00  0.00     0.223 C 
ATOM      5  O   UNL A   1      30.634  23.700  27.251  1.00  0.00    -0.275 OA
ATOM      6  H   UNL A   1      32.371  22.174  26.735  1.00  0.00     0.163 HD
BRANCH   4   7
ATOM      7  C   UNL A   1      31.326  25.136  25.468  1.00  0.00     0.085 C 
BRANCH   7   8
ATOM      8  C   UNL A   1      29.893  25.714  25.409  1.00  0.00     0.045 C 
BRANCH   8   9
ATOM      9  C   UNL A   1      29.424  26.256  24.052  1.00  0.00     0.115 C 
BRANCH   9  10
ATOM     10  C   UNL A   1      29.781  27.745  23.890  1.00  0.00     0.028 C 
ATOM     11  C   UNL A   1      30.151  28.160  22.473  1.00  0.00     0.006 C 
ENDBRANCH   9  10
BRANCH   9  12
ATOM     12  O   UNL A   1      28.025  26.079  23.870  1.00  0.00    -0.393 OA
ATOM     13  H   UNL A   1      27.813  26.126  22.924  1.00  0.00     0.210 HD
ENDBRANCH   9  12
ENDBRANCH   8   9
ENDBRANCH   7   8
BRANCH   7  14
ATOM     14  C   UNL A   1      32.527  26.089  25.673  1.00  0.00     0.053 C 
BRANCH  14  15
ATOM     15  C   UNL A   1      33.110  26.863  24.516  1.00  0.00    -0.005 A 
ATOM     16  C   UNL A   1      33.177  26.216  23.264  1.00  0.00     0.007 A 
ATOM     17  C   UNL A   1      33.558  28.196  24.588  1.00  0.00     0.122 A 
ATOM     18  C   UNL A   1      33.619  26.879  22.116  1.00  0.00     0.001 A 
ATOM     19  C   UNL A   1      34.010  28.851  23.431  1.00  0.00     0.047 A 
ATOM     20  C   UNL A   1      34.035  28.201  22.199  1.00  0.00     0.004 A 
BRANCH  17  21
ATOM     21  O   UNL A   1      33.398  29.036  25.657  1.00  0.00    -0.496 OA
ATOM     22  C   UNL A   1      34.368  28.946  26.692  1.00  0.00     0.278 C 
ENDBRANCH  17  21
ENDBRANCH  14  15
ENDBRANCH   7  14
ENDBRANCH   4   7
ENDBRANCH   2   3
ENDBRANCH   1   2
BRANCH   1  23
ATOM     23  C   UNL A   1      35.625  22.695  24.660  1.00  0.00     0.023 C 
BRANCH  23  24
ATOM     24  C   UNL A   1      36.588  23.159  25.754  1.00  0.00     0.116 C 
BRANCH  24  25
ATOM     25  N   UNL A   1      37.682  22.231  26.016  1.00  0.00    -0.352 N 
ATOM     26  C   UNL A   1      38.943  22.502  26.494  1.00  0.00     0.251 C 
ATOM     27  H   UNL A   1      37.492  21.284  25.825  1.00  0.00     0.163 HD
ATOM     28  O   UNL A   1      39.775  21.607  26.604  1.00  0.00    -0.269 OA
BRANCH  26  29
ATOM     29  C   UNL A   1      39.295  23.896  26.837  1.00  0.00     0.039 A 
ATOM     30  C   UNL A   1      39.179  24.318  28.162  1.00  0.00     0.014 A 
ATOM     31  C   UNL A   1      39.811  24.753  25.861  1.00  0.00     0.014 A 
ATOM     32  C   UNL A   1      39.676  25.569  28.531  1.00  0.00     0.010 A 
ATOM     33  C   UNL A   1      40.358  25.975  26.240  1.00  0.00     0.010 A 
ATOM     34  C   UNL A   1      40.316  26.385  27.582  1.00  0.00    -0.014 A 
BRANCH  34  35
ATOM     35  C   UNL A   1      41.004  27.639  27.987  1.00  0.00     0.031 A 
ATOM     36  C   UNL A   1      42.499  27.756  27.885  1.00  0.00     0.074 A 
ATOM     37  C   UNL A   1      40.285  28.641  28.531  1.00  0.00     0.049 A 
ATOM     38  N   UNL A   1      43.276  28.740  28.258  1.00  0.00    -0.248 NA
ATOM     39  C   UNL A   1      43.216  26.607  27.312  1.00  0.00     0.031 C 
ATOM     40  C   UNL A   1      38.835  28.623  28.742  1.00  0.00     0.029 A 
ATOM     41  N   UNL A   1      40.674  29.862  29.020  1.00  0.00    -0.354 N 
ATOM     42  C   UNL A   1      44.572  28.327  27.977  1.00  0.00     0.074 A 
ATOM     43  C   UNL A   1      44.480  26.985  27.443  1.00  0.00     0.031 C 
ATOM     44  C   UNL A   1      38.456  29.783  29.302  1.00  0.00     0.029 A 
ATOM     45  C   UNL A   1      39.636  30.614  29.520  1.00  0.00     0.049 A 
ATOM     46  H   UNL A   1      41.608  30.172  29.014  1.00  0.00     0.167 HD
ATOM     47  C   UNL A   1      45.731  29.012  28.132  1.00  0.00     0.037 A 
ATOM     48  C   UNL A   1      39.634  31.831  30.098  1.00  0.00     0.037 A 
ATOM     49  C   UNL A   1      45.816  30.355  28.643  1.00  0.00     0.049 A 
ATOM     50  C   UNL A   1      40.931  32.576  30.249  1.00  0.00     0.074 A 
ATOM     51  C   UNL A   1      46.937  31.158  28.773  1.00  0.00     0.029 A 
ATOM     52  N   UNL A   1      44.740  31.094  29.114  1.00  0.00    -0.354 N 
ATOM     53  N   UNL A   1      42.140  32.198  29.910  1.00  0.00    -0.248 NA
ATOM     54  C   UNL A   1      40.865  33.912  30.856  1.00  0.00     0.031 C 
ATOM     55  C   UNL A   1      46.543  32.368  29.355  1.00  0.00     0.029 A 
ATOM     56  C   UNL A   1      45.173  32.335  29.552  1.00  0.00     0.049 A 
ATOM     57  H   UNL A   1      43.806  30.782  29.133  1.00  0.00     0.167 HD
ATOM     58  C   UNL A   1      42.977  33.257  30.245  1.00  0.00     0.074 A 
ATOM     59  C   UNL A   1      42.134  34.296  30.801  1.00  0.00     0.031 C 
ATOM     60  C   UNL A   1      44.322  33.359  30.104  1.00  0.00     0.037 A 
BRANCH  47  61
ATOM     61  C   UNL A   1      47.004  28.318  27.735  1.00  0.00     0.058 A 
ATOM     62  C   UNL A   1      47.509  28.405  26.428  1.00  0.00     0.135 A 
ATOM     63  C   UNL A   1      47.742  27.583  28.676  1.00  0.00     0.135 A 
ATOM     64  F   UNL A   1      46.835  29.083  25.486  1.00  0.00    -0.206 F 
ATOM     65  C   UNL A   1      48.686  27.763  26.059  1.00  0.00     0.059 A 
ATOM     66  C   UNL A   1      48.936  26.953  28.335  1.00  0.00     0.059 A 
ATOM     67  F   UNL A   1      47.304  27.468  29.939  1.00  0.00    -0.206 F 
ATOM     68  C   UNL A   1      49.392  27.035  27.020  1.00  0.00     0.060 A 
BRANCH  68  69
ATOM     69  S   UNL A   1      50.917  26.206  26.527  1.00  0.00     0.124 S 
ATOM     70  O   UNL A   1      50.740  26.111  25.081  1.00  0.00    -0.237 OA
ATOM     71  O   UNL A   1      51.944  27.141  26.979  1.00  0.00    -0.237 OA
ATOM     72  O   UNL A   1      50.865  24.940  27.251  1.00  0.00    -0.744 OA
ENDBRANCH  68  69
ENDBRANCH  47  61
BRANCH  48  73
ATOM     73  C   UNL A   1      38.353  32.432  30.556  1.00  0.00     0.058 A 
ATOM     74  C   UNL A   1      37.590  33.236  29.698  1.00  0.00     0.135 A 
ATOM     75  C   UNL A   1      37.859  32.199  31.848  1.00  0.00     0.135 A 
ATOM     76  F   UNL A   1      38.025  33.493  28.455  1.00  0.00    -0.206 F 
ATOM     77  C   UNL A   1      36.385  33.799  30.107  1.00  0.00     0.059 A 
ATOM     78  C   UNL A   1      36.647  32.733  32.274  1.00  0.00     0.059 A 
ATOM     79  F   UNL A   1      38.545  31.422  32.701  1.00  0.00    -0.206 F 
ATOM     80  C   UNL A   1      35.921  33.539  31.398  1.00  0.00     0.060 A 
BRANCH  80  81
ATOM     81  S   UNL A   1      34.328  34.227  31.901  1.00  0.00     0.124 S 
ATOM     82  O   UNL A   1      33.654  34.374  30.617  1.00  0.00    -0.237 OA
ATOM     83  O   UNL A   1      33.808  33.186  32.782  1.00  0.00    -0.237 OA
ATOM     84  O   UNL A   1      34.698  35.472  32.567  1.00  0.00    -0.744 OA
ENDBRANCH  80  81
ENDBRANCH  48  73
BRANCH  60  85
ATOM     85  C   UNL A   1      44.964  34.644  30.542  1.00  0.00     0.058 A 
ATOM     86  C   UNL A   1      45.465  34.810  31.842  1.00  0.00     0.135 A 
ATOM     87  C   UNL A   1      45.122  35.707  29.637  1.00  0.00     0.135 A 
ATOM     88  F   UNL A   1      45.332  33.827  32.747  1.00  0.00    -0.206 F 
ATOM     89  C   UNL A   1      46.084  35.991  32.237  1.00  0.00     0.059 A 
ATOM     90  C   UNL A   1      45.758  36.888  30.003  1.00  0.00     0.059 A 
ATOM     91  F   UNL A   1      44.668  35.596  28.379  1.00  0.00    -0.206 F 
ATOM     92  C   UNL A   1      46.226  37.026  31.310  1.00  0.00     0.060 A 
BRANCH  92  93
ATOM     93  S   UNL A   1      47.061  38.542  31.822  1.00  0.00     0.124 S 
ATOM     94  O   UNL A   1      48.272  38.015  32.443  1.00  0.00    -0.237 OA
ATOM     95  O   UNL A   1      47.250  39.240  30.554  1.00  0.00    -0.237 OA
ATOM     96  O   UNL A   1      46.106  39.163  32.735  1.00  0.00    -0.744 OA
ENDBRANCH  92  93
ENDBRANCH  60  85
ENDBRANCH  34  35
ENDBRANCH  26  29
ENDBRANCH  24  25
ENDBRANCH  23  24
ENDBRANCH   1  23
TORSDOF 21
ENDMDL
MODEL 3
REMARK VINA RESULT:      -9.8      4.921      7.324
REMARK SMILES CC[C@H](O)C[C@@H](Cc1ccccc1OC)C(=O)NCCCCNC(=O)c1ccc(-c2c3nc(c(-c4c(F)cc(S(=O)(=O)[O-])cc4F)c4ccc([nH]4)c(-c4c(F)cc(S(=O)(=O)[O-])cc4F)c4nc(c(-c5c(F)cc(S(=O)(=O)[O-])cc5F)c5ccc2[nH]5)C=C4)C=C3)cc1
REMARK SMILES IDX 20 1 19 2 18 3 16 4 17 5 6 7 5 8 3 9 2 10 1 11 4 12 7 14
REMARK SMILES IDX 8 15 9 16 13 17 10 18 12 19 11 20 14 21 15 22 21 23 22 24
REMARK SMILES IDX 23 25 24 26 25 28 26 29 27 30 91 31 28 32 90 33 29 34 30 35
REMARK SMILES IDX 31 36 84 37 32 38 89 39 83 40 85 41 33 42 88 43 82 44 81 45
REMARK SMILES IDX 34 47 68 48 47 49 67 50 48 51 51 52 66 53 86 54 49 55 50 56
REMARK SMILES IDX 65 58 87 59 52 60 35 61 36 62 45 63 37 64 38 65 44 66 46 67
REMARK SMILES IDX 39 68 40 69 41 70 42 71 43 72 69 73 70 74 79 75 71 76 72 77
REMARK SMILES IDX 78 78 80 79 73 80 74 81 75 82 76 83 77 84 53 85 54 86 63 87
REMARK SMILES IDX 55 88 56 89 62 90 64 91 57 92 58 93 59 94 60 95 61 96
REMARK H PARENT 18 6 4 13 23 27 85 46 51 57
REMARK Flexibility Score: inf
ROOT
ATOM      1  C   UNL A   1      35.362  22.168  26.441  1.00  0.00     0.023 C 
ENDROOT
BRANCH   1   2
ATOM      2  C   UNL A   1      33.977  21.838  25.904  1.00  0.00     0.116 C 
BRANCH   2   3
ATOM      3  N   UNL A   1      32.895  22.371  26.710  1.00  0.00    -0.356 N 
ATOM      4  C   UNL A   1      32.218  23.547  26.604  1.00  0.00     0.223 C 
ATOM      5  O   UNL A   1      31.168  23.663  27.244  1.00  0.00    -0.275 OA
ATOM      6  H   UNL A   1      32.605  21.791  27.450  1.00  0.00     0.163 HD
BRANCH   4   7
ATOM      7  C   UNL A   1      32.715  24.724  25.761  1.00  0.00     0.085 C 
BRANCH   7   8
ATOM      8  C   UNL A   1      32.551  24.460  24.245  1.00  0.00     0.045 C 
BRANCH   8   9
ATOM      9  C   UNL A   1      33.763  24.775  23.356  1.00  0.00     0.115 C 
BRANCH   9  10
ATOM     10  C   UNL A   1      33.455  25.922  22.376  1.00  0.00     0.028 C 
ATOM     11  C   UNL A   1      32.081  25.851  21.725  1.00  0.00     0.006 C 
ENDBRANCH   9  10
BRANCH   9  12
ATOM     12  O   UNL A   1      34.193  23.631  22.631  1.00  0.00    -0.393 OA
ATOM     13  H   UNL A   1      33.841  23.670  21.727  1.00  0.00     0.210 HD
ENDBRANCH   9  12
ENDBRANCH   8   9
ENDBRANCH   7   8
BRANCH   7  14
ATOM     14  C   UNL A   1      32.375  26.119  26.334  1.00  0.00     0.053 C 
BRANCH  14  15
ATOM     15  C   UNL A   1      31.900  27.234  25.434  1.00  0.00    -0.005 A 
ATOM     16  C   UNL A   1      32.817  28.262  25.127  1.00  0.00     0.007 A 
ATOM     17  C   UNL A   1      30.620  27.304  24.852  1.00  0.00     0.122 A 
ATOM     18  C   UNL A   1      32.499  29.288  24.235  1.00  0.00     0.001 A 
ATOM     19  C   UNL A   1      30.306  28.346  23.964  1.00  0.00     0.047 A 
ATOM     20  C   UNL A   1      31.241  29.330  23.650  1.00  0.00     0.004 A 
BRANCH  17  21
ATOM     21  O   UNL A   1      29.673  26.315  24.882  1.00  0.00    -0.496 OA
ATOM     22  C   UNL A   1      28.677  26.353  23.870  1.00  0.00     0.278 C 
ENDBRANCH  17  21
ENDBRANCH  14  15
ENDBRANCH   7  14
ENDBRANCH   4   7
ENDBRANCH   2   3
ENDBRANCH   1   2
BRANCH   1  23
ATOM     23  C   UNL A   1      35.891  23.540  26.021  1.00  0.00     0.023 C 
BRANCH  23  24
ATOM     24  C   UNL A   1      37.068  23.540  25.043  1.00  0.00     0.116 C 
BRANCH  24  25
ATOM     25  N   UNL A   1      38.143  22.626  25.407  1.00  0.00    -0.352 N 
ATOM     26  C   UNL A   1      39.251  22.868  26.186  1.00  0.00     0.251 C 
ATOM     27  H   UNL A   1      38.067  21.713  25.045  1.00  0.00     0.163 HD
ATOM     28  O   UNL A   1      40.102  22.000  26.351  1.00  0.00    -0.269 OA
BRANCH  26  29
ATOM     29  C   UNL A   1      39.419  24.205  26.794  1.00  0.00     0.039 A 
ATOM     30  C   UNL A   1      38.919  24.435  28.077  1.00  0.00     0.014 A 
ATOM     31  C   UNL A   1      40.140  25.197  26.123  1.00  0.00     0.014 A 
ATOM     32  C   UNL A   1      39.228  25.629  28.730  1.00  0.00     0.010 A 
ATOM     33  C   UNL A   1      40.495  26.362  26.798  1.00  0.00     0.010 A 
ATOM     34  C   UNL A   1      40.062  26.579  28.116  1.00  0.00    -0.014 A 
BRANCH  34  35
ATOM     35  C   UNL A   1      40.544  27.773  28.859  1.00  0.00     0.031 A 
ATOM     36  C   UNL A   1      41.903  27.775  29.499  1.00  0.00     0.074 A 
ATOM     37  C   UNL A   1      39.716  28.823  29.029  1.00  0.00     0.049 A 
ATOM     38  N   UNL A   1      42.461  28.693  30.245  1.00  0.00    -0.248 NA
ATOM     39  C   UNL A   1      42.734  26.578  29.295  1.00  0.00     0.031 C 
ATOM     40  C   UNL A   1      38.349  28.915  28.509  1.00  0.00     0.029 A 
ATOM     41  N   UNL A   1      39.894  30.007  29.698  1.00  0.00    -0.354 N 
ATOM     42  C   UNL A   1      43.701  28.184  30.610  1.00  0.00     0.074 A 
ATOM     43  C   UNL A   1      43.795  26.857  30.039  1.00  0.00     0.031 C 
ATOM     44  C   UNL A   1      37.820  30.097  28.865  1.00  0.00     0.029 A 
ATOM     45  C   UNL A   1      38.795  30.833  29.665  1.00  0.00     0.049 A 
ATOM     46  H   UNL A   1      40.731  30.244  30.159  1.00  0.00     0.167 HD
ATOM     47  C   UNL A   1      44.679  28.776  31.337  1.00  0.00     0.037 A 
ATOM     48  C   UNL A   1      38.589  32.042  30.222  1.00  0.00     0.037 A 
ATOM     49  C   UNL A   1      44.589  30.105  31.884  1.00  0.00     0.049 A 
ATOM     50  C   UNL A   1      39.693  32.683  31.016  1.00  0.00     0.074 A 
ATOM     51  C   UNL A   1      45.554  30.818  32.576  1.00  0.00     0.029 A 
ATOM     52  N   UNL A   1      43.470  30.921  31.806  1.00  0.00    -0.354 N 
ATOM     53  N   UNL A   1      40.888  32.216  31.289  1.00  0.00    -0.248 NA
ATOM     54  C   UNL A   1      39.425  34.016  31.574  1.00  0.00     0.031 C 
ATOM     55  C   UNL A   1      45.005  32.050  32.947  1.00  0.00     0.029 A 
ATOM     56  C   UNL A   1      43.713  32.122  32.453  1.00  0.00     0.049 A 
ATOM     57  H   UNL A   1      42.627  30.682  31.356  1.00  0.00     0.167 HD
ATOM     58  C   UNL A   1      41.521  33.205  32.035  1.00  0.00     0.074 A 
ATOM     59  C   UNL A   1      40.582  34.301  32.157  1.00  0.00     0.031 C 
ATOM     60  C   UNL A   1      42.767  33.204  32.568  1.00  0.00     0.037 A 
BRANCH  47  61
ATOM     61  C   UNL A   1      45.937  27.990  31.577  1.00  0.00     0.058 A 
ATOM     62  C   UNL A   1      46.025  27.047  32.613  1.00  0.00     0.135 A 
ATOM     63  C   UNL A   1      47.056  28.157  30.746  1.00  0.00     0.135 A 
ATOM     64  F   UNL A   1      44.988  26.858  33.445  1.00  0.00    -0.206 F 
ATOM     65  C   UNL A   1      47.188  26.319  32.837  1.00  0.00     0.059 A 
ATOM     66  C   UNL A   1      48.222  27.421  30.936  1.00  0.00     0.059 A 
ATOM     67  F   UNL A   1      47.025  29.046  29.741  1.00  0.00    -0.206 F 
ATOM     68  C   UNL A   1      48.284  26.515  31.995  1.00  0.00     0.060 A 
BRANCH  68  69
ATOM     69  S   UNL A   1      49.788  25.564  32.298  1.00  0.00     0.124 S 
ATOM     70  O   UNL A   1      49.396  24.766  33.456  1.00  0.00    -0.237 OA
ATOM     71  O   UNL A   1      49.953  24.829  31.047  1.00  0.00    -0.237 OA
ATOM     72  O   UNL A   1      50.793  26.591  32.554  1.00  0.00    -0.744 OA
ENDBRANCH  68  69
ENDBRANCH  47  61
BRANCH  48  73
ATOM     73  C   UNL A   1      37.289  32.736  30.027  1.00  0.00     0.058 A 
ATOM     74  C   UNL A   1      36.233  32.552  30.932  1.00  0.00     0.135 A 
ATOM     75  C   UNL A   1      37.082  33.608  28.948  1.00  0.00     0.135 A 
ATOM     76  F   UNL A   1      36.382  31.722  31.976  1.00  0.00    -0.206 F 
ATOM     77  C   UNL A   1      35.013  33.200  30.769  1.00  0.00     0.059 A 
ATOM     78  C   UNL A   1      35.879  34.284  28.775  1.00  0.00     0.059 A 
ATOM     79  F   UNL A   1      38.068  33.830  28.064  1.00  0.00    -0.206 F 
ATOM     80  C   UNL A   1      34.847  34.067  29.687  1.00  0.00     0.060 A 
BRANCH  80  81
ATOM     81  S   UNL A   1      33.280  34.949  29.517  1.00  0.00     0.124 S 
ATOM     82  O   UNL A   1      32.564  34.095  28.576  1.00  0.00    -0.237 OA
ATOM     83  O   UNL A   1      32.777  34.953  30.886  1.00  0.00    -0.237 OA
ATOM     84  O   UNL A   1      33.686  36.254  29.003  1.00  0.00    -0.744 OA
ENDBRANCH  80  81
ENDBRANCH  48  73
BRANCH  60  85
ATOM     85  C   UNL A   1      43.196  34.433  33.319  1.00  0.00     0.058 A 
ATOM     86  C   UNL A   1      43.820  35.509  32.670  1.00  0.00     0.135 A 
ATOM     87  C   UNL A   1      42.939  34.554  34.694  1.00  0.00     0.135 A 
ATOM     88  F   UNL A   1      44.095  35.439  31.358  1.00  0.00    -0.206 F 
ATOM     89  C   UNL A   1      44.192  36.657  33.362  1.00  0.00     0.059 A 
ATOM     90  C   UNL A   1      43.281  35.702  35.401  1.00  0.00     0.059 A 
ATOM     91  F   UNL A   1      42.336  33.556  35.359  1.00  0.00    -0.206 F 
ATOM     92  C   UNL A   1      43.918  36.745  34.728  1.00  0.00     0.060 A 
BRANCH  92  93
ATOM     93  S   UNL A   1      44.373  38.253  35.610  1.00  0.00     0.124 S 
ATOM     94  O   UNL A   1      43.775  38.018  36.920  1.00  0.00    -0.237 OA
ATOM     95  O   UNL A   1      45.832  38.215  35.563  1.00  0.00    -0.237 OA
ATOM     96  O   UNL A   1      43.755  39.310  34.816  1.00  0.00    -0.744 OA
ENDBRANCH  92  93
ENDBRANCH  60  85
ENDBRANCH  34  35
ENDBRANCH  26  29
ENDBRANCH  24  25
ENDBRANCH  23  24
ENDBRANCH   1  23
TORSDOF 21
ENDMDL
