MODEL 1
REMARK VINA RESULT:     -11.7      0.000      0.000
REMARK SMILES O=C(NCCCCNC(=O)[C@@H]1C=C[C@@H](NS(=O)(=O)c2ccc(F)c(F)c2F)C1)c1ccc(-c2c3nc(c(-c4c(F)cc(S(=O)(=O)[O-])cc4F)c4ccc([nH]4)c(-c4c(F)cc(S(=O)(=O)[O-])cc4F)c4nc(c(-c5c(F)cc(S(=O)(=O)[O-])cc5F)c5ccc2[nH]5)C=C4)C=C3)cc1
REMARK SMILES IDX 5 1 4 2 3 3 1 4 2 5 29 7 30 8 94 9 31 10 93 11 32 12 33 13
REMARK SMILES IDX 34 14 87 15 35 16 92 17 86 18 88 19 36 20 91 21 85 22 84 23
REMARK SMILES IDX 37 25 71 26 50 27 70 28 51 29 54 30 69 31 89 32 52 33 53 34
REMARK SMILES IDX 68 36 90 37 55 38 38 39 39 40 48 41 40 42 41 43 47 44 49 45
REMARK SMILES IDX 42 46 43 47 44 48 45 49 46 50 72 51 73 52 82 53 74 54 75 55
REMARK SMILES IDX 81 56 83 57 76 58 77 59 78 60 79 61 80 62 56 63 57 64 66 65
REMARK SMILES IDX 58 66 59 67 65 68 67 69 60 70 61 71 62 72 63 73 64 74 6 75
REMARK SMILES IDX 7 76 8 77 9 78 10 80 11 81 12 82 28 83 13 84 14 85 15 86
REMARK SMILES IDX 16 88 17 89 18 90 19 91 20 92 26 93 21 94 24 95 27 96 22 97
REMARK SMILES IDX 25 98 23 99
REMARK H PARENT 3 6 88 24 54 35 8 79 15 87
REMARK Flexibility Score: inf
ROOT
ATOM      1  C   UNL A   1      33.630  27.687  25.186  1.00  0.00     0.023 C 
ENDROOT
BRANCH   1   2
ATOM      2  C   UNL A   1      34.064  28.065  26.599  1.00  0.00     0.116 C 
BRANCH   2   3
ATOM      3  N   UNL A   1      33.583  29.367  27.033  1.00  0.00    -0.352 N 
ATOM      4  O   UNL A   1      33.730  31.339  28.128  1.00  0.00    -0.269 OA
ATOM      5  C   UNL A   1      34.283  30.317  27.742  1.00  0.00     0.251 C 
ATOM      6  H   UNL A   1      32.656  29.595  26.793  1.00  0.00     0.163 HD
BRANCH   5   7
ATOM      7  C   UNL A   1      35.700  30.050  28.057  1.00  0.00     0.039 A 
ATOM      8  C   UNL A   1      36.671  30.195  27.064  1.00  0.00     0.014 A 
ATOM      9  C   UNL A   1      36.041  29.582  29.328  1.00  0.00     0.014 A 
ATOM     10  C   UNL A   1      37.969  29.763  27.307  1.00  0.00     0.010 A 
ATOM     11  C   UNL A   1      37.361  29.213  29.591  1.00  0.00     0.010 A 
ATOM     12  C   UNL A   1      38.329  29.283  28.578  1.00  0.00    -0.014 A 
BRANCH  12  13
ATOM     13  C   UNL A   1      39.751  28.966  28.850  1.00  0.00     0.031 A 
ATOM     14  C   UNL A   1      40.343  27.635  28.482  1.00  0.00     0.074 A 
ATOM     15  C   UNL A   1      40.504  29.917  29.436  1.00  0.00     0.049 A 
ATOM     16  N   UNL A   1      41.565  27.206  28.668  1.00  0.00    -0.248 NA
ATOM     17  C   UNL A   1      39.457  26.658  27.832  1.00  0.00     0.031 C 
ATOM     18  C   UNL A   1      40.016  31.234  29.856  1.00  0.00     0.029 A 
ATOM     19  N   UNL A   1      41.830  29.931  29.778  1.00  0.00    -0.354 N 
ATOM     20  C   UNL A   1      41.593  25.905  28.180  1.00  0.00     0.074 A 
ATOM     21  C   UNL A   1      40.262  25.610  27.695  1.00  0.00     0.031 C 
ATOM     22  C   UNL A   1      41.033  31.937  30.375  1.00  0.00     0.029 A 
ATOM     23  C   UNL A   1      42.227  31.102  30.378  1.00  0.00     0.049 A 
ATOM     24  H   UNL A   1      42.440  29.177  29.609  1.00  0.00     0.167 HD
ATOM     25  C   UNL A   1      42.639  25.045  28.146  1.00  0.00     0.037 A 
ATOM     26  C   UNL A   1      43.413  31.456  30.906  1.00  0.00     0.037 A 
ATOM     27  C   UNL A   1      43.965  25.366  28.607  1.00  0.00     0.049 A 
ATOM     28  C   UNL A   1      44.547  30.476  30.858  1.00  0.00     0.074 A 
ATOM     29  C   UNL A   1      45.110  24.591  28.541  1.00  0.00     0.029 A 
ATOM     30  N   UNL A   1      44.325  26.553  29.229  1.00  0.00    -0.354 N 
ATOM     31  N   UNL A   1      44.568  29.270  30.342  1.00  0.00    -0.248 NA
ATOM     32  C   UNL A   1      45.812  30.896  31.473  1.00  0.00     0.031 C 
ATOM     33  C   UNL A   1      46.152  25.291  29.161  1.00  0.00     0.029 A 
ATOM     34  C   UNL A   1      45.664  26.517  29.581  1.00  0.00     0.049 A 
ATOM     35  H   UNL A   1      43.716  27.309  29.396  1.00  0.00     0.167 HD
ATOM     36  C   UNL A   1      45.847  28.784  30.575  1.00  0.00     0.074 A 
ATOM     37  C   UNL A   1      46.579  29.837  31.249  1.00  0.00     0.031 C 
ATOM     38  C   UNL A   1      46.367  27.571  30.267  1.00  0.00     0.037 A 
BRANCH  25  39
ATOM     39  C   UNL A   1      42.411  23.663  27.601  1.00  0.00     0.058 A 
ATOM     40  C   UNL A   1      42.404  23.405  26.222  1.00  0.00     0.135 A 
ATOM     41  C   UNL A   1      42.306  22.567  28.474  1.00  0.00     0.135 A 
ATOM     42  F   UNL A   1      42.488  24.419  25.344  1.00  0.00    -0.206 F 
ATOM     43  C   UNL A   1      42.306  22.109  25.726  1.00  0.00     0.059 A 
ATOM     44  C   UNL A   1      42.223  21.260  28.000  1.00  0.00     0.059 A 
ATOM     45  F   UNL A   1      42.304  22.760  29.802  1.00  0.00    -0.206 F 
ATOM     46  C   UNL A   1      42.222  21.042  26.623  1.00  0.00     0.060 A 
BRANCH  46  47
ATOM     47  S   UNL A   1      42.146  19.361  25.964  1.00  0.00     0.124 S 
ATOM     48  O   UNL A   1      42.988  19.476  24.778  1.00  0.00    -0.237 OA
ATOM     49  O   UNL A   1      42.700  18.571  27.059  1.00  0.00    -0.237 OA
ATOM     50  O   UNL A   1      40.723  19.160  25.707  1.00  0.00    -0.744 OA
ENDBRANCH  46  47
ENDBRANCH  25  39
BRANCH  26  51
ATOM     51  C   UNL A   1      43.564  32.779  31.560  1.00  0.00     0.058 A 
ATOM     52  C   UNL A   1      43.984  33.903  30.836  1.00  0.00     0.135 A 
ATOM     53  C   UNL A   1      43.271  32.946  32.922  1.00  0.00     0.135 A 
ATOM     54  F   UNL A   1      44.276  33.790  29.531  1.00  0.00    -0.206 F 
ATOM     55  C   UNL A   1      44.125  35.146  31.444  1.00  0.00     0.059 A 
ATOM     56  C   UNL A   1      43.379  34.182  33.546  1.00  0.00     0.059 A 
ATOM     57  F   UNL A   1      42.844  31.902  33.651  1.00  0.00    -0.206 F 
ATOM     58  C   UNL A   1      43.822  35.274  32.800  1.00  0.00     0.060 A 
BRANCH  58  59
ATOM     59  S   UNL A   1      43.967  36.897  33.580  1.00  0.00     0.124 S 
ATOM     60  O   UNL A   1      45.234  36.766  34.288  1.00  0.00    -0.237 OA
ATOM     61  O   UNL A   1      43.968  37.796  32.429  1.00  0.00    -0.237 OA
ATOM     62  O   UNL A   1      42.774  36.969  34.419  1.00  0.00    -0.744 OA
ENDBRANCH  58  59
ENDBRANCH  26  51
BRANCH  38  63
ATOM     63  C   UNL A   1      47.790  27.324  30.669  1.00  0.00     0.058 A 
ATOM     64  C   UNL A   1      48.854  27.678  29.825  1.00  0.00     0.135 A 
ATOM     65  C   UNL A   1      48.094  26.753  31.914  1.00  0.00     0.135 A 
ATOM     66  F   UNL A   1      48.611  28.215  28.620  1.00  0.00    -0.206 F 
ATOM     67  C   UNL A   1      50.176  27.454  30.195  1.00  0.00     0.059 A 
ATOM     68  C   UNL A   1      49.410  26.540  32.312  1.00  0.00     0.059 A 
ATOM     69  F   UNL A   1      47.110  26.403  32.757  1.00  0.00    -0.206 F 
ATOM     70  C   UNL A   1      50.443  26.883  31.440  1.00  0.00     0.060 A 
BRANCH  70  71
ATOM     71  S   UNL A   1      52.162  26.617  31.921  1.00  0.00     0.124 S 
ATOM     72  O   UNL A   1      52.014  25.686  33.035  1.00  0.00    -0.237 OA
ATOM     73  O   UNL A   1      52.748  26.062  30.704  1.00  0.00    -0.237 OA
ATOM     74  O   UNL A   1      52.623  27.955  32.277  1.00  0.00    -0.744 OA
ENDBRANCH  70  71
ENDBRANCH  38  63
ENDBRANCH  12  13
ENDBRANCH   5   7
ENDBRANCH   2   3
ENDBRANCH   1   2
BRANCH   1  75
ATOM     75  C   UNL A   1      34.232  28.545  24.073  1.00  0.00     0.023 C 
BRANCH  75  76
ATOM     76  C   UNL A   1      33.341  28.682  22.842  1.00  0.00     0.116 C 
BRANCH  76  77
ATOM     77  N   UNL A   1      32.105  29.372  23.124  1.00  0.00    -0.356 N 
ATOM     78  C   UNL A   1      30.805  28.991  23.151  1.00  0.00     0.226 C 
ATOM     79  H   UNL A   1      32.234  30.324  23.344  1.00  0.00     0.163 HD
ATOM     80  O   UNL A   1      30.003  29.862  23.514  1.00  0.00    -0.274 OA
BRANCH  78  81
ATOM     81  C   UNL A   1      30.266  27.588  22.819  1.00  0.00     0.103 C 
ATOM     82  C   UNL A   1      28.921  27.364  23.455  1.00  0.00    -0.016 C 
ATOM     83  C   UNL A   1      31.002  26.301  23.193  1.00  0.00     0.042 C 
ATOM     84  C   UNL A   1      28.934  26.334  24.310  1.00  0.00    -0.011 C 
ATOM     85  C   UNL A   1      30.305  25.781  24.462  1.00  0.00     0.093 C 
BRANCH  85  86
ATOM     86  N   UNL A   1      30.364  24.339  24.551  1.00  0.00    -0.204 NA
ATOM     87  H   UNL A   1      30.780  24.016  23.677  1.00  0.00     0.142 HD
BRANCH  86  88
ATOM     88  S   UNL A   1      31.187  23.549  25.780  1.00  0.00     0.244 S 
ATOM     89  O   UNL A   1      31.484  24.503  26.824  1.00  0.00    -0.207 OA
ATOM     90  O   UNL A   1      30.396  22.371  26.058  1.00  0.00    -0.207 OA
BRANCH  88  91
ATOM     91  C   UNL A   1      32.734  23.071  25.065  1.00  0.00     0.121 A 
ATOM     92  C   UNL A   1      33.610  24.073  24.610  1.00  0.00     0.028 A 
ATOM     93  C   UNL A   1      33.153  21.745  25.077  1.00  0.00     0.181 A 
ATOM     94  C   UNL A   1      34.869  23.736  24.112  1.00  0.00     0.044 A 
ATOM     95  C   UNL A   1      34.425  21.417  24.614  1.00  0.00     0.195 A 
ATOM     96  F   UNL A   1      32.374  20.762  25.546  1.00  0.00    -0.202 F 
ATOM     97  C   UNL A   1      35.273  22.406  24.126  1.00  0.00     0.161 A 
ATOM     98  F   UNL A   1      34.843  20.144  24.660  1.00  0.00    -0.200 F 
ATOM     99  F   UNL A   1      36.500  22.091  23.693  1.00  0.00    -0.204 F 
ENDBRANCH  88  91
ENDBRANCH  86  88
ENDBRANCH  85  86
ENDBRANCH  78  81
ENDBRANCH  76  77
ENDBRANCH  75  76
ENDBRANCH   1  75
TORSDOF 17
ENDMDL
MODEL 2
REMARK VINA RESULT:     -11.6      1.350      2.041
REMARK SMILES O=C(NCCCCNC(=O)[C@@H]1C=C[C@@H](NS(=O)(=O)c2ccc(F)c(F)c2F)C1)c1ccc(-c2c3nc(c(-c4c(F)cc(S(=O)(=O)[O-])cc4F)c4ccc([nH]4)c(-c4c(F)cc(S(=O)(=O)[O-])cc4F)c4nc(c(-c5c(F)cc(S(=O)(=O)[O-])cc5F)c5ccc2[nH]5)C=C4)C=C3)cc1
REMARK SMILES IDX 5 1 4 2 3 3 1 4 2 5 29 7 30 8 94 9 31 10 93 11 32 12 33 13
REMARK SMILES IDX 34 14 87 15 35 16 92 17 86 18 88 19 36 20 91 21 85 22 84 23
REMARK SMILES IDX 37 25 71 26 50 27 70 28 51 29 54 30 69 31 89 32 52 33 53 34
REMARK SMILES IDX 68 36 90 37 55 38 38 39 39 40 48 41 40 42 41 43 47 44 49 45
REMARK SMILES IDX 42 46 43 47 44 48 45 49 46 50 72 51 73 52 82 53 74 54 75 55
REMARK SMILES IDX 81 56 83 57 76 58 77 59 78 60 79 61 80 62 56 63 57 64 66 65
REMARK SMILES IDX 58 66 59 67 65 68 67 69 60 70 61 71 62 72 63 73 64 74 6 75
REMARK SMILES IDX 7 76 8 77 9 78 10 80 11 81 12 82 28 83 13 84 14 85 15 86
REMARK SMILES IDX 16 88 17 89 18 90 19 91 20 92 26 93 21 94 24 95 27 96 22 97
REMARK SMILES IDX 25 98 23 99
REMARK H PARENT 3 6 88 24 54 35 8 79 15 87
REMARK Flexibility Score: inf
ROOT
ATOM      1  C   UNL A   1      32.906  27.500  26.427  1.00  0.00     0.023 C 
ENDROOT
BRANCH   1   2
ATOM      2  C   UNL A   1      34.080  28.171  27.135  1.00  0.00     0.116 C 
BRANCH   2   3
ATOM      3  N   UNL A   1      33.800  29.526  27.581  1.00  0.00    -0.352 N 
ATOM      4  O   UNL A   1      34.287  31.483  28.601  1.00  0.00    -0.269 OA
ATOM      5  C   UNL A   1      34.676  30.398  28.187  1.00  0.00     0.251 C 
ATOM      6  H   UNL A   1      32.884  29.857  27.433  1.00  0.00     0.163 HD
BRANCH   5   7
ATOM      7  C   UNL A   1      36.078  29.972  28.359  1.00  0.00     0.039 A 
ATOM      8  C   UNL A   1      36.515  29.508  29.602  1.00  0.00     0.014 A 
ATOM      9  C   UNL A   1      36.970  30.109  27.293  1.00  0.00     0.014 A 
ATOM     10  C   UNL A   1      37.870  29.289  29.813  1.00  0.00     0.010 A 
ATOM     11  C   UNL A   1      38.322  29.820  27.489  1.00  0.00     0.010 A 
ATOM     12  C   UNL A   1      38.783  29.427  28.754  1.00  0.00    -0.014 A 
BRANCH  12  13
ATOM     13  C   UNL A   1      40.200  29.048  28.971  1.00  0.00     0.031 A 
ATOM     14  C   UNL A   1      40.721  27.697  28.571  1.00  0.00     0.074 A 
ATOM     15  C   UNL A   1      41.014  29.961  29.534  1.00  0.00     0.049 A 
ATOM     16  N   UNL A   1      41.929  27.215  28.708  1.00  0.00    -0.248 NA
ATOM     17  C   UNL A   1      39.770  26.763  27.948  1.00  0.00     0.031 C 
ATOM     18  C   UNL A   1      40.598  31.295  29.982  1.00  0.00     0.029 A 
ATOM     19  N   UNL A   1      42.351  29.916  29.826  1.00  0.00    -0.354 N 
ATOM     20  C   UNL A   1      41.883  25.918  28.211  1.00  0.00     0.074 A 
ATOM     21  C   UNL A   1      40.524  25.683  27.773  1.00  0.00     0.031 C 
ATOM     22  C   UNL A   1      41.663  31.949  30.466  1.00  0.00     0.029 A 
ATOM     23  C   UNL A   1      42.820  31.065  30.419  1.00  0.00     0.049 A 
ATOM     24  H   UNL A   1      42.922  29.138  29.629  1.00  0.00     0.167 HD
ATOM     25  C   UNL A   1      42.890  25.014  28.131  1.00  0.00     0.037 A 
ATOM     26  C   UNL A   1      44.039  31.363  30.904  1.00  0.00     0.037 A 
ATOM     27  C   UNL A   1      44.245  25.275  28.544  1.00  0.00     0.049 A 
ATOM     28  C   UNL A   1      45.127  30.337  30.806  1.00  0.00     0.074 A 
ATOM     29  C   UNL A   1      45.353  24.453  28.429  1.00  0.00     0.029 A 
ATOM     30  N   UNL A   1      44.678  26.441  29.160  1.00  0.00    -0.354 N 
ATOM     31  N   UNL A   1      45.078  29.135  30.282  1.00  0.00    -0.248 NA
ATOM     32  C   UNL A   1      46.431  30.697  31.376  1.00  0.00     0.031 C 
ATOM     33  C   UNL A   1      46.445  25.103  29.014  1.00  0.00     0.029 A 
ATOM     34  C   UNL A   1      46.026  26.345  29.461  1.00  0.00     0.049 A 
ATOM     35  H   UNL A   1      44.109  27.220  29.355  1.00  0.00     0.167 HD
ATOM     36  C   UNL A   1      46.342  28.594  30.463  1.00  0.00     0.074 A 
ATOM     37  C   UNL A   1      47.143  29.609  31.116  1.00  0.00     0.031 C 
ATOM     38  C   UNL A   1      46.798  27.362  30.127  1.00  0.00     0.037 A 
BRANCH  25  39
ATOM     39  C   UNL A   1      42.583  23.648  27.585  1.00  0.00     0.058 A 
ATOM     40  C   UNL A   1      42.617  23.378  26.209  1.00  0.00     0.135 A 
ATOM     41  C   UNL A   1      42.357  22.571  28.459  1.00  0.00     0.135 A 
ATOM     42  F   UNL A   1      42.816  24.374  25.329  1.00  0.00    -0.206 F 
ATOM     43  C   UNL A   1      42.444  22.087  25.718  1.00  0.00     0.059 A 
ATOM     44  C   UNL A   1      42.197  21.270  27.991  1.00  0.00     0.059 A 
ATOM     45  F   UNL A   1      42.311  22.777  29.785  1.00  0.00    -0.206 F 
ATOM     46  C   UNL A   1      42.240  21.039  26.617  1.00  0.00     0.060 A 
BRANCH  46  47
ATOM     47  S   UNL A   1      42.067  19.362  25.967  1.00  0.00     0.124 S 
ATOM     48  O   UNL A   1      40.633  19.300  25.701  1.00  0.00    -0.237 OA
ATOM     49  O   UNL A   1      42.927  19.394  24.788  1.00  0.00    -0.237 OA
ATOM     50  O   UNL A   1      42.541  18.522  27.062  1.00  0.00    -0.744 OA
ENDBRANCH  46  47
ENDBRANCH  25  39
BRANCH  26  51
ATOM     51  C   UNL A   1      44.271  32.673  31.560  1.00  0.00     0.058 A 
ATOM     52  C   UNL A   1      44.074  32.840  32.938  1.00  0.00     0.135 A 
ATOM     53  C   UNL A   1      44.714  33.781  30.821  1.00  0.00     0.135 A 
ATOM     54  F   UNL A   1      43.650  31.809  33.685  1.00  0.00    -0.206 F 
ATOM     55  C   UNL A   1      44.292  34.065  33.559  1.00  0.00     0.059 A 
ATOM     56  C   UNL A   1      44.963  35.008  31.422  1.00  0.00     0.059 A 
ATOM     57  F   UNL A   1      44.936  33.663  29.502  1.00  0.00    -0.206 F 
ATOM     58  C   UNL A   1      44.735  35.144  32.791  1.00  0.00     0.060 A 
BRANCH  58  59
ATOM     59  S   UNL A   1      45.056  36.723  33.604  1.00  0.00     0.124 S 
ATOM     60  O   UNL A   1      44.378  37.653  32.710  1.00  0.00    -0.237 OA
ATOM     61  O   UNL A   1      44.439  36.531  34.913  1.00  0.00    -0.237 OA
ATOM     62  O   UNL A   1      46.514  36.801  33.614  1.00  0.00    -0.744 OA
ENDBRANCH  58  59
ENDBRANCH  26  51
BRANCH  38  63
ATOM     63  C   UNL A   1      48.223  27.052  30.473  1.00  0.00     0.058 A 
ATOM     64  C   UNL A   1      49.268  27.352  29.585  1.00  0.00     0.135 A 
ATOM     65  C   UNL A   1      48.552  26.473  31.709  1.00  0.00     0.135 A 
ATOM     66  F   UNL A   1      49.001  27.895  28.387  1.00  0.00    -0.206 F 
ATOM     67  C   UNL A   1      50.592  27.069  29.903  1.00  0.00     0.059 A 
ATOM     68  C   UNL A   1      49.871  26.202  32.056  1.00  0.00     0.059 A 
ATOM     69  F   UNL A   1      47.587  26.174  32.593  1.00  0.00    -0.206 F 
ATOM     70  C   UNL A   1      50.883  26.492  31.141  1.00  0.00     0.060 A 
BRANCH  70  71
ATOM     71  S   UNL A   1      52.606  26.150  31.554  1.00  0.00     0.124 S 
ATOM     72  O   UNL A   1      52.515  24.795  32.088  1.00  0.00    -0.237 OA
ATOM     73  O   UNL A   1      53.272  26.279  30.261  1.00  0.00    -0.237 OA
ATOM     74  O   UNL A   1      52.932  27.189  32.526  1.00  0.00    -0.744 OA
ENDBRANCH  70  71
ENDBRANCH  38  63
ENDBRANCH  12  13
ENDBRANCH   5   7
ENDBRANCH   2   3
ENDBRANCH   1   2
BRANCH   1  75
ATOM     75  C   UNL A   1      31.796  28.448  25.973  1.00  0.00     0.023 C 
BRANCH  75  76
ATOM     76  C   UNL A   1      32.078  29.147  24.647  1.00  0.00     0.116 C 
BRANCH  76  77
ATOM     77  N   UNL A   1      30.952  29.917  24.173  1.00  0.00    -0.356 N 
ATOM     78  C   UNL A   1      29.893  29.635  23.377  1.00  0.00     0.226 C 
ATOM     79  H   UNL A   1      30.954  30.847  24.500  1.00  0.00     0.163 HD
ATOM     80  O   UNL A   1      29.067  30.549  23.247  1.00  0.00    -0.274 OA
BRANCH  78  81
ATOM     81  C   UNL A   1      29.618  28.292  22.678  1.00  0.00     0.103 C 
ATOM     82  C   UNL A   1      28.981  27.312  23.625  1.00  0.00    -0.016 C 
ATOM     83  C   UNL A   1      30.720  27.438  22.048  1.00  0.00     0.042 C 
ATOM     84  C   UNL A   1      29.727  26.213  23.792  1.00  0.00    -0.011 C 
ATOM     85  C   UNL A   1      31.023  26.333  23.074  1.00  0.00     0.093 C 
BRANCH  85  86
ATOM     86  N   UNL A   1      31.468  25.116  22.432  1.00  0.00    -0.204 NA
ATOM     87  H   UNL A   1      31.433  25.294  21.428  1.00  0.00     0.142 HD
BRANCH  86  88
ATOM     88  S   UNL A   1      32.973  24.440  22.735  1.00  0.00     0.244 S 
ATOM     89  O   UNL A   1      33.117  23.253  21.925  1.00  0.00    -0.207 OA
ATOM     90  O   UNL A   1      33.904  25.539  22.610  1.00  0.00    -0.207 OA
BRANCH  88  91
ATOM     91  C   UNL A   1      32.907  23.907  24.422  1.00  0.00     0.121 A 
ATOM     92  C   UNL A   1      31.712  23.350  24.911  1.00  0.00     0.028 A 
ATOM     93  C   UNL A   1      34.047  23.897  25.219  1.00  0.00     0.181 A 
ATOM     94  C   UNL A   1      31.648  22.848  26.212  1.00  0.00     0.044 A 
ATOM     95  C   UNL A   1      33.988  23.362  26.503  1.00  0.00     0.195 A 
ATOM     96  F   UNL A   1      35.220  24.371  24.779  1.00  0.00    -0.202 F 
ATOM     97  C   UNL A   1      32.795  22.850  26.999  1.00  0.00     0.161 A 
ATOM     98  F   UNL A   1      35.097  23.319  27.258  1.00  0.00    -0.200 F 
ATOM     99  F   UNL A   1      32.743  22.324  28.229  1.00  0.00    -0.204 F 
ENDBRANCH  88  91
ENDBRANCH  86  88
ENDBRANCH  85  86
ENDBRANCH  78  81
ENDBRANCH  76  77
ENDBRANCH  75  76
ENDBRANCH   1  75
TORSDOF 17
ENDMDL
MODEL 3
REMARK VINA RESULT:     -11.5      3.026      8.769
REMARK SMILES O=C(NCCCCNC(=O)[C@@H]1C=C[C@@H](NS(=O)(=O)c2ccc(F)c(F)c2F)C1)c1ccc(-c2c3nc(c(-c4c(F)cc(S(=O)(=O)[O-])cc4F)c4ccc([nH]4)c(-c4c(F)cc(S(=O)(=O)[O-])cc4F)c4nc(c(-c5c(F)cc(S(=O)(=O)[O-])cc5F)c5ccc2[nH]5)C=C4)C=C3)cc1
REMARK SMILES IDX 5 1 4 2 3 3 1 4 2 5 29 7 30 8 94 9 31 10 93 11 32 12 33 13
REMARK SMILES IDX 34 14 87 15 35 16 92 17 86 18 88 19 36 20 91 21 85 22 84 23
REMARK SMILES IDX 37 25 71 26 50 27 70 28 51 29 54 30 69 31 89 32 52 33 53 34
REMARK SMILES IDX 68 36 90 37 55 38 38 39 39 40 48 41 40 42 41 43 47 44 49 45
REMARK SMILES IDX 42 46 43 47 44 48 45 49 46 50 72 51 73 52 82 53 74 54 75 55
REMARK SMILES IDX 81 56 83 57 76 58 77 59 78 60 79 61 80 62 56 63 57 64 66 65
REMARK SMILES IDX 58 66 59 67 65 68 67 69 60 70 61 71 62 72 63 73 64 74 6 75
REMARK SMILES IDX 7 76 8 77 9 78 10 80 11 81 12 82 28 83 13 84 14 85 15 86
REMARK SMILES IDX 16 88 17 89 18 90 19 91 20 92 26 93 21 94 24 95 27 96 22 97
REMARK SMILES IDX 25 98 23 99
REMARK H PARENT 3 6 88 24 54 35 8 79 15 87
REMARK Flexibility Score: inf
ROOT
ATOM      1  C   UNL A   1      34.321  28.857  26.975  1.00  0.00     0.023 C 
ENDROOT
BRANCH   1   2
ATOM      2  C   UNL A   1      35.517  29.668  27.463  1.00  0.00     0.116 C 
BRANCH   2   3
ATOM      3  N   UNL A   1      35.357  30.202  28.806  1.00  0.00    -0.352 N 
ATOM      4  O   UNL A   1      36.027  30.669  30.914  1.00  0.00    -0.269 OA
ATOM      5  C   UNL A   1      36.317  30.282  29.788  1.00  0.00     0.251 C 
ATOM      6  H   UNL A   1      34.463  30.544  29.039  1.00  0.00     0.163 HD
BRANCH   5   7
ATOM      7  C   UNL A   1      37.690  29.851  29.459  1.00  0.00     0.039 A 
ATOM      8  C   UNL A   1      38.548  29.430  30.477  1.00  0.00     0.014 A 
ATOM      9  C   UNL A   1      38.136  29.941  28.139  1.00  0.00     0.014 A 
ATOM     10  C   UNL A   1      39.889  29.207  30.193  1.00  0.00     0.010 A 
ATOM     11  C   UNL A   1      39.469  29.649  27.844  1.00  0.00     0.010 A 
ATOM     12  C   UNL A   1      40.358  29.299  28.871  1.00  0.00    -0.014 A 
BRANCH  12  13
ATOM     13  C   UNL A   1      41.759  28.916  28.576  1.00  0.00     0.031 A 
ATOM     14  C   UNL A   1      42.874  29.922  28.616  1.00  0.00     0.074 A 
ATOM     15  C   UNL A   1      42.007  27.626  28.277  1.00  0.00     0.049 A 
ATOM     16  N   UNL A   1      44.146  29.741  28.371  1.00  0.00    -0.248 NA
ATOM     17  C   UNL A   1      42.523  31.307  28.967  1.00  0.00     0.031 C 
ATOM     18  C   UNL A   1      40.988  26.575  28.187  1.00  0.00     0.029 A 
ATOM     19  N   UNL A   1      43.178  26.975  27.995  1.00  0.00    -0.354 N 
ATOM     20  C   UNL A   1      44.745  30.987  28.513  1.00  0.00     0.074 A 
ATOM     21  C   UNL A   1      43.696  31.921  28.862  1.00  0.00     0.031 C 
ATOM     22  C   UNL A   1      41.582  25.408  27.899  1.00  0.00     0.029 A 
ATOM     23  C   UNL A   1      43.010  25.638  27.725  1.00  0.00     0.049 A 
ATOM     24  H   UNL A   1      44.056  27.422  27.989  1.00  0.00     0.167 HD
ATOM     25  C   UNL A   1      46.052  31.311  28.365  1.00  0.00     0.037 A 
ATOM     26  C   UNL A   1      43.901  24.704  27.346  1.00  0.00     0.037 A 
ATOM     27  C   UNL A   1      47.089  30.363  28.047  1.00  0.00     0.049 A 
ATOM     28  C   UNL A   1      45.338  25.099  27.183  1.00  0.00     0.074 A 
ATOM     29  C   UNL A   1      48.453  30.578  27.954  1.00  0.00     0.029 A 
ATOM     30  N   UNL A   1      46.879  29.022  27.758  1.00  0.00    -0.354 N 
ATOM     31  N   UNL A   1      45.894  26.271  27.378  1.00  0.00    -0.248 NA
ATOM     32  C   UNL A   1      46.267  24.053  26.739  1.00  0.00     0.031 C 
ATOM     33  C   UNL A   1      49.063  29.379  27.568  1.00  0.00     0.029 A 
ATOM     34  C   UNL A   1      48.082  28.407  27.455  1.00  0.00     0.049 A 
ATOM     35  H   UNL A   1      46.001  28.574  27.767  1.00  0.00     0.167 HD
ATOM     36  C   UNL A   1      47.237  26.105  27.074  1.00  0.00     0.074 A 
ATOM     37  C   UNL A   1      47.416  24.713  26.714  1.00  0.00     0.031 C 
ATOM     38  C   UNL A   1      48.234  27.025  27.083  1.00  0.00     0.037 A 
BRANCH  25  39
ATOM     39  C   UNL A   1      46.457  32.748  28.535  1.00  0.00     0.058 A 
ATOM     40  C   UNL A   1      46.872  33.257  29.774  1.00  0.00     0.135 A 
ATOM     41  C   UNL A   1      46.532  33.598  27.418  1.00  0.00     0.135 A 
ATOM     42  F   UNL A   1      46.808  32.491  30.875  1.00  0.00    -0.206 F 
ATOM     43  C   UNL A   1      47.353  34.557  29.901  1.00  0.00     0.059 A 
ATOM     44  C   UNL A   1      47.025  34.897  27.519  1.00  0.00     0.059 A 
ATOM     45  F   UNL A   1      46.143  33.161  26.210  1.00  0.00    -0.206 F 
ATOM     46  C   UNL A   1      47.431  35.368  28.767  1.00  0.00     0.060 A 
BRANCH  46  47
ATOM     47  S   UNL A   1      48.104  37.035  28.939  1.00  0.00     0.124 S 
ATOM     48  O   UNL A   1      46.922  37.853  28.689  1.00  0.00    -0.237 OA
ATOM     49  O   UNL A   1      48.592  37.034  30.315  1.00  0.00    -0.237 OA
ATOM     50  O   UNL A   1      49.138  37.093  27.911  1.00  0.00    -0.744 OA
ENDBRANCH  46  47
ENDBRANCH  25  39
BRANCH  26  51
ATOM     51  C   UNL A   1      43.442  23.324  27.054  1.00  0.00     0.058 A 
ATOM     52  C   UNL A   1      43.310  22.866  25.736  1.00  0.00     0.135 A 
ATOM     53  C   UNL A   1      43.146  22.429  28.094  1.00  0.00     0.135 A 
ATOM     54  F   UNL A   1      43.583  23.686  24.710  1.00  0.00    -0.206 F 
ATOM     55  C   UNL A   1      42.884  21.572  25.457  1.00  0.00     0.059 A 
ATOM     56  C   UNL A   1      42.742  21.124  27.842  1.00  0.00     0.059 A 
ATOM     57  F   UNL A   1      43.278  22.816  29.373  1.00  0.00    -0.206 F 
ATOM     58  C   UNL A   1      42.600  20.709  26.518  1.00  0.00     0.060 A 
BRANCH  58  59
ATOM     59  S   UNL A   1      42.084  19.017  26.155  1.00  0.00     0.124 S 
ATOM     60  O   UNL A   1      42.357  18.353  27.423  1.00  0.00    -0.237 OA
ATOM     61  O   UNL A   1      40.674  19.188  25.814  1.00  0.00    -0.237 OA
ATOM     62  O   UNL A   1      42.948  18.639  25.040  1.00  0.00    -0.744 OA
ENDBRANCH  58  59
ENDBRANCH  26  51
BRANCH  38  63
ATOM     63  C   UNL A   1      49.597  26.547  26.681  1.00  0.00     0.058 A 
ATOM     64  C   UNL A   1      50.487  26.015  27.626  1.00  0.00     0.135 A 
ATOM     65  C   UNL A   1      50.008  26.599  25.340  1.00  0.00     0.135 A 
ATOM     66  F   UNL A   1      50.142  25.957  28.922  1.00  0.00    -0.206 F 
ATOM     67  C   UNL A   1      51.751  25.568  27.258  1.00  0.00     0.059 A 
ATOM     68  C   UNL A   1      51.260  26.138  24.947  1.00  0.00     0.059 A 
ATOM     69  F   UNL A   1      49.189  27.095  24.400  1.00  0.00    -0.206 F 
ATOM     70  C   UNL A   1      52.129  25.635  25.915  1.00  0.00     0.060 A 
BRANCH  70  71
ATOM     71  S   UNL A   1      53.763  25.032  25.444  1.00  0.00     0.124 S 
ATOM     72  O   UNL A   1      53.499  23.613  25.227  1.00  0.00    -0.237 OA
ATOM     73  O   UNL A   1      54.054  25.814  24.245  1.00  0.00    -0.237 OA
ATOM     74  O   UNL A   1      54.588  25.348  26.606  1.00  0.00    -0.744 OA
ENDBRANCH  70  71
ENDBRANCH  38  63
ENDBRANCH  12  13
ENDBRANCH   5   7
ENDBRANCH   2   3
ENDBRANCH   1   2
BRANCH   1  75
ATOM     75  C   UNL A   1      33.334  29.624  26.095  1.00  0.00     0.023 C 
BRANCH  75  76
ATOM     76  C   UNL A   1      33.152  29.032  24.701  1.00  0.00     0.116 C 
BRANCH  76  77
ATOM     77  N   UNL A   1      31.842  29.292  24.152  1.00  0.00    -0.356 N 
ATOM     78  C   UNL A   1      30.712  28.554  24.038  1.00  0.00     0.226 C 
ATOM     79  H   UNL A   1      31.751  30.200  23.782  1.00  0.00     0.163 HD
ATOM     80  O   UNL A   1      29.735  29.149  23.563  1.00  0.00    -0.274 OA
BRANCH  78  81
ATOM     81  C   UNL A   1      30.538  27.090  24.480  1.00  0.00     0.103 C 
ATOM     82  C   UNL A   1      30.973  26.903  25.908  1.00  0.00    -0.016 C 
ATOM     83  C   UNL A   1      31.241  25.921  23.788  1.00  0.00     0.042 C 
ATOM     84  C   UNL A   1      31.980  26.028  26.017  1.00  0.00    -0.011 C 
ATOM     85  C   UNL A   1      32.447  25.579  24.680  1.00  0.00     0.093 C 
BRANCH  85  86
ATOM     86  N   UNL A   1      32.787  24.176  24.604  1.00  0.00    -0.204 NA
ATOM     87  H   UNL A   1      31.912  23.679  24.435  1.00  0.00     0.142 HD
BRANCH  86  88
ATOM     88  S   UNL A   1      33.886  23.578  23.486  1.00  0.00     0.244 S 
ATOM     89  O   UNL A   1      33.342  22.373  22.903  1.00  0.00    -0.207 OA
ATOM     90  O   UNL A   1      34.225  24.713  22.657  1.00  0.00    -0.207 OA
BRANCH  88  91
ATOM     91  C   UNL A   1      35.297  23.096  24.440  1.00  0.00     0.121 A 
ATOM     92  C   UNL A   1      35.823  21.803  24.268  1.00  0.00     0.028 A 
ATOM     93  C   UNL A   1      35.972  24.012  25.240  1.00  0.00     0.181 A 
ATOM     94  C   UNL A   1      36.980  21.416  24.946  1.00  0.00     0.044 A 
ATOM     95  C   UNL A   1      37.146  23.633  25.885  1.00  0.00     0.195 A 
ATOM     96  F   UNL A   1      35.537  25.269  25.395  1.00  0.00    -0.202 F 
ATOM     97  C   UNL A   1      37.641  22.341  25.746  1.00  0.00     0.161 A 
ATOM     98  F   UNL A   1      37.817  24.527  26.627  1.00  0.00    -0.200 F 
ATOM     99  F   UNL A   1      38.777  21.982  26.356  1.00  0.00    -0.204 F 
ENDBRANCH  88  91
ENDBRANCH  86  88
ENDBRANCH  85  86
ENDBRANCH  78  81
ENDBRANCH  76  77
ENDBRANCH  75  76
ENDBRANCH   1  75
TORSDOF 17
ENDMDL
