MODEL 1
REMARK VINA RESULT:     -12.3      0.000      0.000
REMARK SMILES Cc1nnc(-c2ccccc2-c2cc(NCC(=O)NCCCCNC(=O)c3ccc(-c4c5nc(c(-c6c(F)cc(S(=O)(=O)[O-])cc6F)c6ccc([nH]6)c(-c6c(F)cc(S(=O)(=O)[O-])cc6F)c6nc(c(-c7c(F)cc(S(=O)(=O)[O-])cc7F)c7ccc4[nH]7)C=C6)C=C5)cc3)nc3[nH]ccc23)o1
REMARK SMILES IDX 21 1 20 2 19 3 17 4 18 5 16 7 15 8 14 10 12 11 13 12 98 13
REMARK SMILES IDX 94 14 97 15 93 16 95 17 96 18 11 20 6 21 7 22 8 23 10 24
REMARK SMILES IDX 9 25 5 26 1 27 2 28 3 29 99 30 4 31 22 32 23 33 24 34 25 35
REMARK SMILES IDX 26 37 27 38 28 39 92 40 29 41 91 42 30 43 31 44 32 45 85 46
REMARK SMILES IDX 33 47 90 48 84 49 86 50 34 51 89 52 83 53 82 54 35 56 69 57
REMARK SMILES IDX 48 58 68 59 49 60 52 61 67 62 87 63 50 64 51 65 66 67 88 68
REMARK SMILES IDX 53 69 36 70 37 71 46 72 38 73 39 74 45 75 47 76 40 77 41 78
REMARK SMILES IDX 42 79 43 80 44 81 70 82 71 83 80 84 72 85 73 86 79 87 81 88
REMARK SMILES IDX 74 89 75 90 76 91 77 92 78 93 54 94 55 95 64 96 56 97 57 98
REMARK SMILES IDX 63 99 65 100 58 101 59 102 60 103 61 104 62 105
REMARK H PARENT 19 6 15 9 95 19 24 36 86 55 52 66
REMARK Flexibility Score: inf
ROOT
ATOM      1  C   UNL A   1      33.168  29.114  24.781  1.00  0.00     0.023 C 
ENDROOT
BRANCH   1   2
ATOM      2  C   UNL A   1      33.224  28.707  23.308  1.00  0.00     0.116 C 
BRANCH   2   3
ATOM      3  N   UNL A   1      32.182  29.364  22.541  1.00  0.00    -0.355 N 
ATOM      4  C   UNL A   1      30.872  28.997  22.401  1.00  0.00     0.239 C 
ATOM      5  O   UNL A   1      30.166  29.630  21.611  1.00  0.00    -0.273 OA
ATOM      6  H   UNL A   1      32.453  30.179  22.059  1.00  0.00     0.163 HD
BRANCH   4   7
ATOM      7  C   UNL A   1      30.309  27.821  23.208  1.00  0.00     0.214 C 
BRANCH   7   8
ATOM      8  N   UNL A   1      30.952  26.564  22.829  1.00  0.00    -0.361 N 
ATOM      9  H   UNL A   1      31.179  26.396  21.885  1.00  0.00     0.162 HD
BRANCH   8  10
ATOM     10  C   UNL A   1      31.246  25.608  23.790  1.00  0.00     0.129 A 
ATOM     11  C   UNL A   1      32.926  24.171  24.829  1.00  0.00    -0.003 A 
ATOM     12  C   UNL A   1      32.544  25.092  23.836  1.00  0.00     0.056 A 
ATOM     13  C   UNL A   1      31.926  23.783  25.743  1.00  0.00     0.027 A 
ATOM     14  C   UNL A   1      30.663  24.326  25.562  1.00  0.00     0.140 A 
ATOM     15  C   UNL A   1      31.837  22.936  26.888  1.00  0.00     0.030 A 
ATOM     16  N   UNL A   1      30.273  25.201  24.624  1.00  0.00    -0.213 NA
ATOM     17  N   UNL A   1      29.836  23.828  26.532  1.00  0.00    -0.346 N 
ATOM     18  C   UNL A   1      30.538  22.981  27.350  1.00  0.00     0.085 A 
ATOM     19  H   UNL A   1      28.881  24.045  26.628  1.00  0.00     0.167 HD
BRANCH  11  20
ATOM     20  C   UNL A   1      34.286  23.621  24.933  1.00  0.00    -0.005 A 
ATOM     21  C   UNL A   1      34.612  22.294  24.574  1.00  0.00     0.047 A 
ATOM     22  C   UNL A   1      35.936  21.834  24.700  1.00  0.00     0.014 A 
ATOM     23  C   UNL A   1      36.941  22.673  25.175  1.00  0.00     0.001 A 
ATOM     24  C   UNL A   1      35.322  24.445  25.421  1.00  0.00     0.009 A 
ATOM     25  C   UNL A   1      36.633  23.979  25.536  1.00  0.00     0.001 A 
BRANCH  21  26
ATOM     26  C   UNL A   1      33.630  21.373  24.037  1.00  0.00     0.248 A 
ATOM     27  C   UNL A   1      32.310  18.111  24.161  1.00  0.00     0.113 C 
ATOM     28  C   UNL A   1      32.645  19.507  23.834  1.00  0.00     0.213 A 
ATOM     29  N   UNL A   1      32.133  20.302  22.919  1.00  0.00    -0.113 NA
ATOM     30  O   UNL A   1      33.617  20.115  24.582  1.00  0.00    -0.421 OA
ATOM     31  N   UNL A   1      32.759  21.521  23.062  1.00  0.00    -0.108 NA
ENDBRANCH  21  26
ENDBRANCH  11  20
ENDBRANCH   8  10
ENDBRANCH   7   8
ENDBRANCH   4   7
ENDBRANCH   2   3
ENDBRANCH   1   2
BRANCH   1  32
ATOM     32  C   UNL A   1      33.694  28.041  25.739  1.00  0.00     0.023 C 
BRANCH  32  33
ATOM     33  C   UNL A   1      33.488  28.333  27.220  1.00  0.00     0.116 C 
BRANCH  33  34
ATOM     34  N   UNL A   1      33.363  29.748  27.529  1.00  0.00    -0.352 N 
ATOM     35  C   UNL A   1      34.317  30.610  28.017  1.00  0.00     0.251 C 
ATOM     36  H   UNL A   1      32.476  30.143  27.368  1.00  0.00     0.163 HD
ATOM     37  O   UNL A   1      34.027  31.777  28.271  1.00  0.00    -0.269 OA
BRANCH  35  38
ATOM     38  C   UNL A   1      35.687  30.117  28.286  1.00  0.00     0.039 A 
ATOM     39  C   UNL A   1      36.624  30.155  27.251  1.00  0.00     0.014 A 
ATOM     40  C   UNL A   1      36.057  29.650  29.550  1.00  0.00     0.014 A 
ATOM     41  C   UNL A   1      37.950  29.790  27.500  1.00  0.00     0.010 A 
ATOM     42  C   UNL A   1      37.391  29.357  29.816  1.00  0.00     0.010 A 
ATOM     43  C   UNL A   1      38.352  29.423  28.794  1.00  0.00    -0.014 A 
BRANCH  43  44
ATOM     44  C   UNL A   1      39.768  29.095  29.101  1.00  0.00     0.031 A 
ATOM     45  C   UNL A   1      40.660  30.132  29.727  1.00  0.00     0.074 A 
ATOM     46  C   UNL A   1      40.268  27.891  28.756  1.00  0.00     0.049 A 
ATOM     47  N   UNL A   1      41.941  30.074  29.985  1.00  0.00    -0.248 NA
ATOM     48  C   UNL A   1      40.034  31.415  30.084  1.00  0.00     0.031 C 
ATOM     49  C   UNL A   1      39.516  26.816  28.104  1.00  0.00     0.029 A 
ATOM     50  N   UNL A   1      41.530  27.373  28.896  1.00  0.00    -0.354 N 
ATOM     51  C   UNL A   1      42.277  31.313  30.516  1.00  0.00     0.074 A 
ATOM     52  C   UNL A   1      41.076  32.120  30.497  1.00  0.00     0.031 C 
ATOM     53  C   UNL A   1      40.326  25.761  27.920  1.00  0.00     0.029 A 
ATOM     54  C   UNL A   1      41.661  26.095  28.406  1.00  0.00     0.049 A 
ATOM     55  H   UNL A   1      42.274  27.870  29.308  1.00  0.00     0.167 HD
ATOM     56  C   UNL A   1      43.471  31.734  30.997  1.00  0.00     0.037 A 
ATOM     57  C   UNL A   1      42.738  25.285  28.351  1.00  0.00     0.037 A 
ATOM     58  C   UNL A   1      44.655  30.916  31.045  1.00  0.00     0.049 A 
ATOM     59  C   UNL A   1      44.050  25.770  28.904  1.00  0.00     0.074 A 
ATOM     60  C   UNL A   1      45.901  31.234  31.557  1.00  0.00     0.029 A 
ATOM     61  N   UNL A   1      44.737  29.616  30.572  1.00  0.00    -0.354 N 
ATOM     62  N   UNL A   1      44.339  26.931  29.442  1.00  0.00    -0.248 NA
ATOM     63  C   UNL A   1      45.182  24.834  28.848  1.00  0.00     0.031 C 
ATOM     64  C   UNL A   1      46.746  30.135  31.365  1.00  0.00     0.029 A 
ATOM     65  C   UNL A   1      46.014  29.118  30.771  1.00  0.00     0.049 A 
ATOM     66  H   UNL A   1      43.996  29.118  30.154  1.00  0.00     0.167 HD
ATOM     67  C   UNL A   1      45.676  26.854  29.817  1.00  0.00     0.074 A 
ATOM     68  C   UNL A   1      46.136  25.531  29.449  1.00  0.00     0.031 C 
ATOM     69  C   UNL A   1      46.451  27.793  30.413  1.00  0.00     0.037 A 
BRANCH  56  70
ATOM     70  C   UNL A   1      43.550  33.141  31.521  1.00  0.00     0.058 A 
ATOM     71  C   UNL A   1      43.875  34.219  30.682  1.00  0.00     0.135 A 
ATOM     72  C   UNL A   1      43.275  33.421  32.869  1.00  0.00     0.135 A 
ATOM     73  F   UNL A   1      44.163  34.006  29.388  1.00  0.00    -0.206 F 
ATOM     74  C   UNL A   1      43.960  35.519  31.168  1.00  0.00     0.059 A 
ATOM     75  C   UNL A   1      43.327  34.718  33.371  1.00  0.00     0.059 A 
ATOM     76  F   UNL A   1      42.957  32.428  33.715  1.00  0.00    -0.206 F 
ATOM     77  C   UNL A   1      43.687  35.758  32.517  1.00  0.00     0.060 A 
BRANCH  77  78
ATOM     78  S   UNL A   1      43.804  37.451  33.134  1.00  0.00     0.124 S 
ATOM     79  O   UNL A   1      43.741  38.218  31.893  1.00  0.00    -0.237 OA
ATOM     80  O   UNL A   1      42.633  37.552  34.000  1.00  0.00    -0.237 OA
ATOM     81  O   UNL A   1      45.091  37.473  33.821  1.00  0.00    -0.744 OA
ENDBRANCH  77  78
ENDBRANCH  56  70
BRANCH  57  82
ATOM     82  C   UNL A   1      42.613  23.919  27.776  1.00  0.00     0.058 A 
ATOM     83  C   UNL A   1      42.611  23.721  26.388  1.00  0.00     0.135 A 
ATOM     84  C   UNL A   1      42.498  22.788  28.599  1.00  0.00     0.135 A 
ATOM     85  F   UNL A   1      42.712  24.774  25.562  1.00  0.00    -0.206 F 
ATOM     86  C   UNL A   1      42.480  22.454  25.831  1.00  0.00     0.059 A 
ATOM     87  C   UNL A   1      42.390  21.507  28.067  1.00  0.00     0.059 A 
ATOM     88  F   UNL A   1      42.512  22.922  29.934  1.00  0.00    -0.206 F 
ATOM     89  C   UNL A   1      42.370  21.351  26.680  1.00  0.00     0.060 A 
BRANCH  89  90
ATOM     90  S   UNL A   1      42.246  19.704  25.951  1.00  0.00     0.124 S 
ATOM     91  O   UNL A   1      40.878  19.709  25.446  1.00  0.00    -0.237 OA
ATOM     92  O   UNL A   1      43.299  19.732  24.941  1.00  0.00    -0.237 OA
ATOM     93  O   UNL A   1      42.498  18.817  27.083  1.00  0.00    -0.744 OA
ENDBRANCH  89  90
ENDBRANCH  57  82
BRANCH  69  94
ATOM     94  C   UNL A   1      47.866  27.411  30.747  1.00  0.00     0.058 A 
ATOM     95  C   UNL A   1      48.191  26.764  31.948  1.00  0.00     0.135 A 
ATOM     96  C   UNL A   1      48.899  27.650  29.826  1.00  0.00     0.135 A 
ATOM     97  F   UNL A   1      47.240  26.520  32.863  1.00  0.00    -0.206 F 
ATOM     98  C   UNL A   1      49.498  26.385  32.237  1.00  0.00     0.059 A 
ATOM     99  C   UNL A   1      50.209  27.257  30.084  1.00  0.00     0.059 A 
ATOM    100  F   UNL A   1      48.639  28.256  28.658  1.00  0.00    -0.206 F 
ATOM    101  C   UNL A   1      50.501  26.636  31.297  1.00  0.00     0.060 A 
BRANCH 101 102
ATOM    102  S   UNL A   1      52.187  26.106  31.665  1.00  0.00     0.124 S 
ATOM    103  O   UNL A   1      52.787  26.095  30.335  1.00  0.00    -0.237 OA
ATOM    104  O   UNL A   1      52.657  27.156  32.563  1.00  0.00    -0.237 OA
ATOM    105  O   UNL A   1      52.005  24.797  32.283  1.00  0.00    -0.744 OA
ENDBRANCH 101 102
ENDBRANCH  69  94
ENDBRANCH  43  44
ENDBRANCH  35  38
ENDBRANCH  33  34
ENDBRANCH  32  33
ENDBRANCH   1  32
TORSDOF 18
ENDMDL
MODEL 2
REMARK VINA RESULT:     -12.0      4.486     10.192
REMARK SMILES Cc1nnc(-c2ccccc2-c2cc(NCC(=O)NCCCCNC(=O)c3ccc(-c4c5nc(c(-c6c(F)cc(S(=O)(=O)[O-])cc6F)c6ccc([nH]6)c(-c6c(F)cc(S(=O)(=O)[O-])cc6F)c6nc(c(-c7c(F)cc(S(=O)(=O)[O-])cc7F)c7ccc4[nH]7)C=C6)C=C5)cc3)nc3[nH]ccc23)o1
REMARK SMILES IDX 21 1 20 2 19 3 17 4 18 5 16 7 15 8 14 10 12 11 13 12 98 13
REMARK SMILES IDX 94 14 97 15 93 16 95 17 96 18 11 20 6 21 7 22 8 23 10 24
REMARK SMILES IDX 9 25 5 26 1 27 2 28 3 29 99 30 4 31 22 32 23 33 24 34 25 35
REMARK SMILES IDX 26 37 27 38 28 39 92 40 29 41 91 42 30 43 31 44 32 45 85 46
REMARK SMILES IDX 33 47 90 48 84 49 86 50 34 51 89 52 83 53 82 54 35 56 69 57
REMARK SMILES IDX 48 58 68 59 49 60 52 61 67 62 87 63 50 64 51 65 66 67 88 68
REMARK SMILES IDX 53 69 36 70 37 71 46 72 38 73 39 74 45 75 47 76 40 77 41 78
REMARK SMILES IDX 42 79 43 80 44 81 70 82 71 83 80 84 72 85 73 86 79 87 81 88
REMARK SMILES IDX 74 89 75 90 76 91 77 92 78 93 54 94 55 95 64 96 56 97 57 98
REMARK SMILES IDX 63 99 65 100 58 101 59 102 60 103 61 104 62 105
REMARK H PARENT 19 6 15 9 95 19 24 36 86 55 52 66
REMARK Flexibility Score: inf
ROOT
ATOM      1  C   UNL A   1      41.622  21.243  27.616  1.00  0.00     0.023 C 
ENDROOT
BRANCH   1   2
ATOM      2  C   UNL A   1      40.363  21.387  26.760  1.00  0.00     0.116 C 
BRANCH   2   3
ATOM      3  N   UNL A   1      39.697  22.651  27.012  1.00  0.00    -0.355 N 
ATOM      4  C   UNL A   1      38.561  23.142  26.429  1.00  0.00     0.239 C 
ATOM      5  O   UNL A   1      38.212  24.294  26.702  1.00  0.00    -0.273 OA
ATOM      6  H   UNL A   1      40.116  23.230  27.689  1.00  0.00     0.163 HD
BRANCH   4   7
ATOM      7  C   UNL A   1      37.755  22.272  25.456  1.00  0.00     0.214 C 
BRANCH   7   8
ATOM      8  N   UNL A   1      36.528  21.780  26.080  1.00  0.00    -0.361 N 
ATOM      9  H   UNL A   1      36.512  21.594  27.048  1.00  0.00     0.162 HD
BRANCH   8  10
ATOM     10  C   UNL A   1      35.387  21.573  25.320  1.00  0.00     0.129 A 
ATOM     11  C   UNL A   1      33.665  22.532  23.876  1.00  0.00    -0.003 A 
ATOM     12  C   UNL A   1      34.784  22.681  24.717  1.00  0.00     0.056 A 
ATOM     13  C   UNL A   1      33.178  21.221  23.705  1.00  0.00     0.027 A 
ATOM     14  C   UNL A   1      33.832  20.211  24.397  1.00  0.00     0.140 A 
ATOM     15  C   UNL A   1      32.135  20.588  22.966  1.00  0.00     0.030 A 
ATOM     16  N   UNL A   1      34.896  20.327  25.205  1.00  0.00    -0.213 NA
ATOM     17  N   UNL A   1      33.215  19.024  24.112  1.00  0.00    -0.346 N 
ATOM     18  C   UNL A   1      32.180  19.236  23.239  1.00  0.00     0.085 A 
ATOM     19  H   UNL A   1      33.475  18.149  24.480  1.00  0.00     0.167 HD
BRANCH  11  20
ATOM     20  C   UNL A   1      33.013  23.664  23.201  1.00  0.00    -0.005 A 
ATOM     21  C   UNL A   1      32.015  24.457  23.811  1.00  0.00     0.047 A 
ATOM     22  C   UNL A   1      31.433  25.525  23.104  1.00  0.00     0.014 A 
ATOM     23  C   UNL A   1      31.829  25.819  21.801  1.00  0.00     0.001 A 
ATOM     24  C   UNL A   1      33.386  23.978  21.877  1.00  0.00     0.009 A 
ATOM     25  C   UNL A   1      32.805  25.044  21.188  1.00  0.00     0.001 A 
BRANCH  21  26
ATOM     26  C   UNL A   1      31.578  24.238  25.175  1.00  0.00     0.248 A 
ATOM     27  C   UNL A   1      29.286  22.588  27.279  1.00  0.00     0.113 C 
ATOM     28  C   UNL A   1      30.340  23.436  26.698  1.00  0.00     0.213 A 
ATOM     29  N   UNL A   1      31.175  24.263  27.291  1.00  0.00    -0.113 NA
ATOM     30  O   UNL A   1      30.526  23.373  25.343  1.00  0.00    -0.421 OA
ATOM     31  N   UNL A   1      31.993  24.770  26.304  1.00  0.00    -0.108 NA
ENDBRANCH  21  26
ENDBRANCH  11  20
ENDBRANCH   8  10
ENDBRANCH   7   8
ENDBRANCH   4   7
ENDBRANCH   2   3
ENDBRANCH   1   2
BRANCH   1  32
ATOM     32  C   UNL A   1      41.982  22.508  28.401  1.00  0.00     0.023 C 
BRANCH  32  33
ATOM     33  C   UNL A   1      43.167  23.297  27.858  1.00  0.00     0.116 C 
BRANCH  33  34
ATOM     34  N   UNL A   1      42.956  23.828  26.521  1.00  0.00    -0.352 N 
ATOM     35  C   UNL A   1      42.510  25.075  26.149  1.00  0.00     0.251 C 
ATOM     36  H   UNL A   1      43.158  23.211  25.780  1.00  0.00     0.163 HD
ATOM     37  O   UNL A   1      42.341  25.345  24.963  1.00  0.00    -0.269 OA
BRANCH  35  38
ATOM     38  C   UNL A   1      42.185  26.079  27.187  1.00  0.00     0.039 A 
ATOM     39  C   UNL A   1      40.996  25.933  27.906  1.00  0.00     0.014 A 
ATOM     40  C   UNL A   1      43.051  27.138  27.472  1.00  0.00     0.014 A 
ATOM     41  C   UNL A   1      40.708  26.807  28.957  1.00  0.00     0.010 A 
ATOM     42  C   UNL A   1      42.799  27.962  28.565  1.00  0.00     0.010 A 
ATOM     43  C   UNL A   1      41.625  27.806  29.320  1.00  0.00    -0.014 A 
BRANCH  43  44
ATOM     44  C   UNL A   1      41.375  28.706  30.475  1.00  0.00     0.031 A 
ATOM     45  C   UNL A   1      42.213  28.582  31.718  1.00  0.00     0.074 A 
ATOM     46  C   UNL A   1      40.353  29.585  30.432  1.00  0.00     0.049 A 
ATOM     47  N   UNL A   1      42.093  29.206  32.861  1.00  0.00    -0.248 NA
ATOM     48  C   UNL A   1      43.315  27.607  31.679  1.00  0.00     0.031 C 
ATOM     49  C   UNL A   1      39.440  29.770  29.300  1.00  0.00     0.029 A 
ATOM     50  N   UNL A   1      39.903  30.480  31.368  1.00  0.00    -0.354 N 
ATOM     51  C   UNL A   1      43.088  28.687  33.681  1.00  0.00     0.074 A 
ATOM     52  C   UNL A   1      43.771  27.663  32.921  1.00  0.00     0.031 C 
ATOM     53  C   UNL A   1      38.555  30.733  29.603  1.00  0.00     0.029 A 
ATOM     54  C   UNL A   1      38.811  31.209  30.958  1.00  0.00     0.049 A 
ATOM     55  H   UNL A   1      40.323  30.592  32.252  1.00  0.00     0.167 HD
ATOM     56  C   UNL A   1      43.420  29.047  34.944  1.00  0.00     0.037 A 
ATOM     57  C   UNL A   1      38.095  32.151  31.605  1.00  0.00     0.037 A 
ATOM     58  C   UNL A   1      42.758  30.090  35.685  1.00  0.00     0.049 A 
ATOM     59  C   UNL A   1      38.490  32.543  33.002  1.00  0.00     0.074 A 
ATOM     60  C   UNL A   1      43.049  30.562  36.953  1.00  0.00     0.029 A 
ATOM     61  N   UNL A   1      41.680  30.827  35.221  1.00  0.00    -0.354 N 
ATOM     62  N   UNL A   1      39.462  32.072  33.747  1.00  0.00    -0.248 NA
ATOM     63  C   UNL A   1      37.695  33.598  33.647  1.00  0.00     0.031 C 
ATOM     64  C   UNL A   1      42.127  31.566  37.268  1.00  0.00     0.029 A 
ATOM     65  C   UNL A   1      41.287  31.746  36.180  1.00  0.00     0.049 A 
ATOM     66  H   UNL A   1      41.255  30.715  34.340  1.00  0.00     0.167 HD
ATOM     67  C   UNL A   1      39.416  32.795  34.934  1.00  0.00     0.074 A 
ATOM     68  C   UNL A   1      38.323  33.737  34.806  1.00  0.00     0.031 C 
ATOM     69  C   UNL A   1      40.207  32.689  36.030  1.00  0.00     0.037 A 
BRANCH  56  70
ATOM     70  C   UNL A   1      44.556  28.312  35.598  1.00  0.00     0.058 A 
ATOM     71  C   UNL A   1      44.337  27.160  36.370  1.00  0.00     0.135 A 
ATOM     72  C   UNL A   1      45.881  28.749  35.435  1.00  0.00     0.135 A 
ATOM     73  F   UNL A   1      43.089  26.708  36.571  1.00  0.00    -0.206 F 
ATOM     74  C   UNL A   1      45.386  26.486  36.985  1.00  0.00     0.059 A 
ATOM     75  C   UNL A   1      46.949  28.075  36.019  1.00  0.00     0.059 A 
ATOM     76  F   UNL A   1      46.147  29.845  34.707  1.00  0.00    -0.206 F 
ATOM     77  C   UNL A   1      46.690  26.954  36.807  1.00  0.00     0.060 A 
BRANCH  77  78
ATOM     78  S   UNL A   1      48.042  26.071  37.615  1.00  0.00     0.124 S 
ATOM     79  O   UNL A   1      48.912  27.173  38.012  1.00  0.00    -0.237 OA
ATOM     80  O   UNL A   1      47.359  25.379  38.704  1.00  0.00    -0.237 OA
ATOM     81  O   UNL A   1      48.562  25.209  36.559  1.00  0.00    -0.744 OA
ENDBRANCH  77  78
ENDBRANCH  56  70
BRANCH  57  82
ATOM     82  C   UNL A   1      36.949  32.810  30.925  1.00  0.00     0.058 A 
ATOM     83  C   UNL A   1      37.161  33.829  29.984  1.00  0.00     0.135 A 
ATOM     84  C   UNL A   1      35.624  32.436  31.196  1.00  0.00     0.135 A 
ATOM     85  F   UNL A   1      38.410  34.225  29.697  1.00  0.00    -0.206 F 
ATOM     86  C   UNL A   1      36.102  34.468  29.349  1.00  0.00     0.059 A 
ATOM     87  C   UNL A   1      34.548  33.043  30.556  1.00  0.00     0.059 A 
ATOM     88  F   UNL A   1      35.369  31.455  32.075  1.00  0.00    -0.206 F 
ATOM     89  C   UNL A   1      34.797  34.067  29.642  1.00  0.00     0.060 A 
BRANCH  89  90
ATOM     90  S   UNL A   1      33.428  34.870  28.780  1.00  0.00     0.124 S 
ATOM     91  O   UNL A   1      33.056  33.850  27.807  1.00  0.00    -0.237 OA
ATOM     92  O   UNL A   1      32.474  35.100  29.861  1.00  0.00    -0.237 OA
ATOM     93  O   UNL A   1      34.041  36.076  28.229  1.00  0.00    -0.744 OA
ENDBRANCH  89  90
ENDBRANCH  57  82
BRANCH  69  94
ATOM     94  C   UNL A   1      39.951  33.643  37.162  1.00  0.00     0.058 A 
ATOM     95  C   UNL A   1      40.597  34.886  37.239  1.00  0.00     0.135 A 
ATOM     96  C   UNL A   1      39.007  33.329  38.153  1.00  0.00     0.135 A 
ATOM     97  F   UNL A   1      41.513  35.229  36.320  1.00  0.00    -0.206 F 
ATOM     98  C   UNL A   1      40.332  35.778  38.272  1.00  0.00     0.059 A 
ATOM     99  C   UNL A   1      38.709  34.216  39.182  1.00  0.00     0.059 A 
ATOM    100  F   UNL A   1      38.354  32.157  38.119  1.00  0.00    -0.206 F 
ATOM    101  C   UNL A   1      39.385  35.434  39.240  1.00  0.00     0.060 A 
BRANCH 101 102
ATOM    102  S   UNL A   1      39.021  36.614  40.557  1.00  0.00     0.124 S 
ATOM    103  O   UNL A   1      40.335  36.788  41.166  1.00  0.00    -0.237 OA
ATOM    104  O   UNL A   1      38.509  37.764  39.816  1.00  0.00    -0.237 OA
ATOM    105  O   UNL A   1      38.035  35.916  41.376  1.00  0.00    -0.744 OA
ENDBRANCH 101 102
ENDBRANCH  69  94
ENDBRANCH  43  44
ENDBRANCH  35  38
ENDBRANCH  33  34
ENDBRANCH  32  33
ENDBRANCH   1  32
TORSDOF 18
ENDMDL
MODEL 3
REMARK VINA RESULT:     -11.9      2.604      9.094
REMARK SMILES Cc1nnc(-c2ccccc2-c2cc(NCC(=O)NCCCCNC(=O)c3ccc(-c4c5nc(c(-c6c(F)cc(S(=O)(=O)[O-])cc6F)c6ccc([nH]6)c(-c6c(F)cc(S(=O)(=O)[O-])cc6F)c6nc(c(-c7c(F)cc(S(=O)(=O)[O-])cc7F)c7ccc4[nH]7)C=C6)C=C5)cc3)nc3[nH]ccc23)o1
REMARK SMILES IDX 21 1 20 2 19 3 17 4 18 5 16 7 15 8 14 10 12 11 13 12 98 13
REMARK SMILES IDX 94 14 97 15 93 16 95 17 96 18 11 20 6 21 7 22 8 23 10 24
REMARK SMILES IDX 9 25 5 26 1 27 2 28 3 29 99 30 4 31 22 32 23 33 24 34 25 35
REMARK SMILES IDX 26 37 27 38 28 39 92 40 29 41 91 42 30 43 31 44 32 45 85 46
REMARK SMILES IDX 33 47 90 48 84 49 86 50 34 51 89 52 83 53 82 54 35 56 69 57
REMARK SMILES IDX 48 58 68 59 49 60 52 61 67 62 87 63 50 64 51 65 66 67 88 68
REMARK SMILES IDX 53 69 36 70 37 71 46 72 38 73 39 74 45 75 47 76 40 77 41 78
REMARK SMILES IDX 42 79 43 80 44 81 70 82 71 83 80 84 72 85 73 86 79 87 81 88
REMARK SMILES IDX 74 89 75 90 76 91 77 92 78 93 54 94 55 95 64 96 56 97 57 98
REMARK SMILES IDX 63 99 65 100 58 101 59 102 60 103 61 104 62 105
REMARK H PARENT 19 6 15 9 95 19 24 36 86 55 52 66
REMARK Flexibility Score: inf
ROOT
ATOM      1  C   UNL A   1      35.318  21.779  24.452  1.00  0.00     0.023 C 
ENDROOT
BRANCH   1   2
ATOM      2  C   UNL A   1      33.940  21.301  24.910  1.00  0.00     0.116 C 
BRANCH   2   3
ATOM      3  N   UNL A   1      33.610  21.827  26.222  1.00  0.00    -0.355 N 
ATOM      4  C   UNL A   1      32.380  22.166  26.715  1.00  0.00     0.239 C 
ATOM      5  O   UNL A   1      32.320  22.702  27.824  1.00  0.00    -0.273 OA
ATOM      6  H   UNL A   1      34.368  21.955  26.836  1.00  0.00     0.163 HD
BRANCH   4   7
ATOM      7  C   UNL A   1      31.115  21.886  25.893  1.00  0.00     0.214 C 
BRANCH   7   8
ATOM      8  N   UNL A   1      30.444  23.129  25.517  1.00  0.00    -0.361 N 
ATOM      9  H   UNL A   1      29.529  23.307  25.837  1.00  0.00     0.162 HD
BRANCH   8  10
ATOM     10  C   UNL A   1      31.087  24.059  24.715  1.00  0.00     0.129 A 
ATOM     11  C   UNL A   1      32.211  26.223  24.553  1.00  0.00    -0.003 A 
ATOM     12  C   UNL A   1      31.493  25.265  25.294  1.00  0.00     0.056 A 
ATOM     13  C   UNL A   1      32.467  25.909  23.203  1.00  0.00     0.027 A 
ATOM     14  C   UNL A   1      31.970  24.703  22.732  1.00  0.00     0.140 A 
ATOM     15  C   UNL A   1      33.148  26.516  22.107  1.00  0.00     0.030 A 
ATOM     16  N   UNL A   1      31.281  23.777  23.415  1.00  0.00    -0.213 NA
ATOM     17  N   UNL A   1      32.310  24.582  21.413  1.00  0.00    -0.346 N 
ATOM     18  C   UNL A   1      33.031  25.679  21.017  1.00  0.00     0.085 A 
ATOM     19  H   UNL A   1      32.072  23.822  20.834  1.00  0.00     0.167 HD
BRANCH  11  20
ATOM     20  C   UNL A   1      32.680  27.493  25.126  1.00  0.00    -0.005 A 
ATOM     21  C   UNL A   1      32.175  28.752  24.730  1.00  0.00     0.047 A 
ATOM     22  C   UNL A   1      32.671  29.929  25.321  1.00  0.00     0.014 A 
ATOM     23  C   UNL A   1      33.661  29.874  26.300  1.00  0.00     0.001 A 
ATOM     24  C   UNL A   1      33.689  27.469  26.111  1.00  0.00     0.009 A 
ATOM     25  C   UNL A   1      34.170  28.642  26.694  1.00  0.00     0.001 A 
BRANCH  21  26
ATOM     26  C   UNL A   1      31.119  28.889  23.747  1.00  0.00     0.248 A 
ATOM     27  C   UNL A   1      27.690  28.469  23.065  1.00  0.00     0.113 C 
ATOM     28  C   UNL A   1      29.140  28.722  23.008  1.00  0.00     0.213 A 
ATOM     29  N   UNL A   1      29.881  29.134  22.001  1.00  0.00    -0.113 NA
ATOM     30  O   UNL A   1      29.860  28.531  24.156  1.00  0.00    -0.421 OA
ATOM     31  N   UNL A   1      31.165  29.261  22.486  1.00  0.00    -0.108 NA
ENDBRANCH  21  26
ENDBRANCH  11  20
ENDBRANCH   8  10
ENDBRANCH   7   8
ENDBRANCH   4   7
ENDBRANCH   2   3
ENDBRANCH   1   2
BRANCH   1  32
ATOM     32  C   UNL A   1      35.468  23.303  24.435  1.00  0.00     0.023 C 
BRANCH  32  33
ATOM     33  C   UNL A   1      36.725  23.842  25.105  1.00  0.00     0.116 C 
BRANCH  33  34
ATOM     34  N   UNL A   1      37.756  22.838  25.314  1.00  0.00    -0.352 N 
ATOM     35  C   UNL A   1      38.926  22.941  26.029  1.00  0.00     0.251 C 
ATOM     36  H   UNL A   1      37.596  21.967  24.885  1.00  0.00     0.163 HD
ATOM     37  O   UNL A   1      39.717  22.002  26.063  1.00  0.00    -0.269 OA
BRANCH  35  38
ATOM     38  C   UNL A   1      39.259  24.208  26.719  1.00  0.00     0.039 A 
ATOM     39  C   UNL A   1      38.817  24.388  28.032  1.00  0.00     0.014 A 
ATOM     40  C   UNL A   1      40.022  25.198  26.094  1.00  0.00     0.014 A 
ATOM     41  C   UNL A   1      39.197  25.529  28.743  1.00  0.00     0.010 A 
ATOM     42  C   UNL A   1      40.461  26.298  26.826  1.00  0.00     0.010 A 
ATOM     43  C   UNL A   1      40.053  26.476  28.158  1.00  0.00    -0.014 A 
BRANCH  43  44
ATOM     44  C   UNL A   1      40.527  27.663  28.914  1.00  0.00     0.031 A 
ATOM     45  C   UNL A   1      41.896  27.659  29.537  1.00  0.00     0.074 A 
ATOM     46  C   UNL A   1      39.703  28.715  29.098  1.00  0.00     0.049 A 
ATOM     47  N   UNL A   1      42.456  28.553  30.310  1.00  0.00    -0.248 NA
ATOM     48  C   UNL A   1      42.737  26.479  29.280  1.00  0.00     0.031 C 
ATOM     49  C   UNL A   1      38.336  28.820  28.581  1.00  0.00     0.029 A 
ATOM     50  N   UNL A   1      39.891  29.890  29.779  1.00  0.00    -0.354 N 
ATOM     51  C   UNL A   1      43.702  28.038  30.645  1.00  0.00     0.074 A 
ATOM     52  C   UNL A   1      43.797  26.731  30.033  1.00  0.00     0.031 C 
ATOM     53  C   UNL A   1      37.818  30.005  28.946  1.00  0.00     0.029 A 
ATOM     54  C   UNL A   1      38.799  30.726  29.751  1.00  0.00     0.049 A 
ATOM     55  H   UNL A   1      40.729  30.116  30.244  1.00  0.00     0.167 HD
ATOM     56  C   UNL A   1      44.688  28.611  31.377  1.00  0.00     0.037 A 
ATOM     57  C   UNL A   1      38.609  31.936  30.316  1.00  0.00     0.037 A 
ATOM     58  C   UNL A   1      44.601  29.926  31.957  1.00  0.00     0.049 A 
ATOM     59  C   UNL A   1      39.723  32.557  31.113  1.00  0.00     0.074 A 
ATOM     60  C   UNL A   1      45.563  30.614  32.676  1.00  0.00     0.029 A 
ATOM     61  N   UNL A   1      43.492  30.754  31.877  1.00  0.00    -0.354 N 
ATOM     62  N   UNL A   1      40.912  32.073  31.384  1.00  0.00    -0.248 NA
ATOM     63  C   UNL A   1      39.473  33.890  31.679  1.00  0.00     0.031 C 
ATOM     64  C   UNL A   1      45.024  31.848  33.057  1.00  0.00     0.029 A 
ATOM     65  C   UNL A   1      43.741  31.944  32.540  1.00  0.00     0.049 A 
ATOM     66  H   UNL A   1      42.651  30.529  31.417  1.00  0.00     0.167 HD
ATOM     67  C   UNL A   1      41.563  33.055  32.122  1.00  0.00     0.074 A 
ATOM     68  C   UNL A   1      40.637  34.162  32.252  1.00  0.00     0.031 C 
ATOM     69  C   UNL A   1      42.814  33.042  32.645  1.00  0.00     0.037 A 
BRANCH  56  70
ATOM     70  C   UNL A   1      45.949  27.818  31.581  1.00  0.00     0.058 A 
ATOM     71  C   UNL A   1      47.065  27.987  30.745  1.00  0.00     0.135 A 
ATOM     72  C   UNL A   1      46.054  26.897  32.635  1.00  0.00     0.135 A 
ATOM     73  F   UNL A   1      47.012  28.844  29.712  1.00  0.00    -0.206 F 
ATOM     74  C   UNL A   1      48.227  27.247  30.925  1.00  0.00     0.059 A 
ATOM     75  C   UNL A   1      47.218  26.164  32.850  1.00  0.00     0.059 A 
ATOM     76  F   UNL A   1      45.018  26.697  33.464  1.00  0.00    -0.206 F 
ATOM     77  C   UNL A   1      48.293  26.334  31.980  1.00  0.00     0.060 A 
BRANCH  77  78
ATOM     78  S   UNL A   1      49.808  25.377  32.199  1.00  0.00     0.124 S 
ATOM     79  O   UNL A   1      49.390  24.394  33.195  1.00  0.00    -0.237 OA
ATOM     80  O   UNL A   1      50.049  24.856  30.857  1.00  0.00    -0.237 OA
ATOM     81  O   UNL A   1      50.772  26.369  32.664  1.00  0.00    -0.744 OA
ENDBRANCH  77  78
ENDBRANCH  56  70
BRANCH  57  82
ATOM     82  C   UNL A   1      37.321  32.653  30.122  1.00  0.00     0.058 A 
ATOM     83  C   UNL A   1      37.191  33.643  29.137  1.00  0.00     0.135 A 
ATOM     84  C   UNL A   1      36.196  32.363  30.910  1.00  0.00     0.135 A 
ATOM     85  F   UNL A   1      38.241  33.959  28.363  1.00  0.00    -0.206 F 
ATOM     86  C   UNL A   1      36.000  34.335  28.949  1.00  0.00     0.059 A 
ATOM     87  C   UNL A   1      34.987  33.025  30.727  1.00  0.00     0.059 A 
ATOM     88  F   UNL A   1      36.264  31.413  31.855  1.00  0.00    -0.206 F 
ATOM     89  C   UNL A   1      34.901  34.019  29.751  1.00  0.00     0.060 A 
BRANCH  89  90
ATOM     90  S   UNL A   1      33.344  34.890  29.472  1.00  0.00     0.124 S 
ATOM     91  O   UNL A   1      33.802  36.103  28.806  1.00  0.00    -0.237 OA
ATOM     92  O   UNL A   1      32.606  33.945  28.640  1.00  0.00    -0.237 OA
ATOM     93  O   UNL A   1      32.816  35.070  30.821  1.00  0.00    -0.744 OA
ENDBRANCH  89  90
ENDBRANCH  57  82
BRANCH  69  94
ATOM     94  C   UNL A   1      43.274  34.277  33.367  1.00  0.00     0.058 A 
ATOM     95  C   UNL A   1      43.225  34.377  34.765  1.00  0.00     0.135 A 
ATOM     96  C   UNL A   1      43.819  35.355  32.649  1.00  0.00     0.135 A 
ATOM     97  F   UNL A   1      42.707  33.377  35.495  1.00  0.00    -0.206 F 
ATOM     98  C   UNL A   1      43.682  35.511  35.428  1.00  0.00     0.059 A 
ATOM     99  C   UNL A   1      44.304  36.488  33.293  1.00  0.00     0.059 A 
ATOM    100  F   UNL A   1      43.897  35.305  31.310  1.00  0.00    -0.206 F 
ATOM    101  C   UNL A   1      44.221  36.562  34.682  1.00  0.00     0.060 A 
BRANCH 101 102
ATOM    102  S   UNL A   1      44.846  38.014  35.555  1.00  0.00     0.124 S 
ATOM    103  O   UNL A   1      46.092  37.504  36.117  1.00  0.00    -0.237 OA
ATOM    104  O   UNL A   1      44.989  38.990  34.478  1.00  0.00    -0.237 OA
ATOM    105  O   UNL A   1      43.793  38.308  36.522  1.00  0.00    -0.744 OA
ENDBRANCH 101 102
ENDBRANCH  69  94
ENDBRANCH  43  44
ENDBRANCH  35  38
ENDBRANCH  33  34
ENDBRANCH  32  33
ENDBRANCH   1  32
TORSDOF 18
ENDMDL
