MODEL 1
REMARK VINA RESULT:     -11.0      0.000      0.000
REMARK SMILES Cc1cc(N)c(S(=O)(=O)NCC(=O)NCCCCNC(=O)c2ccc(-c3c4nc(c(-c5c(F)cc(S(=O)(=O)[O-])cc5F)c5ccc([nH]5)c(-c5c(F)cc(S(=O)(=O)[O-])cc5F)c5nc(c(-c6c(F)cc(S(=O)(=O)[O-])cc6F)c6ccc3[nH]6)C=C5)C=C4)cc2)cc1Cl
REMARK SMILES IDX 16 1 15 2 14 3 12 4 13 5 11 7 10 8 7 10 8 11 9 12 6 13 1 14
REMARK SMILES IDX 2 15 3 16 89 17 4 18 88 19 90 20 5 21 17 24 18 25 19 26
REMARK SMILES IDX 20 27 21 29 22 30 23 31 87 32 24 33 86 34 25 35 26 36 27 37
REMARK SMILES IDX 80 38 28 39 85 40 79 41 81 42 29 43 84 44 78 45 77 46 30 48
REMARK SMILES IDX 64 49 43 50 63 51 44 52 47 53 62 54 82 55 45 56 46 57 61 59
REMARK SMILES IDX 83 60 48 61 31 62 32 63 41 64 33 65 34 66 40 67 42 68 35 69
REMARK SMILES IDX 36 70 37 71 38 72 39 73 65 74 66 75 75 76 67 77 68 78 74 79
REMARK SMILES IDX 76 80 69 81 70 82 71 83 72 84 73 85 49 86 50 87 59 88 51 89
REMARK SMILES IDX 52 90 58 91 60 92 53 93 54 94 55 95 56 96 57 97
REMARK H PARENT 14 6 10 9 5 22 5 23 19 28 81 47 47 58
REMARK Flexibility Score: inf
ROOT
ATOM      1  C   UNL A   1      31.605  28.051  25.748  1.00  0.00     0.023 C 
ENDROOT
BRANCH   1   2
ATOM      2  C   UNL A   1      30.984  26.677  25.511  1.00  0.00     0.116 C 
BRANCH   2   3
ATOM      3  N   UNL A   1      31.464  25.746  26.513  1.00  0.00    -0.355 N 
ATOM      4  C   UNL A   1      31.322  24.390  26.523  1.00  0.00     0.235 C 
ATOM      5  O   UNL A   1      31.452  23.778  27.584  1.00  0.00    -0.274 OA
ATOM      6  H   UNL A   1      31.948  26.139  27.275  1.00  0.00     0.163 HD
BRANCH   4   7
ATOM      7  C   UNL A   1      31.074  23.651  25.225  1.00  0.00     0.198 C 
BRANCH   7   8
ATOM      8  N   UNL A   1      30.989  22.182  25.303  1.00  0.00    -0.202 NA
ATOM      9  H   UNL A   1      31.008  21.945  26.295  1.00  0.00     0.141 HD
BRANCH   8  10
ATOM     10  S   UNL A   1      32.135  21.196  24.552  1.00  0.00     0.243 S 
ATOM     11  O   UNL A   1      31.953  21.375  23.127  1.00  0.00    -0.207 OA
ATOM     12  O   UNL A   1      32.005  19.890  25.152  1.00  0.00    -0.207 OA
BRANCH  10  13
ATOM     13  C   UNL A   1      33.723  21.839  25.021  1.00  0.00     0.106 A 
ATOM     14  C   UNL A   1      37.780  22.999  25.893  1.00  0.00     0.046 C 
ATOM     15  C   UNL A   1      36.356  22.650  25.564  1.00  0.00    -0.030 A 
ATOM     16  C   UNL A   1      35.491  22.246  26.597  1.00  0.00     0.031 A 
ATOM     17  C   UNL A   1      35.867  22.670  24.254  1.00  0.00     0.045 A 
ATOM     18  C   UNL A   1      34.166  21.850  26.354  1.00  0.00     0.052 A 
ATOM     19  C   UNL A   1      34.555  22.290  23.985  1.00  0.00     0.044 A 
ATOM     20  Cl  UNL A   1      36.865  23.112  22.917  1.00  0.00    -0.084 Cl
BRANCH  18  21
ATOM     21  N   UNL A   1      33.413  21.436  27.439  1.00  0.00    -0.398 N 
ATOM     22  H   UNL A   1      33.718  20.678  27.989  1.00  0.00     0.156 HD
ATOM     23  H   UNL A   1      32.573  21.898  27.660  1.00  0.00     0.156 HD
ENDBRANCH  18  21
ENDBRANCH  10  13
ENDBRANCH   8  10
ENDBRANCH   7   8
ENDBRANCH   4   7
ENDBRANCH   2   3
ENDBRANCH   1   2
BRANCH   1  24
ATOM     24  C   UNL A   1      32.067  28.290  27.172  1.00  0.00     0.023 C 
BRANCH  24  25
ATOM     25  C   UNL A   1      33.491  28.806  27.284  1.00  0.00     0.116 C 
BRANCH  25  26
ATOM     26  N   UNL A   1      33.614  30.133  27.888  1.00  0.00    -0.352 N 
ATOM     27  C   UNL A   1      34.740  30.703  28.450  1.00  0.00     0.251 C 
ATOM     28  H   UNL A   1      32.798  30.684  27.894  1.00  0.00     0.163 HD
ATOM     29  O   UNL A   1      34.699  31.812  28.968  1.00  0.00    -0.269 OA
BRANCH  27  30
ATOM     30  C   UNL A   1      35.980  29.898  28.450  1.00  0.00     0.039 A 
ATOM     31  C   UNL A   1      36.399  29.311  29.642  1.00  0.00     0.014 A 
ATOM     32  C   UNL A   1      36.818  29.932  27.335  1.00  0.00     0.014 A 
ATOM     33  C   UNL A   1      37.740  28.996  29.795  1.00  0.00     0.010 A 
ATOM     34  C   UNL A   1      38.138  29.487  27.459  1.00  0.00     0.010 A 
ATOM     35  C   UNL A   1      38.635  29.090  28.712  1.00  0.00    -0.014 A 
BRANCH  35  36
ATOM     36  C   UNL A   1      40.079  28.801  28.939  1.00  0.00     0.031 A 
ATOM     37  C   UNL A   1      40.691  27.483  28.524  1.00  0.00     0.074 A 
ATOM     38  C   UNL A   1      40.866  29.773  29.444  1.00  0.00     0.049 A 
ATOM     39  N   UNL A   1      41.925  27.070  28.664  1.00  0.00    -0.248 NA
ATOM     40  C   UNL A   1      39.810  26.499  27.873  1.00  0.00     0.031 C 
ATOM     41  C   UNL A   1      40.401  31.099  29.860  1.00  0.00     0.029 A 
ATOM     42  N   UNL A   1      42.220  29.819  29.653  1.00  0.00    -0.354 N 
ATOM     43  C   UNL A   1      41.961  25.773  28.158  1.00  0.00     0.074 A 
ATOM     44  C   UNL A   1      40.620  25.460  27.717  1.00  0.00     0.031 C 
ATOM     45  C   UNL A   1      41.457  31.854  30.189  1.00  0.00     0.029 A 
ATOM     46  C   UNL A   1      42.662  31.039  30.107  1.00  0.00     0.049 A 
ATOM     47  H   UNL A   1      42.817  29.053  29.494  1.00  0.00     0.167 HD
ATOM     48  C   UNL A   1      43.016  24.928  28.065  1.00  0.00     0.037 A 
ATOM     49  C   UNL A   1      43.897  31.457  30.446  1.00  0.00     0.037 A 
ATOM     50  C   UNL A   1      44.360  25.263  28.463  1.00  0.00     0.049 A 
ATOM     51  C   UNL A   1      45.041  30.492  30.359  1.00  0.00     0.074 A 
ATOM     52  C   UNL A   1      45.498  24.476  28.401  1.00  0.00     0.029 A 
ATOM     53  N   UNL A   1      44.753  26.488  28.983  1.00  0.00    -0.354 N 
ATOM     54  N   UNL A   1      45.041  29.256  29.925  1.00  0.00    -0.248 NA
ATOM     55  C   UNL A   1      46.347  30.969  30.833  1.00  0.00     0.031 C 
ATOM     56  C   UNL A   1      46.571  25.212  28.913  1.00  0.00     0.029 A 
ATOM     57  C   UNL A   1      46.111  26.474  29.257  1.00  0.00     0.049 A 
ATOM     58  H   UNL A   1      44.154  27.255  29.134  1.00  0.00     0.167 HD
ATOM     59  C   UNL A   1      46.345  28.804  30.075  1.00  0.00     0.074 A 
ATOM     60  C   UNL A   1      47.113  29.909  30.613  1.00  0.00     0.031 C 
ATOM     61  C   UNL A   1      46.858  27.580  29.799  1.00  0.00     0.037 A 
BRANCH  48  62
ATOM     62  C   UNL A   1      42.775  23.546  27.519  1.00  0.00     0.058 A 
ATOM     63  C   UNL A   1      42.952  23.244  26.160  1.00  0.00     0.135 A 
ATOM     64  C   UNL A   1      42.437  22.490  28.384  1.00  0.00     0.135 A 
ATOM     65  F   UNL A   1      43.259  24.216  25.287  1.00  0.00    -0.206 F 
ATOM     66  C   UNL A   1      42.794  21.948  25.676  1.00  0.00     0.059 A 
ATOM     67  C   UNL A   1      42.295  21.183  27.924  1.00  0.00     0.059 A 
ATOM     68  F   UNL A   1      42.255  22.722  29.694  1.00  0.00    -0.206 F 
ATOM     69  C   UNL A   1      42.468  20.923  26.566  1.00  0.00     0.060 A 
BRANCH  69  70
ATOM     70  S   UNL A   1      42.291  19.245  25.924  1.00  0.00     0.124 S 
ATOM     71  O   UNL A   1      42.818  18.453  27.032  1.00  0.00    -0.237 OA
ATOM     72  O   UNL A   1      40.853  19.146  25.703  1.00  0.00    -0.237 OA
ATOM     73  O   UNL A   1      43.110  19.253  24.716  1.00  0.00    -0.744 OA
ENDBRANCH  69  70
ENDBRANCH  48  62
BRANCH  49  74
ATOM     74  C   UNL A   1      44.093  32.850  30.924  1.00  0.00     0.058 A 
ATOM     75  C   UNL A   1      44.271  33.904  30.019  1.00  0.00     0.135 A 
ATOM     76  C   UNL A   1      44.055  33.158  32.294  1.00  0.00     0.135 A 
ATOM     77  F   UNL A   1      44.319  33.658  28.700  1.00  0.00    -0.206 F 
ATOM     78  C   UNL A   1      44.402  35.220  30.453  1.00  0.00     0.059 A 
ATOM     79  C   UNL A   1      44.155  34.467  32.750  1.00  0.00     0.059 A 
ATOM     80  F   UNL A   1      43.871  32.184  33.197  1.00  0.00    -0.206 F 
ATOM     81  C   UNL A   1      44.336  35.491  31.821  1.00  0.00     0.060 A 
BRANCH  81  82
ATOM     82  S   UNL A   1      44.431  37.208  32.371  1.00  0.00     0.124 S 
ATOM     83  O   UNL A   1      43.843  37.910  31.238  1.00  0.00    -0.237 OA
ATOM     84  O   UNL A   1      43.632  37.184  33.592  1.00  0.00    -0.237 OA
ATOM     85  O   UNL A   1      45.862  37.415  32.573  1.00  0.00    -0.744 OA
ENDBRANCH  81  82
ENDBRANCH  49  74
BRANCH  61  86
ATOM     86  C   UNL A   1      48.320  27.373  30.071  1.00  0.00     0.058 A 
ATOM     87  C   UNL A   1      48.770  26.900  31.312  1.00  0.00     0.135 A 
ATOM     88  C   UNL A   1      49.272  27.602  29.066  1.00  0.00     0.135 A 
ATOM     89  F   UNL A   1      47.898  26.676  32.307  1.00  0.00    -0.206 F 
ATOM     90  C   UNL A   1      50.121  26.675  31.555  1.00  0.00     0.059 A 
ATOM     91  C   UNL A   1      50.626  27.363  29.279  1.00  0.00     0.059 A 
ATOM     92  F   UNL A   1      48.888  28.049  27.859  1.00  0.00    -0.206 F 
ATOM     93  C   UNL A   1      51.041  26.907  30.531  1.00  0.00     0.060 A 
BRANCH  93  94
ATOM     94  S   UNL A   1      52.787  26.577  30.848  1.00  0.00     0.124 S 
ATOM     95  O   UNL A   1      53.330  26.545  29.494  1.00  0.00    -0.237 OA
ATOM     96  O   UNL A   1      53.179  27.723  31.661  1.00  0.00    -0.237 OA
ATOM     97  O   UNL A   1      52.769  25.296  31.549  1.00  0.00    -0.744 OA
ENDBRANCH  93  94
ENDBRANCH  61  86
ENDBRANCH  35  36
ENDBRANCH  27  30
ENDBRANCH  25  26
ENDBRANCH  24  25
ENDBRANCH   1  24
TORSDOF 18
ENDMDL
MODEL 2
REMARK VINA RESULT:     -10.7      2.016      2.543
REMARK SMILES Cc1cc(N)c(S(=O)(=O)NCC(=O)NCCCCNC(=O)c2ccc(-c3c4nc(c(-c5c(F)cc(S(=O)(=O)[O-])cc5F)c5ccc([nH]5)c(-c5c(F)cc(S(=O)(=O)[O-])cc5F)c5nc(c(-c6c(F)cc(S(=O)(=O)[O-])cc6F)c6ccc3[nH]6)C=C5)C=C4)cc2)cc1Cl
REMARK SMILES IDX 16 1 15 2 14 3 12 4 13 5 11 7 10 8 7 10 8 11 9 12 6 13 1 14
REMARK SMILES IDX 2 15 3 16 89 17 4 18 88 19 90 20 5 21 17 24 18 25 19 26
REMARK SMILES IDX 20 27 21 29 22 30 23 31 87 32 24 33 86 34 25 35 26 36 27 37
REMARK SMILES IDX 80 38 28 39 85 40 79 41 81 42 29 43 84 44 78 45 77 46 30 48
REMARK SMILES IDX 64 49 43 50 63 51 44 52 47 53 62 54 82 55 45 56 46 57 61 59
REMARK SMILES IDX 83 60 48 61 31 62 32 63 41 64 33 65 34 66 40 67 42 68 35 69
REMARK SMILES IDX 36 70 37 71 38 72 39 73 65 74 66 75 75 76 67 77 68 78 74 79
REMARK SMILES IDX 76 80 69 81 70 82 71 83 72 84 73 85 49 86 50 87 59 88 51 89
REMARK SMILES IDX 52 90 58 91 60 92 53 93 54 94 55 95 56 96 57 97
REMARK H PARENT 14 6 10 9 5 22 5 23 19 28 81 47 47 58
REMARK Flexibility Score: inf
ROOT
ATOM      1  C   UNL A   1      31.624  29.667  25.927  1.00  0.00     0.023 C 
ENDROOT
BRANCH   1   2
ATOM      2  C   UNL A   1      32.120  29.530  24.490  1.00  0.00     0.116 C 
BRANCH   2   3
ATOM      3  N   UNL A   1      31.012  29.708  23.573  1.00  0.00    -0.355 N 
ATOM      4  C   UNL A   1      30.567  28.831  22.628  1.00  0.00     0.235 C 
ATOM      5  O   UNL A   1      29.871  29.248  21.700  1.00  0.00    -0.274 OA
ATOM      6  H   UNL A   1      30.525  30.561  23.640  1.00  0.00     0.163 HD
BRANCH   4   7
ATOM      7  C   UNL A   1      30.875  27.356  22.767  1.00  0.00     0.198 C 
BRANCH   7   8
ATOM      8  N   UNL A   1      31.297  26.647  21.546  1.00  0.00    -0.202 NA
ATOM      9  H   UNL A   1      30.698  25.825  21.469  1.00  0.00     0.141 HD
BRANCH   8  10
ATOM     10  S   UNL A   1      32.883  26.105  21.348  1.00  0.00     0.243 S 
ATOM     11  O   UNL A   1      33.739  27.211  21.722  1.00  0.00    -0.207 OA
ATOM     12  O   UNL A   1      32.957  25.532  20.027  1.00  0.00    -0.207 OA
BRANCH  10  13
ATOM     13  C   UNL A   1      33.101  24.782  22.513  1.00  0.00     0.106 A 
ATOM     14  C   UNL A   1      33.109  21.522  25.331  1.00  0.00     0.046 C 
ATOM     15  C   UNL A   1      33.144  22.626  24.312  1.00  0.00    -0.030 A 
ATOM     16  C   UNL A   1      33.568  23.909  24.703  1.00  0.00     0.031 A 
ATOM     17  C   UNL A   1      32.727  22.435  22.991  1.00  0.00     0.045 A 
ATOM     18  C   UNL A   1      33.569  25.000  23.819  1.00  0.00     0.052 A 
ATOM     19  C   UNL A   1      32.725  23.497  22.091  1.00  0.00     0.044 A 
ATOM     20  Cl  UNL A   1      32.152  20.907  22.431  1.00  0.00    -0.084 Cl
BRANCH  18  21
ATOM     21  N   UNL A   1      33.971  26.226  24.319  1.00  0.00    -0.398 N 
ATOM     22  H   UNL A   1      34.386  26.890  23.721  1.00  0.00     0.156 HD
ATOM     23  H   UNL A   1      33.844  26.434  25.273  1.00  0.00     0.156 HD
ENDBRANCH  18  21
ENDBRANCH  10  13
ENDBRANCH   8  10
ENDBRANCH   7   8
ENDBRANCH   4   7
ENDBRANCH   2   3
ENDBRANCH   1   2
BRANCH   1  24
ATOM     24  C   UNL A   1      32.234  28.672  26.895  1.00  0.00     0.023 C 
BRANCH  24  25
ATOM     25  C   UNL A   1      33.651  29.013  27.324  1.00  0.00     0.116 C 
BRANCH  25  26
ATOM     26  N   UNL A   1      33.791  30.302  28.001  1.00  0.00    -0.352 N 
ATOM     27  C   UNL A   1      34.929  30.834  28.575  1.00  0.00     0.251 C 
ATOM     28  H   UNL A   1      32.978  30.855  28.053  1.00  0.00     0.163 HD
ATOM     29  O   UNL A   1      34.903  31.912  29.155  1.00  0.00    -0.269 OA
BRANCH  27  30
ATOM     30  C   UNL A   1      36.165  30.026  28.505  1.00  0.00     0.039 A 
ATOM     31  C   UNL A   1      36.632  29.414  29.667  1.00  0.00     0.014 A 
ATOM     32  C   UNL A   1      36.955  30.079  27.356  1.00  0.00     0.014 A 
ATOM     33  C   UNL A   1      37.978  29.092  29.756  1.00  0.00     0.010 A 
ATOM     34  C   UNL A   1      38.278  29.627  27.415  1.00  0.00     0.010 A 
ATOM     35  C   UNL A   1      38.825  29.204  28.638  1.00  0.00    -0.014 A 
BRANCH  35  36
ATOM     36  C   UNL A   1      40.277  28.907  28.797  1.00  0.00     0.031 A 
ATOM     37  C   UNL A   1      40.854  27.572  28.386  1.00  0.00     0.074 A 
ATOM     38  C   UNL A   1      41.097  29.884  29.234  1.00  0.00     0.049 A 
ATOM     39  N   UNL A   1      42.091  27.150  28.473  1.00  0.00    -0.248 NA
ATOM     40  C   UNL A   1      39.932  26.581  27.809  1.00  0.00     0.031 C 
ATOM     41  C   UNL A   1      40.667  31.226  29.637  1.00  0.00     0.029 A 
ATOM     42  N   UNL A   1      42.461  29.922  29.371  1.00  0.00    -0.354 N 
ATOM     43  C   UNL A   1      42.089  25.841  28.002  1.00  0.00     0.074 A 
ATOM     44  C   UNL A   1      40.724  25.529  27.640  1.00  0.00     0.031 C 
ATOM     45  C   UNL A   1      41.745  31.978  29.890  1.00  0.00     0.029 A 
ATOM     46  C   UNL A   1      42.938  31.149  29.767  1.00  0.00     0.049 A 
ATOM     47  H   UNL A   1      43.043  29.146  29.201  1.00  0.00     0.167 HD
ATOM     48  C   UNL A   1      43.130  24.982  27.876  1.00  0.00     0.037 A 
ATOM     49  C   UNL A   1      44.192  31.563  30.031  1.00  0.00     0.037 A 
ATOM     50  C   UNL A   1      44.496  25.314  28.196  1.00  0.00     0.049 A 
ATOM     51  C   UNL A   1      45.321  30.585  29.911  1.00  0.00     0.074 A 
ATOM     52  C   UNL A   1      45.622  24.514  28.095  1.00  0.00     0.029 A 
ATOM     53  N   UNL A   1      44.926  26.549  28.660  1.00  0.00    -0.354 N 
ATOM     54  N   UNL A   1      45.287  29.337  29.511  1.00  0.00    -0.248 NA
ATOM     55  C   UNL A   1      46.654  31.061  30.302  1.00  0.00     0.031 C 
ATOM     56  C   UNL A   1      46.727  25.253  28.530  1.00  0.00     0.029 A 
ATOM     57  C   UNL A   1      46.297  26.527  28.863  1.00  0.00     0.049 A 
ATOM     58  H   UNL A   1      44.343  27.325  28.822  1.00  0.00     0.167 HD
ATOM     59  C   UNL A   1      46.594  28.876  29.604  1.00  0.00     0.074 A 
ATOM     60  C   UNL A   1      47.398  29.987  30.072  1.00  0.00     0.031 C 
ATOM     61  C   UNL A   1      47.080  27.640  29.336  1.00  0.00     0.037 A 
BRANCH  48  62
ATOM     62  C   UNL A   1      42.848  23.589  27.382  1.00  0.00     0.058 A 
ATOM     63  C   UNL A   1      43.040  23.225  26.040  1.00  0.00     0.135 A 
ATOM     64  C   UNL A   1      42.455  22.582  28.281  1.00  0.00     0.135 A 
ATOM     65  F   UNL A   1      43.401  24.149  25.135  1.00  0.00    -0.206 F 
ATOM     66  C   UNL A   1      42.844  21.917  25.605  1.00  0.00     0.059 A 
ATOM     67  C   UNL A   1      42.273  21.264  27.872  1.00  0.00     0.059 A 
ATOM     68  F   UNL A   1      42.256  22.874  29.577  1.00  0.00    -0.206 F 
ATOM     69  C   UNL A   1      42.463  20.942  26.529  1.00  0.00     0.060 A 
BRANCH  69  70
ATOM     70  S   UNL A   1      42.236  19.247  25.952  1.00  0.00     0.124 S 
ATOM     71  O   UNL A   1      42.746  18.482  27.086  1.00  0.00    -0.237 OA
ATOM     72  O   UNL A   1      40.795  19.180  25.740  1.00  0.00    -0.237 OA
ATOM     73  O   UNL A   1      43.048  19.186  24.741  1.00  0.00    -0.744 OA
ENDBRANCH  69  70
ENDBRANCH  48  62
BRANCH  49  74
ATOM     74  C   UNL A   1      44.425  32.966  30.460  1.00  0.00     0.058 A 
ATOM     75  C   UNL A   1      44.494  33.302  31.819  1.00  0.00     0.135 A 
ATOM     76  C   UNL A   1      44.634  33.987  29.519  1.00  0.00     0.135 A 
ATOM     77  F   UNL A   1      44.296  32.361  32.755  1.00  0.00    -0.206 F 
ATOM     78  C   UNL A   1      44.765  34.603  32.232  1.00  0.00     0.059 A 
ATOM     79  C   UNL A   1      44.934  35.287  29.907  1.00  0.00     0.059 A 
ATOM     80  F   UNL A   1      44.594  33.710  28.207  1.00  0.00    -0.206 F 
ATOM     81  C   UNL A   1      44.991  35.586  31.268  1.00  0.00     0.060 A 
BRANCH  81  82
ATOM     82  S   UNL A   1      45.417  37.254  31.812  1.00  0.00     0.124 S 
ATOM     83  O   UNL A   1      46.258  37.713  30.714  1.00  0.00    -0.237 OA
ATOM     84  O   UNL A   1      44.106  37.886  31.922  1.00  0.00    -0.237 OA
ATOM     85  O   UNL A   1      46.101  37.026  33.082  1.00  0.00    -0.744 OA
ENDBRANCH  81  82
ENDBRANCH  49  74
BRANCH  61  86
ATOM     86  C   UNL A   1      48.553  27.425  29.537  1.00  0.00     0.058 A 
ATOM     87  C   UNL A   1      49.048  26.818  30.700  1.00  0.00     0.135 A 
ATOM     88  C   UNL A   1      49.470  27.784  28.536  1.00  0.00     0.135 A 
ATOM     89  F   UNL A   1      48.211  26.466  31.688  1.00  0.00    -0.206 F 
ATOM     90  C   UNL A   1      50.409  26.587  30.873  1.00  0.00     0.059 A 
ATOM     91  C   UNL A   1      50.832  27.542  28.678  1.00  0.00     0.059 A 
ATOM     92  F   UNL A   1      49.042  28.362  27.403  1.00  0.00    -0.206 F 
ATOM     93  C   UNL A   1      51.292  26.951  29.855  1.00  0.00     0.060 A 
BRANCH  93  94
ATOM     94  S   UNL A   1      53.052  26.613  30.078  1.00  0.00     0.124 S 
ATOM     95  O   UNL A   1      53.384  25.949  28.822  1.00  0.00    -0.237 OA
ATOM     96  O   UNL A   1      53.607  27.951  30.254  1.00  0.00    -0.237 OA
ATOM     97  O   UNL A   1      53.087  25.765  31.267  1.00  0.00    -0.744 OA
ENDBRANCH  93  94
ENDBRANCH  61  86
ENDBRANCH  35  36
ENDBRANCH  27  30
ENDBRANCH  25  26
ENDBRANCH  24  25
ENDBRANCH   1  24
TORSDOF 18
ENDMDL
MODEL 3
REMARK VINA RESULT:     -10.6      2.002      8.625
REMARK SMILES Cc1cc(N)c(S(=O)(=O)NCC(=O)NCCCCNC(=O)c2ccc(-c3c4nc(c(-c5c(F)cc(S(=O)(=O)[O-])cc5F)c5ccc([nH]5)c(-c5c(F)cc(S(=O)(=O)[O-])cc5F)c5nc(c(-c6c(F)cc(S(=O)(=O)[O-])cc6F)c6ccc3[nH]6)C=C5)C=C4)cc2)cc1Cl
REMARK SMILES IDX 16 1 15 2 14 3 12 4 13 5 11 7 10 8 7 10 8 11 9 12 6 13 1 14
REMARK SMILES IDX 2 15 3 16 89 17 4 18 88 19 90 20 5 21 17 24 18 25 19 26
REMARK SMILES IDX 20 27 21 29 22 30 23 31 87 32 24 33 86 34 25 35 26 36 27 37
REMARK SMILES IDX 80 38 28 39 85 40 79 41 81 42 29 43 84 44 78 45 77 46 30 48
REMARK SMILES IDX 64 49 43 50 63 51 44 52 47 53 62 54 82 55 45 56 46 57 61 59
REMARK SMILES IDX 83 60 48 61 31 62 32 63 41 64 33 65 34 66 40 67 42 68 35 69
REMARK SMILES IDX 36 70 37 71 38 72 39 73 65 74 66 75 75 76 67 77 68 78 74 79
REMARK SMILES IDX 76 80 69 81 70 82 71 83 72 84 73 85 49 86 50 87 59 88 51 89
REMARK SMILES IDX 52 90 58 91 60 92 53 93 54 94 55 95 56 96 57 97
REMARK H PARENT 14 6 10 9 5 22 5 23 19 28 81 47 47 58
REMARK Flexibility Score: inf
ROOT
ATOM      1  C   UNL A   1      31.534  29.473  25.790  1.00  0.00     0.023 C 
ENDROOT
BRANCH   1   2
ATOM      2  C   UNL A   1      32.128  29.387  24.387  1.00  0.00     0.116 C 
BRANCH   2   3
ATOM      3  N   UNL A   1      31.096  29.650  23.403  1.00  0.00    -0.355 N 
ATOM      4  C   UNL A   1      30.637  28.807  22.435  1.00  0.00     0.235 C 
ATOM      5  O   UNL A   1      30.035  29.273  21.466  1.00  0.00    -0.274 OA
ATOM      6  H   UNL A   1      30.678  30.540  23.439  1.00  0.00     0.163 HD
BRANCH   4   7
ATOM      7  C   UNL A   1      30.813  27.312  22.595  1.00  0.00     0.198 C 
BRANCH   7   8
ATOM      8  N   UNL A   1      31.305  26.571  21.420  1.00  0.00    -0.202 NA
ATOM      9  H   UNL A   1      30.726  25.735  21.343  1.00  0.00     0.141 HD
BRANCH   8  10
ATOM     10  S   UNL A   1      32.908  26.054  21.317  1.00  0.00     0.243 S 
ATOM     11  O   UNL A   1      33.725  27.187  21.700  1.00  0.00    -0.207 OA
ATOM     12  O   UNL A   1      33.058  25.446  20.018  1.00  0.00    -0.207 OA
BRANCH  10  13
ATOM     13  C   UNL A   1      33.091  24.769  22.529  1.00  0.00     0.106 A 
ATOM     14  C   UNL A   1      33.016  21.606  25.454  1.00  0.00     0.046 C 
ATOM     15  C   UNL A   1      33.081  22.675  24.400  1.00  0.00    -0.030 A 
ATOM     16  C   UNL A   1      33.514  23.965  24.754  1.00  0.00     0.031 A 
ATOM     17  C   UNL A   1      32.681  22.444  23.079  1.00  0.00     0.045 A 
ATOM     18  C   UNL A   1      33.543  25.026  23.834  1.00  0.00     0.052 A 
ATOM     19  C   UNL A   1      32.707  23.475  22.144  1.00  0.00     0.044 A 
ATOM     20  Cl  UNL A   1      32.096  20.905  22.562  1.00  0.00    -0.084 Cl
BRANCH  18  21
ATOM     21  N   UNL A   1      33.952  26.263  24.299  1.00  0.00    -0.398 N 
ATOM     22  H   UNL A   1      33.550  26.641  25.115  1.00  0.00     0.156 HD
ATOM     23  H   UNL A   1      34.645  26.767  23.813  1.00  0.00     0.156 HD
ENDBRANCH  18  21
ENDBRANCH  10  13
ENDBRANCH   8  10
ENDBRANCH   7   8
ENDBRANCH   4   7
ENDBRANCH   2   3
ENDBRANCH   1   2
BRANCH   1  24
ATOM     24  C   UNL A   1      32.178  28.542  26.798  1.00  0.00     0.023 C 
BRANCH  24  25
ATOM     25  C   UNL A   1      33.574  28.961  27.226  1.00  0.00     0.116 C 
BRANCH  25  26
ATOM     26  N   UNL A   1      33.642  30.253  27.910  1.00  0.00    -0.352 N 
ATOM     27  C   UNL A   1      34.735  30.821  28.533  1.00  0.00     0.251 C 
ATOM     28  H   UNL A   1      32.809  30.778  27.927  1.00  0.00     0.163 HD
ATOM     29  O   UNL A   1      34.648  31.896  29.113  1.00  0.00    -0.269 OA
BRANCH  27  30
ATOM     30  C   UNL A   1      35.999  30.055  28.517  1.00  0.00     0.039 A 
ATOM     31  C   UNL A   1      36.481  29.531  29.715  1.00  0.00     0.014 A 
ATOM     32  C   UNL A   1      36.794  30.068  27.369  1.00  0.00     0.014 A 
ATOM     33  C   UNL A   1      37.837  29.262  29.828  1.00  0.00     0.010 A 
ATOM     34  C   UNL A   1      38.131  29.668  27.460  1.00  0.00     0.010 A 
ATOM     35  C   UNL A   1      38.687  29.338  28.708  1.00  0.00    -0.014 A 
BRANCH  35  36
ATOM     36  C   UNL A   1      40.147  29.103  28.890  1.00  0.00     0.031 A 
ATOM     37  C   UNL A   1      41.030  30.130  29.559  1.00  0.00     0.074 A 
ATOM     38  C   UNL A   1      40.664  27.911  28.528  1.00  0.00     0.049 A 
ATOM     39  N   UNL A   1      42.320  30.086  29.781  1.00  0.00    -0.248 NA
ATOM     40  C   UNL A   1      40.392  31.368  30.038  1.00  0.00     0.031 C 
ATOM     41  C   UNL A   1      39.911  26.825  27.897  1.00  0.00     0.029 A 
ATOM     42  N   UNL A   1      41.925  27.394  28.677  1.00  0.00    -0.354 N 
ATOM     43  C   UNL A   1      42.653  31.295  30.385  1.00  0.00     0.074 A 
ATOM     44  C   UNL A   1      41.430  32.062  30.486  1.00  0.00     0.031 C 
ATOM     45  C   UNL A   1      40.696  25.745  27.792  1.00  0.00     0.029 A 
ATOM     46  C   UNL A   1      42.035  26.090  28.254  1.00  0.00     0.049 A 
ATOM     47  H   UNL A   1      42.679  27.905  29.050  1.00  0.00     0.167 HD
ATOM     48  C   UNL A   1      43.863  31.721  30.821  1.00  0.00     0.037 A 
ATOM     49  C   UNL A   1      43.098  25.264  28.214  1.00  0.00     0.037 A 
ATOM     50  C   UNL A   1      45.069  30.933  30.760  1.00  0.00     0.049 A 
ATOM     51  C   UNL A   1      44.431  25.771  28.677  1.00  0.00     0.074 A 
ATOM     52  C   UNL A   1      46.342  31.276  31.183  1.00  0.00     0.029 A 
ATOM     53  N   UNL A   1      45.149  29.642  30.261  1.00  0.00    -0.354 N 
ATOM     54  N   UNL A   1      44.730  26.936  29.198  1.00  0.00    -0.248 NA
ATOM     55  C   UNL A   1      45.574  24.862  28.522  1.00  0.00     0.031 C 
ATOM     56  C   UNL A   1      47.199  30.205  30.909  1.00  0.00     0.029 A 
ATOM     57  C   UNL A   1      46.452  29.178  30.352  1.00  0.00     0.049 A 
ATOM     58  H   UNL A   1      44.393  29.129  29.895  1.00  0.00     0.167 HD
ATOM     59  C   UNL A   1      46.098  26.902  29.432  1.00  0.00     0.074 A 
ATOM     60  C   UNL A   1      46.563  25.593  29.022  1.00  0.00     0.031 C 
ATOM     61  C   UNL A   1      46.899  27.875  29.933  1.00  0.00     0.037 A 
BRANCH  48  62
ATOM     62  C   UNL A   1      43.964  33.108  31.398  1.00  0.00     0.058 A 
ATOM     63  C   UNL A   1      44.159  34.236  30.587  1.00  0.00     0.135 A 
ATOM     64  C   UNL A   1      43.783  33.318  32.776  1.00  0.00     0.135 A 
ATOM     65  F   UNL A   1      44.352  34.092  29.266  1.00  0.00    -0.206 F 
ATOM     66  C   UNL A   1      44.181  35.522  31.120  1.00  0.00     0.059 A 
ATOM     67  C   UNL A   1      43.781  34.597  33.328  1.00  0.00     0.059 A 
ATOM     68  F   UNL A   1      43.593  32.275  33.599  1.00  0.00    -0.206 F 
ATOM     69  C   UNL A   1      43.988  35.692  32.492  1.00  0.00     0.060 A 
BRANCH  69  70
ATOM     70  S   UNL A   1      43.996  37.369  33.163  1.00  0.00     0.124 S 
ATOM     71  O   UNL A   1      45.257  37.381  33.900  1.00  0.00    -0.237 OA
ATOM     72  O   UNL A   1      43.959  38.188  31.956  1.00  0.00    -0.237 OA
ATOM     73  O   UNL A   1      42.791  37.414  33.984  1.00  0.00    -0.744 OA
ENDBRANCH  69  70
ENDBRANCH  48  62
BRANCH  49  74
ATOM     74  C   UNL A   1      42.934  23.884  27.689  1.00  0.00     0.058 A 
ATOM     75  C   UNL A   1      42.648  22.815  28.548  1.00  0.00     0.135 A 
ATOM     76  C   UNL A   1      43.010  23.619  26.313  1.00  0.00     0.135 A 
ATOM     77  F   UNL A   1      42.570  23.019  29.873  1.00  0.00    -0.206 F 
ATOM     78  C   UNL A   1      42.439  21.528  28.062  1.00  0.00     0.059 A 
ATOM     79  C   UNL A   1      42.778  22.348  25.800  1.00  0.00     0.059 A 
ATOM     80  F   UNL A   1      43.265  24.613  25.449  1.00  0.00    -0.206 F 
ATOM     81  C   UNL A   1      42.500  21.307  26.685  1.00  0.00     0.060 A 
BRANCH  81  82
ATOM     82  S   UNL A   1      42.154  19.650  26.056  1.00  0.00     0.124 S 
ATOM     83  O   UNL A   1      42.510  18.823  27.202  1.00  0.00    -0.237 OA
ATOM     84  O   UNL A   1      40.730  19.731  25.744  1.00  0.00    -0.237 OA
ATOM     85  O   UNL A   1      43.036  19.542  24.898  1.00  0.00    -0.744 OA
ENDBRANCH  81  82
ENDBRANCH  49  74
BRANCH  61  86
ATOM     86  C   UNL A   1      48.359  27.556  30.070  1.00  0.00     0.058 A 
ATOM     87  C   UNL A   1      48.867  26.948  31.228  1.00  0.00     0.135 A 
ATOM     88  C   UNL A   1      49.248  27.813  29.015  1.00  0.00     0.135 A 
ATOM     89  F   UNL A   1      48.057  26.691  32.267  1.00  0.00    -0.206 F 
ATOM     90  C   UNL A   1      50.213  26.620  31.343  1.00  0.00     0.059 A 
ATOM     91  C   UNL A   1      50.595  27.473  29.099  1.00  0.00     0.059 A 
ATOM     92  F   UNL A   1      48.807  28.387  27.884  1.00  0.00    -0.206 F 
ATOM     93  C   UNL A   1      51.069  26.885  30.272  1.00  0.00     0.060 A 
BRANCH  93  94
ATOM     94  S   UNL A   1      52.807  26.421  30.421  1.00  0.00     0.124 S 
ATOM     95  O   UNL A   1      53.118  26.008  29.056  1.00  0.00    -0.237 OA
ATOM     96  O   UNL A   1      53.426  27.666  30.863  1.00  0.00    -0.237 OA
ATOM     97  O   UNL A   1      52.790  25.350  31.413  1.00  0.00    -0.744 OA
ENDBRANCH  93  94
ENDBRANCH  61  86
ENDBRANCH  35  36
ENDBRANCH  27  30
ENDBRANCH  25  26
ENDBRANCH  24  25
ENDBRANCH   1  24
TORSDOF 18
ENDMDL
