MODEL 1
REMARK VINA RESULT:     -12.3      0.000      0.000
REMARK SMILES CS(=O)(=O)c1ccc(/C=C(/C(=O)NCCCCNC(=O)c2ccc(-c3c4nc(c(-c5c(F)cc(S(=O)(=O)[O-])cc5F)c5ccc([nH]5)c(-c5c(F)cc(S(=O)(=O)[O-])cc5F)c5nc(c(-c6c(F)cc(S(=O)(=O)[O-])cc6F)c6ccc3[nH]6)C=C5)C=C4)cc2)c2ccc(O)cc2)cc1
REMARK SMILES IDX 16 1 15 2 14 3 13 4 11 5 12 6 10 8 9 9 8 10 5 11 6 12 95 13
REMARK SMILES IDX 7 14 94 15 2 16 1 17 3 18 4 19 87 20 88 21 93 22 89 23 92 24
REMARK SMILES IDX 90 25 91 26 17 28 18 29 19 30 20 32 21 33 22 34 86 35 23 36
REMARK SMILES IDX 85 37 24 38 25 39 26 40 79 41 27 42 84 43 78 44 80 45 28 46
REMARK SMILES IDX 83 47 77 48 76 49 29 51 63 52 42 53 62 54 43 55 46 56 61 57
REMARK SMILES IDX 81 58 44 59 45 60 60 62 82 63 47 64 30 65 31 66 40 67 32 68
REMARK SMILES IDX 33 69 39 70 41 71 34 72 35 73 36 74 37 75 38 76 64 77 65 78
REMARK SMILES IDX 74 79 66 80 67 81 73 82 75 83 68 84 69 85 70 86 71 87 72 88
REMARK SMILES IDX 48 89 49 90 58 91 50 92 51 93 57 94 59 95 52 96 53 97 54 98
REMARK SMILES IDX 55 99 56 100
REMARK H PARENT 13 7 91 27 18 31 80 50 46 61
REMARK Flexibility Score: inf
ROOT
ATOM      1  C   UNL A   1      32.587  27.871  26.001  1.00  0.00     0.023 C 
ENDROOT
BRANCH   1   2
ATOM      2  C   UNL A   1      31.409  27.007  26.473  1.00  0.00     0.023 C 
BRANCH   2   3
ATOM      3  C   UNL A   1      31.354  25.615  25.835  1.00  0.00     0.116 C 
BRANCH   3   4
ATOM      4  N   UNL A   1      31.529  25.712  24.400  1.00  0.00    -0.352 N 
ATOM      5  C   UNL A   1      32.169  24.952  23.472  1.00  0.00     0.251 C 
ATOM      6  O   UNL A   1      32.138  25.380  22.315  1.00  0.00    -0.269 OA
ATOM      7  H   UNL A   1      31.087  26.501  24.012  1.00  0.00     0.163 HD
BRANCH   5   8
ATOM      8  C   UNL A   1      32.817  23.615  23.772  1.00  0.00     0.047 C 
ATOM      9  C   UNL A   1      32.095  22.485  23.948  1.00  0.00     0.022 C 
BRANCH   9  10
ATOM     10  C   UNL A   1      32.546  21.085  24.110  1.00  0.00    -0.025 A 
ATOM     11  C   UNL A   1      33.443  18.425  24.169  1.00  0.00     0.067 A 
ATOM     12  C   UNL A   1      33.804  19.303  25.191  1.00  0.00     0.021 A 
ATOM     13  C   UNL A   1      32.611  18.847  23.132  1.00  0.00     0.021 A 
ATOM     14  C   UNL A   1      33.332  20.621  25.171  1.00  0.00     0.009 A 
ATOM     15  C   UNL A   1      32.163  20.171  23.110  1.00  0.00     0.009 A 
BRANCH  11  16
ATOM     16  S   UNL A   1      34.075  16.765  24.152  1.00  0.00     0.175 S 
ATOM     17  C   UNL A   1      32.861  15.836  25.049  1.00  0.00     0.163 C 
ATOM     18  O   UNL A   1      35.300  16.749  24.933  1.00  0.00    -0.224 OA
ATOM     19  O   UNL A   1      34.066  16.319  22.774  1.00  0.00    -0.224 OA
ENDBRANCH  11  16
ENDBRANCH   9  10
BRANCH   8  20
ATOM     20  C   UNL A   1      34.277  23.627  24.049  1.00  0.00    -0.013 A 
ATOM     21  C   UNL A   1      34.713  24.069  25.311  1.00  0.00     0.013 A 
ATOM     22  C   UNL A   1      35.224  23.127  23.144  1.00  0.00     0.013 A 
ATOM     23  C   UNL A   1      36.053  23.969  25.682  1.00  0.00     0.047 A 
ATOM     24  C   UNL A   1      36.566  23.009  23.522  1.00  0.00     0.047 A 
ATOM     25  C   UNL A   1      36.964  23.415  24.794  1.00  0.00     0.115 A 
BRANCH  25  26
ATOM     26  O   UNL A   1      38.250  23.269  25.221  1.00  0.00    -0.508 OA
ATOM     27  H   UNL A   1      38.786  24.024  25.360  1.00  0.00     0.293 HD
ENDBRANCH  25  26
ENDBRANCH   8  20
ENDBRANCH   5   8
ENDBRANCH   3   4
ENDBRANCH   2   3
ENDBRANCH   1   2
BRANCH   1  28
ATOM     28  C   UNL A   1      33.552  28.307  27.098  1.00  0.00     0.116 C 
BRANCH  28  29
ATOM     29  N   UNL A   1      33.438  29.720  27.427  1.00  0.00    -0.352 N 
ATOM     30  C   UNL A   1      34.377  30.547  27.995  1.00  0.00     0.251 C 
ATOM     31  H   UNL A   1      32.573  30.139  27.216  1.00  0.00     0.163 HD
ATOM     32  O   UNL A   1      34.073  31.692  28.315  1.00  0.00    -0.269 OA
BRANCH  30  33
ATOM     33  C   UNL A   1      35.739  30.033  28.250  1.00  0.00     0.039 A 
ATOM     34  C   UNL A   1      36.678  30.075  27.217  1.00  0.00     0.014 A 
ATOM     35  C   UNL A   1      36.093  29.541  29.509  1.00  0.00     0.014 A 
ATOM     36  C   UNL A   1      37.995  29.685  27.468  1.00  0.00     0.010 A 
ATOM     37  C   UNL A   1      37.419  29.213  29.773  1.00  0.00     0.010 A 
ATOM     38  C   UNL A   1      38.384  29.285  28.757  1.00  0.00    -0.014 A 
BRANCH  38  39
ATOM     39  C   UNL A   1      39.798  28.952  29.066  1.00  0.00     0.031 A 
ATOM     40  C   UNL A   1      40.703  29.990  29.670  1.00  0.00     0.074 A 
ATOM     41  C   UNL A   1      40.282  27.739  28.735  1.00  0.00     0.049 A 
ATOM     42  N   UNL A   1      41.981  29.914  29.939  1.00  0.00    -0.248 NA
ATOM     43  C   UNL A   1      40.099  31.293  29.988  1.00  0.00     0.031 C 
ATOM     44  C   UNL A   1      39.514  26.666  28.096  1.00  0.00     0.029 A 
ATOM     45  N   UNL A   1      41.539  27.206  28.876  1.00  0.00    -0.354 N 
ATOM     46  C   UNL A   1      42.336  31.159  30.443  1.00  0.00     0.074 A 
ATOM     47  C   UNL A   1      41.151  31.988  30.394  1.00  0.00     0.031 C 
ATOM     48  C   UNL A   1      40.311  25.600  27.919  1.00  0.00     0.029 A 
ATOM     49  C   UNL A   1      41.652  25.922  28.397  1.00  0.00     0.049 A 
ATOM     50  H   UNL A   1      42.288  27.696  29.284  1.00  0.00     0.167 HD
ATOM     51  C   UNL A   1      43.535  31.568  30.923  1.00  0.00     0.037 A 
ATOM     52  C   UNL A   1      42.718  25.100  28.341  1.00  0.00     0.037 A 
ATOM     53  C   UNL A   1      44.703  30.729  30.993  1.00  0.00     0.049 A 
ATOM     54  C   UNL A   1      44.037  25.573  28.889  1.00  0.00     0.074 A 
ATOM     55  C   UNL A   1      45.948  31.029  31.517  1.00  0.00     0.029 A 
ATOM     56  N   UNL A   1      44.771  29.425  30.524  1.00  0.00    -0.354 N 
ATOM     57  N   UNL A   1      44.339  26.733  29.421  1.00  0.00    -0.248 NA
ATOM     58  C   UNL A   1      45.158  24.625  28.834  1.00  0.00     0.031 C 
ATOM     59  C   UNL A   1      46.780  29.920  31.330  1.00  0.00     0.029 A 
ATOM     60  C   UNL A   1      46.041  28.912  30.731  1.00  0.00     0.049 A 
ATOM     61  H   UNL A   1      44.025  28.936  30.105  1.00  0.00     0.167 HD
ATOM     62  C   UNL A   1      45.677  26.645  29.788  1.00  0.00     0.074 A 
ATOM     63  C   UNL A   1      46.123  25.316  29.428  1.00  0.00     0.031 C 
ATOM     64  C   UNL A   1      46.465  27.582  30.374  1.00  0.00     0.037 A 
BRANCH  51  65
ATOM     65  C   UNL A   1      43.640  32.983  31.419  1.00  0.00     0.058 A 
ATOM     66  C   UNL A   1      43.322  33.325  32.742  1.00  0.00     0.135 A 
ATOM     67  C   UNL A   1      44.094  34.007  30.570  1.00  0.00     0.135 A 
ATOM     68  F   UNL A   1      42.869  32.390  33.592  1.00  0.00    -0.206 F 
ATOM     69  C   UNL A   1      43.419  34.636  33.200  1.00  0.00     0.059 A 
ATOM     70  C   UNL A   1      44.226  35.320  31.014  1.00  0.00     0.059 A 
ATOM     71  F   UNL A   1      44.413  33.736  29.294  1.00  0.00    -0.206 F 
ATOM     72  C   UNL A   1      43.870  35.627  32.327  1.00  0.00     0.060 A 
BRANCH  72  73
ATOM     73  S   UNL A   1      43.991  37.322  32.936  1.00  0.00     0.124 S 
ATOM     74  O   UNL A   1      45.331  37.324  33.516  1.00  0.00    -0.237 OA
ATOM     75  O   UNL A   1      43.828  38.105  31.716  1.00  0.00    -0.237 OA
ATOM     76  O   UNL A   1      42.893  37.418  33.893  1.00  0.00    -0.744 OA
ENDBRANCH  72  73
ENDBRANCH  51  65
BRANCH  52  77
ATOM     77  C   UNL A   1      42.574  23.734  27.770  1.00  0.00     0.058 A 
ATOM     78  C   UNL A   1      42.471  22.611  28.605  1.00  0.00     0.135 A 
ATOM     79  C   UNL A   1      42.522  23.525  26.383  1.00  0.00     0.135 A 
ATOM     80  F   UNL A   1      42.521  22.760  29.937  1.00  0.00    -0.206 F 
ATOM     81  C   UNL A   1      42.338  21.328  28.086  1.00  0.00     0.059 A 
ATOM     82  C   UNL A   1      42.365  22.253  25.841  1.00  0.00     0.059 A 
ATOM     83  F   UNL A   1      42.598  24.569  25.542  1.00  0.00    -0.206 F 
ATOM     84  C   UNL A   1      42.284  21.159  26.702  1.00  0.00     0.060 A 
BRANCH  84  85
ATOM     85  S   UNL A   1      42.061  19.493  26.041  1.00  0.00     0.124 S 
ATOM     86  O   UNL A   1      42.519  18.671  27.154  1.00  0.00    -0.237 OA
ATOM     87  O   UNL A   1      40.627  19.460  25.770  1.00  0.00    -0.237 OA
ATOM     88  O   UNL A   1      42.914  19.487  24.855  1.00  0.00    -0.744 OA
ENDBRANCH  84  85
ENDBRANCH  52  77
BRANCH  64  89
ATOM     89  C   UNL A   1      47.881  27.193  30.693  1.00  0.00     0.058 A 
ATOM     90  C   UNL A   1      48.243  26.692  31.953  1.00  0.00     0.135 A 
ATOM     91  C   UNL A   1      48.878  27.271  29.706  1.00  0.00     0.135 A 
ATOM     92  F   UNL A   1      47.330  26.604  32.933  1.00  0.00    -0.206 F 
ATOM     93  C   UNL A   1      49.549  26.300  32.230  1.00  0.00     0.059 A 
ATOM     94  C   UNL A   1      50.183  26.860  29.952  1.00  0.00     0.059 A 
ATOM     95  F   UNL A   1      48.581  27.734  28.481  1.00  0.00    -0.206 F 
ATOM     96  C   UNL A   1      50.512  26.386  31.222  1.00  0.00     0.060 A 
BRANCH  96  97
ATOM     97  S   UNL A   1      52.194  25.838  31.582  1.00  0.00     0.124 S 
ATOM     98  O   UNL A   1      52.567  26.731  32.673  1.00  0.00    -0.237 OA
ATOM     99  O   UNL A   1      51.996  24.438  31.947  1.00  0.00    -0.237 OA
ATOM    100  O   UNL A   1      52.899  26.056  30.322  1.00  0.00    -0.744 OA
ENDBRANCH  96  97
ENDBRANCH  64  89
ENDBRANCH  38  39
ENDBRANCH  30  33
ENDBRANCH  28  29
ENDBRANCH   1  28
TORSDOF 18
ENDMDL
MODEL 2
REMARK VINA RESULT:     -11.9      3.603      9.463
REMARK SMILES CS(=O)(=O)c1ccc(/C=C(/C(=O)NCCCCNC(=O)c2ccc(-c3c4nc(c(-c5c(F)cc(S(=O)(=O)[O-])cc5F)c5ccc([nH]5)c(-c5c(F)cc(S(=O)(=O)[O-])cc5F)c5nc(c(-c6c(F)cc(S(=O)(=O)[O-])cc6F)c6ccc3[nH]6)C=C5)C=C4)cc2)c2ccc(O)cc2)cc1
REMARK SMILES IDX 16 1 15 2 14 3 13 4 11 5 12 6 10 8 9 9 8 10 5 11 6 12 95 13
REMARK SMILES IDX 7 14 94 15 2 16 1 17 3 18 4 19 87 20 88 21 93 22 89 23 92 24
REMARK SMILES IDX 90 25 91 26 17 28 18 29 19 30 20 32 21 33 22 34 86 35 23 36
REMARK SMILES IDX 85 37 24 38 25 39 26 40 79 41 27 42 84 43 78 44 80 45 28 46
REMARK SMILES IDX 83 47 77 48 76 49 29 51 63 52 42 53 62 54 43 55 46 56 61 57
REMARK SMILES IDX 81 58 44 59 45 60 60 62 82 63 47 64 30 65 31 66 40 67 32 68
REMARK SMILES IDX 33 69 39 70 41 71 34 72 35 73 36 74 37 75 38 76 64 77 65 78
REMARK SMILES IDX 74 79 66 80 67 81 73 82 75 83 68 84 69 85 70 86 71 87 72 88
REMARK SMILES IDX 48 89 49 90 58 91 50 92 51 93 57 94 59 95 52 96 53 97 54 98
REMARK SMILES IDX 55 99 56 100
REMARK H PARENT 13 7 91 27 18 31 80 50 46 61
REMARK Flexibility Score: inf
ROOT
ATOM      1  C   UNL A   1      35.797  23.833  24.728  1.00  0.00     0.023 C 
ENDROOT
BRANCH   1   2
ATOM      2  C   UNL A   1      35.112  22.718  23.927  1.00  0.00     0.023 C 
BRANCH   2   3
ATOM      3  C   UNL A   1      33.591  22.862  23.818  1.00  0.00     0.116 C 
BRANCH   3   4
ATOM      4  N   UNL A   1      32.983  22.783  25.131  1.00  0.00    -0.352 N 
ATOM      5  C   UNL A   1      32.244  23.639  25.885  1.00  0.00     0.251 C 
ATOM      6  O   UNL A   1      31.924  23.229  27.005  1.00  0.00    -0.269 OA
ATOM      7  H   UNL A   1      33.139  21.918  25.574  1.00  0.00     0.163 HD
BRANCH   5   8
ATOM      8  C   UNL A   1      31.743  24.983  25.396  1.00  0.00     0.047 C 
ATOM      9  C   UNL A   1      31.041  25.119  24.247  1.00  0.00     0.022 C 
BRANCH   9  10
ATOM     10  C   UNL A   1      30.362  26.307  23.685  1.00  0.00    -0.025 A 
ATOM     11  C   UNL A   1      28.945  28.576  22.830  1.00  0.00     0.067 A 
ATOM     12  C   UNL A   1      30.301  28.450  22.530  1.00  0.00     0.021 A 
ATOM     13  C   UNL A   1      28.276  27.567  23.524  1.00  0.00     0.021 A 
ATOM     14  C   UNL A   1      30.996  27.304  22.934  1.00  0.00     0.009 A 
ATOM     15  C   UNL A   1      28.985  26.438  23.942  1.00  0.00     0.009 A 
BRANCH  11  16
ATOM     16  S   UNL A   1      28.060  30.045  22.370  1.00  0.00     0.175 S 
ATOM     17  C   UNL A   1      29.120  31.365  22.894  1.00  0.00     0.163 C 
ATOM     18  O   UNL A   1      26.854  30.108  23.178  1.00  0.00    -0.224 OA
ATOM     19  O   UNL A   1      27.986  30.064  20.924  1.00  0.00    -0.224 OA
ENDBRANCH  11  16
ENDBRANCH   9  10
BRANCH   8  20
ATOM     20  C   UNL A   1      32.214  26.182  26.137  1.00  0.00    -0.013 A 
ATOM     21  C   UNL A   1      33.536  26.616  25.932  1.00  0.00     0.013 A 
ATOM     22  C   UNL A   1      31.370  26.949  26.952  1.00  0.00     0.013 A 
ATOM     23  C   UNL A   1      33.992  27.812  26.485  1.00  0.00     0.047 A 
ATOM     24  C   UNL A   1      31.821  28.159  27.492  1.00  0.00     0.047 A 
ATOM     25  C   UNL A   1      33.122  28.586  27.238  1.00  0.00     0.115 A 
BRANCH  25  26
ATOM     26  O   UNL A   1      33.584  29.782  27.701  1.00  0.00    -0.508 OA
ATOM     27  H   UNL A   1      34.351  29.813  28.238  1.00  0.00     0.293 HD
ENDBRANCH  25  26
ENDBRANCH   8  20
ENDBRANCH   5   8
ENDBRANCH   3   4
ENDBRANCH   2   3
ENDBRANCH   1   2
BRANCH   1  28
ATOM     28  C   UNL A   1      36.283  23.431  26.116  1.00  0.00     0.116 C 
BRANCH  28  29
ATOM     29  N   UNL A   1      37.347  22.439  26.080  1.00  0.00    -0.352 N 
ATOM     30  C   UNL A   1      38.693  22.616  26.295  1.00  0.00     0.251 C 
ATOM     31  H   UNL A   1      37.066  21.519  25.874  1.00  0.00     0.163 HD
ATOM     32  O   UNL A   1      39.471  21.686  26.109  1.00  0.00    -0.269 OA
BRANCH  30  33
ATOM     33  C   UNL A   1      39.194  23.942  26.714  1.00  0.00     0.039 A 
ATOM     34  C   UNL A   1      39.094  24.305  28.059  1.00  0.00     0.014 A 
ATOM     35  C   UNL A   1      39.784  24.807  25.789  1.00  0.00     0.014 A 
ATOM     36  C   UNL A   1      39.650  25.512  28.489  1.00  0.00     0.010 A 
ATOM     37  C   UNL A   1      40.392  25.978  26.231  1.00  0.00     0.010 A 
ATOM     38  C   UNL A   1      40.335  26.341  27.585  1.00  0.00    -0.014 A 
BRANCH  38  39
ATOM     39  C   UNL A   1      41.009  27.583  28.039  1.00  0.00     0.031 A 
ATOM     40  C   UNL A   1      42.506  27.700  27.963  1.00  0.00     0.074 A 
ATOM     41  C   UNL A   1      40.277  28.574  28.586  1.00  0.00     0.049 A 
ATOM     42  N   UNL A   1      43.280  28.669  28.380  1.00  0.00    -0.248 NA
ATOM     43  C   UNL A   1      43.231  26.567  27.367  1.00  0.00     0.031 C 
ATOM     44  C   UNL A   1      38.823  28.555  28.761  1.00  0.00     0.029 A 
ATOM     45  N   UNL A   1      40.657  29.786  29.107  1.00  0.00    -0.354 N 
ATOM     46  C   UNL A   1      44.580  28.259  28.109  1.00  0.00     0.074 A 
ATOM     47  C   UNL A   1      44.493  26.931  27.540  1.00  0.00     0.031 C 
ATOM     48  C   UNL A   1      38.432  29.706  29.332  1.00  0.00     0.029 A 
ATOM     49  C   UNL A   1      39.608  30.530  29.594  1.00  0.00     0.049 A 
ATOM     50  H   UNL A   1      41.591  30.093  29.129  1.00  0.00     0.167 HD
ATOM     51  C   UNL A   1      45.738  28.935  28.297  1.00  0.00     0.037 A 
ATOM     52  C   UNL A   1      39.596  31.738  30.193  1.00  0.00     0.037 A 
ATOM     53  C   UNL A   1      45.814  30.266  28.839  1.00  0.00     0.049 A 
ATOM     54  C   UNL A   1      40.895  32.473  30.383  1.00  0.00     0.074 A 
ATOM     55  C   UNL A   1      46.933  31.062  29.014  1.00  0.00     0.029 A 
ATOM     56  N   UNL A   1      44.728  31.000  29.295  1.00  0.00    -0.354 N 
ATOM     57  N   UNL A   1      42.110  32.096  30.062  1.00  0.00    -0.248 NA
ATOM     58  C   UNL A   1      40.822  33.800  31.010  1.00  0.00     0.031 C 
ATOM     59  C   UNL A   1      46.528  32.261  29.611  1.00  0.00     0.029 A 
ATOM     60  C   UNL A   1      45.151  32.231  29.766  1.00  0.00     0.049 A 
ATOM     61  H   UNL A   1      43.793  30.689  29.285  1.00  0.00     0.167 HD
ATOM     62  C   UNL A   1      42.942  33.150  30.424  1.00  0.00     0.074 A 
ATOM     63  C   UNL A   1      42.092  34.183  30.978  1.00  0.00     0.031 C 
ATOM     64  C   UNL A   1      44.289  33.252  30.306  1.00  0.00     0.037 A 
BRANCH  51  65
ATOM     65  C   UNL A   1      47.017  28.248  27.905  1.00  0.00     0.058 A 
ATOM     66  C   UNL A   1      47.716  27.425  28.802  1.00  0.00     0.135 A 
ATOM     67  C   UNL A   1      47.535  28.389  26.607  1.00  0.00     0.135 A 
ATOM     68  F   UNL A   1      47.274  27.267  30.060  1.00  0.00    -0.206 F 
ATOM     69  C   UNL A   1      48.899  26.791  28.437  1.00  0.00     0.059 A 
ATOM     70  C   UNL A   1      48.703  27.741  26.212  1.00  0.00     0.059 A 
ATOM     71  F   UNL A   1      46.907  29.164  25.708  1.00  0.00    -0.206 F 
ATOM     72  C   UNL A   1      49.386  26.958  27.141  1.00  0.00     0.060 A 
BRANCH  72  73
ATOM     73  S   UNL A   1      50.923  26.127  26.684  1.00  0.00     0.124 S 
ATOM     74  O   UNL A   1      50.761  24.836  27.347  1.00  0.00    -0.237 OA
ATOM     75  O   UNL A   1      50.844  26.104  25.227  1.00  0.00    -0.237 OA
ATOM     76  O   UNL A   1      51.956  26.994  27.240  1.00  0.00    -0.744 OA
ENDBRANCH  72  73
ENDBRANCH  51  65
BRANCH  52  77
ATOM     77  C   UNL A   1      38.307  32.337  30.630  1.00  0.00     0.058 A 
ATOM     78  C   UNL A   1      37.827  32.140  31.933  1.00  0.00     0.135 A 
ATOM     79  C   UNL A   1      37.539  33.129  29.762  1.00  0.00     0.135 A 
ATOM     80  F   UNL A   1      38.524  31.387  32.797  1.00  0.00    -0.206 F 
ATOM     81  C   UNL A   1      36.623  32.693  32.356  1.00  0.00     0.059 A 
ATOM     82  C   UNL A   1      36.344  33.711  30.170  1.00  0.00     0.059 A 
ATOM     83  F   UNL A   1      37.964  33.362  28.510  1.00  0.00    -0.206 F 
ATOM     84  C   UNL A   1      35.888  33.478  31.467  1.00  0.00     0.060 A 
BRANCH  84  85
ATOM     85  S   UNL A   1      34.351  34.232  32.044  1.00  0.00     0.124 S 
ATOM     86  O   UNL A   1      33.795  33.168  32.871  1.00  0.00    -0.237 OA
ATOM     87  O   UNL A   1      34.835  35.409  32.759  1.00  0.00    -0.237 OA
ATOM     88  O   UNL A   1      33.632  34.513  30.805  1.00  0.00    -0.744 OA
ENDBRANCH  84  85
ENDBRANCH  52  77
BRANCH  64  89
ATOM     89  C   UNL A   1      44.927  34.538  30.753  1.00  0.00     0.058 A 
ATOM     90  C   UNL A   1      45.384  34.717  32.068  1.00  0.00     0.135 A 
ATOM     91  C   UNL A   1      45.131  35.584  29.839  1.00  0.00     0.135 A 
ATOM     92  F   UNL A   1      45.206  33.750  32.982  1.00  0.00    -0.206 F 
ATOM     93  C   UNL A   1      46.005  35.895  32.467  1.00  0.00     0.059 A 
ATOM     94  C   UNL A   1      45.774  36.761  30.208  1.00  0.00     0.059 A 
ATOM     95  F   UNL A   1      44.721  35.460  28.566  1.00  0.00    -0.206 F 
ATOM     96  C   UNL A   1      46.198  36.912  31.528  1.00  0.00     0.060 A 
BRANCH  96  97
ATOM     97  S   UNL A   1      47.040  38.422  32.047  1.00  0.00     0.124 S 
ATOM     98  O   UNL A   1      45.913  39.307  32.321  1.00  0.00    -0.237 OA
ATOM     99  O   UNL A   1      47.795  37.975  33.215  1.00  0.00    -0.237 OA
ATOM    100  O   UNL A   1      47.850  38.776  30.884  1.00  0.00    -0.744 OA
ENDBRANCH  96  97
ENDBRANCH  64  89
ENDBRANCH  38  39
ENDBRANCH  30  33
ENDBRANCH  28  29
ENDBRANCH   1  28
TORSDOF 18
ENDMDL
MODEL 3
REMARK VINA RESULT:     -11.9      2.395      3.115
REMARK SMILES CS(=O)(=O)c1ccc(/C=C(/C(=O)NCCCCNC(=O)c2ccc(-c3c4nc(c(-c5c(F)cc(S(=O)(=O)[O-])cc5F)c5ccc([nH]5)c(-c5c(F)cc(S(=O)(=O)[O-])cc5F)c5nc(c(-c6c(F)cc(S(=O)(=O)[O-])cc6F)c6ccc3[nH]6)C=C5)C=C4)cc2)c2ccc(O)cc2)cc1
REMARK SMILES IDX 16 1 15 2 14 3 13 4 11 5 12 6 10 8 9 9 8 10 5 11 6 12 95 13
REMARK SMILES IDX 7 14 94 15 2 16 1 17 3 18 4 19 87 20 88 21 93 22 89 23 92 24
REMARK SMILES IDX 90 25 91 26 17 28 18 29 19 30 20 32 21 33 22 34 86 35 23 36
REMARK SMILES IDX 85 37 24 38 25 39 26 40 79 41 27 42 84 43 78 44 80 45 28 46
REMARK SMILES IDX 83 47 77 48 76 49 29 51 63 52 42 53 62 54 43 55 46 56 61 57
REMARK SMILES IDX 81 58 44 59 45 60 60 62 82 63 47 64 30 65 31 66 40 67 32 68
REMARK SMILES IDX 33 69 39 70 41 71 34 72 35 73 36 74 37 75 38 76 64 77 65 78
REMARK SMILES IDX 74 79 66 80 67 81 73 82 75 83 68 84 69 85 70 86 71 87 72 88
REMARK SMILES IDX 48 89 49 90 58 91 50 92 51 93 57 94 59 95 52 96 53 97 54 98
REMARK SMILES IDX 55 99 56 100
REMARK H PARENT 13 7 91 27 18 31 80 50 46 61
REMARK Flexibility Score: inf
ROOT
ATOM      1  C   UNL A   1      33.241  27.484  26.657  1.00  0.00     0.023 C 
ENDROOT
BRANCH   1   2
ATOM      2  C   UNL A   1      31.807  27.236  26.168  1.00  0.00     0.023 C 
BRANCH   2   3
ATOM      3  C   UNL A   1      31.565  25.828  25.616  1.00  0.00     0.116 C 
BRANCH   3   4
ATOM      4  N   UNL A   1      31.679  25.826  24.172  1.00  0.00    -0.352 N 
ATOM      5  C   UNL A   1      32.246  24.983  23.268  1.00  0.00     0.251 C 
ATOM      6  O   UNL A   1      32.180  25.339  22.088  1.00  0.00    -0.269 OA
ATOM      7  H   UNL A   1      31.253  26.608  23.752  1.00  0.00     0.163 HD
BRANCH   5   8
ATOM      8  C   UNL A   1      32.851  23.640  23.625  1.00  0.00     0.047 C 
ATOM      9  C   UNL A   1      32.097  22.531  23.804  1.00  0.00     0.022 C 
BRANCH   9  10
ATOM     10  C   UNL A   1      32.510  21.127  24.017  1.00  0.00    -0.025 A 
ATOM     11  C   UNL A   1      33.358  18.455  24.181  1.00  0.00     0.067 A 
ATOM     12  C   UNL A   1      33.628  19.335  25.229  1.00  0.00     0.021 A 
ATOM     13  C   UNL A   1      32.641  18.882  23.064  1.00  0.00     0.021 A 
ATOM     14  C   UNL A   1      33.178  20.659  25.155  1.00  0.00     0.009 A 
ATOM     15  C   UNL A   1      32.217  20.211  22.990  1.00  0.00     0.009 A 
BRANCH  11  16
ATOM     16  S   UNL A   1      33.965  16.787  24.237  1.00  0.00     0.175 S 
ATOM     17  C   UNL A   1      32.802  15.942  25.274  1.00  0.00     0.163 C 
ATOM     18  O   UNL A   1      35.240  16.801  24.934  1.00  0.00    -0.224 OA
ATOM     19  O   UNL A   1      33.858  16.249  22.896  1.00  0.00    -0.224 OA
ENDBRANCH  11  16
ENDBRANCH   9  10
BRANCH   8  20
ATOM     20  C   UNL A   1      34.300  23.627  23.956  1.00  0.00    -0.013 A 
ATOM     21  C   UNL A   1      34.698  24.074  25.229  1.00  0.00     0.013 A 
ATOM     22  C   UNL A   1      35.269  23.100  23.092  1.00  0.00     0.013 A 
ATOM     23  C   UNL A   1      36.021  23.952  25.650  1.00  0.00     0.047 A 
ATOM     24  C   UNL A   1      36.595  22.960  23.521  1.00  0.00     0.047 A 
ATOM     25  C   UNL A   1      36.953  23.372  24.802  1.00  0.00     0.115 A 
BRANCH  25  26
ATOM     26  O   UNL A   1      38.219  23.206  25.278  1.00  0.00    -0.508 OA
ATOM     27  H   UNL A   1      38.569  22.344  25.389  1.00  0.00     0.293 HD
ENDBRANCH  25  26
ENDBRANCH   8  20
ENDBRANCH   5   8
ENDBRANCH   3   4
ENDBRANCH   2   3
ENDBRANCH   1   2
BRANCH   1  28
ATOM     28  C   UNL A   1      34.010  28.558  25.896  1.00  0.00     0.116 C 
BRANCH  28  29
ATOM     29  N   UNL A   1      33.699  29.907  26.345  1.00  0.00    -0.352 N 
ATOM     30  C   UNL A   1      34.349  30.668  27.286  1.00  0.00     0.251 C 
ATOM     31  H   UNL A   1      32.919  30.330  25.919  1.00  0.00     0.163 HD
ATOM     32  O   UNL A   1      33.881  31.749  27.630  1.00  0.00    -0.269 OA
BRANCH  30  33
ATOM     33  C   UNL A   1      35.592  30.158  27.902  1.00  0.00     0.039 A 
ATOM     34  C   UNL A   1      36.798  30.319  27.217  1.00  0.00     0.014 A 
ATOM     35  C   UNL A   1      35.568  29.552  29.161  1.00  0.00     0.014 A 
ATOM     36  C   UNL A   1      37.993  29.931  27.826  1.00  0.00     0.010 A 
ATOM     37  C   UNL A   1      36.765  29.225  29.792  1.00  0.00     0.010 A 
ATOM     38  C   UNL A   1      37.989  29.415  29.133  1.00  0.00    -0.014 A 
BRANCH  38  39
ATOM     39  C   UNL A   1      39.255  29.080  29.832  1.00  0.00     0.031 A 
ATOM     40  C   UNL A   1      39.693  29.883  31.025  1.00  0.00     0.074 A 
ATOM     41  C   UNL A   1      40.043  28.100  29.347  1.00  0.00     0.049 A 
ATOM     42  N   UNL A   1      40.799  29.793  31.719  1.00  0.00    -0.248 NA
ATOM     43  C   UNL A   1      38.782  30.944  31.482  1.00  0.00     0.031 C 
ATOM     44  C   UNL A   1      39.750  27.285  28.164  1.00  0.00     0.029 A 
ATOM     45  N   UNL A   1      41.258  27.630  29.779  1.00  0.00    -0.354 N 
ATOM     46  C   UNL A   1      40.723  30.792  32.683  1.00  0.00     0.074 A 
ATOM     47  C   UNL A   1      39.487  31.508  32.451  1.00  0.00     0.031 C 
ATOM     48  C   UNL A   1      40.747  26.406  27.977  1.00  0.00     0.029 A 
ATOM     49  C   UNL A   1      41.766  26.615  29.001  1.00  0.00     0.049 A 
ATOM     50  H   UNL A   1      41.722  27.985  30.570  1.00  0.00     0.167 HD
ATOM     51  C   UNL A   1      41.593  31.072  33.682  1.00  0.00     0.037 A 
ATOM     52  C   UNL A   1      42.925  25.935  29.099  1.00  0.00     0.037 A 
ATOM     53  C   UNL A   1      42.808  30.338  33.922  1.00  0.00     0.049 A 
ATOM     54  C   UNL A   1      43.872  26.259  30.223  1.00  0.00     0.074 A 
ATOM     55  C   UNL A   1      43.727  30.504  34.943  1.00  0.00     0.029 A 
ATOM     56  N   UNL A   1      43.275  29.298  33.131  1.00  0.00    -0.354 N 
ATOM     57  N   UNL A   1      43.753  27.165  31.164  1.00  0.00    -0.248 NA
ATOM     58  C   UNL A   1      45.106  25.465  30.302  1.00  0.00     0.031 C 
ATOM     59  C   UNL A   1      44.768  29.590  34.748  1.00  0.00     0.029 A 
ATOM     60  C   UNL A   1      44.476  28.823  33.631  1.00  0.00     0.049 A 
ATOM     61  H   UNL A   1      42.818  28.948  32.331  1.00  0.00     0.167 HD
ATOM     62  C   UNL A   1      44.884  27.032  31.962  1.00  0.00     0.074 A 
ATOM     63  C   UNL A   1      45.668  25.952  31.400  1.00  0.00     0.031 C 
ATOM     64  C   UNL A   1      45.239  27.741  33.063  1.00  0.00     0.037 A 
BRANCH  51  65
ATOM     65  C   UNL A   1      41.257  32.217  34.597  1.00  0.00     0.058 A 
ATOM     66  C   UNL A   1      41.679  33.528  34.323  1.00  0.00     0.135 A 
ATOM     67  C   UNL A   1      40.477  32.008  35.747  1.00  0.00     0.135 A 
ATOM     68  F   UNL A   1      42.440  33.782  33.245  1.00  0.00    -0.206 F 
ATOM     69  C   UNL A   1      41.368  34.585  35.171  1.00  0.00     0.059 A 
ATOM     70  C   UNL A   1      40.130  33.057  36.595  1.00  0.00     0.059 A 
ATOM     71  F   UNL A   1      40.046  30.775  36.057  1.00  0.00    -0.206 F 
ATOM     72  C   UNL A   1      40.595  34.339  36.306  1.00  0.00     0.060 A 
BRANCH  72  73
ATOM     73  S   UNL A   1      40.199  35.724  37.395  1.00  0.00     0.124 S 
ATOM     74  O   UNL A   1      39.772  36.735  36.433  1.00  0.00    -0.237 OA
ATOM     75  O   UNL A   1      39.146  35.167  38.238  1.00  0.00    -0.237 OA
ATOM     76  O   UNL A   1      41.463  35.995  38.072  1.00  0.00    -0.744 OA
ENDBRANCH  72  73
ENDBRANCH  51  65
BRANCH  52  77
ATOM     77  C   UNL A   1      43.241  24.862  28.119  1.00  0.00     0.058 A 
ATOM     78  C   UNL A   1      42.872  23.531  28.364  1.00  0.00     0.135 A 
ATOM     79  C   UNL A   1      43.905  25.145  26.915  1.00  0.00     0.135 A 
ATOM     80  F   UNL A   1      42.240  23.211  29.503  1.00  0.00    -0.206 F 
ATOM     81  C   UNL A   1      43.161  22.516  27.459  1.00  0.00     0.059 A 
ATOM     82  C   UNL A   1      44.185  24.150  25.984  1.00  0.00     0.059 A 
ATOM     83  F   UNL A   1      44.264  26.406  26.625  1.00  0.00    -0.206 F 
ATOM     84  C   UNL A   1      43.818  22.836  26.270  1.00  0.00     0.060 A 
BRANCH  84  85
ATOM     85  S   UNL A   1      44.145  21.517  25.079  1.00  0.00     0.124 S 
ATOM     86  O   UNL A   1      44.070  22.238  23.815  1.00  0.00    -0.237 OA
ATOM     87  O   UNL A   1      45.474  21.065  25.479  1.00  0.00    -0.237 OA
ATOM     88  O   UNL A   1      43.067  20.565  25.331  1.00  0.00    -0.744 OA
ENDBRANCH  84  85
ENDBRANCH  52  77
BRANCH  64  89
ATOM     89  C   UNL A   1      46.515  27.350  33.755  1.00  0.00     0.058 A 
ATOM     90  C   UNL A   1      47.741  27.955  33.439  1.00  0.00     0.135 A 
ATOM     91  C   UNL A   1      46.500  26.396  34.785  1.00  0.00     0.135 A 
ATOM     92  F   UNL A   1      47.811  28.867  32.457  1.00  0.00    -0.206 F 
ATOM     93  C   UNL A   1      48.912  27.615  34.107  1.00  0.00     0.059 A 
ATOM     94  C   UNL A   1      47.654  26.059  35.485  1.00  0.00     0.059 A 
ATOM     95  F   UNL A   1      45.351  25.794  35.133  1.00  0.00    -0.206 F 
ATOM     96  C   UNL A   1      48.859  26.667  35.132  1.00  0.00     0.060 A 
BRANCH  96  97
ATOM     97  S   UNL A   1      50.377  26.261  36.018  1.00  0.00     0.124 S 
ATOM     98  O   UNL A   1      51.388  26.886  35.171  1.00  0.00    -0.237 OA
ATOM     99  O   UNL A   1      50.160  26.893  37.317  1.00  0.00    -0.237 OA
ATOM    100  O   UNL A   1      50.383  24.801  36.032  1.00  0.00    -0.744 OA
ENDBRANCH  96  97
ENDBRANCH  64  89
ENDBRANCH  38  39
ENDBRANCH  30  33
ENDBRANCH  28  29
ENDBRANCH   1  28
TORSDOF 18
ENDMDL
