MODEL 1
REMARK VINA RESULT:     -11.6      0.000      0.000
REMARK SMILES Cc1ccc(Br)cc1S(=O)(=O)N[C@H]1C=C[C@H](C(=O)NCCCCNC(=O)c2ccc(-c3c4nc(c(-c5c(F)cc(S(=O)(=O)[O-])cc5F)c5ccc([nH]5)c(-c5c(F)cc(S(=O)(=O)[O-])cc5F)c5nc(c(-c6c(F)cc(S(=O)(=O)[O-])cc6F)c6ccc3[nH]6)C=C5)C=C4)cc2)C1
REMARK SMILES IDX 21 1 20 2 19 3 17 4 18 5 16 7 13 8 14 9 93 10 15 11 12 12
REMARK SMILES IDX 9 14 10 15 11 16 8 17 1 18 2 19 3 20 4 21 7 22 5 23 6 24
REMARK SMILES IDX 22 25 23 26 24 27 25 28 26 30 27 31 28 32 92 33 29 34 91 35
REMARK SMILES IDX 30 36 31 37 32 38 85 39 33 40 90 41 84 42 86 43 34 44 89 45
REMARK SMILES IDX 83 46 82 47 35 49 69 50 48 51 68 52 49 53 52 54 67 55 87 56
REMARK SMILES IDX 50 57 51 58 66 60 88 61 53 62 36 63 37 64 46 65 38 66 39 67
REMARK SMILES IDX 45 68 47 69 40 70 41 71 42 72 43 73 44 74 70 75 71 76 80 77
REMARK SMILES IDX 72 78 73 79 79 80 81 81 74 82 75 83 76 84 77 85 78 86 54 87
REMARK SMILES IDX 55 88 64 89 56 90 57 91 63 92 65 93 58 94 59 95 60 96 61 97
REMARK SMILES IDX 62 98
REMARK H PARENT 19 6 12 13 24 29 86 48 52 59
REMARK Flexibility Score: inf
ROOT
ATOM      1  C   UNL A   1      31.491  28.997  25.907  1.00  0.00     0.023 C 
ENDROOT
BRANCH   1   2
ATOM      2  C   UNL A   1      32.110  29.194  24.527  1.00  0.00     0.116 C 
BRANCH   2   3
ATOM      3  N   UNL A   1      31.098  29.277  23.492  1.00  0.00    -0.356 N 
ATOM      4  C   UNL A   1      30.711  28.468  22.477  1.00  0.00     0.226 C 
ATOM      5  O   UNL A   1      29.869  28.942  21.702  1.00  0.00    -0.274 OA
ATOM      6  H   UNL A   1      30.574  30.110  23.538  1.00  0.00     0.163 HD
BRANCH   4   7
ATOM      7  C   UNL A   1      31.248  27.059  22.199  1.00  0.00     0.103 C 
ATOM      8  C   UNL A   1      32.399  25.807  23.947  1.00  0.00     0.093 C 
ATOM      9  C   UNL A   1      33.358  26.293  22.910  1.00  0.00    -0.011 C 
ATOM     10  C   UNL A   1      31.059  25.938  23.209  1.00  0.00     0.042 C 
ATOM     11  C   UNL A   1      32.732  27.025  21.977  1.00  0.00    -0.016 C 
BRANCH   8  12
ATOM     12  N   UNL A   1      32.655  24.425  24.293  1.00  0.00    -0.204 NA
ATOM     13  H   UNL A   1      31.757  23.940  24.260  1.00  0.00     0.142 HD
BRANCH  12  14
ATOM     14  S   UNL A   1      33.351  24.062  25.776  1.00  0.00     0.241 S 
ATOM     15  O   UNL A   1      32.280  23.575  26.625  1.00  0.00    -0.207 OA
ATOM     16  O   UNL A   1      34.154  25.198  26.155  1.00  0.00    -0.207 OA
BRANCH  14  17
ATOM     17  C   UNL A   1      34.463  22.702  25.454  1.00  0.00     0.086 A 
ATOM     18  C   UNL A   1      32.633  21.125  24.534  1.00  0.00     0.046 C 
ATOM     19  C   UNL A   1      34.031  21.450  24.978  1.00  0.00    -0.031 A 
ATOM     20  C   UNL A   1      34.983  20.416  24.872  1.00  0.00     0.006 A 
ATOM     21  C   UNL A   1      36.330  20.633  25.172  1.00  0.00     0.016 A 
ATOM     22  C   UNL A   1      35.824  22.925  25.735  1.00  0.00     0.037 A 
ATOM     23  C   UNL A   1      36.747  21.894  25.579  1.00  0.00     0.019 A 
ATOM     24  Br  UNL A   1      38.579  22.210  25.917  1.00  0.00    -0.051 Br
ENDBRANCH  14  17
ENDBRANCH  12  14
ENDBRANCH   8  12
ENDBRANCH   4   7
ENDBRANCH   2   3
ENDBRANCH   1   2
BRANCH   1  25
ATOM     25  C   UNL A   1      32.252  28.012  26.794  1.00  0.00     0.023 C 
BRANCH  25  26
ATOM     26  C   UNL A   1      33.565  28.538  27.368  1.00  0.00     0.116 C 
BRANCH  26  27
ATOM     27  N   UNL A   1      33.517  29.943  27.750  1.00  0.00    -0.352 N 
ATOM     28  C   UNL A   1      34.537  30.710  28.263  1.00  0.00     0.251 C 
ATOM     29  H   UNL A   1      32.652  30.397  27.627  1.00  0.00     0.163 HD
ATOM     30  O   UNL A   1      34.338  31.866  28.617  1.00  0.00    -0.269 OA
BRANCH  28  31
ATOM     31  C   UNL A   1      35.866  30.090  28.422  1.00  0.00     0.039 A 
ATOM     32  C   UNL A   1      36.756  30.118  27.348  1.00  0.00     0.014 A 
ATOM     33  C   UNL A   1      36.255  29.579  29.663  1.00  0.00     0.014 A 
ATOM     34  C   UNL A   1      38.073  29.702  27.541  1.00  0.00     0.010 A 
ATOM     35  C   UNL A   1      37.585  29.228  29.871  1.00  0.00     0.010 A 
ATOM     36  C   UNL A   1      38.506  29.294  28.814  1.00  0.00    -0.014 A 
BRANCH  36  37
ATOM     37  C   UNL A   1      39.926  28.946  29.065  1.00  0.00     0.031 A 
ATOM     38  C   UNL A   1      40.861  29.975  29.635  1.00  0.00     0.074 A 
ATOM     39  C   UNL A   1      40.388  27.730  28.708  1.00  0.00     0.049 A 
ATOM     40  N   UNL A   1      42.146  29.890  29.858  1.00  0.00    -0.248 NA
ATOM     41  C   UNL A   1      40.280  31.286  29.968  1.00  0.00     0.031 C 
ATOM     42  C   UNL A   1      39.591  26.670  28.086  1.00  0.00     0.029 A 
ATOM     43  N   UNL A   1      41.641  27.184  28.810  1.00  0.00    -0.354 N 
ATOM     44  C   UNL A   1      42.531  31.135  30.336  1.00  0.00     0.074 A 
ATOM     45  C   UNL A   1      41.353  31.976  30.325  1.00  0.00     0.031 C 
ATOM     46  C   UNL A   1      40.369  25.595  27.882  1.00  0.00     0.029 A 
ATOM     47  C   UNL A   1      41.725  25.897  28.333  1.00  0.00     0.049 A 
ATOM     48  H   UNL A   1      42.411  27.668  29.189  1.00  0.00     0.167 HD
ATOM     49  C   UNL A   1      43.749  31.536  30.770  1.00  0.00     0.037 A 
ATOM     50  C   UNL A   1      42.775  25.056  28.268  1.00  0.00     0.037 A 
ATOM     51  C   UNL A   1      44.907  30.683  30.818  1.00  0.00     0.049 A 
ATOM     52  C   UNL A   1      44.108  25.510  28.793  1.00  0.00     0.074 A 
ATOM     53  C   UNL A   1      46.170  30.971  31.305  1.00  0.00     0.029 A 
ATOM     54  N   UNL A   1      44.940  29.372  30.367  1.00  0.00    -0.354 N 
ATOM     55  N   UNL A   1      44.439  26.673  29.304  1.00  0.00    -0.248 NA
ATOM     56  C   UNL A   1      45.209  24.538  28.742  1.00  0.00     0.031 C 
ATOM     57  C   UNL A   1      46.975  29.841  31.125  1.00  0.00     0.029 A 
ATOM     58  C   UNL A   1      46.204  28.839  30.555  1.00  0.00     0.049 A 
ATOM     59  H   UNL A   1      44.178  28.891  29.971  1.00  0.00     0.167 HD
ATOM     60  C   UNL A   1      45.781  26.565  29.653  1.00  0.00     0.074 A 
ATOM     61  C   UNL A   1      46.196  25.221  29.307  1.00  0.00     0.031 C 
ATOM     62  C   UNL A   1      46.596  27.496  30.209  1.00  0.00     0.037 A 
BRANCH  49  63
ATOM     63  C   UNL A   1      43.881  32.957  31.240  1.00  0.00     0.058 A 
ATOM     64  C   UNL A   1      43.653  33.310  32.580  1.00  0.00     0.135 A 
ATOM     65  C   UNL A   1      44.248  33.976  30.347  1.00  0.00     0.135 A 
ATOM     66  F   UNL A   1      43.283  32.377  33.471  1.00  0.00    -0.206 F 
ATOM     67  C   UNL A   1      43.752  34.629  33.011  1.00  0.00     0.059 A 
ATOM     68  C   UNL A   1      44.377  35.298  30.761  1.00  0.00     0.059 A 
ATOM     69  F   UNL A   1      44.476  33.692  29.054  1.00  0.00    -0.206 F 
ATOM     70  C   UNL A   1      44.109  35.617  32.092  1.00  0.00     0.060 A 
BRANCH  70  71
ATOM     71  S   UNL A   1      44.225  37.326  32.663  1.00  0.00     0.124 S 
ATOM     72  O   UNL A   1      43.132  37.382  33.629  1.00  0.00    -0.237 OA
ATOM     73  O   UNL A   1      45.570  37.380  33.225  1.00  0.00    -0.237 OA
ATOM     74  O   UNL A   1      44.026  38.104  31.444  1.00  0.00    -0.744 OA
ENDBRANCH  70  71
ENDBRANCH  49  63
BRANCH  50  75
ATOM     75  C   UNL A   1      42.597  23.687  27.718  1.00  0.00     0.058 A 
ATOM     76  C   UNL A   1      42.596  23.464  26.334  1.00  0.00     0.135 A 
ATOM     77  C   UNL A   1      42.439  22.577  28.561  1.00  0.00     0.135 A 
ATOM     78  F   UNL A   1      42.738  24.497  25.488  1.00  0.00    -0.206 F 
ATOM     79  C   UNL A   1      42.432  22.190  25.800  1.00  0.00     0.059 A 
ATOM     80  C   UNL A   1      42.293  21.289  28.052  1.00  0.00     0.059 A 
ATOM     81  F   UNL A   1      42.450  22.736  29.893  1.00  0.00    -0.206 F 
ATOM     82  C   UNL A   1      42.281  21.108  26.669  1.00  0.00     0.060 A 
BRANCH  82  83
ATOM     83  S   UNL A   1      42.121  19.450  25.970  1.00  0.00     0.124 S 
ATOM     84  O   UNL A   1      40.685  19.374  25.723  1.00  0.00    -0.237 OA
ATOM     85  O   UNL A   1      42.970  19.530  24.786  1.00  0.00    -0.237 OA
ATOM     86  O   UNL A   1      42.625  18.588  27.036  1.00  0.00    -0.744 OA
ENDBRANCH  82  83
ENDBRANCH  50  75
BRANCH  62  87
ATOM     87  C   UNL A   1      48.010  27.086  30.497  1.00  0.00     0.058 A 
ATOM     88  C   UNL A   1      49.024  27.225  29.537  1.00  0.00     0.135 A 
ATOM     89  C   UNL A   1      48.364  26.593  31.763  1.00  0.00     0.135 A 
ATOM     90  F   UNL A   1      48.733  27.686  28.310  1.00  0.00    -0.206 F 
ATOM     91  C   UNL A   1      50.340  26.873  29.816  1.00  0.00     0.059 A 
ATOM     92  C   UNL A   1      49.678  26.254  32.071  1.00  0.00     0.059 A 
ATOM     93  F   UNL A   1      47.432  26.449  32.717  1.00  0.00    -0.206 F 
ATOM     94  C   UNL A   1      50.657  26.388  31.087  1.00  0.00     0.060 A 
BRANCH  94  95
ATOM     95  S   UNL A   1      52.373  25.966  31.452  1.00  0.00     0.124 S 
ATOM     96  O   UNL A   1      52.709  26.960  32.466  1.00  0.00    -0.237 OA
ATOM     97  O   UNL A   1      52.267  24.590  31.924  1.00  0.00    -0.237 OA
ATOM     98  O   UNL A   1      53.043  26.129  30.166  1.00  0.00    -0.744 OA
ENDBRANCH  94  95
ENDBRANCH  62  87
ENDBRANCH  36  37
ENDBRANCH  28  31
ENDBRANCH  26  27
ENDBRANCH  25  26
ENDBRANCH   1  25
TORSDOF 17
ENDMDL
MODEL 2
REMARK VINA RESULT:     -11.4      4.819     10.577
REMARK SMILES Cc1ccc(Br)cc1S(=O)(=O)N[C@H]1C=C[C@H](C(=O)NCCCCNC(=O)c2ccc(-c3c4nc(c(-c5c(F)cc(S(=O)(=O)[O-])cc5F)c5ccc([nH]5)c(-c5c(F)cc(S(=O)(=O)[O-])cc5F)c5nc(c(-c6c(F)cc(S(=O)(=O)[O-])cc6F)c6ccc3[nH]6)C=C5)C=C4)cc2)C1
REMARK SMILES IDX 21 1 20 2 19 3 17 4 18 5 16 7 13 8 14 9 93 10 15 11 12 12
REMARK SMILES IDX 9 14 10 15 11 16 8 17 1 18 2 19 3 20 4 21 7 22 5 23 6 24
REMARK SMILES IDX 22 25 23 26 24 27 25 28 26 30 27 31 28 32 92 33 29 34 91 35
REMARK SMILES IDX 30 36 31 37 32 38 85 39 33 40 90 41 84 42 86 43 34 44 89 45
REMARK SMILES IDX 83 46 82 47 35 49 69 50 48 51 68 52 49 53 52 54 67 55 87 56
REMARK SMILES IDX 50 57 51 58 66 60 88 61 53 62 36 63 37 64 46 65 38 66 39 67
REMARK SMILES IDX 45 68 47 69 40 70 41 71 42 72 43 73 44 74 70 75 71 76 80 77
REMARK SMILES IDX 72 78 73 79 79 80 81 81 74 82 75 83 76 84 77 85 78 86 54 87
REMARK SMILES IDX 55 88 64 89 56 90 57 91 63 92 65 93 58 94 59 95 60 96 61 97
REMARK SMILES IDX 62 98
REMARK H PARENT 19 6 12 13 24 29 86 48 52 59
REMARK Flexibility Score: inf
ROOT
ATOM      1  C   UNL A   1      39.805  21.700  26.231  1.00  0.00     0.023 C 
ENDROOT
BRANCH   1   2
ATOM      2  C   UNL A   1      38.645  22.603  25.824  1.00  0.00     0.116 C 
BRANCH   2   3
ATOM      3  N   UNL A   1      37.449  21.839  25.527  1.00  0.00    -0.356 N 
ATOM      4  C   UNL A   1      36.130  22.004  25.785  1.00  0.00     0.226 C 
ATOM      5  O   UNL A   1      35.398  21.055  25.473  1.00  0.00    -0.274 OA
ATOM      6  H   UNL A   1      37.640  21.013  25.025  1.00  0.00     0.163 HD
BRANCH   4   7
ATOM      7  C   UNL A   1      35.492  23.230  26.448  1.00  0.00     0.103 C 
ATOM      8  C   UNL A   1      33.174  23.824  25.977  1.00  0.00     0.093 C 
ATOM      9  C   UNL A   1      34.119  24.771  25.314  1.00  0.00    -0.011 C 
ATOM     10  C   UNL A   1      34.085  23.164  27.021  1.00  0.00     0.042 C 
ATOM     11  C   UNL A   1      35.393  24.414  25.530  1.00  0.00    -0.016 C 
BRANCH   8  12
ATOM     12  N   UNL A   1      32.088  24.530  26.624  1.00  0.00    -0.204 NA
ATOM     13  H   UNL A   1      31.730  23.917  27.357  1.00  0.00     0.142 HD
BRANCH  12  14
ATOM     14  S   UNL A   1      30.768  25.025  25.714  1.00  0.00     0.241 S 
ATOM     15  O   UNL A   1      29.603  24.878  26.566  1.00  0.00    -0.207 OA
ATOM     16  O   UNL A   1      30.858  24.355  24.440  1.00  0.00    -0.207 OA
BRANCH  14  17
ATOM     17  C   UNL A   1      31.023  26.768  25.423  1.00  0.00     0.086 A 
ATOM     18  C   UNL A   1      29.254  26.948  23.548  1.00  0.00     0.046 C 
ATOM     19  C   UNL A   1      30.359  27.486  24.410  1.00  0.00    -0.031 A 
ATOM     20  C   UNL A   1      30.727  28.830  24.199  1.00  0.00     0.006 A 
ATOM     21  C   UNL A   1      31.680  29.458  25.003  1.00  0.00     0.016 A 
ATOM     22  C   UNL A   1      31.967  27.410  26.246  1.00  0.00     0.037 A 
ATOM     23  C   UNL A   1      32.277  28.751  26.039  1.00  0.00     0.019 A 
ATOM     24  Br  UNL A   1      33.514  29.619  27.174  1.00  0.00    -0.051 Br
ENDBRANCH  14  17
ENDBRANCH  12  14
ENDBRANCH   8  12
ENDBRANCH   4   7
ENDBRANCH   2   3
ENDBRANCH   1   2
BRANCH   1  25
ATOM     25  C   UNL A   1      40.514  22.139  27.512  1.00  0.00     0.023 C 
BRANCH  25  26
ATOM     26  C   UNL A   1      41.779  22.966  27.302  1.00  0.00     0.116 C 
BRANCH  26  27
ATOM     27  N   UNL A   1      41.735  23.815  26.118  1.00  0.00    -0.352 N 
ATOM     28  C   UNL A   1      41.590  25.181  26.070  1.00  0.00     0.251 C 
ATOM     29  H   UNL A   1      41.818  23.356  25.251  1.00  0.00     0.163 HD
ATOM     30  O   UNL A   1      41.488  25.766  24.998  1.00  0.00    -0.269 OA
BRANCH  28  31
ATOM     31  C   UNL A   1      41.508  25.922  27.344  1.00  0.00     0.039 A 
ATOM     32  C   UNL A   1      42.554  26.777  27.694  1.00  0.00     0.014 A 
ATOM     33  C   UNL A   1      40.354  25.842  28.127  1.00  0.00     0.014 A 
ATOM     34  C   UNL A   1      42.409  27.617  28.797  1.00  0.00     0.010 A 
ATOM     35  C   UNL A   1      40.185  26.726  29.187  1.00  0.00     0.010 A 
ATOM     36  C   UNL A   1      41.207  27.627  29.525  1.00  0.00    -0.014 A 
BRANCH  36  37
ATOM     37  C   UNL A   1      40.993  28.585  30.638  1.00  0.00     0.031 A 
ATOM     38  C   UNL A   1      41.828  28.485  31.884  1.00  0.00     0.074 A 
ATOM     39  C   UNL A   1      40.000  29.493  30.555  1.00  0.00     0.049 A 
ATOM     40  N   UNL A   1      41.746  29.178  32.990  1.00  0.00    -0.248 NA
ATOM     41  C   UNL A   1      42.870  27.446  31.901  1.00  0.00     0.031 C 
ATOM     42  C   UNL A   1      39.081  29.643  29.423  1.00  0.00     0.029 A 
ATOM     43  N   UNL A   1      39.589  30.454  31.442  1.00  0.00    -0.354 N 
ATOM     44  C   UNL A   1      42.708  28.648  33.839  1.00  0.00     0.074 A 
ATOM     45  C   UNL A   1      43.329  27.543  33.140  1.00  0.00     0.031 C 
ATOM     46  C   UNL A   1      38.232  30.651  29.676  1.00  0.00     0.029 A 
ATOM     47  C   UNL A   1      38.525  31.201  30.996  1.00  0.00     0.049 A 
ATOM     48  H   UNL A   1      40.017  30.597  32.318  1.00  0.00     0.167 HD
ATOM     49  C   UNL A   1      43.062  29.060  35.080  1.00  0.00     0.037 A 
ATOM     50  C   UNL A   1      37.862  32.215  31.584  1.00  0.00     0.037 A 
ATOM     51  C   UNL A   1      42.469  30.186  35.753  1.00  0.00     0.049 A 
ATOM     52  C   UNL A   1      38.299  32.682  32.945  1.00  0.00     0.074 A 
ATOM     53  C   UNL A   1      42.802  30.728  36.981  1.00  0.00     0.029 A 
ATOM     54  N   UNL A   1      41.423  30.945  35.249  1.00  0.00    -0.354 N 
ATOM     55  N   UNL A   1      39.257  32.210  33.709  1.00  0.00    -0.248 NA
ATOM     56  C   UNL A   1      37.573  33.821  33.522  1.00  0.00     0.031 C 
ATOM     57  C   UNL A   1      41.940  31.802  37.232  1.00  0.00     0.029 A 
ATOM     58  C   UNL A   1      41.091  31.946  36.146  1.00  0.00     0.049 A 
ATOM     59  H   UNL A   1      40.981  30.794  34.382  1.00  0.00     0.167 HD
ATOM     60  C   UNL A   1      39.260  33.009  34.847  1.00  0.00     0.074 A 
ATOM     61  C   UNL A   1      38.220  33.999  34.667  1.00  0.00     0.031 C 
ATOM     62  C   UNL A   1      40.054  32.927  35.944  1.00  0.00     0.037 A 
BRANCH  49  63
ATOM     63  C   UNL A   1      44.149  28.295  35.778  1.00  0.00     0.058 A 
ATOM     64  C   UNL A   1      43.855  27.230  36.645  1.00  0.00     0.135 A 
ATOM     65  C   UNL A   1      45.499  28.620  35.572  1.00  0.00     0.135 A 
ATOM     66  F   UNL A   1      42.580  26.890  36.890  1.00  0.00    -0.206 F 
ATOM     67  C   UNL A   1      44.860  26.536  37.311  1.00  0.00     0.059 A 
ATOM     68  C   UNL A   1      46.522  27.923  36.209  1.00  0.00     0.059 A 
ATOM     69  F   UNL A   1      45.834  29.630  34.755  1.00  0.00    -0.206 F 
ATOM     70  C   UNL A   1      46.191  26.894  37.090  1.00  0.00     0.060 A 
BRANCH  70  71
ATOM     71  S   UNL A   1      47.485  25.991  37.967  1.00  0.00     0.124 S 
ATOM     72  O   UNL A   1      48.466  25.788  36.904  1.00  0.00    -0.237 OA
ATOM     73  O   UNL A   1      47.872  26.931  39.013  1.00  0.00    -0.237 OA
ATOM     74  O   UNL A   1      46.804  24.787  38.430  1.00  0.00    -0.744 OA
ENDBRANCH  70  71
ENDBRANCH  49  63
BRANCH  50  75
ATOM     75  C   UNL A   1      36.741  32.882  30.872  1.00  0.00     0.058 A 
ATOM     76  C   UNL A   1      35.410  32.622  31.228  1.00  0.00     0.135 A 
ATOM     77  C   UNL A   1      36.976  33.799  29.837  1.00  0.00     0.135 A 
ATOM     78  F   UNL A   1      35.136  31.747  32.208  1.00  0.00    -0.206 F 
ATOM     79  C   UNL A   1      34.347  33.236  30.574  1.00  0.00     0.059 A 
ATOM     80  C   UNL A   1      35.930  34.442  29.180  1.00  0.00     0.059 A 
ATOM     81  F   UNL A   1      38.232  34.094  29.472  1.00  0.00    -0.206 F 
ATOM     82  C   UNL A   1      34.618  34.147  29.551  1.00  0.00     0.060 A 
BRANCH  82  83
ATOM     83  S   UNL A   1      33.235  34.980  28.741  1.00  0.00     0.124 S 
ATOM     84  O   UNL A   1      33.912  36.078  28.060  1.00  0.00    -0.237 OA
ATOM     85  O   UNL A   1      32.700  33.929  27.883  1.00  0.00    -0.237 OA
ATOM     86  O   UNL A   1      32.376  35.364  29.859  1.00  0.00    -0.744 OA
ENDBRANCH  82  83
ENDBRANCH  50  75
BRANCH  62  87
ATOM     87  C   UNL A   1      39.842  33.949  37.022  1.00  0.00     0.058 A 
ATOM     88  C   UNL A   1      39.046  33.675  38.145  1.00  0.00     0.135 A 
ATOM     89  C   UNL A   1      40.480  35.198  36.955  1.00  0.00     0.135 A 
ATOM     90  F   UNL A   1      38.410  32.498  38.252  1.00  0.00    -0.206 F 
ATOM     91  C   UNL A   1      38.876  34.613  39.158  1.00  0.00     0.059 A 
ATOM     92  C   UNL A   1      40.341  36.142  37.966  1.00  0.00     0.059 A 
ATOM     93  F   UNL A   1      41.259  35.503  35.905  1.00  0.00    -0.206 F 
ATOM     94  C   UNL A   1      39.527  35.844  39.059  1.00  0.00     0.060 A 
BRANCH  94  95
ATOM     95  S   UNL A   1      39.329  37.042  40.395  1.00  0.00     0.124 S 
ATOM     96  O   UNL A   1      40.717  37.348  40.722  1.00  0.00    -0.237 OA
ATOM     97  O   UNL A   1      38.578  38.113  39.749  1.00  0.00    -0.237 OA
ATOM     98  O   UNL A   1      38.593  36.296  41.411  1.00  0.00    -0.744 OA
ENDBRANCH  94  95
ENDBRANCH  62  87
ENDBRANCH  36  37
ENDBRANCH  28  31
ENDBRANCH  26  27
ENDBRANCH  25  26
ENDBRANCH   1  25
TORSDOF 17
ENDMDL
MODEL 3
REMARK VINA RESULT:     -11.4      1.440      2.146
REMARK SMILES Cc1ccc(Br)cc1S(=O)(=O)N[C@H]1C=C[C@H](C(=O)NCCCCNC(=O)c2ccc(-c3c4nc(c(-c5c(F)cc(S(=O)(=O)[O-])cc5F)c5ccc([nH]5)c(-c5c(F)cc(S(=O)(=O)[O-])cc5F)c5nc(c(-c6c(F)cc(S(=O)(=O)[O-])cc6F)c6ccc3[nH]6)C=C5)C=C4)cc2)C1
REMARK SMILES IDX 21 1 20 2 19 3 17 4 18 5 16 7 13 8 14 9 93 10 15 11 12 12
REMARK SMILES IDX 9 14 10 15 11 16 8 17 1 18 2 19 3 20 4 21 7 22 5 23 6 24
REMARK SMILES IDX 22 25 23 26 24 27 25 28 26 30 27 31 28 32 92 33 29 34 91 35
REMARK SMILES IDX 30 36 31 37 32 38 85 39 33 40 90 41 84 42 86 43 34 44 89 45
REMARK SMILES IDX 83 46 82 47 35 49 69 50 48 51 68 52 49 53 52 54 67 55 87 56
REMARK SMILES IDX 50 57 51 58 66 60 88 61 53 62 36 63 37 64 46 65 38 66 39 67
REMARK SMILES IDX 45 68 47 69 40 70 41 71 42 72 43 73 44 74 70 75 71 76 80 77
REMARK SMILES IDX 72 78 73 79 79 80 81 81 74 82 75 83 76 84 77 85 78 86 54 87
REMARK SMILES IDX 55 88 64 89 56 90 57 91 63 92 65 93 58 94 59 95 60 96 61 97
REMARK SMILES IDX 62 98
REMARK H PARENT 19 6 12 13 24 29 86 48 52 59
REMARK Flexibility Score: inf
ROOT
ATOM      1  C   UNL A   1      31.359  27.263  26.595  1.00  0.00     0.023 C 
ENDROOT
BRANCH   1   2
ATOM      2  C   UNL A   1      30.816  26.483  25.401  1.00  0.00     0.116 C 
BRANCH   2   3
ATOM      3  N   UNL A   1      29.988  27.315  24.549  1.00  0.00    -0.356 N 
ATOM      4  C   UNL A   1      30.108  27.794  23.288  1.00  0.00     0.226 C 
ATOM      5  O   UNL A   1      29.233  28.596  22.932  1.00  0.00    -0.274 OA
ATOM      6  H   UNL A   1      29.152  27.596  24.987  1.00  0.00     0.163 HD
BRANCH   4   7
ATOM      7  C   UNL A   1      31.233  27.457  22.302  1.00  0.00     0.103 C 
ATOM      8  C   UNL A   1      33.006  25.907  22.935  1.00  0.00     0.093 C 
ATOM      9  C   UNL A   1      33.505  27.315  22.903  1.00  0.00    -0.011 C 
ATOM     10  C   UNL A   1      31.709  26.025  22.122  1.00  0.00     0.042 C 
ATOM     11  C   UNL A   1      32.518  28.171  22.606  1.00  0.00    -0.016 C 
BRANCH   8  12
ATOM     12  N   UNL A   1      33.933  25.005  22.284  1.00  0.00    -0.204 NA
ATOM     13  H   UNL A   1      33.715  25.024  21.287  1.00  0.00     0.142 HD
BRANCH  12  14
ATOM     14  S   UNL A   1      33.974  23.392  22.744  1.00  0.00     0.241 S 
ATOM     15  O   UNL A   1      35.349  22.955  22.590  1.00  0.00    -0.207 OA
ATOM     16  O   UNL A   1      32.893  22.730  22.058  1.00  0.00    -0.207 OA
BRANCH  14  17
ATOM     17  C   UNL A   1      33.586  23.389  24.487  1.00  0.00     0.086 A 
ATOM     18  C   UNL A   1      35.949  24.108  25.248  1.00  0.00     0.046 C 
ATOM     19  C   UNL A   1      34.539  23.649  25.490  1.00  0.00    -0.031 A 
ATOM     20  C   UNL A   1      34.144  23.504  26.835  1.00  0.00     0.006 A 
ATOM     21  C   UNL A   1      32.832  23.169  27.176  1.00  0.00     0.016 A 
ATOM     22  C   UNL A   1      32.259  23.073  24.834  1.00  0.00     0.037 A 
ATOM     23  C   UNL A   1      31.890  22.979  26.173  1.00  0.00     0.019 A 
ATOM     24  Br  UNL A   1      30.097  22.597  26.632  1.00  0.00    -0.051 Br
ENDBRANCH  14  17
ENDBRANCH  12  14
ENDBRANCH   8  12
ENDBRANCH   4   7
ENDBRANCH   2   3
ENDBRANCH   1   2
BRANCH   1  25
ATOM     25  C   UNL A   1      32.686  27.971  26.322  1.00  0.00     0.023 C 
BRANCH  25  26
ATOM     26  C   UNL A   1      33.452  28.412  27.567  1.00  0.00     0.116 C 
BRANCH  26  27
ATOM     27  N   UNL A   1      33.423  29.851  27.795  1.00  0.00    -0.352 N 
ATOM     28  C   UNL A   1      34.464  30.660  28.184  1.00  0.00     0.251 C 
ATOM     29  H   UNL A   1      32.555  30.295  27.653  1.00  0.00     0.163 HD
ATOM     30  O   UNL A   1      34.282  31.850  28.417  1.00  0.00    -0.269 OA
BRANCH  28  31
ATOM     31  C   UNL A   1      35.796  30.051  28.363  1.00  0.00     0.039 A 
ATOM     32  C   UNL A   1      36.681  30.038  27.284  1.00  0.00     0.014 A 
ATOM     33  C   UNL A   1      36.192  29.592  29.622  1.00  0.00     0.014 A 
ATOM     34  C   UNL A   1      38.000  29.633  27.488  1.00  0.00     0.010 A 
ATOM     35  C   UNL A   1      37.523  29.253  29.837  1.00  0.00     0.010 A 
ATOM     36  C   UNL A   1      38.440  29.279  28.775  1.00  0.00    -0.014 A 
BRANCH  36  37
ATOM     37  C   UNL A   1      39.862  28.945  29.033  1.00  0.00     0.031 A 
ATOM     38  C   UNL A   1      40.782  29.983  29.611  1.00  0.00     0.074 A 
ATOM     39  C   UNL A   1      40.338  27.735  28.677  1.00  0.00     0.049 A 
ATOM     40  N   UNL A   1      42.067  29.910  29.842  1.00  0.00    -0.248 NA
ATOM     41  C   UNL A   1      40.185  31.287  29.943  1.00  0.00     0.031 C 
ATOM     42  C   UNL A   1      39.556  26.668  28.047  1.00  0.00     0.029 A 
ATOM     43  N   UNL A   1      41.596  27.202  28.784  1.00  0.00    -0.354 N 
ATOM     44  C   UNL A   1      42.436  31.159  30.325  1.00  0.00     0.074 A 
ATOM     45  C   UNL A   1      41.249  31.987  30.308  1.00  0.00     0.031 C 
ATOM     46  C   UNL A   1      40.347  25.602  27.846  1.00  0.00     0.029 A 
ATOM     47  C   UNL A   1      41.696  25.917  28.305  1.00  0.00     0.049 A 
ATOM     48  H   UNL A   1      42.359  27.693  29.169  1.00  0.00     0.167 HD
ATOM     49  C   UNL A   1      43.647  31.572  30.767  1.00  0.00     0.037 A 
ATOM     50  C   UNL A   1      42.755  25.087  28.244  1.00  0.00     0.037 A 
ATOM     51  C   UNL A   1      44.814  30.731  30.819  1.00  0.00     0.049 A 
ATOM     52  C   UNL A   1      44.081  25.554  28.779  1.00  0.00     0.074 A 
ATOM     53  C   UNL A   1      46.070  31.031  31.314  1.00  0.00     0.029 A 
ATOM     54  N   UNL A   1      44.863  29.421  30.366  1.00  0.00    -0.354 N 
ATOM     55  N   UNL A   1      44.397  26.719  29.294  1.00  0.00    -0.248 NA
ATOM     56  C   UNL A   1      45.193  24.594  28.732  1.00  0.00     0.031 C 
ATOM     57  C   UNL A   1      46.889  29.909  31.137  1.00  0.00     0.029 A 
ATOM     58  C   UNL A   1      46.132  28.901  30.560  1.00  0.00     0.049 A 
ATOM     59  H   UNL A   1      44.109  28.933  29.964  1.00  0.00     0.167 HD
ATOM     60  C   UNL A   1      45.737  26.624  29.650  1.00  0.00     0.074 A 
ATOM     61  C   UNL A   1      46.168  25.286  29.304  1.00  0.00     0.031 C 
ATOM     62  C   UNL A   1      46.539  27.563  30.213  1.00  0.00     0.037 A 
BRANCH  49  63
ATOM     63  C   UNL A   1      43.762  32.993  31.240  1.00  0.00     0.058 A 
ATOM     64  C   UNL A   1      44.171  34.022  30.378  1.00  0.00     0.135 A 
ATOM     65  C   UNL A   1      43.451  33.333  32.566  1.00  0.00     0.135 A 
ATOM     66  F   UNL A   1      44.496  33.748  29.104  1.00  0.00    -0.206 F 
ATOM     67  C   UNL A   1      44.300  35.334  30.821  1.00  0.00     0.059 A 
ATOM     68  C   UNL A   1      43.550  34.643  33.025  1.00  0.00     0.059 A 
ATOM     69  F   UNL A   1      43.058  32.386  33.433  1.00  0.00    -0.206 F 
ATOM     70  C   UNL A   1      43.993  35.633  32.149  1.00  0.00     0.060 A 
BRANCH  70  71
ATOM     71  S   UNL A   1      44.173  37.338  32.715  1.00  0.00     0.124 S 
ATOM     72  O   UNL A   1      43.138  37.413  33.742  1.00  0.00    -0.237 OA
ATOM     73  O   UNL A   1      45.549  37.366  33.199  1.00  0.00    -0.237 OA
ATOM     74  O   UNL A   1      43.920  38.123  31.511  1.00  0.00    -0.744 OA
ENDBRANCH  70  71
ENDBRANCH  49  63
BRANCH  50  75
ATOM     75  C   UNL A   1      42.595  23.718  27.691  1.00  0.00     0.058 A 
ATOM     76  C   UNL A   1      42.455  22.612  28.542  1.00  0.00     0.135 A 
ATOM     77  C   UNL A   1      42.564  23.488  26.307  1.00  0.00     0.135 A 
ATOM     78  F   UNL A   1      42.485  22.782  29.873  1.00  0.00    -0.206 F 
ATOM     79  C   UNL A   1      42.303  21.322  28.043  1.00  0.00     0.059 A 
ATOM     80  C   UNL A   1      42.392  22.210  25.783  1.00  0.00     0.059 A 
ATOM     81  F   UNL A   1      42.676  24.516  25.453  1.00  0.00    -0.206 F 
ATOM     82  C   UNL A   1      42.272  21.131  26.661  1.00  0.00     0.060 A 
BRANCH  82  83
ATOM     83  S   UNL A   1      42.022  19.461  26.020  1.00  0.00     0.124 S 
ATOM     84  O   UNL A   1      42.862  19.476  24.828  1.00  0.00    -0.237 OA
ATOM     85  O   UNL A   1      42.495  18.632  27.124  1.00  0.00    -0.237 OA
ATOM     86  O   UNL A   1      40.583  19.409  25.778  1.00  0.00    -0.744 OA
ENDBRANCH  82  83
ENDBRANCH  50  75
BRANCH  62  87
ATOM     87  C   UNL A   1      47.956  27.166  30.509  1.00  0.00     0.058 A 
ATOM     88  C   UNL A   1      48.988  27.388  29.583  1.00  0.00     0.135 A 
ATOM     89  C   UNL A   1      48.294  26.603  31.750  1.00  0.00     0.135 A 
ATOM     90  F   UNL A   1      48.714  27.918  28.381  1.00  0.00    -0.206 F 
ATOM     91  C   UNL A   1      50.304  27.049  29.872  1.00  0.00     0.059 A 
ATOM     92  C   UNL A   1      49.607  26.275  32.068  1.00  0.00     0.059 A 
ATOM     93  F   UNL A   1      47.344  26.380  32.671  1.00  0.00    -0.206 F 
ATOM     94  C   UNL A   1      50.605  26.492  31.117  1.00  0.00     0.060 A 
BRANCH  94  95
ATOM     95  S   UNL A   1      52.322  26.086  31.496  1.00  0.00     0.124 S 
ATOM     96  O   UNL A   1      52.669  27.140  32.444  1.00  0.00    -0.237 OA
ATOM     97  O   UNL A   1      52.214  24.742  32.053  1.00  0.00    -0.237 OA
ATOM     98  O   UNL A   1      52.984  26.166  30.197  1.00  0.00    -0.744 OA
ENDBRANCH  94  95
ENDBRANCH  62  87
ENDBRANCH  36  37
ENDBRANCH  28  31
ENDBRANCH  26  27
ENDBRANCH  25  26
ENDBRANCH   1  25
TORSDOF 17
ENDMDL
