MODEL 1
REMARK VINA RESULT:     -11.8      0.000      0.000
REMARK SMILES O=C(NCCCCNC(=O)c1ccc(S(=O)(=O)N[C@@H]2CC[N@@H+]3CCC[C@H]23)cc1)c1ccc(-c2c3nc(c(-c4c(F)cc(S(=O)(=O)[O-])cc4F)c4ccc([nH]4)c(-c4c(F)cc(S(=O)(=O)[O-])cc4F)c4nc(c(-c5c(F)cc(S(=O)(=O)[O-])cc5F)c5ccc2[nH]5)C=C4)C=C3)cc1
REMARK SMILES IDX 5 1 4 2 3 3 1 4 2 5 29 7 30 8 94 9 31 10 93 11 32 12 33 13
REMARK SMILES IDX 34 14 87 15 35 16 92 17 86 18 88 19 36 20 91 21 85 22 84 23
REMARK SMILES IDX 37 25 71 26 50 27 70 28 51 29 54 30 69 31 89 32 52 33 53 34
REMARK SMILES IDX 68 36 90 37 55 38 38 39 39 40 48 41 40 42 41 43 47 44 49 45
REMARK SMILES IDX 42 46 43 47 44 48 45 49 46 50 72 51 73 52 82 53 74 54 75 55
REMARK SMILES IDX 81 56 83 57 76 58 77 59 78 60 79 61 80 62 56 63 57 64 66 65
REMARK SMILES IDX 58 66 59 67 65 68 67 69 60 70 61 71 62 72 63 73 64 74 6 75
REMARK SMILES IDX 7 76 8 77 9 78 10 80 11 81 12 82 28 83 13 84 27 85 14 86
REMARK SMILES IDX 15 87 16 88 17 89 18 90 19 92 20 93 26 94 21 95 22 96 25 97
REMARK SMILES IDX 23 98 24 100
REMARK H PARENT 3 6 88 24 54 35 8 79 18 91 22 99
REMARK Flexibility Score: inf
ROOT
ATOM      1  C   UNL A   1      33.951  27.764  25.075  1.00  0.00     0.023 C 
ENDROOT
BRANCH   1   2
ATOM      2  C   UNL A   1      33.845  27.912  26.590  1.00  0.00     0.116 C 
BRANCH   2   3
ATOM      3  N   UNL A   1      33.419  29.242  27.000  1.00  0.00    -0.352 N 
ATOM      4  O   UNL A   1      33.505  31.218  28.073  1.00  0.00    -0.269 OA
ATOM      5  C   UNL A   1      34.094  30.205  27.708  1.00  0.00     0.251 C 
ATOM      6  H   UNL A   1      32.506  29.490  26.726  1.00  0.00     0.163 HD
BRANCH   5   7
ATOM      7  C   UNL A   1      35.514  30.003  28.053  1.00  0.00     0.039 A 
ATOM      8  C   UNL A   1      36.515  30.173  27.092  1.00  0.00     0.014 A 
ATOM      9  C   UNL A   1      35.842  29.635  29.360  1.00  0.00     0.014 A 
ATOM     10  C   UNL A   1      37.831  29.847  27.404  1.00  0.00     0.010 A 
ATOM     11  C   UNL A   1      37.171  29.370  29.688  1.00  0.00     0.010 A 
ATOM     12  C   UNL A   1      38.168  29.442  28.703  1.00  0.00    -0.014 A 
BRANCH  12  13
ATOM     13  C   UNL A   1      39.577  29.131  29.037  1.00  0.00     0.031 A 
ATOM     14  C   UNL A   1      40.458  30.161  29.681  1.00  0.00     0.074 A 
ATOM     15  C   UNL A   1      40.060  27.911  28.739  1.00  0.00     0.049 A 
ATOM     16  N   UNL A   1      41.726  30.081  29.991  1.00  0.00    -0.248 NA
ATOM     17  C   UNL A   1      39.837  31.454  30.011  1.00  0.00     0.031 C 
ATOM     18  C   UNL A   1      39.296  26.838  28.098  1.00  0.00     0.029 A 
ATOM     19  N   UNL A   1      41.306  27.370  28.927  1.00  0.00    -0.354 N 
ATOM     20  C   UNL A   1      42.066  31.319  30.523  1.00  0.00     0.074 A 
ATOM     21  C   UNL A   1      40.871  32.135  30.489  1.00  0.00     0.031 C 
ATOM     22  C   UNL A   1      40.087  25.765  27.954  1.00  0.00     0.029 A 
ATOM     23  C   UNL A   1      41.421  26.088  28.450  1.00  0.00     0.049 A 
ATOM     24  H   UNL A   1      42.044  27.855  29.360  1.00  0.00     0.167 HD
ATOM     25  C   UNL A   1      43.266  31.731  30.996  1.00  0.00     0.037 A 
ATOM     26  C   UNL A   1      42.487  25.270  28.395  1.00  0.00     0.037 A 
ATOM     27  C   UNL A   1      44.443  30.904  31.049  1.00  0.00     0.049 A 
ATOM     28  C   UNL A   1      43.802  25.741  28.935  1.00  0.00     0.074 A 
ATOM     29  C   UNL A   1      45.691  31.213  31.560  1.00  0.00     0.029 A 
ATOM     30  N   UNL A   1      44.517  29.604  30.569  1.00  0.00    -0.354 N 
ATOM     31  N   UNL A   1      44.098  26.902  29.468  1.00  0.00    -0.248 NA
ATOM     32  C   UNL A   1      44.927  24.801  28.868  1.00  0.00     0.031 C 
ATOM     33  C   UNL A   1      46.528  30.106  31.367  1.00  0.00     0.029 A 
ATOM     34  C   UNL A   1      45.793  29.102  30.756  1.00  0.00     0.049 A 
ATOM     35  H   UNL A   1      43.771  29.113  30.158  1.00  0.00     0.167 HD
ATOM     36  C   UNL A   1      45.445  26.835  29.800  1.00  0.00     0.074 A 
ATOM     37  C   UNL A   1      45.901  25.512  29.421  1.00  0.00     0.031 C 
ATOM     38  C   UNL A   1      46.229  27.784  30.366  1.00  0.00     0.037 A 
BRANCH  25  39
ATOM     39  C   UNL A   1      43.364  33.153  31.468  1.00  0.00     0.058 A 
ATOM     40  C   UNL A   1      43.652  34.205  30.585  1.00  0.00     0.135 A 
ATOM     41  C   UNL A   1      43.172  33.466  32.823  1.00  0.00     0.135 A 
ATOM     42  F   UNL A   1      43.859  33.955  29.282  1.00  0.00    -0.206 F 
ATOM     43  C   UNL A   1      43.781  35.515  31.034  1.00  0.00     0.059 A 
ATOM     44  C   UNL A   1      43.281  34.772  33.292  1.00  0.00     0.059 A 
ATOM     45  F   UNL A   1      42.897  32.495  33.708  1.00  0.00    -0.206 F 
ATOM     46  C   UNL A   1      43.607  35.787  32.393  1.00  0.00     0.060 A 
BRANCH  46  47
ATOM     47  S   UNL A   1      43.814  37.482  32.979  1.00  0.00     0.124 S 
ATOM     48  O   UNL A   1      45.125  37.408  33.617  1.00  0.00    -0.237 OA
ATOM     49  O   UNL A   1      43.756  38.257  31.743  1.00  0.00    -0.237 OA
ATOM     50  O   UNL A   1      42.684  37.666  33.882  1.00  0.00    -0.744 OA
ENDBRANCH  46  47
ENDBRANCH  25  39
BRANCH  26  51
ATOM     51  C   UNL A   1      42.323  23.927  27.786  1.00  0.00     0.058 A 
ATOM     52  C   UNL A   1      42.343  23.761  26.395  1.00  0.00     0.135 A 
ATOM     53  C   UNL A   1      42.264  22.777  28.589  1.00  0.00     0.135 A 
ATOM     54  F   UNL A   1      42.400  24.834  25.591  1.00  0.00    -0.206 F 
ATOM     55  C   UNL A   1      42.334  22.496  25.818  1.00  0.00     0.059 A 
ATOM     56  C   UNL A   1      42.270  21.503  28.034  1.00  0.00     0.059 A 
ATOM     57  F   UNL A   1      42.263  22.891  29.926  1.00  0.00    -0.206 F 
ATOM     58  C   UNL A   1      42.309  21.372  26.647  1.00  0.00     0.060 A 
BRANCH  58  59
ATOM     59  S   UNL A   1      42.430  19.731  25.900  1.00  0.00     0.124 S 
ATOM     60  O   UNL A   1      41.079  19.544  25.385  1.00  0.00    -0.237 OA
ATOM     61  O   UNL A   1      43.475  19.921  24.898  1.00  0.00    -0.237 OA
ATOM     62  O   UNL A   1      42.804  18.881  27.026  1.00  0.00    -0.744 OA
ENDBRANCH  58  59
ENDBRANCH  26  51
BRANCH  38  63
ATOM     63  C   UNL A   1      47.664  27.429  30.611  1.00  0.00     0.058 A 
ATOM     64  C   UNL A   1      48.036  26.620  31.695  1.00  0.00     0.135 A 
ATOM     65  C   UNL A   1      48.664  27.839  29.717  1.00  0.00     0.135 A 
ATOM     66  F   UNL A   1      47.113  26.210  32.579  1.00  0.00    -0.206 F 
ATOM     67  C   UNL A   1      49.357  26.231  31.888  1.00  0.00     0.059 A 
ATOM     68  C   UNL A   1      49.990  27.451  29.884  1.00  0.00     0.059 A 
ATOM     69  F   UNL A   1      48.353  28.609  28.663  1.00  0.00    -0.206 F 
ATOM     70  C   UNL A   1      50.327  26.652  30.975  1.00  0.00     0.060 A 
BRANCH  70  71
ATOM     71  S   UNL A   1      52.031  26.097  31.198  1.00  0.00     0.124 S 
ATOM     72  O   UNL A   1      52.488  25.992  29.817  1.00  0.00    -0.237 OA
ATOM     73  O   UNL A   1      52.618  27.181  31.980  1.00  0.00    -0.237 OA
ATOM     74  O   UNL A   1      51.882  24.831  31.910  1.00  0.00    -0.744 OA
ENDBRANCH  70  71
ENDBRANCH  38  63
ENDBRANCH  12  13
ENDBRANCH   5   7
ENDBRANCH   2   3
ENDBRANCH   1   2
BRANCH   1  75
ATOM     75  C   UNL A   1      33.464  28.962  24.263  1.00  0.00     0.023 C 
BRANCH  75  76
ATOM     76  C   UNL A   1      33.199  28.686  22.789  1.00  0.00     0.116 C 
BRANCH  76  77
ATOM     77  N   UNL A   1      31.829  28.975  22.403  1.00  0.00    -0.352 N 
ATOM     78  C   UNL A   1      30.706  28.209  22.577  1.00  0.00     0.251 C 
ATOM     79  H   UNL A   1      31.688  29.839  21.954  1.00  0.00     0.163 HD
ATOM     80  O   UNL A   1      29.642  28.539  22.059  1.00  0.00    -0.269 OA
BRANCH  78  81
ATOM     81  C   UNL A   1      30.759  26.982  23.400  1.00  0.00     0.039 A 
ATOM     82  C   UNL A   1      30.393  27.053  24.750  1.00  0.00     0.015 A 
ATOM     83  C   UNL A   1      31.255  25.787  22.865  1.00  0.00     0.015 A 
ATOM     84  C   UNL A   1      30.525  25.931  25.569  1.00  0.00     0.022 A 
ATOM     85  C   UNL A   1      31.342  24.654  23.663  1.00  0.00     0.022 A 
ATOM     86  C   UNL A   1      31.014  24.741  25.022  1.00  0.00     0.082 A 
BRANCH  86  87
ATOM     87  S   UNL A   1      31.427  23.383  26.091  1.00  0.00     0.241 S 
ATOM     88  O   UNL A   1      31.643  23.872  27.440  1.00  0.00    -0.207 OA
ATOM     89  O   UNL A   1      30.492  22.337  25.809  1.00  0.00    -0.207 OA
BRANCH  87  90
ATOM     90  N   UNL A   1      32.890  22.867  25.491  1.00  0.00    -0.202 NA
ATOM     91  H   UNL A   1      32.944  23.289  24.564  1.00  0.00     0.141 HD
BRANCH  90  92
ATOM     92  C   UNL A   1      34.238  23.036  26.042  1.00  0.00     0.133 C 
ATOM     93  C   UNL A   1      34.919  24.288  25.506  1.00  0.00     0.087 C 
ATOM     94  C   UNL A   1      35.317  21.938  26.107  1.00  0.00     0.202 C 
ATOM     95  C   UNL A   1      36.347  23.857  25.229  1.00  0.00     0.264 C 
ATOM     96  N   UNL A   1      36.569  22.741  26.160  1.00  0.00    -0.331 N 
ATOM     97  C   UNL A   1      35.575  20.885  25.031  1.00  0.00     0.072 C 
ATOM     98  C   UNL A   1      37.653  21.856  25.724  1.00  0.00     0.262 C 
ATOM     99  H   UNL A   1      36.811  23.107  27.080  1.00  0.00     0.348 HD
ATOM    100  C   UNL A   1      37.045  20.976  24.654  1.00  0.00     0.068 C 
ENDBRANCH  90  92
ENDBRANCH  87  90
ENDBRANCH  86  87
ENDBRANCH  78  81
ENDBRANCH  76  77
ENDBRANCH  75  76
ENDBRANCH   1  75
TORSDOF 17
ENDMDL
MODEL 2
REMARK VINA RESULT:     -11.8      2.605      3.352
REMARK SMILES O=C(NCCCCNC(=O)c1ccc(S(=O)(=O)N[C@@H]2CC[N@@H+]3CCC[C@H]23)cc1)c1ccc(-c2c3nc(c(-c4c(F)cc(S(=O)(=O)[O-])cc4F)c4ccc([nH]4)c(-c4c(F)cc(S(=O)(=O)[O-])cc4F)c4nc(c(-c5c(F)cc(S(=O)(=O)[O-])cc5F)c5ccc2[nH]5)C=C4)C=C3)cc1
REMARK SMILES IDX 5 1 4 2 3 3 1 4 2 5 29 7 30 8 94 9 31 10 93 11 32 12 33 13
REMARK SMILES IDX 34 14 87 15 35 16 92 17 86 18 88 19 36 20 91 21 85 22 84 23
REMARK SMILES IDX 37 25 71 26 50 27 70 28 51 29 54 30 69 31 89 32 52 33 53 34
REMARK SMILES IDX 68 36 90 37 55 38 38 39 39 40 48 41 40 42 41 43 47 44 49 45
REMARK SMILES IDX 42 46 43 47 44 48 45 49 46 50 72 51 73 52 82 53 74 54 75 55
REMARK SMILES IDX 81 56 83 57 76 58 77 59 78 60 79 61 80 62 56 63 57 64 66 65
REMARK SMILES IDX 58 66 59 67 65 68 67 69 60 70 61 71 62 72 63 73 64 74 6 75
REMARK SMILES IDX 7 76 8 77 9 78 10 80 11 81 12 82 28 83 13 84 27 85 14 86
REMARK SMILES IDX 15 87 16 88 17 89 18 90 19 92 20 93 26 94 21 95 22 96 25 97
REMARK SMILES IDX 23 98 24 100
REMARK H PARENT 3 6 88 24 54 35 8 79 18 91 22 99
REMARK Flexibility Score: inf
ROOT
ATOM      1  C   UNL A   1      33.724  28.953  27.142  1.00  0.00     0.023 C 
ENDROOT
BRANCH   1   2
ATOM      2  C   UNL A   1      35.136  29.285  27.618  1.00  0.00     0.116 C 
BRANCH   2   3
ATOM      3  N   UNL A   1      35.149  30.134  28.800  1.00  0.00    -0.352 N 
ATOM      4  O   UNL A   1      35.940  31.053  30.695  1.00  0.00    -0.269 OA
ATOM      5  C   UNL A   1      36.170  30.413  29.673  1.00  0.00     0.251 C 
ATOM      6  H   UNL A   1      34.294  30.579  29.003  1.00  0.00     0.163 HD
BRANCH   5   7
ATOM      7  C   UNL A   1      37.531  29.917  29.395  1.00  0.00     0.039 A 
ATOM      8  C   UNL A   1      38.347  29.450  30.430  1.00  0.00     0.014 A 
ATOM      9  C   UNL A   1      37.992  29.924  28.076  1.00  0.00     0.014 A 
ATOM     10  C   UNL A   1      39.670  29.114  30.164  1.00  0.00     0.010 A 
ATOM     11  C   UNL A   1      39.300  29.526  27.803  1.00  0.00     0.010 A 
ATOM     12  C   UNL A   1      40.157  29.151  28.849  1.00  0.00    -0.014 A 
BRANCH  12  13
ATOM     13  C   UNL A   1      41.557  28.757  28.568  1.00  0.00     0.031 A 
ATOM     14  C   UNL A   1      42.662  29.771  28.616  1.00  0.00     0.074 A 
ATOM     15  C   UNL A   1      41.820  27.476  28.253  1.00  0.00     0.049 A 
ATOM     16  N   UNL A   1      43.933  29.616  28.345  1.00  0.00    -0.248 NA
ATOM     17  C   UNL A   1      42.293  31.140  29.009  1.00  0.00     0.031 C 
ATOM     18  C   UNL A   1      40.819  26.411  28.163  1.00  0.00     0.029 A 
ATOM     19  N   UNL A   1      43.001  26.854  27.945  1.00  0.00    -0.354 N 
ATOM     20  C   UNL A   1      44.511  30.869  28.502  1.00  0.00     0.074 A 
ATOM     21  C   UNL A   1      43.451  31.777  28.889  1.00  0.00     0.031 C 
ATOM     22  C   UNL A   1      41.430  25.264  27.831  1.00  0.00     0.029 A 
ATOM     23  C   UNL A   1      42.854  25.523  27.643  1.00  0.00     0.049 A 
ATOM     24  H   UNL A   1      43.870  27.316  27.941  1.00  0.00     0.167 HD
ATOM     25  C   UNL A   1      45.807  31.225  28.340  1.00  0.00     0.037 A 
ATOM     26  C   UNL A   1      43.758  24.614  27.234  1.00  0.00     0.037 A 
ATOM     27  C   UNL A   1      46.859  30.311  27.981  1.00  0.00     0.049 A 
ATOM     28  C   UNL A   1      45.189  25.027  27.074  1.00  0.00     0.074 A 
ATOM     29  C   UNL A   1      48.213  30.564  27.845  1.00  0.00     0.029 A 
ATOM     30  N   UNL A   1      46.672  28.966  27.696  1.00  0.00    -0.354 N 
ATOM     31  N   UNL A   1      45.726  26.208  27.261  1.00  0.00    -0.248 NA
ATOM     32  C   UNL A   1      46.138  23.991  26.645  1.00  0.00     0.031 C 
ATOM     33  C   UNL A   1      48.842  29.375  27.454  1.00  0.00     0.029 A 
ATOM     34  C   UNL A   1      47.882  28.378  27.368  1.00  0.00     0.049 A 
ATOM     35  H   UNL A   1      45.807  28.499  27.723  1.00  0.00     0.167 HD
ATOM     36  C   UNL A   1      47.077  26.061  26.974  1.00  0.00     0.074 A 
ATOM     37  C   UNL A   1      47.277  24.671  26.613  1.00  0.00     0.031 C 
ATOM     38  C   UNL A   1      48.058  26.994  27.006  1.00  0.00     0.037 A 
BRANCH  25  39
ATOM     39  C   UNL A   1      46.147  32.676  28.527  1.00  0.00     0.058 A 
ATOM     40  C   UNL A   1      46.521  33.191  29.778  1.00  0.00     0.135 A 
ATOM     41  C   UNL A   1      46.093  33.563  27.440  1.00  0.00     0.135 A 
ATOM     42  F   UNL A   1      46.572  32.385  30.851  1.00  0.00    -0.206 F 
ATOM     43  C   UNL A   1      46.795  34.543  29.954  1.00  0.00     0.059 A 
ATOM     44  C   UNL A   1      46.379  34.917  27.590  1.00  0.00     0.059 A 
ATOM     45  F   UNL A   1      45.739  33.120  26.224  1.00  0.00    -0.206 F 
ATOM     46  C   UNL A   1      46.708  35.402  28.855  1.00  0.00     0.060 A 
BRANCH  46  47
ATOM     47  S   UNL A   1      47.027  37.163  29.095  1.00  0.00     0.124 S 
ATOM     48  O   UNL A   1      46.435  37.729  27.888  1.00  0.00    -0.237 OA
ATOM     49  O   UNL A   1      46.320  37.449  30.340  1.00  0.00    -0.237 OA
ATOM     50  O   UNL A   1      48.482  37.233  29.176  1.00  0.00    -0.744 OA
ENDBRANCH  46  47
ENDBRANCH  25  39
BRANCH  26  51
ATOM     51  C   UNL A   1      43.300  23.234  26.945  1.00  0.00     0.058 A 
ATOM     52  C   UNL A   1      43.234  22.760  25.628  1.00  0.00     0.135 A 
ATOM     53  C   UNL A   1      43.038  22.332  27.987  1.00  0.00     0.135 A 
ATOM     54  F   UNL A   1      43.479  23.588  24.602  1.00  0.00    -0.206 F 
ATOM     55  C   UNL A   1      42.944  21.427  25.354  1.00  0.00     0.059 A 
ATOM     56  C   UNL A   1      42.761  20.993  27.737  1.00  0.00     0.059 A 
ATOM     57  F   UNL A   1      43.110  22.740  29.264  1.00  0.00    -0.206 F 
ATOM     58  C   UNL A   1      42.721  20.548  26.416  1.00  0.00     0.060 A 
BRANCH  58  59
ATOM     59  S   UNL A   1      42.475  18.794  26.063  1.00  0.00     0.124 S 
ATOM     60  O   UNL A   1      41.070  18.767  25.675  1.00  0.00    -0.237 OA
ATOM     61  O   UNL A   1      43.438  18.553  24.992  1.00  0.00    -0.237 OA
ATOM     62  O   UNL A   1      42.795  18.152  27.334  1.00  0.00    -0.744 OA
ENDBRANCH  58  59
ENDBRANCH  26  51
BRANCH  38  63
ATOM     63  C   UNL A   1      49.441  26.545  26.640  1.00  0.00     0.058 A 
ATOM     64  C   UNL A   1      50.305  26.001  27.602  1.00  0.00     0.135 A 
ATOM     65  C   UNL A   1      49.879  26.592  25.308  1.00  0.00     0.135 A 
ATOM     66  F   UNL A   1      49.931  25.943  28.890  1.00  0.00    -0.206 F 
ATOM     67  C   UNL A   1      51.562  25.520  27.256  1.00  0.00     0.059 A 
ATOM     68  C   UNL A   1      51.128  26.105  24.937  1.00  0.00     0.059 A 
ATOM     69  F   UNL A   1      49.083  27.100  24.353  1.00  0.00    -0.206 F 
ATOM     70  C   UNL A   1      51.965  25.576  25.919  1.00  0.00     0.060 A 
BRANCH  70  71
ATOM     71  S   UNL A   1      53.576  24.898  25.465  1.00  0.00     0.124 S 
ATOM     72  O   UNL A   1      54.353  25.157  26.673  1.00  0.00    -0.237 OA
ATOM     73  O   UNL A   1      53.268  23.497  25.197  1.00  0.00    -0.237 OA
ATOM     74  O   UNL A   1      53.953  25.685  24.293  1.00  0.00    -0.744 OA
ENDBRANCH  70  71
ENDBRANCH  38  63
ENDBRANCH  12  13
ENDBRANCH   5   7
ENDBRANCH   2   3
ENDBRANCH   1   2
BRANCH   1  75
ATOM     75  C   UNL A   1      33.210  29.796  25.977  1.00  0.00     0.023 C 
BRANCH  75  76
ATOM     76  C   UNL A   1      33.072  29.060  24.652  1.00  0.00     0.116 C 
BRANCH  76  77
ATOM     77  N   UNL A   1      31.777  29.267  24.028  1.00  0.00    -0.352 N 
ATOM     78  C   UNL A   1      30.767  28.363  23.821  1.00  0.00     0.251 C 
ATOM     79  H   UNL A   1      31.600  30.181  23.711  1.00  0.00     0.163 HD
ATOM     80  O   UNL A   1      29.788  28.669  23.146  1.00  0.00    -0.269 OA
BRANCH  78  81
ATOM     81  C   UNL A   1      30.840  27.013  24.418  1.00  0.00     0.039 A 
ATOM     82  C   UNL A   1      30.880  26.888  25.813  1.00  0.00     0.015 A 
ATOM     83  C   UNL A   1      30.960  25.880  23.604  1.00  0.00     0.015 A 
ATOM     84  C   UNL A   1      31.044  25.631  26.397  1.00  0.00     0.022 A 
ATOM     85  C   UNL A   1      31.073  24.622  24.180  1.00  0.00     0.022 A 
ATOM     86  C   UNL A   1      31.155  24.506  25.574  1.00  0.00     0.082 A 
BRANCH  86  87
ATOM     87  S   UNL A   1      31.614  22.941  26.278  1.00  0.00     0.241 S 
ATOM     88  O   UNL A   1      31.818  23.089  27.707  1.00  0.00    -0.207 OA
ATOM     89  O   UNL A   1      30.712  21.967  25.743  1.00  0.00    -0.207 OA
BRANCH  87  90
ATOM     90  N   UNL A   1      33.091  22.634  25.577  1.00  0.00    -0.202 NA
ATOM     91  H   UNL A   1      33.055  23.134  24.688  1.00  0.00     0.141 HD
BRANCH  90  92
ATOM     92  C   UNL A   1      34.440  22.901  26.084  1.00  0.00     0.133 C 
ATOM     93  C   UNL A   1      35.021  24.186  25.510  1.00  0.00     0.087 C 
ATOM     94  C   UNL A   1      35.590  21.877  26.134  1.00  0.00     0.202 C 
ATOM     95  C   UNL A   1      36.466  23.845  25.197  1.00  0.00     0.264 C 
ATOM     96  N   UNL A   1      36.788  22.762  26.137  1.00  0.00    -0.331 N 
ATOM     97  C   UNL A   1      35.887  20.826  25.065  1.00  0.00     0.072 C 
ATOM     98  C   UNL A   1      37.915  21.943  25.682  1.00  0.00     0.262 C 
ATOM     99  H   UNL A   1      37.031  23.158  27.044  1.00  0.00     0.348 HD
ATOM    100  C   UNL A   1      37.336  21.007  24.644  1.00  0.00     0.068 C 
ENDBRANCH  90  92
ENDBRANCH  87  90
ENDBRANCH  86  87
ENDBRANCH  78  81
ENDBRANCH  76  77
ENDBRANCH  75  76
ENDBRANCH   1  75
TORSDOF 17
ENDMDL
MODEL 3
REMARK VINA RESULT:     -11.8      2.871      9.296
REMARK SMILES O=C(NCCCCNC(=O)c1ccc(S(=O)(=O)N[C@@H]2CC[N@@H+]3CCC[C@H]23)cc1)c1ccc(-c2c3nc(c(-c4c(F)cc(S(=O)(=O)[O-])cc4F)c4ccc([nH]4)c(-c4c(F)cc(S(=O)(=O)[O-])cc4F)c4nc(c(-c5c(F)cc(S(=O)(=O)[O-])cc5F)c5ccc2[nH]5)C=C4)C=C3)cc1
REMARK SMILES IDX 5 1 4 2 3 3 1 4 2 5 29 7 30 8 94 9 31 10 93 11 32 12 33 13
REMARK SMILES IDX 34 14 87 15 35 16 92 17 86 18 88 19 36 20 91 21 85 22 84 23
REMARK SMILES IDX 37 25 71 26 50 27 70 28 51 29 54 30 69 31 89 32 52 33 53 34
REMARK SMILES IDX 68 36 90 37 55 38 38 39 39 40 48 41 40 42 41 43 47 44 49 45
REMARK SMILES IDX 42 46 43 47 44 48 45 49 46 50 72 51 73 52 82 53 74 54 75 55
REMARK SMILES IDX 81 56 83 57 76 58 77 59 78 60 79 61 80 62 56 63 57 64 66 65
REMARK SMILES IDX 58 66 59 67 65 68 67 69 60 70 61 71 62 72 63 73 64 74 6 75
REMARK SMILES IDX 7 76 8 77 9 78 10 80 11 81 12 82 28 83 13 84 27 85 14 86
REMARK SMILES IDX 15 87 16 88 17 89 18 90 19 92 20 93 26 94 21 95 22 96 25 97
REMARK SMILES IDX 23 98 24 100
REMARK H PARENT 3 6 88 24 54 35 8 79 18 91 22 99
REMARK Flexibility Score: inf
ROOT
ATOM      1  C   UNL A   1      35.486  23.582  25.914  1.00  0.00     0.023 C 
ENDROOT
BRANCH   1   2
ATOM      2  C   UNL A   1      36.754  23.869  25.113  1.00  0.00     0.116 C 
BRANCH   2   3
ATOM      3  N   UNL A   1      37.789  22.866  25.313  1.00  0.00    -0.352 N 
ATOM      4  O   UNL A   1      39.788  22.028  25.915  1.00  0.00    -0.269 OA
ATOM      5  C   UNL A   1      38.987  22.956  25.977  1.00  0.00     0.251 C 
ATOM      6  H   UNL A   1      37.599  21.986  24.913  1.00  0.00     0.163 HD
BRANCH   5   7
ATOM      7  C   UNL A   1      39.318  24.178  26.734  1.00  0.00     0.039 A 
ATOM      8  C   UNL A   1      40.108  25.180  26.164  1.00  0.00     0.014 A 
ATOM      9  C   UNL A   1      38.828  24.315  28.035  1.00  0.00     0.014 A 
ATOM     10  C   UNL A   1      40.518  26.258  26.942  1.00  0.00     0.010 A 
ATOM     11  C   UNL A   1      39.188  25.429  28.792  1.00  0.00     0.010 A 
ATOM     12  C   UNL A   1      40.062  26.390  28.262  1.00  0.00    -0.014 A 
BRANCH  12  13
ATOM     13  C   UNL A   1      40.474  27.559  29.072  1.00  0.00     0.031 A 
ATOM     14  C   UNL A   1      41.780  27.559  29.810  1.00  0.00     0.074 A 
ATOM     15  C   UNL A   1      39.648  28.618  29.149  1.00  0.00     0.049 A 
ATOM     16  N   UNL A   1      42.274  28.469  30.609  1.00  0.00    -0.248 NA
ATOM     17  C   UNL A   1      42.641  26.378  29.638  1.00  0.00     0.031 C 
ATOM     18  C   UNL A   1      38.347  28.719  28.484  1.00  0.00     0.029 A 
ATOM     19  N   UNL A   1      39.774  29.806  29.821  1.00  0.00    -0.354 N 
ATOM     20  C   UNL A   1      43.486  27.962  31.061  1.00  0.00     0.074 A 
ATOM     21  C   UNL A   1      43.652  26.659  30.451  1.00  0.00     0.031 C 
ATOM     22  C   UNL A   1      37.798  29.908  28.775  1.00  0.00     0.029 A 
ATOM     23  C   UNL A   1      38.687  30.631  29.679  1.00  0.00     0.049 A 
ATOM     24  H   UNL A   1      40.566  30.042  30.354  1.00  0.00     0.167 HD
ATOM     25  C   UNL A   1      44.376  28.534  31.906  1.00  0.00     0.037 A 
ATOM     26  C   UNL A   1      38.420  31.828  30.233  1.00  0.00     0.037 A 
ATOM     27  C   UNL A   1      44.216  29.840  32.488  1.00  0.00     0.049 A 
ATOM     28  C   UNL A   1      39.424  32.448  31.155  1.00  0.00     0.074 A 
ATOM     29  C   UNL A   1      45.086  30.530  33.313  1.00  0.00     0.029 A 
ATOM     30  N   UNL A   1      43.105  30.653  32.308  1.00  0.00    -0.354 N 
ATOM     31  N   UNL A   1      40.582  31.971  31.544  1.00  0.00    -0.248 NA
ATOM     32  C   UNL A   1      39.091  33.763  31.716  1.00  0.00     0.031 C 
ATOM     33  C   UNL A   1      44.491  31.752  33.652  1.00  0.00     0.029 A 
ATOM     34  C   UNL A   1      43.260  31.831  33.020  1.00  0.00     0.049 A 
ATOM     35  H   UNL A   1      42.324  30.426  31.756  1.00  0.00     0.167 HD
ATOM     36  C   UNL A   1      41.118  32.927  32.397  1.00  0.00     0.074 A 
ATOM     37  C   UNL A   1      40.164  34.016  32.456  1.00  0.00     0.031 C 
ATOM     38  C   UNL A   1      42.294  32.900  33.070  1.00  0.00     0.037 A 
BRANCH  25  39
ATOM     39  C   UNL A   1      45.592  27.729  32.268  1.00  0.00     0.058 A 
ATOM     40  C   UNL A   1      45.575  26.800  33.319  1.00  0.00     0.135 A 
ATOM     41  C   UNL A   1      46.790  27.896  31.556  1.00  0.00     0.135 A 
ATOM     42  F   UNL A   1      44.457  26.617  34.040  1.00  0.00    -0.206 F 
ATOM     43  C   UNL A   1      46.714  26.087  33.676  1.00  0.00     0.059 A 
ATOM     44  C   UNL A   1      47.938  27.181  31.885  1.00  0.00     0.059 A 
ATOM     45  F   UNL A   1      46.858  28.774  30.543  1.00  0.00    -0.206 F 
ATOM     46  C   UNL A   1      47.896  26.295  32.961  1.00  0.00     0.060 A 
BRANCH  46  47
ATOM     47  S   UNL A   1      49.384  25.397  33.452  1.00  0.00     0.124 S 
ATOM     48  O   UNL A   1      48.981  24.861  34.748  1.00  0.00    -0.237 OA
ATOM     49  O   UNL A   1      49.532  24.415  32.381  1.00  0.00    -0.237 OA
ATOM     50  O   UNL A   1      50.407  26.435  33.490  1.00  0.00    -0.744 OA
ENDBRANCH  46  47
ENDBRANCH  25  39
BRANCH  26  51
ATOM     51  C   UNL A   1      37.129  32.485  29.919  1.00  0.00     0.058 A 
ATOM     52  C   UNL A   1      35.968  32.173  30.640  1.00  0.00     0.135 A 
ATOM     53  C   UNL A   1      37.062  33.523  28.975  1.00  0.00     0.135 A 
ATOM     54  F   UNL A   1      35.988  31.190  31.552  1.00  0.00    -0.206 F 
ATOM     55  C   UNL A   1      34.787  32.884  30.451  1.00  0.00     0.059 A 
ATOM     56  C   UNL A   1      35.898  34.256  28.782  1.00  0.00     0.059 A 
ATOM     57  F   UNL A   1      38.156  33.867  28.278  1.00  0.00    -0.206 F 
ATOM     58  C   UNL A   1      34.765  33.932  29.528  1.00  0.00     0.060 A 
BRANCH  58  59
ATOM     59  S   UNL A   1      33.271  34.937  29.381  1.00  0.00     0.124 S 
ATOM     60  O   UNL A   1      32.771  34.919  30.751  1.00  0.00    -0.237 OA
ATOM     61  O   UNL A   1      33.798  36.214  28.911  1.00  0.00    -0.237 OA
ATOM     62  O   UNL A   1      32.473  34.202  28.405  1.00  0.00    -0.744 OA
ENDBRANCH  58  59
ENDBRANCH  26  51
BRANCH  38  63
ATOM     63  C   UNL A   1      42.617  34.085  33.930  1.00  0.00     0.058 A 
ATOM     64  C   UNL A   1      42.430  34.044  35.320  1.00  0.00     0.135 A 
ATOM     65  C   UNL A   1      43.182  35.241  33.371  1.00  0.00     0.135 A 
ATOM     66  F   UNL A   1      41.886  32.961  35.897  1.00  0.00    -0.206 F 
ATOM     67  C   UNL A   1      42.791  35.115  36.130  1.00  0.00     0.059 A 
ATOM     68  C   UNL A   1      43.562  36.318  34.164  1.00  0.00     0.059 A 
ATOM     69  F   UNL A   1      43.383  35.321  32.046  1.00  0.00    -0.206 F 
ATOM     70  C   UNL A   1      43.358  36.248  35.542  1.00  0.00     0.060 A 
BRANCH  70  71
ATOM     71  S   UNL A   1      43.877  37.613  36.604  1.00  0.00     0.124 S 
ATOM     72  O   UNL A   1      42.770  37.683  37.552  1.00  0.00    -0.237 OA
ATOM     73  O   UNL A   1      45.145  37.133  37.143  1.00  0.00    -0.237 OA
ATOM     74  O   UNL A   1      43.984  38.738  35.677  1.00  0.00    -0.744 OA
ENDBRANCH  70  71
ENDBRANCH  38  63
ENDBRANCH  12  13
ENDBRANCH   5   7
ENDBRANCH   2   3
ENDBRANCH   1   2
BRANCH   1  75
ATOM     75  C   UNL A   1      35.382  22.173  26.493  1.00  0.00     0.023 C 
BRANCH  75  76
ATOM     76  C   UNL A   1      34.036  21.823  27.114  1.00  0.00     0.116 C 
BRANCH  76  77
ATOM     77  N   UNL A   1      33.388  20.705  26.451  1.00  0.00    -0.352 N 
ATOM     78  C   UNL A   1      32.621  20.704  25.315  1.00  0.00     0.251 C 
ATOM     79  H   UNL A   1      33.518  19.826  26.876  1.00  0.00     0.163 HD
ATOM     80  O   UNL A   1      32.025  19.688  24.969  1.00  0.00    -0.269 OA
BRANCH  78  81
ATOM     81  C   UNL A   1      32.511  21.925  24.489  1.00  0.00     0.039 A 
ATOM     82  C   UNL A   1      33.402  22.105  23.422  1.00  0.00     0.015 A 
ATOM     83  C   UNL A   1      31.594  22.928  24.820  1.00  0.00     0.015 A 
ATOM     84  C   UNL A   1      33.379  23.291  22.687  1.00  0.00     0.022 A 
ATOM     85  C   UNL A   1      31.533  24.090  24.061  1.00  0.00     0.022 A 
ATOM     86  C   UNL A   1      32.453  24.284  23.022  1.00  0.00     0.082 A 
BRANCH  86  87
ATOM     87  S   UNL A   1      32.572  25.889  22.272  1.00  0.00     0.241 S 
ATOM     88  O   UNL A   1      33.931  26.117  21.817  1.00  0.00    -0.207 OA
ATOM     89  O   UNL A   1      31.451  26.017  21.391  1.00  0.00    -0.207 OA
BRANCH  87  90
ATOM     90  N   UNL A   1      32.276  26.920  23.544  1.00  0.00    -0.202 NA
ATOM     91  H   UNL A   1      31.843  26.326  24.252  1.00  0.00     0.141 HD
BRANCH  90  92
ATOM     92  C   UNL A   1      33.207  27.760  24.302  1.00  0.00     0.133 C 
ATOM     93  C   UNL A   1      33.784  27.029  25.507  1.00  0.00     0.087 C 
ATOM     94  C   UNL A   1      32.935  29.209  24.751  1.00  0.00     0.202 C 
ATOM     95  C   UNL A   1      33.773  28.060  26.620  1.00  0.00     0.264 C 
ATOM     96  N   UNL A   1      33.853  29.347  25.915  1.00  0.00    -0.331 N 
ATOM     97  C   UNL A   1      31.594  29.744  25.248  1.00  0.00     0.072 C 
ATOM     98  C   UNL A   1      33.343  30.459  26.721  1.00  0.00     0.262 C 
ATOM     99  H   UNL A   1      34.824  29.546  25.679  1.00  0.00     0.348 HD
ATOM    100  C   UNL A   1      31.837  30.377  26.609  1.00  0.00     0.068 C 
ENDBRANCH  90  92
ENDBRANCH  87  90
ENDBRANCH  86  87
ENDBRANCH  78  81
ENDBRANCH  76  77
ENDBRANCH  75  76
ENDBRANCH   1  75
TORSDOF 17
ENDMDL
