MODEL 1
REMARK VINA RESULT:     -11.8      0.000      0.000
REMARK SMILES O=C(CCCc1nc(-c2ccc(Cl)c(Cl)c2)c(-c2ccccc2)o1)NCCCCNC(=O)c1ccc(-c2c3nc(c(-c4c(F)cc(S(=O)(=O)[O-])cc4F)c4ccc([nH]4)c(-c4c(F)cc(S(=O)(=O)[O-])cc4F)c4nc(c(-c5c(F)cc(S(=O)(=O)[O-])cc5F)c5ccc2[nH]5)C=C4)C=C3)cc1
REMARK SMILES IDX 27 1 26 2 25 3 1 4 2 5 3 7 4 8 5 9 6 10 7 11 24 12 8 13
REMARK SMILES IDX 17 14 9 15 10 16 16 17 11 18 14 19 12 20 15 21 13 22 18 23
REMARK SMILES IDX 19 24 23 25 20 26 22 27 21 28 28 29 29 30 30 31 31 32 32 34
REMARK SMILES IDX 33 35 34 36 98 37 35 38 97 39 36 40 37 41 38 42 91 43 39 44
REMARK SMILES IDX 96 45 90 46 92 47 40 48 95 49 89 50 88 51 41 53 75 54 54 55
REMARK SMILES IDX 74 56 55 57 58 58 73 59 93 60 56 61 57 62 72 64 94 65 59 66
REMARK SMILES IDX 42 67 43 68 52 69 44 70 45 71 51 72 53 73 46 74 47 75 48 76
REMARK SMILES IDX 49 77 50 78 76 79 77 80 86 81 78 82 79 83 85 84 87 85 80 86
REMARK SMILES IDX 81 87 82 88 83 89 84 90 60 91 61 92 70 93 62 94 63 95 69 96
REMARK SMILES IDX 71 97 64 98 65 99 66 100 67 101 68 102
REMARK H PARENT 25 6 30 33 92 52 58 63
REMARK Flexibility Score: inf
ROOT
ATOM      1  C   UNL A   1      31.110  31.653  25.851  1.00  0.00     0.023 C 
ENDROOT
BRANCH   1   2
ATOM      2  C   UNL A   1      30.279  32.622  25.015  1.00  0.00     0.116 C 
BRANCH   2   3
ATOM      3  N   UNL A   1      29.527  31.948  23.977  1.00  0.00    -0.356 N 
ATOM      4  O   UNL A   1      28.655  33.860  23.047  1.00  0.00    -0.275 OA
ATOM      5  C   UNL A   1      28.789  32.640  23.045  1.00  0.00     0.220 C 
ATOM      6  H   UNL A   1      29.544  30.964  23.937  1.00  0.00     0.163 HD
BRANCH   5   7
ATOM      7  C   UNL A   1      28.167  31.766  21.978  1.00  0.00     0.100 C 
BRANCH   7   8
ATOM      8  C   UNL A   1      28.928  30.451  21.792  1.00  0.00     0.020 C 
BRANCH   8   9
ATOM      9  C   UNL A   1      28.232  29.204  22.349  1.00  0.00     0.098 C 
BRANCH   9  10
ATOM     10  C   UNL A   1      29.173  28.323  23.090  1.00  0.00     0.195 A 
ATOM     11  N   UNL A   1      29.263  27.011  23.047  1.00  0.00    -0.213 NA
ATOM     12  O   UNL A   1      30.022  28.932  23.982  1.00  0.00    -0.440 OA
ATOM     13  C   UNL A   1      30.251  26.725  23.955  1.00  0.00     0.117 A 
ATOM     14  C   UNL A   1      30.748  27.890  24.505  1.00  0.00     0.162 A 
BRANCH  13  15
ATOM     15  C   UNL A   1      30.698  25.389  24.267  1.00  0.00     0.006 A 
ATOM     16  C   UNL A   1      30.446  24.850  25.532  1.00  0.00     0.012 A 
ATOM     17  C   UNL A   1      31.364  24.620  23.305  1.00  0.00     0.032 A 
ATOM     18  C   UNL A   1      30.832  23.539  25.823  1.00  0.00     0.023 A 
ATOM     19  C   UNL A   1      31.764  23.313  23.600  1.00  0.00     0.060 A 
ATOM     20  C   UNL A   1      31.491  22.768  24.859  1.00  0.00     0.059 A 
ATOM     21  Cl  UNL A   1      32.597  22.433  22.367  1.00  0.00    -0.083 Cl
ATOM     22  Cl  UNL A   1      31.947  21.159  25.291  1.00  0.00    -0.083 Cl
ENDBRANCH  13  15
BRANCH  14  23
ATOM     23  C   UNL A   1      31.838  28.209  25.409  1.00  0.00     0.020 A 
ATOM     24  C   UNL A   1      31.647  28.264  26.793  1.00  0.00     0.012 A 
ATOM     25  C   UNL A   1      33.129  28.406  24.894  1.00  0.00     0.012 A 
ATOM     26  C   UNL A   1      32.726  28.513  27.646  1.00  0.00     0.001 A 
ATOM     27  C   UNL A   1      34.207  28.651  25.746  1.00  0.00     0.001 A 
ATOM     28  C   UNL A   1      34.005  28.703  27.122  1.00  0.00     0.000 A 
ENDBRANCH  14  23
ENDBRANCH   9  10
ENDBRANCH   8   9
ENDBRANCH   7   8
ENDBRANCH   5   7
ENDBRANCH   2   3
ENDBRANCH   1   2
BRANCH   1  29
ATOM     29  C   UNL A   1      31.503  32.165  27.238  1.00  0.00     0.023 C 
BRANCH  29  30
ATOM     30  C   UNL A   1      32.792  32.977  27.304  1.00  0.00     0.116 C 
BRANCH  30  31
ATOM     31  N   UNL A   1      32.561  34.353  27.711  1.00  0.00    -0.352 N 
ATOM     32  C   UNL A   1      33.117  35.062  28.748  1.00  0.00     0.251 C 
ATOM     33  H   UNL A   1      31.911  34.849  27.163  1.00  0.00     0.163 HD
ATOM     34  O   UNL A   1      32.654  36.164  29.043  1.00  0.00    -0.269 OA
BRANCH  32  35
ATOM     35  C   UNL A   1      34.246  34.503  29.526  1.00  0.00     0.039 A 
ATOM     36  C   UNL A   1      33.984  33.904  30.761  1.00  0.00     0.014 A 
ATOM     37  C   UNL A   1      35.560  34.578  29.053  1.00  0.00     0.014 A 
ATOM     38  C   UNL A   1      35.027  33.323  31.489  1.00  0.00     0.010 A 
ATOM     39  C   UNL A   1      36.586  33.932  29.744  1.00  0.00     0.010 A 
ATOM     40  C   UNL A   1      36.331  33.299  30.969  1.00  0.00    -0.014 A 
BRANCH  40  41
ATOM     41  C   UNL A   1      37.434  32.602  31.687  1.00  0.00     0.031 A 
ATOM     42  C   UNL A   1      37.941  33.131  33.003  1.00  0.00     0.074 A 
ATOM     43  C   UNL A   1      38.020  31.526  31.125  1.00  0.00     0.049 A 
ATOM     44  N   UNL A   1      38.933  32.700  33.739  1.00  0.00    -0.248 NA
ATOM     45  C   UNL A   1      37.258  34.314  33.552  1.00  0.00     0.031 C 
ATOM     46  C   UNL A   1      37.653  30.942  29.833  1.00  0.00     0.029 A 
ATOM     47  N   UNL A   1      39.056  30.736  31.562  1.00  0.00    -0.354 N 
ATOM     48  C   UNL A   1      39.001  33.560  34.830  1.00  0.00     0.074 A 
ATOM     49  C   UNL A   1      37.984  34.571  34.631  1.00  0.00     0.031 C 
ATOM     50  C   UNL A   1      38.435  29.878  29.592  1.00  0.00     0.029 A 
ATOM     51  C   UNL A   1      39.388  29.727  30.688  1.00  0.00     0.049 A 
ATOM     52  H   UNL A   1      39.516  30.879  32.419  1.00  0.00     0.167 HD
ATOM     53  C   UNL A   1      39.818  33.501  35.909  1.00  0.00     0.037 A 
ATOM     54  C   UNL A   1      40.358  28.794  30.753  1.00  0.00     0.037 A 
ATOM     55  C   UNL A   1      40.817  32.483  36.110  1.00  0.00     0.049 A 
ATOM     56  C   UNL A   1      41.263  28.755  31.955  1.00  0.00     0.074 A 
ATOM     57  C   UNL A   1      41.662  32.310  37.194  1.00  0.00     0.029 A 
ATOM     58  N   UNL A   1      41.112  31.469  35.211  1.00  0.00    -0.354 N 
ATOM     59  N   UNL A   1      41.272  29.542  33.005  1.00  0.00    -0.248 NA
ATOM     60  C   UNL A   1      42.285  27.700  31.987  1.00  0.00     0.031 C 
ATOM     61  C   UNL A   1      42.501  31.225  36.927  1.00  0.00     0.029 A 
ATOM     62  C   UNL A   1      42.140  30.682  35.704  1.00  0.00     0.049 A 
ATOM     63  H   UNL A   1      40.656  31.328  34.349  1.00  0.00     0.167 HD
ATOM     64  C   UNL A   1      42.279  29.059  33.835  1.00  0.00     0.074 A 
ATOM     65  C   UNL A   1      42.847  27.904  33.171  1.00  0.00     0.031 C 
ATOM     66  C   UNL A   1      42.694  29.529  35.037  1.00  0.00     0.037 A 
BRANCH  53  67
ATOM     67  C   UNL A   1      39.665  34.566  36.963  1.00  0.00     0.058 A 
ATOM     68  C   UNL A   1      38.857  34.373  38.095  1.00  0.00     0.135 A 
ATOM     69  C   UNL A   1      40.371  35.776  36.865  1.00  0.00     0.135 A 
ATOM     70  F   UNL A   1      38.149  33.241  38.236  1.00  0.00    -0.206 F 
ATOM     71  C   UNL A   1      38.731  35.351  39.076  1.00  0.00     0.059 A 
ATOM     72  C   UNL A   1      40.284  36.757  37.850  1.00  0.00     0.059 A 
ATOM     73  F   UNL A   1      41.160  36.016  35.804  1.00  0.00    -0.206 F 
ATOM     74  C   UNL A   1      39.451  36.540  38.945  1.00  0.00     0.060 A 
BRANCH  74  75
ATOM     75  S   UNL A   1      39.282  37.795  40.232  1.00  0.00     0.124 S 
ATOM     76  O   UNL A   1      38.200  38.616  39.697  1.00  0.00    -0.237 OA
ATOM     77  O   UNL A   1      38.949  36.994  41.405  1.00  0.00    -0.237 OA
ATOM     78  O   UNL A   1      40.595  38.431  40.262  1.00  0.00    -0.744 OA
ENDBRANCH  74  75
ENDBRANCH  53  67
BRANCH  54  79
ATOM     79  C   UNL A   1      40.518  27.810  29.647  1.00  0.00     0.058 A 
ATOM     80  C   UNL A   1      39.654  26.710  29.527  1.00  0.00     0.135 A 
ATOM     81  C   UNL A   1      41.529  27.954  28.684  1.00  0.00     0.135 A 
ATOM     82  F   UNL A   1      38.675  26.526  30.425  1.00  0.00    -0.206 F 
ATOM     83  C   UNL A   1      39.801  25.776  28.507  1.00  0.00     0.059 A 
ATOM     84  C   UNL A   1      41.678  27.048  27.639  1.00  0.00     0.059 A 
ATOM     85  F   UNL A   1      42.369  29.000  28.738  1.00  0.00    -0.206 F 
ATOM     86  C   UNL A   1      40.815  25.956  27.566  1.00  0.00     0.060 A 
BRANCH  86  87
ATOM     87  S   UNL A   1      40.967  24.765  26.217  1.00  0.00     0.124 S 
ATOM     88  O   UNL A   1      39.649  24.141  26.226  1.00  0.00    -0.237 OA
ATOM     89  O   UNL A   1      41.258  25.630  25.078  1.00  0.00    -0.237 OA
ATOM     90  O   UNL A   1      42.073  23.914  26.647  1.00  0.00    -0.744 OA
ENDBRANCH  86  87
ENDBRANCH  54  79
BRANCH  66  91
ATOM     91  C   UNL A   1      43.794  28.776  35.738  1.00  0.00     0.058 A 
ATOM     92  C   UNL A   1      45.147  29.102  35.556  1.00  0.00     0.135 A 
ATOM     93  C   UNL A   1      43.484  27.748  36.643  1.00  0.00     0.135 A 
ATOM     94  F   UNL A   1      45.500  30.072  34.698  1.00  0.00    -0.206 F 
ATOM     95  C   UNL A   1      46.155  28.420  36.230  1.00  0.00     0.059 A 
ATOM     96  C   UNL A   1      44.474  27.073  37.351  1.00  0.00     0.059 A 
ATOM     97  F   UNL A   1      42.205  27.402  36.862  1.00  0.00    -0.206 F 
ATOM     98  C   UNL A   1      45.808  27.408  37.129  1.00  0.00     0.060 A 
BRANCH  98  99
ATOM     99  S   UNL A   1      47.125  26.556  38.023  1.00  0.00     0.124 S 
ATOM    100  O   UNL A   1      47.473  25.491  37.088  1.00  0.00    -0.237 OA
ATOM    101  O   UNL A   1      48.123  27.609  38.185  1.00  0.00    -0.237 OA
ATOM    102  O   UNL A   1      46.475  26.121  39.255  1.00  0.00    -0.744 OA
ENDBRANCH  98  99
ENDBRANCH  66  91
ENDBRANCH  40  41
ENDBRANCH  32  35
ENDBRANCH  30  31
ENDBRANCH  29  30
ENDBRANCH   1  29
TORSDOF 19
ENDMDL
MODEL 2
REMARK VINA RESULT:     -11.7      6.355      8.900
REMARK SMILES O=C(CCCc1nc(-c2ccc(Cl)c(Cl)c2)c(-c2ccccc2)o1)NCCCCNC(=O)c1ccc(-c2c3nc(c(-c4c(F)cc(S(=O)(=O)[O-])cc4F)c4ccc([nH]4)c(-c4c(F)cc(S(=O)(=O)[O-])cc4F)c4nc(c(-c5c(F)cc(S(=O)(=O)[O-])cc5F)c5ccc2[nH]5)C=C4)C=C3)cc1
REMARK SMILES IDX 27 1 26 2 25 3 1 4 2 5 3 7 4 8 5 9 6 10 7 11 24 12 8 13
REMARK SMILES IDX 17 14 9 15 10 16 16 17 11 18 14 19 12 20 15 21 13 22 18 23
REMARK SMILES IDX 19 24 23 25 20 26 22 27 21 28 28 29 29 30 30 31 31 32 32 34
REMARK SMILES IDX 33 35 34 36 98 37 35 38 97 39 36 40 37 41 38 42 91 43 39 44
REMARK SMILES IDX 96 45 90 46 92 47 40 48 95 49 89 50 88 51 41 53 75 54 54 55
REMARK SMILES IDX 74 56 55 57 58 58 73 59 93 60 56 61 57 62 72 64 94 65 59 66
REMARK SMILES IDX 42 67 43 68 52 69 44 70 45 71 51 72 53 73 46 74 47 75 48 76
REMARK SMILES IDX 49 77 50 78 76 79 77 80 86 81 78 82 79 83 85 84 87 85 80 86
REMARK SMILES IDX 81 87 82 88 83 89 84 90 60 91 61 92 70 93 62 94 63 95 69 96
REMARK SMILES IDX 71 97 64 98 65 99 66 100 67 101 68 102
REMARK H PARENT 25 6 30 33 92 52 58 63
REMARK Flexibility Score: inf
ROOT
ATOM      1  C   UNL A   1      32.817  30.317  26.831  1.00  0.00     0.023 C 
ENDROOT
BRANCH   1   2
ATOM      2  C   UNL A   1      31.804  30.057  25.720  1.00  0.00     0.116 C 
BRANCH   2   3
ATOM      3  N   UNL A   1      31.488  28.649  25.582  1.00  0.00    -0.356 N 
ATOM      4  O   UNL A   1      30.404  28.853  23.566  1.00  0.00    -0.275 OA
ATOM      5  C   UNL A   1      30.829  28.155  24.481  1.00  0.00     0.220 C 
ATOM      6  H   UNL A   1      31.754  28.028  26.299  1.00  0.00     0.163 HD
BRANCH   5   7
ATOM      7  C   UNL A   1      30.692  26.648  24.470  1.00  0.00     0.100 C 
BRANCH   7   8
ATOM      8  C   UNL A   1      30.727  26.054  25.881  1.00  0.00     0.020 C 
BRANCH   8   9
ATOM      9  C   UNL A   1      30.352  24.571  25.979  1.00  0.00     0.098 C 
BRANCH   9  10
ATOM     10  C   UNL A   1      31.525  23.682  25.769  1.00  0.00     0.195 A 
ATOM     11  N   UNL A   1      32.798  23.959  25.958  1.00  0.00    -0.213 NA
ATOM     12  O   UNL A   1      31.275  22.432  25.257  1.00  0.00    -0.440 OA
ATOM     13  C   UNL A   1      33.439  22.811  25.564  1.00  0.00     0.117 A 
ATOM     14  C   UNL A   1      32.519  21.859  25.171  1.00  0.00     0.162 A 
BRANCH  13  15
ATOM     15  C   UNL A   1      34.872  22.642  25.580  1.00  0.00     0.006 A 
ATOM     16  C   UNL A   1      35.695  23.718  25.922  1.00  0.00     0.012 A 
ATOM     17  C   UNL A   1      35.444  21.400  25.274  1.00  0.00     0.032 A 
ATOM     18  C   UNL A   1      37.080  23.546  25.988  1.00  0.00     0.023 A 
ATOM     19  C   UNL A   1      36.830  21.231  25.325  1.00  0.00     0.060 A 
ATOM     20  C   UNL A   1      37.651  22.304  25.691  1.00  0.00     0.059 A 
ATOM     21  Cl  UNL A   1      37.463  19.675  24.918  1.00  0.00    -0.083 Cl
ATOM     22  Cl  UNL A   1      39.370  22.166  25.784  1.00  0.00    -0.083 Cl
ENDBRANCH  13  15
BRANCH  14  23
ATOM     23  C   UNL A   1      32.598  20.466  24.772  1.00  0.00     0.020 A 
ATOM     24  C   UNL A   1      32.787  19.447  25.711  1.00  0.00     0.012 A 
ATOM     25  C   UNL A   1      32.417  20.121  23.423  1.00  0.00     0.012 A 
ATOM     26  C   UNL A   1      32.798  18.108  25.307  1.00  0.00     0.001 A 
ATOM     27  C   UNL A   1      32.423  18.785  23.022  1.00  0.00     0.001 A 
ATOM     28  C   UNL A   1      32.613  17.779  23.965  1.00  0.00     0.000 A 
ENDBRANCH  14  23
ENDBRANCH   9  10
ENDBRANCH   8   9
ENDBRANCH   7   8
ENDBRANCH   5   7
ENDBRANCH   2   3
ENDBRANCH   1   2
BRANCH   1  29
ATOM     29  C   UNL A   1      33.644  29.101  27.252  1.00  0.00     0.023 C 
BRANCH  29  30
ATOM     30  C   UNL A   1      35.083  29.390  27.667  1.00  0.00     0.116 C 
BRANCH  30  31
ATOM     31  N   UNL A   1      35.161  30.278  28.815  1.00  0.00    -0.352 N 
ATOM     32  C   UNL A   1      36.215  30.518  29.663  1.00  0.00     0.251 C 
ATOM     33  H   UNL A   1      34.339  30.781  29.013  1.00  0.00     0.163 HD
ATOM     34  O   UNL A   1      36.028  31.171  30.690  1.00  0.00    -0.269 OA
BRANCH  32  35
ATOM     35  C   UNL A   1      37.563  29.981  29.364  1.00  0.00     0.039 A 
ATOM     36  C   UNL A   1      37.968  29.881  28.030  1.00  0.00     0.014 A 
ATOM     37  C   UNL A   1      38.421  29.565  30.386  1.00  0.00     0.014 A 
ATOM     38  C   UNL A   1      39.255  29.426  27.726  1.00  0.00     0.010 A 
ATOM     39  C   UNL A   1      39.729  29.185  30.084  1.00  0.00     0.010 A 
ATOM     40  C   UNL A   1      40.160  29.110  28.752  1.00  0.00    -0.014 A 
BRANCH  40  41
ATOM     41  C   UNL A   1      41.563  28.715  28.448  1.00  0.00     0.031 A 
ATOM     42  C   UNL A   1      42.657  29.750  28.422  1.00  0.00     0.074 A 
ATOM     43  C   UNL A   1      41.842  27.433  28.137  1.00  0.00     0.049 A 
ATOM     44  N   UNL A   1      43.921  29.607  28.114  1.00  0.00    -0.248 NA
ATOM     45  C   UNL A   1      42.277  31.130  28.765  1.00  0.00     0.031 C 
ATOM     46  C   UNL A   1      40.864  26.345  28.081  1.00  0.00     0.029 A 
ATOM     47  N   UNL A   1      43.028  26.829  27.797  1.00  0.00    -0.354 N 
ATOM     48  C   UNL A   1      44.484  30.875  28.216  1.00  0.00     0.074 A 
ATOM     49  C   UNL A   1      43.412  31.783  28.561  1.00  0.00     0.031 C 
ATOM     50  C   UNL A   1      41.491  25.205  27.751  1.00  0.00     0.029 A 
ATOM     51  C   UNL A   1      42.907  25.486  27.527  1.00  0.00     0.049 A 
ATOM     52  H   UNL A   1      43.884  27.312  27.753  1.00  0.00     0.167 HD
ATOM     53  C   UNL A   1      45.778  31.244  28.059  1.00  0.00     0.037 A 
ATOM     54  C   UNL A   1      43.826  24.584  27.130  1.00  0.00     0.037 A 
ATOM     55  C   UNL A   1      46.845  30.333  27.732  1.00  0.00     0.049 A 
ATOM     56  C   UNL A   1      45.255  25.020  26.950  1.00  0.00     0.074 A 
ATOM     57  C   UNL A   1      48.196  30.603  27.598  1.00  0.00     0.029 A 
ATOM     58  N   UNL A   1      46.685  28.978  27.482  1.00  0.00    -0.354 N 
ATOM     59  N   UNL A   1      45.779  26.213  27.108  1.00  0.00    -0.248 NA
ATOM     60  C   UNL A   1      46.221  23.990  26.543  1.00  0.00     0.031 C 
ATOM     61  C   UNL A   1      48.844  29.425  27.218  1.00  0.00     0.029 A 
ATOM     62  C   UNL A   1      47.907  28.404  27.173  1.00  0.00     0.049 A 
ATOM     63  H   UNL A   1      45.827  28.494  27.520  1.00  0.00     0.167 HD
ATOM     64  C   UNL A   1      47.138  26.070  26.850  1.00  0.00     0.074 A 
ATOM     65  C   UNL A   1      47.358  24.673  26.537  1.00  0.00     0.031 C 
ATOM     66  C   UNL A   1      48.116  27.010  26.870  1.00  0.00     0.037 A 
BRANCH  53  67
ATOM     67  C   UNL A   1      46.118  32.700  28.244  1.00  0.00     0.058 A 
ATOM     68  C   UNL A   1      46.461  33.224  29.501  1.00  0.00     0.135 A 
ATOM     69  C   UNL A   1      46.148  33.573  27.143  1.00  0.00     0.135 A 
ATOM     70  F   UNL A   1      46.437  32.439  30.590  1.00  0.00    -0.206 F 
ATOM     71  C   UNL A   1      46.792  34.565  29.665  1.00  0.00     0.059 A 
ATOM     72  C   UNL A   1      46.506  34.911  27.280  1.00  0.00     0.059 A 
ATOM     73  F   UNL A   1      45.831  33.127  25.917  1.00  0.00    -0.206 F 
ATOM     74  C   UNL A   1      46.813  35.401  28.548  1.00  0.00     0.060 A 
BRANCH  74  75
ATOM     75  S   UNL A   1      47.253  37.136  28.780  1.00  0.00     0.124 S 
ATOM     76  O   UNL A   1      47.355  37.218  30.234  1.00  0.00    -0.237 OA
ATOM     77  O   UNL A   1      48.513  37.238  28.050  1.00  0.00    -0.237 OA
ATOM     78  O   UNL A   1      46.129  37.855  28.190  1.00  0.00    -0.744 OA
ENDBRANCH  74  75
ENDBRANCH  53  67
BRANCH  54  79
ATOM     79  C   UNL A   1      43.424  23.171  26.885  1.00  0.00     0.058 A 
ATOM     80  C   UNL A   1      43.286  22.674  25.580  1.00  0.00     0.135 A 
ATOM     81  C   UNL A   1      43.178  22.290  27.949  1.00  0.00     0.135 A 
ATOM     82  F   UNL A   1      43.505  23.479  24.529  1.00  0.00    -0.206 F 
ATOM     83  C   UNL A   1      42.896  21.361  25.338  1.00  0.00     0.059 A 
ATOM     84  C   UNL A   1      42.815  20.965  27.732  1.00  0.00     0.059 A 
ATOM     85  F   UNL A   1      43.317  22.707  29.218  1.00  0.00    -0.206 F 
ATOM     86  C   UNL A   1      42.666  20.513  26.421  1.00  0.00     0.060 A 
BRANCH  86  87
ATOM     87  S   UNL A   1      42.208  18.796  26.097  1.00  0.00     0.124 S 
ATOM     88  O   UNL A   1      40.811  18.935  25.703  1.00  0.00    -0.237 OA
ATOM     89  O   UNL A   1      43.139  18.428  25.035  1.00  0.00    -0.237 OA
ATOM     90  O   UNL A   1      42.442  18.141  27.380  1.00  0.00    -0.744 OA
ENDBRANCH  86  87
ENDBRANCH  54  79
BRANCH  66  91
ATOM     91  C   UNL A   1      49.523  26.558  26.582  1.00  0.00     0.058 A 
ATOM     92  C   UNL A   1      50.367  26.075  27.594  1.00  0.00     0.135 A 
ATOM     93  C   UNL A   1      50.014  26.562  25.266  1.00  0.00     0.135 A 
ATOM     94  F   UNL A   1      49.952  26.055  28.870  1.00  0.00    -0.206 F 
ATOM     95  C   UNL A   1      51.657  25.632  27.314  1.00  0.00     0.059 A 
ATOM     96  C   UNL A   1      51.288  26.095  24.959  1.00  0.00     0.059 A 
ATOM     97  F   UNL A   1      49.244  27.005  24.258  1.00  0.00    -0.206 F 
ATOM     98  C   UNL A   1      52.107  25.643  25.991  1.00  0.00     0.060 A 
BRANCH  98  99
ATOM     99  S   UNL A   1      53.769  25.033  25.639  1.00  0.00     0.124 S 
ATOM    100  O   UNL A   1      54.454  25.301  26.898  1.00  0.00    -0.237 OA
ATOM    101  O   UNL A   1      53.526  23.625  25.337  1.00  0.00    -0.237 OA
ATOM    102  O   UNL A   1      54.198  25.847  24.505  1.00  0.00    -0.744 OA
ENDBRANCH  98  99
ENDBRANCH  66  91
ENDBRANCH  40  41
ENDBRANCH  32  35
ENDBRANCH  30  31
ENDBRANCH  29  30
ENDBRANCH   1  29
TORSDOF 19
ENDMDL
MODEL 3
REMARK VINA RESULT:     -11.6      0.351      8.002
REMARK SMILES O=C(CCCc1nc(-c2ccc(Cl)c(Cl)c2)c(-c2ccccc2)o1)NCCCCNC(=O)c1ccc(-c2c3nc(c(-c4c(F)cc(S(=O)(=O)[O-])cc4F)c4ccc([nH]4)c(-c4c(F)cc(S(=O)(=O)[O-])cc4F)c4nc(c(-c5c(F)cc(S(=O)(=O)[O-])cc5F)c5ccc2[nH]5)C=C4)C=C3)cc1
REMARK SMILES IDX 27 1 26 2 25 3 1 4 2 5 3 7 4 8 5 9 6 10 7 11 24 12 8 13
REMARK SMILES IDX 17 14 9 15 10 16 16 17 11 18 14 19 12 20 15 21 13 22 18 23
REMARK SMILES IDX 19 24 23 25 20 26 22 27 21 28 28 29 29 30 30 31 31 32 32 34
REMARK SMILES IDX 33 35 34 36 98 37 35 38 97 39 36 40 37 41 38 42 91 43 39 44
REMARK SMILES IDX 96 45 90 46 92 47 40 48 95 49 89 50 88 51 41 53 75 54 54 55
REMARK SMILES IDX 74 56 55 57 58 58 73 59 93 60 56 61 57 62 72 64 94 65 59 66
REMARK SMILES IDX 42 67 43 68 52 69 44 70 45 71 51 72 53 73 46 74 47 75 48 76
REMARK SMILES IDX 49 77 50 78 76 79 77 80 86 81 78 82 79 83 85 84 87 85 80 86
REMARK SMILES IDX 81 87 82 88 83 89 84 90 60 91 61 92 70 93 62 94 63 95 69 96
REMARK SMILES IDX 71 97 64 98 65 99 66 100 67 101 68 102
REMARK H PARENT 25 6 30 33 92 52 58 63
REMARK Flexibility Score: inf
ROOT
ATOM      1  C   UNL A   1      31.156  31.540  25.838  1.00  0.00     0.023 C 
ENDROOT
BRANCH   1   2
ATOM      2  C   UNL A   1      30.277  32.529  25.077  1.00  0.00     0.116 C 
BRANCH   2   3
ATOM      3  N   UNL A   1      29.479  31.882  24.056  1.00  0.00    -0.356 N 
ATOM      4  O   UNL A   1      28.728  33.825  23.086  1.00  0.00    -0.275 OA
ATOM      5  C   UNL A   1      28.783  32.600  23.111  1.00  0.00     0.220 C 
ATOM      6  H   UNL A   1      29.432  30.898  24.038  1.00  0.00     0.163 HD
BRANCH   5   7
ATOM      7  C   UNL A   1      28.101  31.745  22.066  1.00  0.00     0.100 C 
BRANCH   7   8
ATOM      8  C   UNL A   1      28.846  30.430  21.819  1.00  0.00     0.020 C 
BRANCH   8   9
ATOM      9  C   UNL A   1      28.167  29.175  22.377  1.00  0.00     0.098 C 
BRANCH   9  10
ATOM     10  C   UNL A   1      29.122  28.301  23.110  1.00  0.00     0.195 A 
ATOM     11  N   UNL A   1      29.214  26.989  23.074  1.00  0.00    -0.213 NA
ATOM     12  O   UNL A   1      29.983  28.918  23.984  1.00  0.00    -0.440 OA
ATOM     13  C   UNL A   1      30.217  26.713  23.969  1.00  0.00     0.117 A 
ATOM     14  C   UNL A   1      30.720  27.883  24.502  1.00  0.00     0.162 A 
BRANCH  13  15
ATOM     15  C   UNL A   1      30.673  25.379  24.283  1.00  0.00     0.006 A 
ATOM     16  C   UNL A   1      30.416  24.838  25.546  1.00  0.00     0.012 A 
ATOM     17  C   UNL A   1      31.352  24.617  23.325  1.00  0.00     0.032 A 
ATOM     18  C   UNL A   1      30.810  23.530  25.839  1.00  0.00     0.023 A 
ATOM     19  C   UNL A   1      31.760  23.313  23.623  1.00  0.00     0.060 A 
ATOM     20  C   UNL A   1      31.481  22.764  24.880  1.00  0.00     0.059 A 
ATOM     21  Cl  UNL A   1      32.609  22.440  22.396  1.00  0.00    -0.083 Cl
ATOM     22  Cl  UNL A   1      31.947  21.159  25.313  1.00  0.00    -0.083 Cl
ENDBRANCH  13  15
BRANCH  14  23
ATOM     23  C   UNL A   1      31.824  28.211  25.386  1.00  0.00     0.020 A 
ATOM     24  C   UNL A   1      31.701  28.110  26.775  1.00  0.00     0.012 A 
ATOM     25  C   UNL A   1      33.063  28.578  24.839  1.00  0.00     0.012 A 
ATOM     26  C   UNL A   1      32.798  28.373  27.602  1.00  0.00     0.001 A 
ATOM     27  C   UNL A   1      34.159  28.836  25.664  1.00  0.00     0.001 A 
ATOM     28  C   UNL A   1      34.025  28.732  27.045  1.00  0.00     0.000 A 
ENDBRANCH  14  23
ENDBRANCH   9  10
ENDBRANCH   8   9
ENDBRANCH   7   8
ENDBRANCH   5   7
ENDBRANCH   2   3
ENDBRANCH   1   2
BRANCH   1  29
ATOM     29  C   UNL A   1      31.562  31.984  27.245  1.00  0.00     0.023 C 
BRANCH  29  30
ATOM     30  C   UNL A   1      32.832  32.824  27.335  1.00  0.00     0.116 C 
BRANCH  30  31
ATOM     31  N   UNL A   1      32.559  34.205  27.697  1.00  0.00    -0.352 N 
ATOM     32  C   UNL A   1      33.099  34.967  28.703  1.00  0.00     0.251 C 
ATOM     33  H   UNL A   1      31.888  34.660  27.138  1.00  0.00     0.163 HD
ATOM     34  O   UNL A   1      32.604  36.063  28.964  1.00  0.00    -0.269 OA
BRANCH  32  35
ATOM     35  C   UNL A   1      34.254  34.473  29.489  1.00  0.00     0.039 A 
ATOM     36  C   UNL A   1      34.019  33.883  30.734  1.00  0.00     0.014 A 
ATOM     37  C   UNL A   1      35.562  34.600  29.014  1.00  0.00     0.014 A 
ATOM     38  C   UNL A   1      35.087  33.362  31.470  1.00  0.00     0.010 A 
ATOM     39  C   UNL A   1      36.616  34.013  29.715  1.00  0.00     0.010 A 
ATOM     40  C   UNL A   1      36.391  33.388  30.950  1.00  0.00    -0.014 A 
BRANCH  40  41
ATOM     41  C   UNL A   1      37.525  32.755  31.678  1.00  0.00     0.031 A 
ATOM     42  C   UNL A   1      38.207  31.537  31.114  1.00  0.00     0.074 A 
ATOM     43  C   UNL A   1      37.902  33.242  32.877  1.00  0.00     0.049 A 
ATOM     44  N   UNL A   1      39.164  30.810  31.635  1.00  0.00    -0.248 NA
ATOM     45  C   UNL A   1      37.737  31.057  29.804  1.00  0.00     0.031 C 
ATOM     46  C   UNL A   1      37.291  34.388  33.554  1.00  0.00     0.029 A 
ATOM     47  N   UNL A   1      38.882  32.828  33.747  1.00  0.00    -0.354 N 
ATOM     48  C   UNL A   1      39.404  29.787  30.724  1.00  0.00     0.074 A 
ATOM     49  C   UNL A   1      38.454  29.954  29.645  1.00  0.00     0.031 C 
ATOM     50  C   UNL A   1      37.922  34.599  34.720  1.00  0.00     0.029 A 
ATOM     51  C   UNL A   1      38.952  33.579  34.898  1.00  0.00     0.049 A 
ATOM     52  H   UNL A   1      39.477  32.067  33.563  1.00  0.00     0.167 HD
ATOM     53  C   UNL A   1      40.343  28.811  30.772  1.00  0.00     0.037 A 
ATOM     54  C   UNL A   1      39.745  33.454  35.980  1.00  0.00     0.037 A 
ATOM     55  C   UNL A   1      41.297  28.660  31.841  1.00  0.00     0.049 A 
ATOM     56  C   UNL A   1      40.773  32.355  36.016  1.00  0.00     0.074 A 
ATOM     57  C   UNL A   1      42.318  27.732  31.957  1.00  0.00     0.029 A 
ATOM     58  N   UNL A   1      41.347  29.449  32.980  1.00  0.00    -0.354 N 
ATOM     59  N   UNL A   1      41.024  31.432  35.118  1.00  0.00    -0.248 NA
ATOM     60  C   UNL A   1      41.630  32.282  37.208  1.00  0.00     0.031 C 
ATOM     61  C   UNL A   1      42.951  27.928  33.187  1.00  0.00     0.029 A 
ATOM     62  C   UNL A   1      42.366  29.016  33.813  1.00  0.00     0.049 A 
ATOM     63  H   UNL A   1      40.747  30.208  33.168  1.00  0.00     0.167 HD
ATOM     64  C   UNL A   1      42.086  30.688  35.623  1.00  0.00     0.074 A 
ATOM     65  C   UNL A   1      42.437  31.276  36.899  1.00  0.00     0.031 C 
ATOM     66  C   UNL A   1      42.712  29.614  35.079  1.00  0.00     0.037 A 
BRANCH  53  67
ATOM     67  C   UNL A   1      40.392  27.830  29.631  1.00  0.00     0.058 A 
ATOM     68  C   UNL A   1      39.492  26.755  29.543  1.00  0.00     0.135 A 
ATOM     69  C   UNL A   1      41.318  27.991  28.587  1.00  0.00     0.135 A 
ATOM     70  F   UNL A   1      38.593  26.545  30.518  1.00  0.00    -0.206 F 
ATOM     71  C   UNL A   1      39.527  25.860  28.479  1.00  0.00     0.059 A 
ATOM     72  C   UNL A   1      41.351  27.125  27.497  1.00  0.00     0.059 A 
ATOM     73  F   UNL A   1      42.202  29.001  28.617  1.00  0.00    -0.206 F 
ATOM     74  C   UNL A   1      40.460  26.055  27.460  1.00  0.00     0.060 A 
BRANCH  74  75
ATOM     75  S   UNL A   1      40.485  24.888  26.082  1.00  0.00     0.124 S 
ATOM     76  O   UNL A   1      39.087  24.473  26.028  1.00  0.00    -0.237 OA
ATOM     77  O   UNL A   1      40.942  25.723  24.975  1.00  0.00    -0.237 OA
ATOM     78  O   UNL A   1      41.426  23.863  26.520  1.00  0.00    -0.744 OA
ENDBRANCH  74  75
ENDBRANCH  53  67
BRANCH  54  79
ATOM     79  C   UNL A   1      39.606  34.405  37.117  1.00  0.00     0.058 A 
ATOM     80  C   UNL A   1      40.155  35.694  37.053  1.00  0.00     0.135 A 
ATOM     81  C   UNL A   1      38.914  34.047  38.285  1.00  0.00     0.135 A 
ATOM     82  F   UNL A   1      40.830  36.082  35.961  1.00  0.00    -0.206 F 
ATOM     83  C   UNL A   1      40.044  36.587  38.114  1.00  0.00     0.059 A 
ATOM     84  C   UNL A   1      38.765  34.932  39.347  1.00  0.00     0.059 A 
ATOM     85  F   UNL A   1      38.349  32.833  38.390  1.00  0.00    -0.206 F 
ATOM     86  C   UNL A   1      39.344  36.198  39.256  1.00  0.00     0.060 A 
BRANCH  86  87
ATOM     87  S   UNL A   1      39.163  37.380  40.609  1.00  0.00     0.124 S 
ATOM     88  O   UNL A   1      38.479  36.574  41.613  1.00  0.00    -0.237 OA
ATOM     89  O   UNL A   1      40.552  37.723  40.901  1.00  0.00    -0.237 OA
ATOM     90  O   UNL A   1      38.374  38.452  40.012  1.00  0.00    -0.744 OA
ENDBRANCH  86  87
ENDBRANCH  54  79
BRANCH  66  91
ATOM     91  C   UNL A   1      43.870  29.024  35.839  1.00  0.00     0.058 A 
ATOM     92  C   UNL A   1      43.708  27.932  36.706  1.00  0.00     0.135 A 
ATOM     93  C   UNL A   1      45.169  29.528  35.657  1.00  0.00     0.135 A 
ATOM     94  F   UNL A   1      42.488  27.416  36.922  1.00  0.00    -0.206 F 
ATOM     95  C   UNL A   1      44.789  27.374  37.382  1.00  0.00     0.059 A 
ATOM     96  C   UNL A   1      46.268  28.966  36.298  1.00  0.00     0.059 A 
ATOM     97  F   UNL A   1      45.382  30.565  34.831  1.00  0.00    -0.206 F 
ATOM     98  C   UNL A   1      46.067  27.897  37.169  1.00  0.00     0.060 A 
BRANCH  98  99
ATOM     99  S   UNL A   1      47.464  27.141  38.025  1.00  0.00     0.124 S 
ATOM    100  O   UNL A   1      47.087  25.731  38.016  1.00  0.00    -0.237 OA
ATOM    101  O   UNL A   1      48.588  27.502  37.167  1.00  0.00    -0.237 OA
ATOM    102  O   UNL A   1      47.451  27.786  39.335  1.00  0.00    -0.744 OA
ENDBRANCH  98  99
ENDBRANCH  66  91
ENDBRANCH  40  41
ENDBRANCH  32  35
ENDBRANCH  30  31
ENDBRANCH  29  30
ENDBRANCH   1  29
TORSDOF 19
ENDMDL
