MODEL 1
REMARK VINA RESULT:     -11.9      0.000      0.000
REMARK SMILES CCOC(=O)c1cccc(Nc2c(-c3ccc(C(=O)NCCCCNC(=O)c4ccc(-c5c6nc(c(-c7c(F)cc(S(=O)(=O)[O-])cc7F)c7ccc([nH]7)c(-c7c(F)cc(S(=O)(=O)[O-])cc7F)c7nc(c(-c8c(F)cc(S(=O)(=O)[O-])cc8F)c8ccc5[nH]8)C=C7)C=C6)cc4)cc3)nc3cnccn23)c1
REMARK SMILES IDX 21 1 20 2 18 3 19 4 17 6 14 7 15 8 95 9 16 10 94 11 13 12
REMARK SMILES IDX 12 13 102 14 96 15 97 16 101 17 98 18 100 19 99 20 11 21
REMARK SMILES IDX 10 23 6 24 7 25 103 26 8 27 9 28 4 29 5 30 3 31 2 32 1 33
REMARK SMILES IDX 22 34 23 35 24 36 25 37 26 38 27 40 28 41 29 42 93 43 30 44
REMARK SMILES IDX 92 45 31 46 32 47 33 48 86 49 34 50 91 51 85 52 87 53 35 54
REMARK SMILES IDX 90 55 84 56 83 57 36 59 70 60 49 61 69 62 50 63 53 64 68 65
REMARK SMILES IDX 88 66 51 67 52 68 67 70 89 71 54 72 37 73 38 74 47 75 39 76
REMARK SMILES IDX 40 77 46 78 48 79 41 80 42 81 43 82 44 83 45 84 71 85 72 86
REMARK SMILES IDX 81 87 73 88 74 89 80 90 82 91 75 92 76 93 77 94 78 95 79 96
REMARK SMILES IDX 55 97 56 98 65 99 57 100 58 101 64 102 66 103 59 104 60 105
REMARK SMILES IDX 61 106 62 107 63 108
REMARK H PARENT 20 5 11 22 25 39 87 58 53 69
REMARK Flexibility Score: inf
ROOT
ATOM      1  C   UNL A   1      36.294  22.002  25.217  1.00  0.00     0.116 C 
ENDROOT
BRANCH   1   2
ATOM      2  N   UNL A   1      35.573  21.718  26.442  1.00  0.00    -0.352 N 
ATOM      3  C   UNL A   1      34.518  22.351  27.047  1.00  0.00     0.251 C 
ATOM      4  O   UNL A   1      34.057  21.850  28.074  1.00  0.00    -0.269 OA
ATOM      5  H   UNL A   1      35.901  20.926  26.927  1.00  0.00     0.163 HD
BRANCH   3   6
ATOM      6  C   UNL A   1      33.881  23.585  26.506  1.00  0.00     0.039 A 
ATOM      7  C   UNL A   1      32.536  25.887  25.600  1.00  0.00     0.004 A 
ATOM      8  C   UNL A   1      31.883  24.979  26.437  1.00  0.00     0.011 A 
ATOM      9  C   UNL A   1      33.861  25.654  25.230  1.00  0.00     0.011 A 
ATOM     10  C   UNL A   1      32.551  23.833  26.881  1.00  0.00     0.014 A 
ATOM     11  C   UNL A   1      34.534  24.527  25.707  1.00  0.00     0.014 A 
BRANCH   7  12
ATOM     12  C   UNL A   1      31.877  27.084  25.136  1.00  0.00     0.114 A 
ATOM     13  C   UNL A   1      31.064  27.157  24.013  1.00  0.00     0.143 A 
ATOM     14  N   UNL A   1      30.602  28.457  24.018  1.00  0.00    -0.283 N 
ATOM     15  N   UNL A   1      31.981  28.296  25.779  1.00  0.00    -0.225 NA
ATOM     16  C   UNL A   1      31.226  29.094  25.064  1.00  0.00     0.157 A 
ATOM     17  C   UNL A   1      29.688  29.148  23.241  1.00  0.00     0.115 A 
ATOM     18  C   UNL A   1      30.959  30.490  25.271  1.00  0.00     0.158 A 
ATOM     19  C   UNL A   1      29.474  30.448  23.511  1.00  0.00     0.129 A 
ATOM     20  N   UNL A   1      30.116  31.150  24.519  1.00  0.00    -0.259 NA
BRANCH  13  21
ATOM     21  N   UNL A   1      30.683  26.205  23.116  1.00  0.00    -0.339 N 
ATOM     22  H   UNL A   1      29.790  26.294  22.711  1.00  0.00     0.168 HD
BRANCH  21  23
ATOM     23  C   UNL A   1      31.474  25.096  22.721  1.00  0.00     0.040 A 
ATOM     24  C   UNL A   1      32.027  22.739  22.988  1.00  0.00     0.062 A 
ATOM     25  C   UNL A   1      33.052  22.859  22.046  1.00  0.00     0.016 A 
ATOM     26  C   UNL A   1      31.224  23.844  23.306  1.00  0.00     0.041 A 
ATOM     27  C   UNL A   1      33.271  24.080  21.418  1.00  0.00     0.003 A 
ATOM     28  C   UNL A   1      32.491  25.187  21.758  1.00  0.00     0.026 A 
BRANCH  24  29
ATOM     29  C   UNL A   1      31.889  21.449  23.695  1.00  0.00     0.338 C 
ATOM     30  O   UNL A   1      31.640  21.371  24.886  1.00  0.00    -0.246 OA
BRANCH  29  31
ATOM     31  O   UNL A   1      32.134  20.420  22.847  1.00  0.00    -0.462 OA
BRANCH  31  32
ATOM     32  C   UNL A   1      32.481  19.179  23.484  1.00  0.00     0.230 C 
ATOM     33  C   UNL A   1      32.395  18.006  22.521  1.00  0.00     0.049 C 
ENDBRANCH  31  32
ENDBRANCH  29  31
ENDBRANCH  24  29
ENDBRANCH  21  23
ENDBRANCH  13  21
ENDBRANCH   7  12
ENDBRANCH   3   6
ENDBRANCH   1   2
BRANCH   1  34
ATOM     34  C   UNL A   1      37.766  22.304  25.508  1.00  0.00     0.023 C 
BRANCH  34  35
ATOM     35  C   UNL A   1      38.021  23.680  26.129  1.00  0.00     0.023 C 
BRANCH  35  36
ATOM     36  C   UNL A   1      39.355  23.820  26.854  1.00  0.00     0.116 C 
BRANCH  36  37
ATOM     37  N   UNL A   1      40.434  24.268  25.986  1.00  0.00    -0.352 N 
ATOM     38  C   UNL A   1      41.154  25.436  26.058  1.00  0.00     0.251 C 
ATOM     39  H   UNL A   1      40.680  23.656  25.255  1.00  0.00     0.163 HD
ATOM     40  O   UNL A   1      41.967  25.714  25.182  1.00  0.00    -0.269 OA
BRANCH  38  41
ATOM     41  C   UNL A   1      40.904  26.370  27.175  1.00  0.00     0.039 A 
ATOM     42  C   UNL A   1      40.084  25.954  28.227  1.00  0.00     0.014 A 
ATOM     43  C   UNL A   1      41.504  27.631  27.200  1.00  0.00     0.014 A 
ATOM     44  C   UNL A   1      39.924  26.778  29.341  1.00  0.00     0.010 A 
ATOM     45  C   UNL A   1      41.392  28.424  28.338  1.00  0.00     0.010 A 
ATOM     46  C   UNL A   1      40.605  28.003  29.420  1.00  0.00    -0.014 A 
BRANCH  46  47
ATOM     47  C   UNL A   1      40.516  28.855  30.631  1.00  0.00     0.031 A 
ATOM     48  C   UNL A   1      39.493  29.952  30.706  1.00  0.00     0.074 A 
ATOM     49  C   UNL A   1      41.407  28.687  31.628  1.00  0.00     0.049 A 
ATOM     50  N   UNL A   1      39.312  30.849  31.641  1.00  0.00    -0.248 NA
ATOM     51  C   UNL A   1      38.568  30.076  29.568  1.00  0.00     0.031 C 
ATOM     52  C   UNL A   1      42.482  27.691  31.643  1.00  0.00     0.029 A 
ATOM     53  N   UNL A   1      41.561  29.357  32.814  1.00  0.00    -0.354 N 
ATOM     54  C   UNL A   1      38.269  31.652  31.198  1.00  0.00     0.074 A 
ATOM     55  C   UNL A   1      37.886  31.164  29.890  1.00  0.00     0.031 C 
ATOM     56  C   UNL A   1      43.173  27.806  32.789  1.00  0.00     0.029 A 
ATOM     57  C   UNL A   1      42.612  28.901  33.575  1.00  0.00     0.049 A 
ATOM     58  H   UNL A   1      40.974  30.096  33.096  1.00  0.00     0.167 HD
ATOM     59  C   UNL A   1      37.670  32.689  31.833  1.00  0.00     0.037 A 
ATOM     60  C   UNL A   1      43.074  29.322  34.767  1.00  0.00     0.037 A 
ATOM     61  C   UNL A   1      38.035  33.148  33.147  1.00  0.00     0.049 A 
ATOM     62  C   UNL A   1      42.378  30.459  35.463  1.00  0.00     0.074 A 
ATOM     63  C   UNL A   1      37.450  34.149  33.902  1.00  0.00     0.029 A 
ATOM     64  N   UNL A   1      39.081  32.635  33.902  1.00  0.00    -0.354 N 
ATOM     65  N   UNL A   1      41.352  31.167  35.057  1.00  0.00    -0.248 NA
ATOM     66  C   UNL A   1      42.897  30.850  36.782  1.00  0.00     0.031 C 
ATOM     67  C   UNL A   1      38.160  34.261  35.103  1.00  0.00     0.029 A 
ATOM     68  C   UNL A   1      39.165  33.307  35.110  1.00  0.00     0.049 A 
ATOM     69  H   UNL A   1      39.674  31.903  33.620  1.00  0.00     0.167 HD
ATOM     70  C   UNL A   1      41.088  32.072  36.079  1.00  0.00     0.074 A 
ATOM     71  C   UNL A   1      42.055  31.815  37.126  1.00  0.00     0.031 C 
ATOM     72  C   UNL A   1      40.130  33.031  36.144  1.00  0.00     0.037 A 
BRANCH  59  73
ATOM     73  C   UNL A   1      36.552  33.389  31.113  1.00  0.00     0.058 A 
ATOM     74  C   UNL A   1      36.805  34.298  30.074  1.00  0.00     0.135 A 
ATOM     75  C   UNL A   1      35.213  33.133  31.451  1.00  0.00     0.135 A 
ATOM     76  F   UNL A   1      38.067  34.590  29.723  1.00  0.00    -0.206 F 
ATOM     77  C   UNL A   1      35.770  34.952  29.413  1.00  0.00     0.059 A 
ATOM     78  C   UNL A   1      34.162  33.759  30.786  1.00  0.00     0.059 A 
ATOM     79  F   UNL A   1      34.917  32.274  32.438  1.00  0.00    -0.206 F 
ATOM     80  C   UNL A   1      34.452  34.679  29.780  1.00  0.00     0.060 A 
BRANCH  80  81
ATOM     81  S   UNL A   1      33.120  35.539  28.916  1.00  0.00     0.124 S 
ATOM     82  O   UNL A   1      32.396  36.143  30.030  1.00  0.00    -0.237 OA
ATOM     83  O   UNL A   1      33.849  36.466  28.057  1.00  0.00    -0.237 OA
ATOM     84  O   UNL A   1      32.419  34.464  28.220  1.00  0.00    -0.744 OA
ENDBRANCH  80  81
ENDBRANCH  59  73
BRANCH  60  85
ATOM     85  C   UNL A   1      44.240  28.643  35.392  1.00  0.00     0.058 A 
ATOM     86  C   UNL A   1      45.546  29.093  35.152  1.00  0.00     0.135 A 
ATOM     87  C   UNL A   1      44.070  27.548  36.253  1.00  0.00     0.135 A 
ATOM     88  F   UNL A   1      45.757  30.134  34.332  1.00  0.00    -0.206 F 
ATOM     89  C   UNL A   1      46.648  28.475  35.734  1.00  0.00     0.059 A 
ATOM     90  C   UNL A   1      45.155  26.927  36.864  1.00  0.00     0.059 A 
ATOM     91  F   UNL A   1      42.839  27.092  36.527  1.00  0.00    -0.206 F 
ATOM     92  C   UNL A   1      46.441  27.391  36.591  1.00  0.00     0.060 A 
BRANCH  92  93
ATOM     93  S   UNL A   1      47.873  26.628  37.385  1.00  0.00     0.124 S 
ATOM     94  O   UNL A   1      47.422  25.251  37.540  1.00  0.00    -0.237 OA
ATOM     95  O   UNL A   1      48.926  26.850  36.399  1.00  0.00    -0.237 OA
ATOM     96  O   UNL A   1      48.014  27.392  38.621  1.00  0.00    -0.744 OA
ENDBRANCH  92  93
ENDBRANCH  60  85
BRANCH  72  97
ATOM     97  C   UNL A   1      40.062  33.852  37.399  1.00  0.00     0.058 A 
ATOM     98  C   UNL A   1      40.862  34.991  37.576  1.00  0.00     0.135 A 
ATOM     99  C   UNL A   1      39.148  33.524  38.414  1.00  0.00     0.135 A 
ATOM    100  F   UNL A   1      41.757  35.341  36.638  1.00  0.00    -0.206 F 
ATOM    101  C   UNL A   1      40.772  35.768  38.727  1.00  0.00     0.059 A 
ATOM    102  C   UNL A   1      39.025  34.300  39.561  1.00  0.00     0.059 A 
ATOM    103  F   UNL A   1      38.355  32.449  38.286  1.00  0.00    -0.206 F 
ATOM    104  C   UNL A   1      39.849  35.414  39.713  1.00  0.00     0.060 A 
BRANCH 104 105
ATOM    105  S   UNL A   1      39.713  36.452  41.186  1.00  0.00     0.124 S 
ATOM    106  O   UNL A   1      38.617  37.341  40.817  1.00  0.00    -0.237 OA
ATOM    107  O   UNL A   1      39.414  35.477  42.231  1.00  0.00    -0.237 OA
ATOM    108  O   UNL A   1      41.028  37.079  41.280  1.00  0.00    -0.744 OA
ENDBRANCH 104 105
ENDBRANCH  72  97
ENDBRANCH  46  47
ENDBRANCH  38  41
ENDBRANCH  36  37
ENDBRANCH  35  36
ENDBRANCH  34  35
ENDBRANCH   1  34
TORSDOF 20
ENDMDL
MODEL 2
REMARK VINA RESULT:     -11.7      5.241     12.815
REMARK SMILES CCOC(=O)c1cccc(Nc2c(-c3ccc(C(=O)NCCCCNC(=O)c4ccc(-c5c6nc(c(-c7c(F)cc(S(=O)(=O)[O-])cc7F)c7ccc([nH]7)c(-c7c(F)cc(S(=O)(=O)[O-])cc7F)c7nc(c(-c8c(F)cc(S(=O)(=O)[O-])cc8F)c8ccc5[nH]8)C=C7)C=C6)cc4)cc3)nc3cnccn23)c1
REMARK SMILES IDX 21 1 20 2 18 3 19 4 17 6 14 7 15 8 95 9 16 10 94 11 13 12
REMARK SMILES IDX 12 13 102 14 96 15 97 16 101 17 98 18 100 19 99 20 11 21
REMARK SMILES IDX 10 23 6 24 7 25 103 26 8 27 9 28 4 29 5 30 3 31 2 32 1 33
REMARK SMILES IDX 22 34 23 35 24 36 25 37 26 38 27 40 28 41 29 42 93 43 30 44
REMARK SMILES IDX 92 45 31 46 32 47 33 48 86 49 34 50 91 51 85 52 87 53 35 54
REMARK SMILES IDX 90 55 84 56 83 57 36 59 70 60 49 61 69 62 50 63 53 64 68 65
REMARK SMILES IDX 88 66 51 67 52 68 67 70 89 71 54 72 37 73 38 74 47 75 39 76
REMARK SMILES IDX 40 77 46 78 48 79 41 80 42 81 43 82 44 83 45 84 71 85 72 86
REMARK SMILES IDX 81 87 73 88 74 89 80 90 82 91 75 92 76 93 77 94 78 95 79 96
REMARK SMILES IDX 55 97 56 98 65 99 57 100 58 101 64 102 66 103 59 104 60 105
REMARK SMILES IDX 61 106 62 107 63 108
REMARK H PARENT 20 5 11 22 25 39 87 58 53 69
REMARK Flexibility Score: inf
ROOT
ATOM      1  C   UNL A   1      33.166  34.878  30.600  1.00  0.00     0.116 C 
ENDROOT
BRANCH   1   2
ATOM      2  N   UNL A   1      33.437  35.843  31.646  1.00  0.00    -0.352 N 
ATOM      3  C   UNL A   1      34.409  35.893  32.612  1.00  0.00     0.251 C 
ATOM      4  O   UNL A   1      34.440  36.879  33.349  1.00  0.00    -0.269 OA
ATOM      5  H   UNL A   1      32.810  36.602  31.666  1.00  0.00     0.163 HD
BRANCH   3   6
ATOM      6  C   UNL A   1      35.446  34.837  32.788  1.00  0.00     0.039 A 
ATOM      7  C   UNL A   1      37.271  32.727  33.177  1.00  0.00     0.004 A 
ATOM      8  C   UNL A   1      35.960  32.614  33.647  1.00  0.00     0.011 A 
ATOM      9  C   UNL A   1      37.664  33.882  32.501  1.00  0.00     0.011 A 
ATOM     10  C   UNL A   1      35.057  33.665  33.458  1.00  0.00     0.014 A 
ATOM     11  C   UNL A   1      36.747  34.914  32.283  1.00  0.00     0.014 A 
BRANCH   7  12
ATOM     12  C   UNL A   1      38.221  31.654  33.347  1.00  0.00     0.114 A 
ATOM     13  C   UNL A   1      39.419  31.759  34.041  1.00  0.00     0.143 A 
ATOM     14  N   UNL A   1      39.938  30.481  34.005  1.00  0.00    -0.283 N 
ATOM     15  N   UNL A   1      38.026  30.391  32.836  1.00  0.00    -0.225 NA
ATOM     16  C   UNL A   1      39.088  29.729  33.230  1.00  0.00     0.157 A 
ATOM     17  C   UNL A   1      41.046  29.885  34.584  1.00  0.00     0.115 A 
ATOM     18  C   UNL A   1      39.421  28.354  32.985  1.00  0.00     0.158 A 
ATOM     19  C   UNL A   1      41.279  28.586  34.326  1.00  0.00     0.129 A 
ATOM     20  N   UNL A   1      40.483  27.798  33.509  1.00  0.00    -0.259 NA
BRANCH  13  21
ATOM     21  N   UNL A   1      39.983  32.804  34.708  1.00  0.00    -0.339 N 
ATOM     22  H   UNL A   1      40.751  33.252  34.284  1.00  0.00     0.168 HD
BRANCH  21  23
ATOM     23  C   UNL A   1      39.548  33.297  35.965  1.00  0.00     0.040 A 
ATOM     24  C   UNL A   1      38.349  32.903  38.048  1.00  0.00     0.062 A 
ATOM     25  C   UNL A   1      38.584  34.222  38.447  1.00  0.00     0.016 A 
ATOM     26  C   UNL A   1      38.850  32.434  36.825  1.00  0.00     0.041 A 
ATOM     27  C   UNL A   1      39.323  35.068  37.630  1.00  0.00     0.003 A 
ATOM     28  C   UNL A   1      39.796  34.609  36.398  1.00  0.00     0.026 A 
BRANCH  24  29
ATOM     29  C   UNL A   1      37.483  32.068  38.905  1.00  0.00     0.338 C 
ATOM     30  O   UNL A   1      36.352  31.743  38.585  1.00  0.00    -0.246 OA
BRANCH  29  31
ATOM     31  O   UNL A   1      38.109  31.788  40.074  1.00  0.00    -0.462 OA
BRANCH  31  32
ATOM     32  C   UNL A   1      37.304  31.096  41.042  1.00  0.00     0.230 C 
ATOM     33  C   UNL A   1      36.847  32.020  42.161  1.00  0.00     0.049 C 
ENDBRANCH  31  32
ENDBRANCH  29  31
ENDBRANCH  24  29
ENDBRANCH  21  23
ENDBRANCH  13  21
ENDBRANCH   7  12
ENDBRANCH   3   6
ENDBRANCH   1   2
BRANCH   1  34
ATOM     34  C   UNL A   1      34.344  34.783  29.627  1.00  0.00     0.023 C 
BRANCH  34  35
ATOM     35  C   UNL A   1      34.929  33.378  29.473  1.00  0.00     0.023 C 
BRANCH  35  36
ATOM     36  C   UNL A   1      34.945  32.842  28.046  1.00  0.00     0.116 C 
BRANCH  36  37
ATOM     37  N   UNL A   1      34.062  31.702  27.851  1.00  0.00    -0.352 N 
ATOM     38  C   UNL A   1      34.387  30.367  27.836  1.00  0.00     0.251 C 
ATOM     39  H   UNL A   1      33.110  31.914  27.714  1.00  0.00     0.163 HD
ATOM     40  O   UNL A   1      33.537  29.528  27.554  1.00  0.00    -0.269 OA
BRANCH  38  41
ATOM     41  C   UNL A   1      35.779  29.961  28.116  1.00  0.00     0.039 A 
ATOM     42  C   UNL A   1      36.722  30.041  27.089  1.00  0.00     0.014 A 
ATOM     43  C   UNL A   1      36.158  29.541  29.394  1.00  0.00     0.014 A 
ATOM     44  C   UNL A   1      38.063  29.767  27.362  1.00  0.00     0.010 A 
ATOM     45  C   UNL A   1      37.503  29.329  29.678  1.00  0.00     0.010 A 
ATOM     46  C   UNL A   1      38.468  29.443  28.666  1.00  0.00    -0.014 A 
BRANCH  46  47
ATOM     47  C   UNL A   1      39.898  29.232  28.997  1.00  0.00     0.031 A 
ATOM     48  C   UNL A   1      40.562  27.926  28.667  1.00  0.00     0.074 A 
ATOM     49  C   UNL A   1      40.575  30.190  29.660  1.00  0.00     0.049 A 
ATOM     50  N   UNL A   1      41.775  27.522  28.945  1.00  0.00    -0.248 NA
ATOM     51  C   UNL A   1      39.746  26.929  27.955  1.00  0.00     0.031 C 
ATOM     52  C   UNL A   1      40.021  31.479  30.083  1.00  0.00     0.029 A 
ATOM     53  N   UNL A   1      41.871  30.224  30.108  1.00  0.00    -0.354 N 
ATOM     54  C   UNL A   1      41.863  26.224  28.460  1.00  0.00     0.074 A 
ATOM     55  C   UNL A   1      40.567  25.890  27.909  1.00  0.00     0.031 C 
ATOM     56  C   UNL A   1      40.975  32.183  30.715  1.00  0.00     0.029 A 
ATOM     57  C   UNL A   1      42.197  31.385  30.769  1.00  0.00     0.049 A 
ATOM     58  H   UNL A   1      42.508  29.487  29.970  1.00  0.00     0.167 HD
ATOM     59  C   UNL A   1      42.933  25.393  28.456  1.00  0.00     0.037 A 
ATOM     60  C   UNL A   1      43.348  31.762  31.356  1.00  0.00     0.037 A 
ATOM     61  C   UNL A   1      44.228  25.744  28.976  1.00  0.00     0.049 A 
ATOM     62  C   UNL A   1      44.530  30.832  31.317  1.00  0.00     0.074 A 
ATOM     63  C   UNL A   1      45.392  24.996  28.962  1.00  0.00     0.029 A 
ATOM     64  N   UNL A   1      44.529  26.944  29.604  1.00  0.00    -0.354 N 
ATOM     65  N   UNL A   1      44.614  29.630  30.798  1.00  0.00    -0.248 NA
ATOM     66  C   UNL A   1      45.774  31.310  31.935  1.00  0.00     0.031 C 
ATOM     67  C   UNL A   1      46.392  25.734  29.608  1.00  0.00     0.029 A 
ATOM     68  C   UNL A   1      45.859  26.954  29.992  1.00  0.00     0.049 A 
ATOM     69  H   UNL A   1      43.893  27.680  29.751  1.00  0.00     0.167 HD
ATOM     70  C   UNL A   1      45.924  29.217  31.007  1.00  0.00     0.074 A 
ATOM     71  C   UNL A   1      46.600  30.302  31.691  1.00  0.00     0.031 C 
ATOM     72  C   UNL A   1      46.516  28.046  30.664  1.00  0.00     0.037 A 
BRANCH  59  73
ATOM     73  C   UNL A   1      42.746  24.026  27.860  1.00  0.00     0.058 A 
ATOM     74  C   UNL A   1      42.758  23.824  26.471  1.00  0.00     0.135 A 
ATOM     75  C   UNL A   1      42.574  22.903  28.685  1.00  0.00     0.135 A 
ATOM     76  F   UNL A   1      42.902  24.866  25.637  1.00  0.00    -0.206 F 
ATOM     77  C   UNL A   1      42.577  22.559  25.919  1.00  0.00     0.059 A 
ATOM     78  C   UNL A   1      42.416  21.626  28.155  1.00  0.00     0.059 A 
ATOM     79  F   UNL A   1      42.554  23.041  30.020  1.00  0.00    -0.206 F 
ATOM     80  C   UNL A   1      42.402  21.467  26.770  1.00  0.00     0.060 A 
BRANCH  80  81
ATOM     81  S   UNL A   1      42.164  19.833  26.039  1.00  0.00     0.124 S 
ATOM     82  O   UNL A   1      43.182  19.832  24.995  1.00  0.00    -0.237 OA
ATOM     83  O   UNL A   1      42.413  18.944  27.169  1.00  0.00    -0.237 OA
ATOM     84  O   UNL A   1      40.782  19.872  25.570  1.00  0.00    -0.744 OA
ENDBRANCH  80  81
ENDBRANCH  59  73
BRANCH  60  85
ATOM     85  C   UNL A   1      43.447  33.095  32.006  1.00  0.00     0.058 A 
ATOM     86  C   UNL A   1      43.304  33.229  33.395  1.00  0.00     0.135 A 
ATOM     87  C   UNL A   1      43.706  34.253  31.258  1.00  0.00     0.135 A 
ATOM     88  F   UNL A   1      43.052  32.150  34.150  1.00  0.00    -0.206 F 
ATOM     89  C   UNL A   1      43.402  34.468  34.020  1.00  0.00     0.059 A 
ATOM     90  C   UNL A   1      43.829  35.500  31.863  1.00  0.00     0.059 A 
ATOM     91  F   UNL A   1      43.868  34.173  29.929  1.00  0.00    -0.206 F 
ATOM     92  C   UNL A   1      43.666  35.599  33.245  1.00  0.00     0.060 A 
BRANCH  92  93
ATOM     93  S   UNL A   1      43.845  37.195  34.071  1.00  0.00     0.124 S 
ATOM     94  O   UNL A   1      42.453  37.571  34.285  1.00  0.00    -0.237 OA
ATOM     95  O   UNL A   1      44.602  36.839  35.268  1.00  0.00    -0.237 OA
ATOM     96  O   UNL A   1      44.576  37.996  33.094  1.00  0.00    -0.744 OA
ENDBRANCH  92  93
ENDBRANCH  60  85
BRANCH  72  97
ATOM     97  C   UNL A   1      47.972  27.887  30.996  1.00  0.00     0.058 A 
ATOM     98  C   UNL A   1      48.393  27.413  32.247  1.00  0.00     0.135 A 
ATOM     99  C   UNL A   1      48.954  28.162  30.031  1.00  0.00     0.135 A 
ATOM    100  F   UNL A   1      47.492  27.143  33.206  1.00  0.00    -0.206 F 
ATOM    101  C   UNL A   1      49.741  27.235  32.539  1.00  0.00     0.059 A 
ATOM    102  C   UNL A   1      50.306  27.969  30.293  1.00  0.00     0.059 A 
ATOM    103  F   UNL A   1      48.600  28.608  28.815  1.00  0.00    -0.206 F 
ATOM    104  C   UNL A   1      50.691  27.515  31.554  1.00  0.00     0.060 A 
BRANCH 104 105
ATOM    105  S   UNL A   1      52.436  27.245  31.929  1.00  0.00     0.124 S 
ATOM    106  O   UNL A   1      52.862  26.446  30.785  1.00  0.00    -0.237 OA
ATOM    107  O   UNL A   1      52.961  28.606  31.983  1.00  0.00    -0.237 OA
ATOM    108  O   UNL A   1      52.402  26.543  33.209  1.00  0.00    -0.744 OA
ENDBRANCH 104 105
ENDBRANCH  72  97
ENDBRANCH  46  47
ENDBRANCH  38  41
ENDBRANCH  36  37
ENDBRANCH  35  36
ENDBRANCH  34  35
ENDBRANCH   1  34
TORSDOF 20
ENDMDL
MODEL 3
REMARK VINA RESULT:     -11.4      5.862      7.872
REMARK SMILES CCOC(=O)c1cccc(Nc2c(-c3ccc(C(=O)NCCCCNC(=O)c4ccc(-c5c6nc(c(-c7c(F)cc(S(=O)(=O)[O-])cc7F)c7ccc([nH]7)c(-c7c(F)cc(S(=O)(=O)[O-])cc7F)c7nc(c(-c8c(F)cc(S(=O)(=O)[O-])cc8F)c8ccc5[nH]8)C=C7)C=C6)cc4)cc3)nc3cnccn23)c1
REMARK SMILES IDX 21 1 20 2 18 3 19 4 17 6 14 7 15 8 95 9 16 10 94 11 13 12
REMARK SMILES IDX 12 13 102 14 96 15 97 16 101 17 98 18 100 19 99 20 11 21
REMARK SMILES IDX 10 23 6 24 7 25 103 26 8 27 9 28 4 29 5 30 3 31 2 32 1 33
REMARK SMILES IDX 22 34 23 35 24 36 25 37 26 38 27 40 28 41 29 42 93 43 30 44
REMARK SMILES IDX 92 45 31 46 32 47 33 48 86 49 34 50 91 51 85 52 87 53 35 54
REMARK SMILES IDX 90 55 84 56 83 57 36 59 70 60 49 61 69 62 50 63 53 64 68 65
REMARK SMILES IDX 88 66 51 67 52 68 67 70 89 71 54 72 37 73 38 74 47 75 39 76
REMARK SMILES IDX 40 77 46 78 48 79 41 80 42 81 43 82 44 83 45 84 71 85 72 86
REMARK SMILES IDX 81 87 73 88 74 89 80 90 82 91 75 92 76 93 77 94 78 95 79 96
REMARK SMILES IDX 55 97 56 98 65 99 57 100 58 101 64 102 66 103 59 104 60 105
REMARK SMILES IDX 61 106 62 107 63 108
REMARK H PARENT 20 5 11 22 25 39 87 58 53 69
REMARK Flexibility Score: inf
ROOT
ATOM      1  C   UNL A   1      36.602  22.166  25.212  1.00  0.00     0.116 C 
ENDROOT
BRANCH   1   2
ATOM      2  N   UNL A   1      35.902  21.890  26.450  1.00  0.00    -0.352 N 
ATOM      3  C   UNL A   1      34.820  22.491  27.040  1.00  0.00     0.251 C 
ATOM      4  O   UNL A   1      34.389  22.005  28.086  1.00  0.00    -0.269 OA
ATOM      5  H   UNL A   1      36.270  21.132  26.960  1.00  0.00     0.163 HD
BRANCH   3   6
ATOM      6  C   UNL A   1      34.121  23.673  26.461  1.00  0.00     0.039 A 
ATOM      7  C   UNL A   1      32.667  25.882  25.493  1.00  0.00     0.004 A 
ATOM      8  C   UNL A   1      32.088  25.017  26.425  1.00  0.00     0.011 A 
ATOM      9  C   UNL A   1      33.973  25.654  25.059  1.00  0.00     0.011 A 
ATOM     10  C   UNL A   1      32.809  23.917  26.899  1.00  0.00     0.014 A 
ATOM     11  C   UNL A   1      34.702  24.575  25.565  1.00  0.00     0.014 A 
BRANCH   7  12
ATOM     12  C   UNL A   1      31.951  27.032  24.994  1.00  0.00     0.114 A 
ATOM     13  C   UNL A   1      31.113  27.025  23.888  1.00  0.00     0.143 A 
ATOM     14  N   UNL A   1      30.600  28.305  23.849  1.00  0.00    -0.283 N 
ATOM     15  N   UNL A   1      32.022  28.274  25.583  1.00  0.00    -0.225 NA
ATOM     16  C   UNL A   1      31.220  29.011  24.852  1.00  0.00     0.157 A 
ATOM     17  C   UNL A   1      29.643  28.926  23.065  1.00  0.00     0.115 A 
ATOM     18  C   UNL A   1      30.903  30.403  25.006  1.00  0.00     0.158 A 
ATOM     19  C   UNL A   1      29.383  30.228  23.285  1.00  0.00     0.129 A 
ATOM     20  N   UNL A   1      30.019  30.997  24.247  1.00  0.00    -0.259 NA
BRANCH  13  21
ATOM     21  N   UNL A   1      30.750  26.021  23.042  1.00  0.00    -0.339 N 
ATOM     22  H   UNL A   1      29.881  26.104  22.585  1.00  0.00     0.168 HD
BRANCH  21  23
ATOM     23  C   UNL A   1      31.527  24.867  22.768  1.00  0.00     0.040 A 
ATOM     24  C   UNL A   1      32.076  22.556  23.307  1.00  0.00     0.062 A 
ATOM     25  C   UNL A   1      33.081  22.554  22.336  1.00  0.00     0.016 A 
ATOM     26  C   UNL A   1      31.285  23.697  23.505  1.00  0.00     0.041 A 
ATOM     27  C   UNL A   1      33.291  23.688  21.559  1.00  0.00     0.003 A 
ATOM     28  C   UNL A   1      32.523  24.833  21.779  1.00  0.00     0.026 A 
BRANCH  24  29
ATOM     29  C   UNL A   1      31.948  21.363  24.168  1.00  0.00     0.338 C 
ATOM     30  O   UNL A   1      31.298  21.358  25.200  1.00  0.00    -0.246 OA
BRANCH  29  31
ATOM     31  O   UNL A   1      32.689  20.343  23.671  1.00  0.00    -0.462 OA
BRANCH  31  32
ATOM     32  C   UNL A   1      33.462  19.623  24.645  1.00  0.00     0.230 C 
ATOM     33  C   UNL A   1      33.716  18.187  24.216  1.00  0.00     0.049 C 
ENDBRANCH  31  32
ENDBRANCH  29  31
ENDBRANCH  24  29
ENDBRANCH  21  23
ENDBRANCH  13  21
ENDBRANCH   7  12
ENDBRANCH   3   6
ENDBRANCH   1   2
BRANCH   1  34
ATOM     34  C   UNL A   1      37.738  21.163  24.993  1.00  0.00     0.023 C 
BRANCH  34  35
ATOM     35  C   UNL A   1      39.073  21.569  25.624  1.00  0.00     0.023 C 
BRANCH  35  36
ATOM     36  C   UNL A   1      39.559  20.653  26.741  1.00  0.00     0.116 C 
BRANCH  36  37
ATOM     37  N   UNL A   1      40.450  19.602  26.274  1.00  0.00    -0.352 N 
ATOM     38  C   UNL A   1      41.798  19.680  26.018  1.00  0.00     0.251 C 
ATOM     39  H   UNL A   1      40.035  18.722  26.123  1.00  0.00     0.163 HD
ATOM     40  O   UNL A   1      42.390  18.725  25.526  1.00  0.00    -0.269 OA
BRANCH  38  41
ATOM     41  C   UNL A   1      42.513  20.943  26.299  1.00  0.00     0.039 A 
ATOM     42  C   UNL A   1      42.783  21.811  25.238  1.00  0.00     0.014 A 
ATOM     43  C   UNL A   1      42.878  21.283  27.604  1.00  0.00     0.014 A 
ATOM     44  C   UNL A   1      43.358  23.056  25.498  1.00  0.00     0.010 A 
ATOM     45  C   UNL A   1      43.394  22.547  27.867  1.00  0.00     0.010 A 
ATOM     46  C   UNL A   1      43.635  23.447  26.817  1.00  0.00    -0.014 A 
BRANCH  46  47
ATOM     47  C   UNL A   1      44.166  24.797  27.123  1.00  0.00     0.031 A 
ATOM     48  C   UNL A   1      43.228  25.905  27.512  1.00  0.00     0.074 A 
ATOM     49  C   UNL A   1      45.483  25.042  26.976  1.00  0.00     0.049 A 
ATOM     50  N   UNL A   1      43.489  27.166  27.740  1.00  0.00    -0.248 NA
ATOM     51  C   UNL A   1      41.804  25.554  27.636  1.00  0.00     0.031 C 
ATOM     52  C   UNL A   1      46.484  24.061  26.550  1.00  0.00     0.029 A 
ATOM     53  N   UNL A   1      46.205  26.194  27.155  1.00  0.00    -0.354 N 
ATOM     54  C   UNL A   1      42.266  27.763  28.015  1.00  0.00     0.074 A 
ATOM     55  C   UNL A   1      41.255  26.735  27.882  1.00  0.00     0.031 C 
ATOM     56  C   UNL A   1      47.691  24.649  26.515  1.00  0.00     0.029 A 
ATOM     57  C   UNL A   1      47.546  26.053  26.886  1.00  0.00     0.049 A 
ATOM     58  H   UNL A   1      45.802  27.043  27.448  1.00  0.00     0.167 HD
ATOM     59  C   UNL A   1      42.009  29.046  28.366  1.00  0.00     0.037 A 
ATOM     60  C   UNL A   1      48.545  26.955  26.929  1.00  0.00     0.037 A 
ATOM     61  C   UNL A   1      43.023  30.055  28.527  1.00  0.00     0.049 A 
ATOM     62  C   UNL A   1      48.240  28.368  27.346  1.00  0.00     0.074 A 
ATOM     63  C   UNL A   1      42.873  31.367  28.940  1.00  0.00     0.029 A 
ATOM     64  N   UNL A   1      44.375  29.864  28.283  1.00  0.00    -0.354 N 
ATOM     65  N   UNL A   1      47.084  28.900  27.663  1.00  0.00    -0.248 NA
ATOM     66  C   UNL A   1      49.373  29.301  27.417  1.00  0.00     0.031 C 
ATOM     67  C   UNL A   1      44.132  31.977  28.919  1.00  0.00     0.029 A 
ATOM     68  C   UNL A   1      45.070  31.037  28.526  1.00  0.00     0.049 A 
ATOM     69  H   UNL A   1      44.781  29.019  27.982  1.00  0.00     0.167 HD
ATOM     70  C   UNL A   1      47.353  30.223  27.993  1.00  0.00     0.074 A 
ATOM     71  C   UNL A   1      48.784  30.408  27.847  1.00  0.00     0.031 C 
ATOM     72  C   UNL A   1      46.494  31.198  28.382  1.00  0.00     0.037 A 
BRANCH  59  73
ATOM     73  C   UNL A   1      40.575  29.424  28.607  1.00  0.00     0.058 A 
ATOM     74  C   UNL A   1      39.664  29.561  27.548  1.00  0.00     0.135 A 
ATOM     75  C   UNL A   1      40.100  29.632  29.912  1.00  0.00     0.135 A 
ATOM     76  F   UNL A   1      40.071  29.390  26.280  1.00  0.00    -0.206 F 
ATOM     77  C   UNL A   1      38.339  29.920  27.772  1.00  0.00     0.059 A 
ATOM     78  C   UNL A   1      38.772  29.968  30.161  1.00  0.00     0.059 A 
ATOM     79  F   UNL A   1      40.930  29.516  30.961  1.00  0.00    -0.206 F 
ATOM     80  C   UNL A   1      37.904  30.125  29.081  1.00  0.00     0.060 A 
BRANCH  80  81
ATOM     81  S   UNL A   1      36.181  30.594  29.355  1.00  0.00     0.124 S 
ATOM     82  O   UNL A   1      36.156  30.769  30.803  1.00  0.00    -0.237 OA
ATOM     83  O   UNL A   1      36.059  31.816  28.566  1.00  0.00    -0.237 OA
ATOM     84  O   UNL A   1      35.434  29.448  28.846  1.00  0.00    -0.744 OA
ENDBRANCH  80  81
ENDBRANCH  59  73
BRANCH  60  85
ATOM     85  C   UNL A   1      49.933  26.541  26.596  1.00  0.00     0.058 A 
ATOM     86  C   UNL A   1      50.422  26.654  25.287  1.00  0.00     0.135 A 
ATOM     87  C   UNL A   1      50.801  26.044  27.580  1.00  0.00     0.135 A 
ATOM     88  F   UNL A   1      49.626  27.120  24.312  1.00  0.00    -0.206 F 
ATOM     89  C   UNL A   1      51.720  26.278  24.959  1.00  0.00     0.059 A 
ATOM     90  C   UNL A   1      52.111  25.681  27.281  1.00  0.00     0.059 A 
ATOM     91  F   UNL A   1      50.385  25.933  28.851  1.00  0.00    -0.206 F 
ATOM     92  C   UNL A   1      52.558  25.793  25.965  1.00  0.00     0.060 A 
BRANCH  92  93
ATOM     93  S   UNL A   1      54.260  25.359  25.542  1.00  0.00     0.124 S 
ATOM     94  O   UNL A   1      54.068  24.125  24.790  1.00  0.00    -0.237 OA
ATOM     95  O   UNL A   1      54.690  26.519  24.767  1.00  0.00    -0.237 OA
ATOM     96  O   UNL A   1      54.901  25.215  26.845  1.00  0.00    -0.744 OA
ENDBRANCH  92  93
ENDBRANCH  60  85
BRANCH  72  97
ATOM     97  C   UNL A   1      47.080  32.543  28.706  1.00  0.00     0.058 A 
ATOM     98  C   UNL A   1      47.184  33.552  27.737  1.00  0.00     0.135 A 
ATOM     99  C   UNL A   1      47.493  32.841  30.015  1.00  0.00     0.135 A 
ATOM    100  F   UNL A   1      46.809  33.313  26.470  1.00  0.00    -0.206 F 
ATOM    101  C   UNL A   1      47.696  34.807  28.049  1.00  0.00     0.059 A 
ATOM    102  C   UNL A   1      47.987  34.096  30.354  1.00  0.00     0.059 A 
ATOM    103  F   UNL A   1      47.405  31.912  30.979  1.00  0.00    -0.206 F 
ATOM    104  C   UNL A   1      48.094  35.070  29.361  1.00  0.00     0.060 A 
BRANCH 104 105
ATOM    105  S   UNL A   1      48.722  36.714  29.765  1.00  0.00     0.124 S 
ATOM    106  O   UNL A   1      48.680  36.694  31.223  1.00  0.00    -0.237 OA
ATOM    107  O   UNL A   1      50.054  36.698  29.168  1.00  0.00    -0.237 OA
ATOM    108  O   UNL A   1      47.765  37.609  29.121  1.00  0.00    -0.744 OA
ENDBRANCH 104 105
ENDBRANCH  72  97
ENDBRANCH  46  47
ENDBRANCH  38  41
ENDBRANCH  36  37
ENDBRANCH  35  36
ENDBRANCH  34  35
ENDBRANCH   1  34
TORSDOF 20
ENDMDL
