MODEL 1
REMARK VINA RESULT:     -12.3      0.000      0.000
REMARK SMILES Cc1cc([C@@H]([NH3+])C[C@H](C)CC(=O)NCCCCNC(=O)c2ccc(-c3c4nc(c(-c5c(F)cc(S(=O)(=O)[O-])cc5F)c5ccc([nH]5)c(-c5c(F)cc(S(=O)(=O)[O-])cc5F)c5nc(c(-c6c(F)cc(S(=O)(=O)[O-])cc6F)c6ccc3[nH]6)C=C5)C=C4)cc2)ccc1F
REMARK SMILES IDX 15 1 14 2 13 3 11 4 12 5 10 7 8 8 9 9 7 10 5 11 4 12 1 13
REMARK SMILES IDX 2 14 3 15 89 16 88 17 90 18 87 19 6 20 16 24 17 25 18 26
REMARK SMILES IDX 19 27 20 29 21 30 22 31 86 32 23 33 85 34 24 35 25 36 26 37
REMARK SMILES IDX 79 38 27 39 84 40 78 41 80 42 28 43 83 44 77 45 76 46 29 48
REMARK SMILES IDX 63 49 42 50 62 51 43 52 46 53 61 54 81 55 44 56 45 57 60 59
REMARK SMILES IDX 82 60 47 61 30 62 31 63 40 64 32 65 33 66 39 67 41 68 34 69
REMARK SMILES IDX 35 70 36 71 37 72 38 73 64 74 65 75 74 76 66 77 67 78 73 79
REMARK SMILES IDX 75 80 68 81 69 82 70 83 71 84 72 85 48 86 49 87 58 88 50 89
REMARK SMILES IDX 51 90 57 91 59 92 52 93 53 94 54 95 55 96 56 97
REMARK H PARENT 13 6 6 21 6 22 6 23 18 28 80 47 46 58
REMARK Flexibility Score: inf
ROOT
ATOM      1  C   UNL A   1      32.957  27.635  26.918  1.00  0.00     0.023 C 
ENDROOT
BRANCH   1   2
ATOM      2  C   UNL A   1      31.452  27.360  26.834  1.00  0.00     0.116 C 
BRANCH   2   3
ATOM      3  N   UNL A   1      31.193  25.970  26.510  1.00  0.00    -0.356 N 
ATOM      4  C   UNL A   1      31.129  25.347  25.299  1.00  0.00     0.220 C 
ATOM      5  O   UNL A   1      30.807  24.157  25.275  1.00  0.00    -0.275 OA
ATOM      6  H   UNL A   1      31.038  25.385  27.287  1.00  0.00     0.163 HD
BRANCH   4   7
ATOM      7  C   UNL A   1      31.487  26.077  24.004  1.00  0.00     0.103 C 
BRANCH   7   8
ATOM      8  C   UNL A   1      32.815  25.624  23.362  1.00  0.00     0.001 C 
ATOM      9  C   UNL A   1      33.494  26.798  22.626  1.00  0.00     0.008 C 
BRANCH   8  10
ATOM     10  C   UNL A   1      33.817  24.979  24.355  1.00  0.00     0.074 C 
BRANCH  10  11
ATOM     11  C   UNL A   1      34.343  23.587  23.897  1.00  0.00     0.212 C 
BRANCH  11  12
ATOM     12  C   UNL A   1      35.572  23.095  24.644  1.00  0.00     0.010 A 
ATOM     13  C   UNL A   1      37.707  19.920  24.766  1.00  0.00     0.047 C 
ATOM     14  C   UNL A   1      37.212  21.312  25.009  1.00  0.00    -0.015 A 
ATOM     15  C   UNL A   1      35.997  21.760  24.475  1.00  0.00     0.016 A 
ATOM     16  C   UNL A   1      37.982  22.205  25.755  1.00  0.00     0.126 A 
ATOM     17  C   UNL A   1      37.565  23.513  25.970  1.00  0.00     0.040 A 
ATOM     18  F   UNL A   1      39.155  21.807  26.266  1.00  0.00    -0.207 F 
ATOM     19  C   UNL A   1      36.362  23.958  25.419  1.00  0.00     0.013 A 
ENDBRANCH  11  12
BRANCH  11  20
ATOM     20  N   UNL A   1      33.252  22.606  23.977  1.00  0.00    -0.351 N 
ATOM     21  H   UNL A   1      32.358  23.095  24.015  1.00  0.00     0.345 HD
ATOM     22  H   UNL A   1      33.366  22.040  24.816  1.00  0.00     0.345 HD
ATOM     23  H   UNL A   1      33.275  22.005  23.153  1.00  0.00     0.345 HD
ENDBRANCH  11  20
ENDBRANCH  10  11
ENDBRANCH   8  10
ENDBRANCH   7   8
ENDBRANCH   4   7
ENDBRANCH   2   3
ENDBRANCH   1   2
BRANCH   1  24
ATOM     24  C   UNL A   1      33.352  29.104  26.776  1.00  0.00     0.023 C 
BRANCH  24  25
ATOM     25  C   UNL A   1      34.845  29.302  26.946  1.00  0.00     0.116 C 
BRANCH  25  26
ATOM     26  N   UNL A   1      35.141  30.473  27.766  1.00  0.00    -0.352 N 
ATOM     27  C   UNL A   1      36.088  30.563  28.771  1.00  0.00     0.251 C 
ATOM     28  H   UNL A   1      34.610  31.284  27.585  1.00  0.00     0.163 HD
ATOM     29  O   UNL A   1      35.921  31.322  29.705  1.00  0.00    -0.269 OA
BRANCH  27  30
ATOM     30  C   UNL A   1      37.249  29.666  28.629  1.00  0.00     0.039 A 
ATOM     31  C   UNL A   1      38.156  29.776  27.570  1.00  0.00     0.014 A 
ATOM     32  C   UNL A   1      37.466  28.795  29.692  1.00  0.00     0.014 A 
ATOM     33  C   UNL A   1      39.362  29.081  27.645  1.00  0.00     0.010 A 
ATOM     34  C   UNL A   1      38.698  28.241  29.840  1.00  0.00     0.010 A 
ATOM     35  C   UNL A   1      39.633  28.356  28.806  1.00  0.00    -0.014 A 
BRANCH  35  36
ATOM     36  C   UNL A   1      40.861  27.648  29.101  1.00  0.00     0.031 A 
ATOM     37  C   UNL A   1      41.033  26.245  28.692  1.00  0.00     0.074 A 
ATOM     38  C   UNL A   1      41.873  28.454  29.489  1.00  0.00     0.049 A 
ATOM     39  N   UNL A   1      41.987  25.492  29.101  1.00  0.00    -0.248 NA
ATOM     40  C   UNL A   1      40.124  25.555  27.779  1.00  0.00     0.031 C 
ATOM     41  C   UNL A   1      43.310  28.255  29.440  1.00  0.00     0.029 A 
ATOM     42  N   UNL A   1      41.748  29.693  30.101  1.00  0.00    -0.354 N 
ATOM     43  C   UNL A   1      42.023  24.371  28.295  1.00  0.00     0.074 A 
ATOM     44  C   UNL A   1      40.775  24.401  27.572  1.00  0.00     0.031 C 
ATOM     45  C   UNL A   1      43.901  29.181  30.224  1.00  0.00     0.029 A 
ATOM     46  C   UNL A   1      42.843  29.900  30.926  1.00  0.00     0.049 A 
ATOM     47  H   UNL A   1      41.002  30.322  29.970  1.00  0.00     0.167 HD
ATOM     48  C   UNL A   1      43.189  23.660  28.239  1.00  0.00     0.037 A 
ATOM     49  C   UNL A   1      42.636  29.854  32.280  1.00  0.00     0.037 A 
ATOM     50  C   UNL A   1      44.161  24.265  29.151  1.00  0.00     0.049 A 
ATOM     51  C   UNL A   1      43.273  28.623  32.878  1.00  0.00     0.074 A 
ATOM     52  C   UNL A   1      45.162  25.199  28.937  1.00  0.00     0.029 A 
ATOM     53  N   UNL A   1      43.927  24.238  30.521  1.00  0.00    -0.354 N 
ATOM     54  N   UNL A   1      43.419  27.487  32.250  1.00  0.00    -0.248 NA
ATOM     55  C   UNL A   1      43.907  28.631  34.190  1.00  0.00     0.031 C 
ATOM     56  C   UNL A   1      45.469  25.797  30.185  1.00  0.00     0.029 A 
ATOM     57  C   UNL A   1      44.663  25.220  31.155  1.00  0.00     0.049 A 
ATOM     58  H   UNL A   1      43.322  23.608  30.974  1.00  0.00     0.167 HD
ATOM     59  C   UNL A   1      44.186  26.647  33.013  1.00  0.00     0.074 A 
ATOM     60  C   UNL A   1      44.459  27.407  34.219  1.00  0.00     0.031 C 
ATOM     61  C   UNL A   1      44.580  25.407  32.596  1.00  0.00     0.037 A 
BRANCH  48  62
ATOM     62  C   UNL A   1      43.586  22.619  27.204  1.00  0.00     0.058 A 
ATOM     63  C   UNL A   1      42.813  21.440  27.057  1.00  0.00     0.135 A 
ATOM     64  C   UNL A   1      44.696  22.693  26.340  1.00  0.00     0.135 A 
ATOM     65  F   UNL A   1      41.700  21.233  27.773  1.00  0.00    -0.206 F 
ATOM     66  C   UNL A   1      43.137  20.408  26.176  1.00  0.00     0.059 A 
ATOM     67  C   UNL A   1      45.057  21.657  25.462  1.00  0.00     0.059 A 
ATOM     68  F   UNL A   1      45.460  23.790  26.273  1.00  0.00    -0.206 F 
ATOM     69  C   UNL A   1      44.269  20.516  25.388  1.00  0.00     0.060 A 
BRANCH  69  70
ATOM     70  S   UNL A   1      44.659  19.165  24.260  1.00  0.00     0.124 S 
ATOM     71  O   UNL A   1      43.651  18.170  24.615  1.00  0.00    -0.237 OA
ATOM     72  O   UNL A   1      44.492  19.798  22.955  1.00  0.00    -0.237 OA
ATOM     73  O   UNL A   1      46.031  18.811  24.612  1.00  0.00    -0.744 OA
ENDBRANCH  69  70
ENDBRANCH  48  62
BRANCH  49  74
ATOM     74  C   UNL A   1      41.311  30.452  32.670  1.00  0.00     0.058 A 
ATOM     75  C   UNL A   1      40.319  29.545  33.101  1.00  0.00     0.135 A 
ATOM     76  C   UNL A   1      41.207  31.778  33.128  1.00  0.00     0.135 A 
ATOM     77  F   UNL A   1      40.349  28.271  32.673  1.00  0.00    -0.206 F 
ATOM     78  C   UNL A   1      39.408  29.872  34.101  1.00  0.00     0.059 A 
ATOM     79  C   UNL A   1      40.292  32.130  34.128  1.00  0.00     0.059 A 
ATOM     80  F   UNL A   1      42.095  32.703  32.736  1.00  0.00    -0.206 F 
ATOM     81  C   UNL A   1      39.456  31.146  34.661  1.00  0.00     0.060 A 
BRANCH  81  82
ATOM     82  S   UNL A   1      38.564  31.414  36.215  1.00  0.00     0.124 S 
ATOM     83  O   UNL A   1      38.242  30.047  36.618  1.00  0.00    -0.237 OA
ATOM     84  O   UNL A   1      39.589  32.079  37.015  1.00  0.00    -0.237 OA
ATOM     85  O   UNL A   1      37.428  32.233  35.808  1.00  0.00    -0.744 OA
ENDBRANCH  81  82
ENDBRANCH  49  74
BRANCH  61  86
ATOM     86  C   UNL A   1      45.042  24.296  33.509  1.00  0.00     0.058 A 
ATOM     87  C   UNL A   1      46.395  24.016  33.764  1.00  0.00     0.135 A 
ATOM     88  C   UNL A   1      44.115  23.565  34.298  1.00  0.00     0.135 A 
ATOM     89  F   UNL A   1      47.382  24.728  33.205  1.00  0.00    -0.206 F 
ATOM     90  C   UNL A   1      46.800  23.021  34.649  1.00  0.00     0.059 A 
ATOM     91  C   UNL A   1      44.501  22.625  35.247  1.00  0.00     0.059 A 
ATOM     92  F   UNL A   1      42.791  23.756  34.196  1.00  0.00    -0.206 F 
ATOM     93  C   UNL A   1      45.847  22.329  35.385  1.00  0.00     0.060 A 
BRANCH  93  94
ATOM     94  S   UNL A   1      46.385  21.071  36.549  1.00  0.00     0.124 S 
ATOM     95  O   UNL A   1      47.818  21.342  36.620  1.00  0.00    -0.237 OA
ATOM     96  O   UNL A   1      45.620  21.401  37.748  1.00  0.00    -0.237 OA
ATOM     97  O   UNL A   1      46.008  19.822  35.897  1.00  0.00    -0.744 OA
ENDBRANCH  93  94
ENDBRANCH  61  86
ENDBRANCH  35  36
ENDBRANCH  27  30
ENDBRANCH  25  26
ENDBRANCH  24  25
ENDBRANCH   1  24
TORSDOF 19
ENDMDL
MODEL 2
REMARK VINA RESULT:     -12.3      1.491      2.899
REMARK SMILES Cc1cc([C@@H]([NH3+])C[C@H](C)CC(=O)NCCCCNC(=O)c2ccc(-c3c4nc(c(-c5c(F)cc(S(=O)(=O)[O-])cc5F)c5ccc([nH]5)c(-c5c(F)cc(S(=O)(=O)[O-])cc5F)c5nc(c(-c6c(F)cc(S(=O)(=O)[O-])cc6F)c6ccc3[nH]6)C=C5)C=C4)cc2)ccc1F
REMARK SMILES IDX 15 1 14 2 13 3 11 4 12 5 10 7 8 8 9 9 7 10 5 11 4 12 1 13
REMARK SMILES IDX 2 14 3 15 89 16 88 17 90 18 87 19 6 20 16 24 17 25 18 26
REMARK SMILES IDX 19 27 20 29 21 30 22 31 86 32 23 33 85 34 24 35 25 36 26 37
REMARK SMILES IDX 79 38 27 39 84 40 78 41 80 42 28 43 83 44 77 45 76 46 29 48
REMARK SMILES IDX 63 49 42 50 62 51 43 52 46 53 61 54 81 55 44 56 45 57 60 59
REMARK SMILES IDX 82 60 47 61 30 62 31 63 40 64 32 65 33 66 39 67 41 68 34 69
REMARK SMILES IDX 35 70 36 71 37 72 38 73 64 74 65 75 74 76 66 77 67 78 73 79
REMARK SMILES IDX 75 80 68 81 69 82 70 83 71 84 72 85 48 86 49 87 58 88 50 89
REMARK SMILES IDX 51 90 57 91 59 92 52 93 53 94 54 95 55 96 56 97
REMARK H PARENT 13 6 6 21 6 22 6 23 18 28 80 47 46 58
REMARK Flexibility Score: inf
ROOT
ATOM      1  C   UNL A   1      32.526  28.054  27.215  1.00  0.00     0.023 C 
ENDROOT
BRANCH   1   2
ATOM      2  C   UNL A   1      32.119  27.062  26.121  1.00  0.00     0.116 C 
BRANCH   2   3
ATOM      3  N   UNL A   1      31.511  25.876  26.692  1.00  0.00    -0.356 N 
ATOM      4  C   UNL A   1      31.987  24.601  26.782  1.00  0.00     0.220 C 
ATOM      5  O   UNL A   1      31.240  23.735  27.243  1.00  0.00    -0.275 OA
ATOM      6  H   UNL A   1      30.614  26.012  27.075  1.00  0.00     0.163 HD
BRANCH   4   7
ATOM      7  C   UNL A   1      33.416  24.250  26.371  1.00  0.00     0.103 C 
BRANCH   7   8
ATOM      8  C   UNL A   1      33.603  24.000  24.859  1.00  0.00     0.001 C 
ATOM      9  C   UNL A   1      35.094  23.794  24.520  1.00  0.00     0.008 C 
BRANCH   8  10
ATOM     10  C   UNL A   1      32.771  22.816  24.300  1.00  0.00     0.074 C 
BRANCH  10  11
ATOM     11  C   UNL A   1      32.082  23.125  22.938  1.00  0.00     0.212 C 
BRANCH  11  12
ATOM     12  C   UNL A   1      31.526  24.534  22.812  1.00  0.00     0.010 A 
ATOM     13  C   UNL A   1      28.522  26.503  24.136  1.00  0.00     0.047 C 
ATOM     14  C   UNL A   1      29.807  26.160  23.448  1.00  0.00    -0.015 A 
ATOM     15  C   UNL A   1      30.279  24.841  23.394  1.00  0.00     0.016 A 
ATOM     16  C   UNL A   1      30.580  27.168  22.871  1.00  0.00     0.126 A 
ATOM     17  C   UNL A   1      31.792  26.885  22.254  1.00  0.00     0.040 A 
ATOM     18  F   UNL A   1      30.159  28.439  22.920  1.00  0.00    -0.207 F 
ATOM     19  C   UNL A   1      32.265  25.572  22.222  1.00  0.00     0.013 A 
ENDBRANCH  11  12
BRANCH  11  20
ATOM     20  N   UNL A   1      33.018  22.829  21.844  1.00  0.00    -0.351 N 
ATOM     21  H   UNL A   1      33.375  23.702  21.458  1.00  0.00     0.345 HD
ATOM     22  H   UNL A   1      32.532  22.307  21.115  1.00  0.00     0.345 HD
ATOM     23  H   UNL A   1      33.794  22.274  22.203  1.00  0.00     0.345 HD
ENDBRANCH  11  20
ENDBRANCH  10  11
ENDBRANCH   8  10
ENDBRANCH   7   8
ENDBRANCH   4   7
ENDBRANCH   2   3
ENDBRANCH   1   2
BRANCH   1  24
ATOM     24  C   UNL A   1      33.368  29.234  26.732  1.00  0.00     0.023 C 
BRANCH  24  25
ATOM     25  C   UNL A   1      34.781  29.174  27.278  1.00  0.00     0.116 C 
BRANCH  25  26
ATOM     26  N   UNL A   1      35.197  30.459  27.832  1.00  0.00    -0.352 N 
ATOM     27  C   UNL A   1      36.261  30.687  28.688  1.00  0.00     0.251 C 
ATOM     28  H   UNL A   1      34.666  31.246  27.568  1.00  0.00     0.163 HD
ATOM     29  O   UNL A   1      36.223  31.607  29.481  1.00  0.00    -0.269 OA
BRANCH  27  30
ATOM     30  C   UNL A   1      37.377  29.731  28.579  1.00  0.00     0.039 A 
ATOM     31  C   UNL A   1      38.248  29.717  27.485  1.00  0.00     0.014 A 
ATOM     32  C   UNL A   1      37.597  28.938  29.701  1.00  0.00     0.014 A 
ATOM     33  C   UNL A   1      39.426  28.978  27.576  1.00  0.00     0.010 A 
ATOM     34  C   UNL A   1      38.809  28.343  29.851  1.00  0.00     0.010 A 
ATOM     35  C   UNL A   1      39.710  28.335  28.781  1.00  0.00    -0.014 A 
BRANCH  35  36
ATOM     36  C   UNL A   1      40.918  27.599  29.090  1.00  0.00     0.031 A 
ATOM     37  C   UNL A   1      41.075  26.202  28.654  1.00  0.00     0.074 A 
ATOM     38  C   UNL A   1      41.934  28.377  29.521  1.00  0.00     0.049 A 
ATOM     39  N   UNL A   1      42.006  25.424  29.070  1.00  0.00    -0.248 NA
ATOM     40  C   UNL A   1      40.178  25.548  27.704  1.00  0.00     0.031 C 
ATOM     41  C   UNL A   1      43.368  28.154  29.503  1.00  0.00     0.029 A 
ATOM     42  N   UNL A   1      41.815  29.605  30.157  1.00  0.00    -0.354 N 
ATOM     43  C   UNL A   1      42.042  24.320  28.241  1.00  0.00     0.074 A 
ATOM     44  C   UNL A   1      40.813  24.388  27.487  1.00  0.00     0.031 C 
ATOM     45  C   UNL A   1      43.955  29.052  30.321  1.00  0.00     0.029 A 
ATOM     46  C   UNL A   1      42.892  29.775  31.013  1.00  0.00     0.049 A 
ATOM     47  H   UNL A   1      41.083  30.250  30.022  1.00  0.00     0.167 HD
ATOM     48  C   UNL A   1      43.196  23.589  28.198  1.00  0.00     0.037 A 
ATOM     49  C   UNL A   1      42.651  29.703  32.360  1.00  0.00     0.037 A 
ATOM     50  C   UNL A   1      44.156  24.157  29.146  1.00  0.00     0.049 A 
ATOM     51  C   UNL A   1      43.251  28.448  32.946  1.00  0.00     0.074 A 
ATOM     52  C   UNL A   1      45.178  25.077  28.977  1.00  0.00     0.029 A 
ATOM     53  N   UNL A   1      43.888  24.104  30.508  1.00  0.00    -0.354 N 
ATOM     54  N   UNL A   1      43.393  27.323  32.296  1.00  0.00    -0.248 NA
ATOM     55  C   UNL A   1      43.852  28.416  34.273  1.00  0.00     0.031 C 
ATOM     56  C   UNL A   1      45.464  25.642  30.246  1.00  0.00     0.029 A 
ATOM     57  C   UNL A   1      44.624  25.059  31.183  1.00  0.00     0.049 A 
ATOM     58  H   UNL A   1      43.261  23.476  30.933  1.00  0.00     0.167 HD
ATOM     59  C   UNL A   1      44.126  26.453  33.059  1.00  0.00     0.074 A 
ATOM     60  C   UNL A   1      44.382  27.181  34.288  1.00  0.00     0.031 C 
ATOM     61  C   UNL A   1      44.509  25.215  32.624  1.00  0.00     0.037 A 
BRANCH  48  62
ATOM     62  C   UNL A   1      43.601  22.564  27.150  1.00  0.00     0.058 A 
ATOM     63  C   UNL A   1      42.820  21.395  26.968  1.00  0.00     0.135 A 
ATOM     64  C   UNL A   1      44.726  22.644  26.305  1.00  0.00     0.135 A 
ATOM     65  F   UNL A   1      41.693  21.185  27.662  1.00  0.00    -0.206 F 
ATOM     66  C   UNL A   1      43.149  20.376  26.074  1.00  0.00     0.059 A 
ATOM     67  C   UNL A   1      45.092  21.621  25.414  1.00  0.00     0.059 A 
ATOM     68  F   UNL A   1      45.500  23.735  26.271  1.00  0.00    -0.206 F 
ATOM     69  C   UNL A   1      44.295  20.489  25.305  1.00  0.00     0.060 A 
BRANCH  69  70
ATOM     70  S   UNL A   1      44.691  19.156  24.158  1.00  0.00     0.124 S 
ATOM     71  O   UNL A   1      46.098  18.903  24.457  1.00  0.00    -0.237 OA
ATOM     72  O   UNL A   1      43.758  18.112  24.570  1.00  0.00    -0.237 OA
ATOM     73  O   UNL A   1      44.430  19.745  22.848  1.00  0.00    -0.744 OA
ENDBRANCH  69  70
ENDBRANCH  48  62
BRANCH  49  74
ATOM     74  C   UNL A   1      41.327  30.316  32.731  1.00  0.00     0.058 A 
ATOM     75  C   UNL A   1      40.332  29.425  33.187  1.00  0.00     0.135 A 
ATOM     76  C   UNL A   1      41.227  31.655  33.149  1.00  0.00     0.135 A 
ATOM     77  F   UNL A   1      40.359  28.139  32.798  1.00  0.00    -0.206 F 
ATOM     78  C   UNL A   1      39.422  29.785  34.176  1.00  0.00     0.059 A 
ATOM     79  C   UNL A   1      40.311  32.040  34.136  1.00  0.00     0.059 A 
ATOM     80  F   UNL A   1      42.118  32.566  32.730  1.00  0.00    -0.206 F 
ATOM     81  C   UNL A   1      39.473  31.075  34.698  1.00  0.00     0.060 A 
BRANCH  81  82
ATOM     82  S   UNL A   1      38.580  31.391  36.242  1.00  0.00     0.124 S 
ATOM     83  O   UNL A   1      37.472  32.227  35.785  1.00  0.00    -0.237 OA
ATOM     84  O   UNL A   1      38.217  30.032  36.639  1.00  0.00    -0.237 OA
ATOM     85  O   UNL A   1      39.575  32.062  37.069  1.00  0.00    -0.744 OA
ENDBRANCH  81  82
ENDBRANCH  49  74
BRANCH  61  86
ATOM     86  C   UNL A   1      44.928  24.077  33.524  1.00  0.00     0.058 A 
ATOM     87  C   UNL A   1      44.063  23.040  33.915  1.00  0.00     0.135 A 
ATOM     88  C   UNL A   1      46.286  23.904  33.900  1.00  0.00     0.135 A 
ATOM     89  F   UNL A   1      42.788  22.992  33.507  1.00  0.00    -0.206 F 
ATOM     90  C   UNL A   1      44.482  21.973  34.703  1.00  0.00     0.059 A 
ATOM     91  C   UNL A   1      46.740  22.803  34.617  1.00  0.00     0.059 A 
ATOM     92  F   UNL A   1      47.234  24.790  33.561  1.00  0.00    -0.206 F 
ATOM     93  C   UNL A   1      45.822  21.862  35.051  1.00  0.00     0.060 A 
BRANCH  93  94
ATOM     94  S   UNL A   1      46.356  20.461  36.040  1.00  0.00     0.124 S 
ATOM     95  O   UNL A   1      47.804  20.640  36.032  1.00  0.00    -0.237 OA
ATOM     96  O   UNL A   1      45.695  20.706  37.319  1.00  0.00    -0.237 OA
ATOM     97  O   UNL A   1      45.855  19.311  35.295  1.00  0.00    -0.744 OA
ENDBRANCH  93  94
ENDBRANCH  61  86
ENDBRANCH  35  36
ENDBRANCH  27  30
ENDBRANCH  25  26
ENDBRANCH  24  25
ENDBRANCH   1  24
TORSDOF 19
ENDMDL
MODEL 3
REMARK VINA RESULT:     -12.2      5.005     11.397
REMARK SMILES Cc1cc([C@@H]([NH3+])C[C@H](C)CC(=O)NCCCCNC(=O)c2ccc(-c3c4nc(c(-c5c(F)cc(S(=O)(=O)[O-])cc5F)c5ccc([nH]5)c(-c5c(F)cc(S(=O)(=O)[O-])cc5F)c5nc(c(-c6c(F)cc(S(=O)(=O)[O-])cc6F)c6ccc3[nH]6)C=C5)C=C4)cc2)ccc1F
REMARK SMILES IDX 15 1 14 2 13 3 11 4 12 5 10 7 8 8 9 9 7 10 5 11 4 12 1 13
REMARK SMILES IDX 2 14 3 15 89 16 88 17 90 18 87 19 6 20 16 24 17 25 18 26
REMARK SMILES IDX 19 27 20 29 21 30 22 31 86 32 23 33 85 34 24 35 25 36 26 37
REMARK SMILES IDX 79 38 27 39 84 40 78 41 80 42 28 43 83 44 77 45 76 46 29 48
REMARK SMILES IDX 63 49 42 50 62 51 43 52 46 53 61 54 81 55 44 56 45 57 60 59
REMARK SMILES IDX 82 60 47 61 30 62 31 63 40 64 32 65 33 66 39 67 41 68 34 69
REMARK SMILES IDX 35 70 36 71 37 72 38 73 64 74 65 75 74 76 66 77 67 78 73 79
REMARK SMILES IDX 75 80 68 81 69 82 70 83 71 84 72 85 48 86 49 87 58 88 50 89
REMARK SMILES IDX 51 90 57 91 59 92 52 93 53 94 54 95 55 96 56 97
REMARK H PARENT 13 6 6 21 6 22 6 23 18 28 80 47 46 58
REMARK Flexibility Score: inf
ROOT
ATOM      1  C   UNL A   1      36.787  21.795  25.678  1.00  0.00     0.023 C 
ENDROOT
BRANCH   1   2
ATOM      2  C   UNL A   1      35.755  21.370  24.627  1.00  0.00     0.116 C 
BRANCH   2   3
ATOM      3  N   UNL A   1      34.881  20.334  25.143  1.00  0.00    -0.356 N 
ATOM      4  C   UNL A   1      33.522  20.309  25.260  1.00  0.00     0.220 C 
ATOM      5  O   UNL A   1      33.006  19.336  25.815  1.00  0.00    -0.275 OA
ATOM      6  H   UNL A   1      35.340  19.522  25.459  1.00  0.00     0.163 HD
BRANCH   4   7
ATOM      7  C   UNL A   1      32.649  21.424  24.685  1.00  0.00     0.103 C 
BRANCH   7   8
ATOM      8  C   UNL A   1      31.745  22.126  25.721  1.00  0.00     0.001 C 
ATOM      9  C   UNL A   1      32.528  22.422  27.017  1.00  0.00     0.008 C 
BRANCH   8  10
ATOM     10  C   UNL A   1      31.077  23.428  25.205  1.00  0.00     0.074 C 
BRANCH  10  11
ATOM     11  C   UNL A   1      30.939  24.533  26.294  1.00  0.00     0.212 C 
BRANCH  11  12
ATOM     12  C   UNL A   1      31.872  25.720  26.116  1.00  0.00     0.010 A 
ATOM     13  C   UNL A   1      32.042  29.365  27.273  1.00  0.00     0.047 C 
ATOM     14  C   UNL A   1      32.400  28.053  26.646  1.00  0.00    -0.015 A 
ATOM     15  C   UNL A   1      31.502  26.977  26.640  1.00  0.00     0.016 A 
ATOM     16  C   UNL A   1      33.662  27.871  26.081  1.00  0.00     0.126 A 
ATOM     17  C   UNL A   1      34.035  26.655  25.521  1.00  0.00     0.040 A 
ATOM     18  F   UNL A   1      34.545  28.879  26.086  1.00  0.00    -0.207 F 
ATOM     19  C   UNL A   1      33.143  25.582  25.536  1.00  0.00     0.013 A 
ENDBRANCH  11  12
BRANCH  11  20
ATOM     20  N   UNL A   1      29.538  24.972  26.364  1.00  0.00    -0.351 N 
ATOM     21  H   UNL A   1      29.256  25.353  25.462  1.00  0.00     0.345 HD
ATOM     22  H   UNL A   1      29.444  25.690  27.082  1.00  0.00     0.345 HD
ATOM     23  H   UNL A   1      28.945  24.176  26.598  1.00  0.00     0.345 HD
ENDBRANCH  11  20
ENDBRANCH  10  11
ENDBRANCH   8  10
ENDBRANCH   7   8
ENDBRANCH   4   7
ENDBRANCH   2   3
ENDBRANCH   1   2
BRANCH   1  24
ATOM     24  C   UNL A   1      36.580  23.195  26.252  1.00  0.00     0.023 C 
BRANCH  24  25
ATOM     25  C   UNL A   1      37.738  24.114  25.917  1.00  0.00     0.116 C 
BRANCH  25  26
ATOM     26  N   UNL A   1      39.013  23.553  26.357  1.00  0.00    -0.352 N 
ATOM     27  C   UNL A   1      40.113  24.257  26.816  1.00  0.00     0.251 C 
ATOM     28  H   UNL A   1      39.098  22.572  26.323  1.00  0.00     0.163 HD
ATOM     29  O   UNL A   1      41.234  23.814  26.656  1.00  0.00    -0.269 OA
BRANCH  27  30
ATOM     30  C   UNL A   1      39.815  25.550  27.455  1.00  0.00     0.039 A 
ATOM     31  C   UNL A   1      39.256  25.645  28.733  1.00  0.00     0.014 A 
ATOM     32  C   UNL A   1      40.259  26.674  26.765  1.00  0.00     0.014 A 
ATOM     33  C   UNL A   1      39.253  26.882  29.374  1.00  0.00     0.010 A 
ATOM     34  C   UNL A   1      40.397  27.844  27.443  1.00  0.00     0.010 A 
ATOM     35  C   UNL A   1      39.867  27.958  28.733  1.00  0.00    -0.014 A 
BRANCH  35  36
ATOM     36  C   UNL A   1      40.040  29.289  29.278  1.00  0.00     0.031 A 
ATOM     37  C   UNL A   1      38.958  30.281  29.185  1.00  0.00     0.074 A 
ATOM     38  C   UNL A   1      41.110  29.408  30.093  1.00  0.00     0.049 A 
ATOM     39  N   UNL A   1      39.107  31.529  29.442  1.00  0.00    -0.248 NA
ATOM     40  C   UNL A   1      37.593  29.950  28.780  1.00  0.00     0.031 C 
ATOM     41  C   UNL A   1      41.388  30.359  31.153  1.00  0.00     0.029 A 
ATOM     42  N   UNL A   1      42.262  28.635  30.054  1.00  0.00    -0.354 N 
ATOM     43  C   UNL A   1      37.852  32.095  29.559  1.00  0.00     0.074 A 
ATOM     44  C   UNL A   1      36.953  31.103  29.021  1.00  0.00     0.031 C 
ATOM     45  C   UNL A   1      42.699  30.289  31.464  1.00  0.00     0.029 A 
ATOM     46  C   UNL A   1      43.332  29.399  30.495  1.00  0.00     0.049 A 
ATOM     47  H   UNL A   1      42.311  27.696  29.760  1.00  0.00     0.167 HD
ATOM     48  C   UNL A   1      37.741  33.268  30.251  1.00  0.00     0.037 A 
ATOM     49  C   UNL A   1      44.257  29.793  29.564  1.00  0.00     0.037 A 
ATOM     50  C   UNL A   1      39.074  33.698  30.678  1.00  0.00     0.049 A 
ATOM     51  C   UNL A   1      44.171  31.280  29.319  1.00  0.00     0.074 A 
ATOM     52  C   UNL A   1      39.764  33.503  31.863  1.00  0.00     0.029 A 
ATOM     53  N   UNL A   1      40.014  34.068  29.724  1.00  0.00    -0.354 N 
ATOM     54  N   UNL A   1      43.074  31.983  29.416  1.00  0.00    -0.248 NA
ATOM     55  C   UNL A   1      45.350  32.100  29.072  1.00  0.00     0.031 C 
ATOM     56  C   UNL A   1      41.145  33.677  31.592  1.00  0.00     0.029 A 
ATOM     57  C   UNL A   1      41.291  33.986  30.248  1.00  0.00     0.049 A 
ATOM     58  H   UNL A   1      39.801  34.349  28.806  1.00  0.00     0.167 HD
ATOM     59  C   UNL A   1      43.381  33.313  29.304  1.00  0.00     0.074 A 
ATOM     60  C   UNL A   1      44.815  33.333  29.082  1.00  0.00     0.031 C 
ATOM     61  C   UNL A   1      42.455  34.309  29.438  1.00  0.00     0.037 A 
BRANCH  48  62
ATOM     62  C   UNL A   1      36.471  33.900  30.798  1.00  0.00     0.058 A 
ATOM     63  C   UNL A   1      35.443  34.302  29.908  1.00  0.00     0.135 A 
ATOM     64  C   UNL A   1      36.190  34.153  32.155  1.00  0.00     0.135 A 
ATOM     65  F   UNL A   1      35.534  34.095  28.587  1.00  0.00    -0.206 F 
ATOM     66  C   UNL A   1      34.273  34.942  30.316  1.00  0.00     0.059 A 
ATOM     67  C   UNL A   1      35.031  34.817  32.590  1.00  0.00     0.059 A 
ATOM     68  F   UNL A   1      37.005  33.730  33.130  1.00  0.00    -0.206 F 
ATOM     69  C   UNL A   1      34.077  35.209  31.660  1.00  0.00     0.060 A 
BRANCH  69  70
ATOM     70  S   UNL A   1      32.553  36.036  32.155  1.00  0.00     0.124 S 
ATOM     71  O   UNL A   1      32.148  36.695  30.917  1.00  0.00    -0.237 OA
ATOM     72  O   UNL A   1      31.721  34.915  32.578  1.00  0.00    -0.237 OA
ATOM     73  O   UNL A   1      32.984  36.934  33.223  1.00  0.00    -0.744 OA
ENDBRANCH  69  70
ENDBRANCH  48  62
BRANCH  49  74
ATOM     74  C   UNL A   1      44.505  28.730  28.527  1.00  0.00     0.058 A 
ATOM     75  C   UNL A   1      44.065  29.022  27.218  1.00  0.00     0.135 A 
ATOM     76  C   UNL A   1      45.553  27.803  28.658  1.00  0.00     0.135 A 
ATOM     77  F   UNL A   1      43.047  29.879  27.031  1.00  0.00    -0.206 F 
ATOM     78  C   UNL A   1      44.767  28.594  26.095  1.00  0.00     0.059 A 
ATOM     79  C   UNL A   1      46.267  27.353  27.541  1.00  0.00     0.059 A 
ATOM     80  F   UNL A   1      46.002  27.453  29.872  1.00  0.00    -0.206 F 
ATOM     81  C   UNL A   1      45.913  27.823  26.274  1.00  0.00     0.060 A 
BRANCH  81  82
ATOM     82  S   UNL A   1      47.024  27.631  24.857  1.00  0.00     0.124 S 
ATOM     83  O   UNL A   1      46.653  26.310  24.357  1.00  0.00    -0.237 OA
ATOM     84  O   UNL A   1      46.610  28.757  24.022  1.00  0.00    -0.237 OA
ATOM     85  O   UNL A   1      48.349  27.726  25.459  1.00  0.00    -0.744 OA
ENDBRANCH  81  82
ENDBRANCH  49  74
BRANCH  61  86
ATOM     86  C   UNL A   1      42.624  35.719  28.921  1.00  0.00     0.058 A 
ATOM     87  C   UNL A   1      41.995  36.197  27.759  1.00  0.00     0.135 A 
ATOM     88  C   UNL A   1      43.310  36.700  29.683  1.00  0.00     0.135 A 
ATOM     89  F   UNL A   1      41.191  35.421  27.020  1.00  0.00    -0.206 F 
ATOM     90  C   UNL A   1      42.123  37.513  27.326  1.00  0.00     0.059 A 
ATOM     91  C   UNL A   1      43.380  38.038  29.312  1.00  0.00     0.059 A 
ATOM     92  F   UNL A   1      43.922  36.400  30.839  1.00  0.00    -0.206 F 
ATOM     93  C   UNL A   1      42.818  38.427  28.108  1.00  0.00     0.060 A 
BRANCH  93  94
ATOM     94  S   UNL A   1      42.944  40.132  27.556  1.00  0.00     0.124 S 
ATOM     95  O   UNL A   1      43.043  40.839  28.829  1.00  0.00    -0.237 OA
ATOM     96  O   UNL A   1      44.161  40.113  26.748  1.00  0.00    -0.237 OA
ATOM     97  O   UNL A   1      41.708  40.339  26.810  1.00  0.00    -0.744 OA
ENDBRANCH  93  94
ENDBRANCH  61  86
ENDBRANCH  35  36
ENDBRANCH  27  30
ENDBRANCH  25  26
ENDBRANCH  24  25
ENDBRANCH   1  24
TORSDOF 19
ENDMDL
