MODEL 1
REMARK VINA RESULT:     -11.3      0.000      0.000
REMARK SMILES COc1ccc(C(C)(C)C)cc1CC(=O)NCCCCNC(=O)c1ccc(-c2c3nc(c(-c4c(F)cc(S(=O)(=O)[O-])cc4F)c4ccc([nH]4)c(-c4c(F)cc(S(=O)(=O)[O-])cc4F)c4nc(c(-c5c(F)cc(S(=O)(=O)[O-])cc5F)c5ccc2[nH]5)C=C4)C=C3)cc1
REMARK SMILES IDX 19 1 18 2 17 3 16 4 14 5 15 6 13 8 12 9 3 10 4 11 5 12 11 13
REMARK SMILES IDX 6 14 2 15 1 16 7 17 8 18 9 19 10 20 20 21 21 22 22 23 23 25
REMARK SMILES IDX 24 26 25 27 89 28 26 29 88 30 27 31 28 32 29 33 82 34 30 35
REMARK SMILES IDX 87 36 81 37 83 38 31 39 86 40 80 41 79 42 32 44 66 45 45 46
REMARK SMILES IDX 65 47 46 48 49 49 64 50 84 51 47 52 48 53 63 55 85 56 50 57
REMARK SMILES IDX 33 58 34 59 43 60 35 61 36 62 42 63 44 64 37 65 38 66 39 67
REMARK SMILES IDX 40 68 41 69 67 70 68 71 77 72 69 73 70 74 76 75 78 76 71 77
REMARK SMILES IDX 72 78 73 79 74 80 75 81 51 82 52 83 61 84 53 85 54 86 60 87
REMARK SMILES IDX 62 88 55 89 56 90 57 91 58 92 59 93
REMARK H PARENT 16 7 21 24 83 43 49 54
REMARK Flexibility Score: inf
ROOT
ATOM      1  C   UNL A   1      41.048  22.128  27.708  1.00  0.00     0.023 C 
ENDROOT
BRANCH   1   2
ATOM      2  C   UNL A   1      40.172  21.777  26.503  1.00  0.00     0.023 C 
BRANCH   2   3
ATOM      3  C   UNL A   1      38.809  22.471  26.497  1.00  0.00     0.116 C 
BRANCH   3   4
ATOM      4  N   UNL A   1      38.311  22.658  25.149  1.00  0.00    -0.356 N 
ATOM      5  C   UNL A   1      37.049  22.446  24.673  1.00  0.00     0.224 C 
ATOM      6  O   UNL A   1      36.839  22.584  23.467  1.00  0.00    -0.275 OA
ATOM      7  H   UNL A   1      38.968  22.979  24.490  1.00  0.00     0.163 HD
BRANCH   5   8
ATOM      8  C   UNL A   1      35.918  22.119  25.634  1.00  0.00     0.139 C 
BRANCH   8   9
ATOM      9  C   UNL A   1      34.706  21.482  24.991  1.00  0.00     0.004 A 
ATOM     10  C   UNL A   1      33.555  22.162  24.567  1.00  0.00     0.122 A 
ATOM     11  C   UNL A   1      32.459  21.424  24.108  1.00  0.00     0.047 A 
ATOM     12  C   UNL A   1      32.497  20.030  24.032  1.00  0.00     0.008 A 
ATOM     13  C   UNL A   1      34.731  20.067  24.879  1.00  0.00     0.012 A 
ATOM     14  C   UNL A   1      33.638  19.315  24.417  1.00  0.00    -0.042 A 
BRANCH  10  15
ATOM     15  O   UNL A   1      33.277  23.497  24.669  1.00  0.00    -0.496 OA
ATOM     16  C   UNL A   1      32.352  24.073  23.759  1.00  0.00     0.278 C 
ENDBRANCH  10  15
BRANCH  14  17
ATOM     17  C   UNL A   1      33.650  17.777  24.346  1.00  0.00    -0.013 C 
ATOM     18  C   UNL A   1      32.659  17.196  25.379  1.00  0.00     0.016 C 
ATOM     19  C   UNL A   1      33.231  17.326  22.931  1.00  0.00     0.016 C 
ATOM     20  C   UNL A   1      35.031  17.146  24.639  1.00  0.00     0.016 C 
ENDBRANCH  14  17
ENDBRANCH   8   9
ENDBRANCH   5   8
ENDBRANCH   3   4
ENDBRANCH   2   3
ENDBRANCH   1   2
BRANCH   1  21
ATOM     21  C   UNL A   1      42.226  23.047  27.403  1.00  0.00     0.116 C 
BRANCH  21  22
ATOM     22  N   UNL A   1      42.039  23.839  26.198  1.00  0.00    -0.352 N 
ATOM     23  C   UNL A   1      41.700  25.171  26.092  1.00  0.00     0.251 C 
ATOM     24  H   UNL A   1      42.171  23.363  25.347  1.00  0.00     0.163 HD
ATOM     25  O   UNL A   1      41.467  25.664  25.000  1.00  0.00    -0.269 OA
BRANCH  23  26
ATOM     26  C   UNL A   1      41.581  25.982  27.325  1.00  0.00     0.039 A 
ATOM     27  C   UNL A   1      42.569  26.930  27.604  1.00  0.00     0.014 A 
ATOM     28  C   UNL A   1      40.486  25.832  28.179  1.00  0.00     0.014 A 
ATOM     29  C   UNL A   1      42.421  27.777  28.704  1.00  0.00     0.010 A 
ATOM     30  C   UNL A   1      40.306  26.722  29.235  1.00  0.00     0.010 A 
ATOM     31  C   UNL A   1      41.270  27.705  29.507  1.00  0.00    -0.014 A 
BRANCH  31  32
ATOM     32  C   UNL A   1      41.051  28.653  30.628  1.00  0.00     0.031 A 
ATOM     33  C   UNL A   1      41.863  28.531  31.889  1.00  0.00     0.074 A 
ATOM     34  C   UNL A   1      40.076  29.579  30.539  1.00  0.00     0.049 A 
ATOM     35  N   UNL A   1      41.764  29.208  33.004  1.00  0.00    -0.248 NA
ATOM     36  C   UNL A   1      42.905  27.491  31.908  1.00  0.00     0.031 C 
ATOM     37  C   UNL A   1      39.185  29.763  29.390  1.00  0.00     0.029 A 
ATOM     38  N   UNL A   1      39.658  30.530  31.436  1.00  0.00    -0.354 N 
ATOM     39  C   UNL A   1      42.719  28.672  33.860  1.00  0.00     0.074 A 
ATOM     40  C   UNL A   1      43.351  27.578  33.152  1.00  0.00     0.031 C 
ATOM     41  C   UNL A   1      38.339  30.774  29.646  1.00  0.00     0.029 A 
ATOM     42  C   UNL A   1      38.601  31.287  30.988  1.00  0.00     0.049 A 
ATOM     43  H   UNL A   1      40.075  30.659  32.319  1.00  0.00     0.167 HD
ATOM     44  C   UNL A   1      43.055  29.068  35.110  1.00  0.00     0.037 A 
ATOM     45  C   UNL A   1      37.914  32.277  31.591  1.00  0.00     0.037 A 
ATOM     46  C   UNL A   1      42.440  30.173  35.799  1.00  0.00     0.049 A 
ATOM     47  C   UNL A   1      38.312  32.708  32.977  1.00  0.00     0.074 A 
ATOM     48  C   UNL A   1      42.745  30.686  37.047  1.00  0.00     0.029 A 
ATOM     49  N   UNL A   1      41.397  30.938  35.297  1.00  0.00    -0.354 N 
ATOM     50  N   UNL A   1      39.256  32.225  33.750  1.00  0.00    -0.248 NA
ATOM     51  C   UNL A   1      37.557  33.819  33.571  1.00  0.00     0.031 C 
ATOM     52  C   UNL A   1      41.863  31.738  37.316  1.00  0.00     0.029 A 
ATOM     53  C   UNL A   1      41.037  31.910  36.215  1.00  0.00     0.049 A 
ATOM     54  H   UNL A   1      40.974  30.808  34.416  1.00  0.00     0.167 HD
ATOM     55  C   UNL A   1      39.226  32.991  34.910  1.00  0.00     0.074 A 
ATOM     56  C   UNL A   1      38.179  33.975  34.733  1.00  0.00     0.031 C 
ATOM     57  C   UNL A   1      39.997  32.889  36.021  1.00  0.00     0.037 A 
BRANCH  44  58
ATOM     58  C   UNL A   1      44.148  28.309  35.810  1.00  0.00     0.058 A 
ATOM     59  C   UNL A   1      43.864  27.214  36.643  1.00  0.00     0.135 A 
ATOM     60  C   UNL A   1      45.495  28.658  35.625  1.00  0.00     0.135 A 
ATOM     61  F   UNL A   1      42.592  26.848  36.867  1.00  0.00    -0.206 F 
ATOM     62  C   UNL A   1      44.874  26.509  37.288  1.00  0.00     0.059 A 
ATOM     63  C   UNL A   1      46.524  27.950  36.240  1.00  0.00     0.059 A 
ATOM     64  F   UNL A   1      45.823  29.697  34.841  1.00  0.00    -0.206 F 
ATOM     65  C   UNL A   1      46.202  26.886  37.082  1.00  0.00     0.060 A 
BRANCH  65  66
ATOM     66  S   UNL A   1      47.502  25.959  37.924  1.00  0.00     0.124 S 
ATOM     67  O   UNL A   1      48.701  26.507  37.296  1.00  0.00    -0.237 OA
ATOM     68  O   UNL A   1      47.295  26.328  39.321  1.00  0.00    -0.237 OA
ATOM     69  O   UNL A   1      47.199  24.571  37.593  1.00  0.00    -0.744 OA
ENDBRANCH  65  66
ENDBRANCH  44  58
BRANCH  45  70
ATOM     70  C   UNL A   1      36.793  32.945  30.878  1.00  0.00     0.058 A 
ATOM     71  C   UNL A   1      35.459  32.644  31.189  1.00  0.00     0.135 A 
ATOM     72  C   UNL A   1      37.032  33.903  29.881  1.00  0.00     0.135 A 
ATOM     73  F   UNL A   1      35.179  31.731  32.131  1.00  0.00    -0.206 F 
ATOM     74  C   UNL A   1      34.400  33.257  30.527  1.00  0.00     0.059 A 
ATOM     75  C   UNL A   1      35.990  34.546  29.221  1.00  0.00     0.059 A 
ATOM     76  F   UNL A   1      38.291  34.238  29.558  1.00  0.00    -0.206 F 
ATOM     77  C   UNL A   1      34.676  34.208  29.543  1.00  0.00     0.060 A 
BRANCH  77  78
ATOM     78  S   UNL A   1      33.294  35.032  28.722  1.00  0.00     0.124 S 
ATOM     79  O   UNL A   1      32.528  35.524  29.861  1.00  0.00    -0.237 OA
ATOM     80  O   UNL A   1      33.972  36.047  27.922  1.00  0.00    -0.237 OA
ATOM     81  O   UNL A   1      32.671  33.956  27.958  1.00  0.00    -0.744 OA
ENDBRANCH  77  78
ENDBRANCH  45  70
BRANCH  57  82
ATOM     82  C   UNL A   1      39.762  33.886  37.120  1.00  0.00     0.058 A 
ATOM     83  C   UNL A   1      38.867  33.629  38.170  1.00  0.00     0.135 A 
ATOM     84  C   UNL A   1      40.483  35.091  37.152  1.00  0.00     0.135 A 
ATOM     85  F   UNL A   1      38.149  32.495  38.183  1.00  0.00    -0.206 F 
ATOM     86  C   UNL A   1      38.679  34.541  39.203  1.00  0.00     0.059 A 
ATOM     87  C   UNL A   1      40.329  36.006  38.188  1.00  0.00     0.059 A 
ATOM     88  F   UNL A   1      41.359  35.380  36.177  1.00  0.00    -0.206 F 
ATOM     89  C   UNL A   1      39.416  35.728  39.204  1.00  0.00     0.060 A 
BRANCH  89  90
ATOM     90  S   UNL A   1      39.191  36.887  40.569  1.00  0.00     0.124 S 
ATOM     91  O   UNL A   1      38.526  36.048  41.560  1.00  0.00    -0.237 OA
ATOM     92  O   UNL A   1      40.563  37.273  40.884  1.00  0.00    -0.237 OA
ATOM     93  O   UNL A   1      38.368  37.943  39.986  1.00  0.00    -0.744 OA
ENDBRANCH  89  90
ENDBRANCH  57  82
ENDBRANCH  31  32
ENDBRANCH  23  26
ENDBRANCH  21  22
ENDBRANCH   1  21
TORSDOF 17
ENDMDL
MODEL 2
REMARK VINA RESULT:     -11.2      4.932     10.347
REMARK SMILES COc1ccc(C(C)(C)C)cc1CC(=O)NCCCCNC(=O)c1ccc(-c2c3nc(c(-c4c(F)cc(S(=O)(=O)[O-])cc4F)c4ccc([nH]4)c(-c4c(F)cc(S(=O)(=O)[O-])cc4F)c4nc(c(-c5c(F)cc(S(=O)(=O)[O-])cc5F)c5ccc2[nH]5)C=C4)C=C3)cc1
REMARK SMILES IDX 19 1 18 2 17 3 16 4 14 5 15 6 13 8 12 9 3 10 4 11 5 12 11 13
REMARK SMILES IDX 6 14 2 15 1 16 7 17 8 18 9 19 10 20 20 21 21 22 22 23 23 25
REMARK SMILES IDX 24 26 25 27 89 28 26 29 88 30 27 31 28 32 29 33 82 34 30 35
REMARK SMILES IDX 87 36 81 37 83 38 31 39 86 40 80 41 79 42 32 44 66 45 45 46
REMARK SMILES IDX 65 47 46 48 49 49 64 50 84 51 47 52 48 53 63 55 85 56 50 57
REMARK SMILES IDX 33 58 34 59 43 60 35 61 36 62 42 63 44 64 37 65 38 66 39 67
REMARK SMILES IDX 40 68 41 69 67 70 68 71 77 72 69 73 70 74 76 75 78 76 71 77
REMARK SMILES IDX 72 78 73 79 74 80 75 81 51 82 52 83 61 84 53 85 54 86 60 87
REMARK SMILES IDX 62 88 55 89 56 90 57 91 58 92 59 93
REMARK H PARENT 16 7 21 24 83 43 49 54
REMARK Flexibility Score: inf
ROOT
ATOM      1  C   UNL A   1      32.420  27.923  26.861  1.00  0.00     0.023 C 
ENDROOT
BRANCH   1   2
ATOM      2  C   UNL A   1      32.500  26.504  26.293  1.00  0.00     0.023 C 
BRANCH   2   3
ATOM      3  C   UNL A   1      31.140  25.871  25.996  1.00  0.00     0.116 C 
BRANCH   3   4
ATOM      4  N   UNL A   1      30.870  24.748  26.870  1.00  0.00    -0.356 N 
ATOM      5  C   UNL A   1      30.813  23.421  26.555  1.00  0.00     0.224 C 
ATOM      6  O   UNL A   1      30.485  22.617  27.429  1.00  0.00    -0.275 OA
ATOM      7  H   UNL A   1      30.706  24.970  27.815  1.00  0.00     0.163 HD
BRANCH   5   8
ATOM      8  C   UNL A   1      31.220  22.949  25.168  1.00  0.00     0.139 C 
BRANCH   8   9
ATOM      9  C   UNL A   1      32.506  22.155  25.122  1.00  0.00     0.004 A 
ATOM     10  C   UNL A   1      33.800  22.692  25.183  1.00  0.00     0.122 A 
ATOM     11  C   UNL A   1      34.898  21.844  24.999  1.00  0.00     0.047 A 
ATOM     12  C   UNL A   1      34.736  20.474  24.787  1.00  0.00     0.008 A 
ATOM     13  C   UNL A   1      32.367  20.754  24.933  1.00  0.00     0.012 A 
ATOM     14  C   UNL A   1      33.462  19.893  24.749  1.00  0.00    -0.042 A 
BRANCH  10  15
ATOM     15  O   UNL A   1      34.166  24.008  25.263  1.00  0.00    -0.496 OA
ATOM     16  C   UNL A   1      34.574  24.674  24.078  1.00  0.00     0.278 C 
ENDBRANCH  10  15
BRANCH  14  17
ATOM     17  C   UNL A   1      33.305  18.384  24.493  1.00  0.00    -0.013 C 
ATOM     18  C   UNL A   1      32.577  17.721  25.683  1.00  0.00     0.016 C 
ATOM     19  C   UNL A   1      32.477  18.166  23.208  1.00  0.00     0.016 C 
ATOM     20  C   UNL A   1      34.644  17.634  24.308  1.00  0.00     0.016 C 
ENDBRANCH  14  17
ENDBRANCH   8   9
ENDBRANCH   5   8
ENDBRANCH   3   4
ENDBRANCH   2   3
ENDBRANCH   1   2
BRANCH   1  21
ATOM     21  C   UNL A   1      33.766  28.595  27.108  1.00  0.00     0.116 C 
BRANCH  21  22
ATOM     22  N   UNL A   1      33.646  29.968  27.572  1.00  0.00    -0.352 N 
ATOM     23  C   UNL A   1      34.582  30.734  28.232  1.00  0.00     0.251 C 
ATOM     24  H   UNL A   1      32.783  30.407  27.394  1.00  0.00     0.163 HD
ATOM     25  O   UNL A   1      34.286  31.838  28.659  1.00  0.00    -0.269 OA
BRANCH  23  26
ATOM     26  C   UNL A   1      35.939  30.181  28.449  1.00  0.00     0.039 A 
ATOM     27  C   UNL A   1      36.860  30.230  27.401  1.00  0.00     0.014 A 
ATOM     28  C   UNL A   1      36.306  29.653  29.689  1.00  0.00     0.014 A 
ATOM     29  C   UNL A   1      38.175  29.811  27.618  1.00  0.00     0.010 A 
ATOM     30  C   UNL A   1      37.633  29.299  29.923  1.00  0.00     0.010 A 
ATOM     31  C   UNL A   1      38.581  29.378  28.892  1.00  0.00    -0.014 A 
BRANCH  31  32
ATOM     32  C   UNL A   1      39.993  29.011  29.167  1.00  0.00     0.031 A 
ATOM     33  C   UNL A   1      40.937  30.029  29.748  1.00  0.00     0.074 A 
ATOM     34  C   UNL A   1      40.444  27.788  28.828  1.00  0.00     0.049 A 
ATOM     35  N   UNL A   1      42.220  29.926  29.982  1.00  0.00    -0.248 NA
ATOM     36  C   UNL A   1      40.369  31.344  30.086  1.00  0.00     0.031 C 
ATOM     37  C   UNL A   1      39.640  26.731  28.208  1.00  0.00     0.029 A 
ATOM     38  N   UNL A   1      41.692  27.228  28.942  1.00  0.00    -0.354 N 
ATOM     39  C   UNL A   1      42.615  31.161  30.481  1.00  0.00     0.074 A 
ATOM     40  C   UNL A   1      41.445  32.014  30.468  1.00  0.00     0.031 C 
ATOM     41  C   UNL A   1      40.410  25.649  28.011  1.00  0.00     0.029 A 
ATOM     42  C   UNL A   1      41.769  25.943  28.458  1.00  0.00     0.049 A 
ATOM     43  H   UNL A   1      42.461  27.702  29.333  1.00  0.00     0.167 HD
ATOM     44  C   UNL A   1      43.833  31.544  30.933  1.00  0.00     0.037 A 
ATOM     45  C   UNL A   1      42.816  25.100  28.374  1.00  0.00     0.037 A 
ATOM     46  C   UNL A   1      44.987  30.683  30.968  1.00  0.00     0.049 A 
ATOM     47  C   UNL A   1      44.159  25.543  28.891  1.00  0.00     0.074 A 
ATOM     48  C   UNL A   1      46.253  30.960  31.453  1.00  0.00     0.029 A 
ATOM     49  N   UNL A   1      45.016  29.377  30.500  1.00  0.00    -0.354 N 
ATOM     50  N   UNL A   1      44.500  26.697  29.413  1.00  0.00    -0.248 NA
ATOM     51  C   UNL A   1      45.256  24.568  28.814  1.00  0.00     0.031 C 
ATOM     52  C   UNL A   1      47.057  29.833  31.248  1.00  0.00     0.029 A 
ATOM     53  C   UNL A   1      46.280  28.839  30.675  1.00  0.00     0.049 A 
ATOM     54  H   UNL A   1      44.249  28.902  30.103  1.00  0.00     0.167 HD
ATOM     55  C   UNL A   1      45.844  26.578  29.750  1.00  0.00     0.074 A 
ATOM     56  C   UNL A   1      46.249  25.238  29.384  1.00  0.00     0.031 C 
ATOM     57  C   UNL A   1      46.666  27.498  30.313  1.00  0.00     0.037 A 
BRANCH  44  58
ATOM     58  C   UNL A   1      43.978  32.952  31.438  1.00  0.00     0.058 A 
ATOM     59  C   UNL A   1      43.701  33.285  32.775  1.00  0.00     0.135 A 
ATOM     60  C   UNL A   1      44.426  33.976  30.589  1.00  0.00     0.135 A 
ATOM     61  F   UNL A   1      43.254  32.348  33.626  1.00  0.00    -0.206 F 
ATOM     62  C   UNL A   1      43.838  34.587  33.243  1.00  0.00     0.059 A 
ATOM     63  C   UNL A   1      44.595  35.281  31.044  1.00  0.00     0.059 A 
ATOM     64  F   UNL A   1      44.703  33.714  29.302  1.00  0.00    -0.206 F 
ATOM     65  C   UNL A   1      44.284  35.579  32.370  1.00  0.00     0.060 A 
BRANCH  65  66
ATOM     66  S   UNL A   1      44.459  37.264  32.995  1.00  0.00     0.124 S 
ATOM     67  O   UNL A   1      43.722  37.184  34.252  1.00  0.00    -0.237 OA
ATOM     68  O   UNL A   1      45.907  37.402  33.119  1.00  0.00    -0.237 OA
ATOM     69  O   UNL A   1      43.840  38.079  31.955  1.00  0.00    -0.744 OA
ENDBRANCH  65  66
ENDBRANCH  44  58
BRANCH  45  70
ATOM     70  C   UNL A   1      42.632  23.741  27.797  1.00  0.00     0.058 A 
ATOM     71  C   UNL A   1      42.497  22.617  28.626  1.00  0.00     0.135 A 
ATOM     72  C   UNL A   1      42.576  23.541  26.409  1.00  0.00     0.135 A 
ATOM     73  F   UNL A   1      42.549  22.757  29.958  1.00  0.00    -0.206 F 
ATOM     74  C   UNL A   1      42.329  21.341  28.099  1.00  0.00     0.059 A 
ATOM     75  C   UNL A   1      42.385  22.277  25.860  1.00  0.00     0.059 A 
ATOM     76  F   UNL A   1      42.683  24.587  25.574  1.00  0.00    -0.206 F 
ATOM     77  C   UNL A   1      42.274  21.181  26.714  1.00  0.00     0.060 A 
BRANCH  77  78
ATOM     78  S   UNL A   1      42.009  19.525  26.042  1.00  0.00     0.124 S 
ATOM     79  O   UNL A   1      42.837  19.559  24.843  1.00  0.00    -0.237 OA
ATOM     80  O   UNL A   1      42.489  18.673  27.126  1.00  0.00    -0.237 OA
ATOM     81  O   UNL A   1      40.567  19.484  25.815  1.00  0.00    -0.744 OA
ENDBRANCH  77  78
ENDBRANCH  45  70
BRANCH  57  82
ATOM     82  C   UNL A   1      48.080  27.078  30.599  1.00  0.00     0.058 A 
ATOM     83  C   UNL A   1      49.092  27.182  29.632  1.00  0.00     0.135 A 
ATOM     84  C   UNL A   1      48.438  26.614  31.876  1.00  0.00     0.135 A 
ATOM     85  F   UNL A   1      48.801  27.613  28.395  1.00  0.00    -0.206 F 
ATOM     86  C   UNL A   1      50.405  26.823  29.914  1.00  0.00     0.059 A 
ATOM     87  C   UNL A   1      49.751  26.274  32.187  1.00  0.00     0.059 A 
ATOM     88  F   UNL A   1      47.510  26.506  32.839  1.00  0.00    -0.206 F 
ATOM     89  C   UNL A   1      50.726  26.371  31.196  1.00  0.00     0.060 A 
BRANCH  89  90
ATOM     90  S   UNL A   1      52.441  25.943  31.561  1.00  0.00     0.124 S 
ATOM     91  O   UNL A   1      52.312  24.556  31.995  1.00  0.00    -0.237 OA
ATOM     92  O   UNL A   1      53.096  26.145  30.272  1.00  0.00    -0.237 OA
ATOM     93  O   UNL A   1      52.815  26.896  32.602  1.00  0.00    -0.744 OA
ENDBRANCH  89  90
ENDBRANCH  57  82
ENDBRANCH  31  32
ENDBRANCH  23  26
ENDBRANCH  21  22
ENDBRANCH   1  21
TORSDOF 17
ENDMDL
MODEL 3
REMARK VINA RESULT:     -11.1      4.920     10.496
REMARK SMILES COc1ccc(C(C)(C)C)cc1CC(=O)NCCCCNC(=O)c1ccc(-c2c3nc(c(-c4c(F)cc(S(=O)(=O)[O-])cc4F)c4ccc([nH]4)c(-c4c(F)cc(S(=O)(=O)[O-])cc4F)c4nc(c(-c5c(F)cc(S(=O)(=O)[O-])cc5F)c5ccc2[nH]5)C=C4)C=C3)cc1
REMARK SMILES IDX 19 1 18 2 17 3 16 4 14 5 15 6 13 8 12 9 3 10 4 11 5 12 11 13
REMARK SMILES IDX 6 14 2 15 1 16 7 17 8 18 9 19 10 20 20 21 21 22 22 23 23 25
REMARK SMILES IDX 24 26 25 27 89 28 26 29 88 30 27 31 28 32 29 33 82 34 30 35
REMARK SMILES IDX 87 36 81 37 83 38 31 39 86 40 80 41 79 42 32 44 66 45 45 46
REMARK SMILES IDX 65 47 46 48 49 49 64 50 84 51 47 52 48 53 63 55 85 56 50 57
REMARK SMILES IDX 33 58 34 59 43 60 35 61 36 62 42 63 44 64 37 65 38 66 39 67
REMARK SMILES IDX 40 68 41 69 67 70 68 71 77 72 69 73 70 74 76 75 78 76 71 77
REMARK SMILES IDX 72 78 73 79 74 80 75 81 51 82 52 83 61 84 53 85 54 86 60 87
REMARK SMILES IDX 62 88 55 89 56 90 57 91 58 92 59 93
REMARK H PARENT 16 7 21 24 83 43 49 54
REMARK Flexibility Score: inf
ROOT
ATOM      1  C   UNL A   1      32.905  28.051  25.613  1.00  0.00     0.023 C 
ENDROOT
BRANCH   1   2
ATOM      2  C   UNL A   1      33.592  27.972  24.248  1.00  0.00     0.023 C 
BRANCH   2   3
ATOM      3  C   UNL A   1      32.635  28.068  23.059  1.00  0.00     0.116 C 
BRANCH   3   4
ATOM      4  N   UNL A   1      33.132  27.334  21.912  1.00  0.00    -0.356 N 
ATOM      5  C   UNL A   1      32.859  26.049  21.543  1.00  0.00     0.224 C 
ATOM      6  O   UNL A   1      33.450  25.572  20.572  1.00  0.00    -0.275 OA
ATOM      7  H   UNL A   1      33.747  27.827  21.322  1.00  0.00     0.163 HD
BRANCH   5   8
ATOM      8  C   UNL A   1      31.792  25.255  22.279  1.00  0.00     0.139 C 
BRANCH   8   9
ATOM      9  C   UNL A   1      32.258  24.610  23.566  1.00  0.00     0.004 A 
ATOM     10  C   UNL A   1      31.528  24.555  24.762  1.00  0.00     0.122 A 
ATOM     11  C   UNL A   1      32.140  24.040  25.909  1.00  0.00     0.047 A 
ATOM     12  C   UNL A   1      33.448  23.551  25.883  1.00  0.00     0.008 A 
ATOM     13  C   UNL A   1      33.577  24.083  23.557  1.00  0.00     0.012 A 
ATOM     14  C   UNL A   1      34.200  23.560  24.702  1.00  0.00    -0.042 A 
BRANCH  10  15
ATOM     15  O   UNL A   1      30.293  25.082  25.023  1.00  0.00    -0.496 OA
ATOM     16  C   UNL A   1      30.111  25.834  26.213  1.00  0.00     0.278 C 
ENDBRANCH  10  15
BRANCH  14  17
ATOM     17  C   UNL A   1      35.648  23.037  24.700  1.00  0.00    -0.013 C 
ATOM     18  C   UNL A   1      35.675  21.565  25.168  1.00  0.00     0.016 C 
ATOM     19  C   UNL A   1      36.223  23.124  23.271  1.00  0.00     0.016 C 
ATOM     20  C   UNL A   1      36.602  23.824  25.627  1.00  0.00     0.016 C 
ENDBRANCH  14  17
ENDBRANCH   8   9
ENDBRANCH   5   8
ENDBRANCH   3   4
ENDBRANCH   2   3
ENDBRANCH   1   2
BRANCH   1  21
ATOM     21  C   UNL A   1      33.828  28.382  26.781  1.00  0.00     0.116 C 
BRANCH  21  22
ATOM     22  N   UNL A   1      33.638  29.728  27.298  1.00  0.00    -0.352 N 
ATOM     23  C   UNL A   1      34.520  30.498  28.025  1.00  0.00     0.251 C 
ATOM     24  H   UNL A   1      32.767  30.143  27.105  1.00  0.00     0.163 HD
ATOM     25  O   UNL A   1      34.168  31.571  28.487  1.00  0.00    -0.269 OA
BRANCH  23  26
ATOM     26  C   UNL A   1      35.888  29.985  28.271  1.00  0.00     0.039 A 
ATOM     27  C   UNL A   1      36.837  30.087  27.252  1.00  0.00     0.014 A 
ATOM     28  C   UNL A   1      36.237  29.442  29.509  1.00  0.00     0.014 A 
ATOM     29  C   UNL A   1      38.158  29.707  27.499  1.00  0.00     0.010 A 
ATOM     30  C   UNL A   1      37.567  29.127  29.775  1.00  0.00     0.010 A 
ATOM     31  C   UNL A   1      38.541  29.259  28.775  1.00  0.00    -0.014 A 
BRANCH  31  32
ATOM     32  C   UNL A   1      39.957  28.934  29.084  1.00  0.00     0.031 A 
ATOM     33  C   UNL A   1      40.852  29.972  29.703  1.00  0.00     0.074 A 
ATOM     34  C   UNL A   1      40.454  27.729  28.742  1.00  0.00     0.049 A 
ATOM     35  N   UNL A   1      42.131  29.906  29.970  1.00  0.00    -0.248 NA
ATOM     36  C   UNL A   1      40.234  31.264  30.042  1.00  0.00     0.031 C 
ATOM     37  C   UNL A   1      39.701  26.656  28.088  1.00  0.00     0.029 A 
ATOM     38  N   UNL A   1      41.716  27.207  28.884  1.00  0.00    -0.354 N 
ATOM     39  C   UNL A   1      42.473  31.147  30.496  1.00  0.00     0.074 A 
ATOM     40  C   UNL A   1      41.278  31.963  30.460  1.00  0.00     0.031 C 
ATOM     41  C   UNL A   1      40.510  25.601  27.899  1.00  0.00     0.029 A 
ATOM     42  C   UNL A   1      41.846  25.931  28.386  1.00  0.00     0.049 A 
ATOM     43  H   UNL A   1      42.459  27.699  29.302  1.00  0.00     0.167 HD
ATOM     44  C   UNL A   1      43.666  31.561  30.985  1.00  0.00     0.037 A 
ATOM     45  C   UNL A   1      42.922  25.122  28.321  1.00  0.00     0.037 A 
ATOM     46  C   UNL A   1      44.845  30.736  31.041  1.00  0.00     0.049 A 
ATOM     47  C   UNL A   1      44.235  25.600  28.879  1.00  0.00     0.074 A 
ATOM     48  C   UNL A   1      46.088  31.046  31.564  1.00  0.00     0.029 A 
ATOM     49  N   UNL A   1      44.927  29.437  30.558  1.00  0.00    -0.354 N 
ATOM     50  N   UNL A   1      44.526  26.757  29.424  1.00  0.00    -0.248 NA
ATOM     51  C   UNL A   1      45.364  24.661  28.820  1.00  0.00     0.031 C 
ATOM     52  C   UNL A   1      46.932  29.948  31.367  1.00  0.00     0.029 A 
ATOM     53  C   UNL A   1      46.203  28.937  30.761  1.00  0.00     0.049 A 
ATOM     54  H   UNL A   1      44.187  28.944  30.135  1.00  0.00     0.167 HD
ATOM     55  C   UNL A   1      45.863  26.676  29.797  1.00  0.00     0.074 A 
ATOM     56  C   UNL A   1      46.320  25.354  29.426  1.00  0.00     0.031 C 
ATOM     57  C   UNL A   1      46.641  27.614  30.393  1.00  0.00     0.037 A 
BRANCH  44  58
ATOM     58  C   UNL A   1      43.753  32.967  31.510  1.00  0.00     0.058 A 
ATOM     59  C   UNL A   1      44.025  34.053  30.662  1.00  0.00     0.135 A 
ATOM     60  C   UNL A   1      43.530  33.239  32.869  1.00  0.00     0.135 A 
ATOM     61  F   UNL A   1      44.261  33.847  29.356  1.00  0.00    -0.206 F 
ATOM     62  C   UNL A   1      44.102  35.354  31.147  1.00  0.00     0.059 A 
ATOM     63  C   UNL A   1      43.576  34.537  33.372  1.00  0.00     0.059 A 
ATOM     64  F   UNL A   1      43.268  32.238  33.725  1.00  0.00    -0.206 F 
ATOM     65  C   UNL A   1      43.878  35.586  32.505  1.00  0.00     0.060 A 
BRANCH  65  66
ATOM     66  S   UNL A   1      43.977  37.280  33.118  1.00  0.00     0.124 S 
ATOM     67  O   UNL A   1      43.943  38.041  31.872  1.00  0.00    -0.237 OA
ATOM     68  O   UNL A   1      42.783  37.381  33.953  1.00  0.00    -0.237 OA
ATOM     69  O   UNL A   1      45.246  37.309  33.836  1.00  0.00    -0.744 OA
ENDBRANCH  65  66
ENDBRANCH  44  58
BRANCH  45  70
ATOM     70  C   UNL A   1      42.796  23.766  27.723  1.00  0.00     0.058 A 
ATOM     71  C   UNL A   1      42.964  23.567  26.344  1.00  0.00     0.135 A 
ATOM     72  C   UNL A   1      42.516  22.643  28.516  1.00  0.00     0.135 A 
ATOM     73  F   UNL A   1      43.227  24.610  25.543  1.00  0.00    -0.206 F 
ATOM     74  C   UNL A   1      42.844  22.305  25.771  1.00  0.00     0.059 A 
ATOM     75  C   UNL A   1      42.414  21.368  27.969  1.00  0.00     0.059 A 
ATOM     76  F   UNL A   1      42.362  22.779  29.843  1.00  0.00    -0.206 F 
ATOM     77  C   UNL A   1      42.569  21.211  26.593  1.00  0.00     0.060 A 
BRANCH  77  78
ATOM     78  S   UNL A   1      42.461  19.571  25.844  1.00  0.00     0.124 S 
ATOM     79  O   UNL A   1      42.821  18.712  26.966  1.00  0.00    -0.237 OA
ATOM     80  O   UNL A   1      41.066  19.517  25.419  1.00  0.00    -0.237 OA
ATOM     81  O   UNL A   1      43.436  19.635  24.759  1.00  0.00    -0.744 OA
ENDBRANCH  77  78
ENDBRANCH  45  70
BRANCH  57  82
ATOM     82  C   UNL A   1      48.059  27.234  30.713  1.00  0.00     0.058 A 
ATOM     83  C   UNL A   1      48.386  26.506  31.867  1.00  0.00     0.135 A 
ATOM     84  C   UNL A   1      49.098  27.556  29.824  1.00  0.00     0.135 A 
ATOM     85  F   UNL A   1      47.431  26.178  32.752  1.00  0.00    -0.206 F 
ATOM     86  C   UNL A   1      49.696  26.128  32.140  1.00  0.00     0.059 A 
ATOM     87  C   UNL A   1      50.411  27.166  30.064  1.00  0.00     0.059 A 
ATOM     88  F   UNL A   1      48.836  28.242  28.700  1.00  0.00    -0.206 F 
ATOM     89  C   UNL A   1      50.703  26.462  31.231  1.00  0.00     0.060 A 
BRANCH  89  90
ATOM     90  S   UNL A   1      52.394  25.933  31.578  1.00  0.00     0.124 S 
ATOM     91  O   UNL A   1      52.183  24.570  32.056  1.00  0.00    -0.237 OA
ATOM     92  O   UNL A   1      53.035  26.055  30.273  1.00  0.00    -0.237 OA
ATOM     93  O   UNL A   1      52.848  26.889  32.584  1.00  0.00    -0.744 OA
ENDBRANCH  89  90
ENDBRANCH  57  82
ENDBRANCH  31  32
ENDBRANCH  23  26
ENDBRANCH  21  22
ENDBRANCH   1  21
TORSDOF 17
ENDMDL
