MODEL 1
REMARK VINA RESULT:     -11.7      0.000      0.000
REMARK SMILES Cc1ccc(Cl)c(Nc2ccccc2C(=O)N[C@@H](C)C(=O)NCCCCNC(=O)c2ccc(-c3c4nc(c(-c5c(F)cc(S(=O)(=O)[O-])cc5F)c5ccc([nH]5)c(-c5c(F)cc(S(=O)(=O)[O-])cc5F)c5nc(c(-c6c(F)cc(S(=O)(=O)[O-])cc6F)c6ccc3[nH]6)C=C5)C=C4)cc2)c1Cl
REMARK SMILES IDX 24 1 23 2 22 3 20 4 21 5 18 7 19 8 17 9 15 10 16 11 14 13
REMARK SMILES IDX 9 14 10 15 11 16 13 17 12 18 8 19 7 21 1 22 2 23 3 24 96 25
REMARK SMILES IDX 4 26 97 27 5 28 6 29 25 30 26 31 27 32 28 33 29 35 30 36
REMARK SMILES IDX 31 37 95 38 32 39 94 40 33 41 34 42 35 43 88 44 36 45 93 46
REMARK SMILES IDX 87 47 89 48 37 49 92 50 86 51 85 52 38 54 72 55 51 56 71 57
REMARK SMILES IDX 52 58 55 59 70 60 90 61 53 62 54 63 69 65 91 66 56 67 39 68
REMARK SMILES IDX 40 69 49 70 41 71 42 72 48 73 50 74 43 75 44 76 45 77 46 78
REMARK SMILES IDX 47 79 73 80 74 81 83 82 75 83 76 84 82 85 84 86 77 87 78 88
REMARK SMILES IDX 79 89 80 90 81 91 57 92 58 93 67 94 59 95 60 96 66 97 68 98
REMARK SMILES IDX 61 99 62 100 63 101 64 102 65 103
REMARK H PARENT 22 6 17 12 8 20 27 34 89 53 55 64
REMARK Flexibility Score: inf
ROOT
ATOM      1  C   UNL A   1      40.935  21.554  27.592  1.00  0.00     0.023 C 
ENDROOT
BRANCH   1   2
ATOM      2  C   UNL A   1      39.933  21.698  26.435  1.00  0.00     0.116 C 
BRANCH   2   3
ATOM      3  N   UNL A   1      38.712  22.375  26.823  1.00  0.00    -0.354 N 
ATOM      4  C   UNL A   1      38.011  22.993  25.829  1.00  0.00     0.242 C 
ATOM      5  O   UNL A   1      38.349  24.139  25.537  1.00  0.00    -0.273 OA
ATOM      6  H   UNL A   1      38.404  22.388  27.758  1.00  0.00     0.163 HD
BRANCH   4   7
ATOM      7  C   UNL A   1      36.891  22.225  25.090  1.00  0.00     0.168 C 
ATOM      8  C   UNL A   1      36.608  22.655  23.660  1.00  0.00     0.041 C 
BRANCH   7   9
ATOM      9  N   UNL A   1      35.737  22.377  25.960  1.00  0.00    -0.340 N 
ATOM     10  C   UNL A   1      34.762  21.439  26.223  1.00  0.00     0.254 C 
ATOM     11  O   UNL A   1      34.363  21.400  27.392  1.00  0.00    -0.269 OA
ATOM     12  H   UNL A   1      35.643  23.247  26.413  1.00  0.00     0.164 HD
BRANCH  10  13
ATOM     13  C   UNL A   1      33.972  20.723  25.167  1.00  0.00     0.063 A 
ATOM     14  C   UNL A   1      32.840  21.112  24.418  1.00  0.00     0.051 A 
ATOM     15  C   UNL A   1      32.230  20.142  23.583  1.00  0.00     0.027 A 
ATOM     16  C   UNL A   1      32.751  18.861  23.414  1.00  0.00     0.002 A 
ATOM     17  C   UNL A   1      34.495  19.418  24.955  1.00  0.00     0.016 A 
ATOM     18  C   UNL A   1      33.906  18.505  24.083  1.00  0.00     0.001 A 
BRANCH  14  19
ATOM     19  N   UNL A   1      32.275  22.396  24.292  1.00  0.00    -0.352 N 
ATOM     20  H   UNL A   1      31.295  22.374  24.192  1.00  0.00     0.167 HD
BRANCH  19  21
ATOM     21  C   UNL A   1      32.801  23.716  24.276  1.00  0.00     0.077 A 
ATOM     22  C   UNL A   1      32.775  27.026  26.213  1.00  0.00     0.046 C 
ATOM     23  C   UNL A   1      33.062  25.999  25.150  1.00  0.00    -0.030 A 
ATOM     24  C   UNL A   1      33.528  26.434  23.900  1.00  0.00     0.006 A 
ATOM     25  C   UNL A   1      32.759  24.628  25.351  1.00  0.00     0.069 A 
ATOM     26  C   UNL A   1      33.675  25.533  22.853  1.00  0.00     0.023 A 
ATOM     27  Cl  UNL A   1      32.407  24.102  26.969  1.00  0.00    -0.082 Cl
ATOM     28  C   UNL A   1      33.300  24.201  23.037  1.00  0.00     0.066 A 
ATOM     29  Cl  UNL A   1      33.404  23.152  21.655  1.00  0.00    -0.082 Cl
ENDBRANCH  19  21
ENDBRANCH  14  19
ENDBRANCH  10  13
ENDBRANCH   7   9
ENDBRANCH   4   7
ENDBRANCH   2   3
ENDBRANCH   1   2
BRANCH   1  30
ATOM     30  C   UNL A   1      42.398  21.810  27.225  1.00  0.00     0.023 C 
BRANCH  30  31
ATOM     31  C   UNL A   1      42.837  23.264  27.338  1.00  0.00     0.116 C 
BRANCH  31  32
ATOM     32  N   UNL A   1      42.536  24.028  26.136  1.00  0.00    -0.352 N 
ATOM     33  C   UNL A   1      42.038  25.298  26.003  1.00  0.00     0.251 C 
ATOM     34  H   UNL A   1      42.718  23.561  25.289  1.00  0.00     0.163 HD
ATOM     35  O   UNL A   1      41.715  25.717  24.902  1.00  0.00    -0.269 OA
BRANCH  33  36
ATOM     36  C   UNL A   1      41.878  26.133  27.206  1.00  0.00     0.039 A 
ATOM     37  C   UNL A   1      42.774  27.180  27.414  1.00  0.00     0.014 A 
ATOM     38  C   UNL A   1      40.834  25.890  28.102  1.00  0.00     0.014 A 
ATOM     39  C   UNL A   1      42.592  28.027  28.506  1.00  0.00     0.010 A 
ATOM     40  C   UNL A   1      40.609  26.780  29.143  1.00  0.00     0.010 A 
ATOM     41  C   UNL A   1      41.490  27.851  29.357  1.00  0.00    -0.014 A 
BRANCH  41  42
ATOM     42  C   UNL A   1      41.244  28.768  30.494  1.00  0.00     0.031 A 
ATOM     43  C   UNL A   1      42.061  28.633  31.746  1.00  0.00     0.074 A 
ATOM     44  C   UNL A   1      40.240  29.664  30.418  1.00  0.00     0.049 A 
ATOM     45  N   UNL A   1      41.936  29.261  32.885  1.00  0.00    -0.248 NA
ATOM     46  C   UNL A   1      43.146  27.636  31.727  1.00  0.00     0.031 C 
ATOM     47  C   UNL A   1      39.359  29.853  29.263  1.00  0.00     0.029 A 
ATOM     48  N   UNL A   1      39.783  30.573  31.336  1.00  0.00    -0.354 N 
ATOM     49  C   UNL A   1      42.910  28.728  33.720  1.00  0.00     0.074 A 
ATOM     50  C   UNL A   1      43.582  27.686  32.976  1.00  0.00     0.031 C 
ATOM     51  C   UNL A   1      38.480  30.830  29.536  1.00  0.00     0.029 A 
ATOM     52  C   UNL A   1      38.704  31.304  30.898  1.00  0.00     0.049 A 
ATOM     53  H   UNL A   1      40.189  30.693  32.225  1.00  0.00     0.167 HD
ATOM     54  C   UNL A   1      43.228  29.091  34.984  1.00  0.00     0.037 A 
ATOM     55  C   UNL A   1      37.970  32.240  31.530  1.00  0.00     0.037 A 
ATOM     56  C   UNL A   1      42.564  30.148  35.702  1.00  0.00     0.049 A 
ATOM     57  C   UNL A   1      38.336  32.620  32.939  1.00  0.00     0.074 A 
ATOM     58  C   UNL A   1      42.840  30.632  36.968  1.00  0.00     0.029 A 
ATOM     59  N   UNL A   1      41.491  30.883  35.216  1.00  0.00    -0.354 N 
ATOM     60  N   UNL A   1      39.295  32.143  33.698  1.00  0.00    -0.248 NA
ATOM     61  C   UNL A   1      37.529  33.668  33.576  1.00  0.00     0.031 C 
ATOM     62  C   UNL A   1      41.902  31.625  37.268  1.00  0.00     0.029 A 
ATOM     63  C   UNL A   1      41.080  31.803  36.165  1.00  0.00     0.049 A 
ATOM     64  H   UNL A   1      41.083  30.768  34.328  1.00  0.00     0.167 HD
ATOM     65  C   UNL A   1      39.229  32.858  34.888  1.00  0.00     0.074 A 
ATOM     66  C   UNL A   1      38.139  33.802  34.747  1.00  0.00     0.031 C 
ATOM     67  C   UNL A   1      40.003  32.747  35.996  1.00  0.00     0.037 A 
BRANCH  54  68
ATOM     68  C   UNL A   1      44.339  28.343  35.670  1.00  0.00     0.058 A 
ATOM     69  C   UNL A   1      44.089  27.205  36.454  1.00  0.00     0.135 A 
ATOM     70  C   UNL A   1      45.673  28.752  35.516  1.00  0.00     0.135 A 
ATOM     71  F   UNL A   1      42.831  26.780  36.650  1.00  0.00    -0.206 F 
ATOM     72  C   UNL A   1      45.120  26.516  37.085  1.00  0.00     0.059 A 
ATOM     73  C   UNL A   1      46.723  28.059  36.112  1.00  0.00     0.059 A 
ATOM     74  F   UNL A   1      45.969  29.835  34.781  1.00  0.00    -0.206 F 
ATOM     75  C   UNL A   1      46.435  26.950  36.906  1.00  0.00     0.060 A 
BRANCH  75  76
ATOM     76  S   UNL A   1      47.760  26.041  37.726  1.00  0.00     0.124 S 
ATOM     77  O   UNL A   1      47.424  26.241  39.132  1.00  0.00    -0.237 OA
ATOM     78  O   UNL A   1      47.571  24.687  37.216  1.00  0.00    -0.237 OA
ATOM     79  O   UNL A   1      48.971  26.716  37.269  1.00  0.00    -0.744 OA
ENDBRANCH  75  76
ENDBRANCH  54  68
BRANCH  55  80
ATOM     80  C   UNL A   1      36.832  32.891  30.828  1.00  0.00     0.058 A 
ATOM     81  C   UNL A   1      37.047  33.946  29.930  1.00  0.00     0.135 A 
ATOM     82  C   UNL A   1      35.510  32.463  31.028  1.00  0.00     0.135 A 
ATOM     83  F   UNL A   1      38.292  34.394  29.707  1.00  0.00    -0.206 F 
ATOM     84  C   UNL A   1      35.992  34.568  29.269  1.00  0.00     0.059 A 
ATOM     85  C   UNL A   1      34.441  33.049  30.357  1.00  0.00     0.059 A 
ATOM     86  F   UNL A   1      35.251  31.444  31.863  1.00  0.00    -0.206 F 
ATOM     87  C   UNL A   1      34.692  34.110  29.488  1.00  0.00     0.060 A 
BRANCH  87  88
ATOM     88  S   UNL A   1      33.335  34.898  28.594  1.00  0.00     0.124 S 
ATOM     89  O   UNL A   1      32.539  35.442  29.689  1.00  0.00    -0.237 OA
ATOM     90  O   UNL A   1      34.040  35.875  27.770  1.00  0.00    -0.237 OA
ATOM     91  O   UNL A   1      32.729  33.791  27.861  1.00  0.00    -0.744 OA
ENDBRANCH  87  88
ENDBRANCH  55  80
BRANCH  67  92
ATOM     92  C   UNL A   1      39.740  33.703  37.127  1.00  0.00     0.058 A 
ATOM     93  C   UNL A   1      38.893  33.375  38.196  1.00  0.00     0.135 A 
ATOM     94  C   UNL A   1      40.406  34.940  37.172  1.00  0.00     0.135 A 
ATOM     95  F   UNL A   1      38.228  32.209  38.198  1.00  0.00    -0.206 F 
ATOM     96  C   UNL A   1      38.701  34.246  39.263  1.00  0.00     0.059 A 
ATOM     97  C   UNL A   1      40.252  35.813  38.244  1.00  0.00     0.059 A 
ATOM     98  F   UNL A   1      41.236  35.298  36.179  1.00  0.00    -0.206 F 
ATOM     99  C   UNL A   1      39.390  35.461  39.281  1.00  0.00     0.060 A 
BRANCH  99 100
ATOM    100  S   UNL A   1      39.170  36.559  40.695  1.00  0.00     0.124 S 
ATOM    101  O   UNL A   1      38.686  37.775  40.052  1.00  0.00    -0.237 OA
ATOM    102  O   UNL A   1      38.192  35.836  41.502  1.00  0.00    -0.237 OA
ATOM    103  O   UNL A   1      40.509  36.645  41.273  1.00  0.00    -0.744 OA
ENDBRANCH  99 100
ENDBRANCH  67  92
ENDBRANCH  41  42
ENDBRANCH  33  36
ENDBRANCH  31  32
ENDBRANCH  30  31
ENDBRANCH   1  30
TORSDOF 18
ENDMDL
MODEL 2
REMARK VINA RESULT:     -11.7      0.378      8.114
REMARK SMILES Cc1ccc(Cl)c(Nc2ccccc2C(=O)N[C@@H](C)C(=O)NCCCCNC(=O)c2ccc(-c3c4nc(c(-c5c(F)cc(S(=O)(=O)[O-])cc5F)c5ccc([nH]5)c(-c5c(F)cc(S(=O)(=O)[O-])cc5F)c5nc(c(-c6c(F)cc(S(=O)(=O)[O-])cc6F)c6ccc3[nH]6)C=C5)C=C4)cc2)c1Cl
REMARK SMILES IDX 24 1 23 2 22 3 20 4 21 5 18 7 19 8 17 9 15 10 16 11 14 13
REMARK SMILES IDX 9 14 10 15 11 16 13 17 12 18 8 19 7 21 1 22 2 23 3 24 96 25
REMARK SMILES IDX 4 26 97 27 5 28 6 29 25 30 26 31 27 32 28 33 29 35 30 36
REMARK SMILES IDX 31 37 95 38 32 39 94 40 33 41 34 42 35 43 88 44 36 45 93 46
REMARK SMILES IDX 87 47 89 48 37 49 92 50 86 51 85 52 38 54 72 55 51 56 71 57
REMARK SMILES IDX 52 58 55 59 70 60 90 61 53 62 54 63 69 65 91 66 56 67 39 68
REMARK SMILES IDX 40 69 49 70 41 71 42 72 48 73 50 74 43 75 44 76 45 77 46 78
REMARK SMILES IDX 47 79 73 80 74 81 83 82 75 83 76 84 82 85 84 86 77 87 78 88
REMARK SMILES IDX 79 89 80 90 81 91 57 92 58 93 67 94 59 95 60 96 66 97 68 98
REMARK SMILES IDX 61 99 62 100 63 101 64 102 65 103
REMARK H PARENT 22 6 17 12 8 20 27 34 89 53 55 64
REMARK Flexibility Score: inf
ROOT
ATOM      1  C   UNL A   1      40.951  22.117  27.730  1.00  0.00     0.023 C 
ENDROOT
BRANCH   1   2
ATOM      2  C   UNL A   1      39.899  21.979  26.617  1.00  0.00     0.116 C 
BRANCH   2   3
ATOM      3  N   UNL A   1      38.649  22.640  26.933  1.00  0.00    -0.354 N 
ATOM      4  C   UNL A   1      37.940  23.146  25.882  1.00  0.00     0.242 C 
ATOM      5  O   UNL A   1      38.241  24.275  25.498  1.00  0.00    -0.273 OA
ATOM      6  H   UNL A   1      38.327  22.720  27.860  1.00  0.00     0.163 HD
BRANCH   4   7
ATOM      7  C   UNL A   1      36.860  22.277  25.198  1.00  0.00     0.168 C 
ATOM      8  C   UNL A   1      36.535  22.618  23.752  1.00  0.00     0.041 C 
BRANCH   7   9
ATOM      9  N   UNL A   1      35.709  22.405  26.076  1.00  0.00    -0.340 N 
ATOM     10  C   UNL A   1      34.740  21.456  26.323  1.00  0.00     0.254 C 
ATOM     11  O   UNL A   1      34.346  21.390  27.492  1.00  0.00    -0.269 OA
ATOM     12  H   UNL A   1      35.612  23.264  26.548  1.00  0.00     0.164 HD
BRANCH  10  13
ATOM     13  C   UNL A   1      33.949  20.759  25.255  1.00  0.00     0.063 A 
ATOM     14  C   UNL A   1      32.828  21.168  24.501  1.00  0.00     0.051 A 
ATOM     15  C   UNL A   1      32.211  20.212  23.653  1.00  0.00     0.027 A 
ATOM     16  C   UNL A   1      32.718  18.927  23.477  1.00  0.00     0.002 A 
ATOM     17  C   UNL A   1      34.457  19.450  25.036  1.00  0.00     0.016 A 
ATOM     18  C   UNL A   1      33.864  18.551  24.152  1.00  0.00     0.001 A 
BRANCH  14  19
ATOM     19  N   UNL A   1      32.279  22.460  24.381  1.00  0.00    -0.352 N 
ATOM     20  H   UNL A   1      31.297  22.452  24.296  1.00  0.00     0.167 HD
BRANCH  19  21
ATOM     21  C   UNL A   1      32.823  23.772  24.356  1.00  0.00     0.077 A 
ATOM     22  C   UNL A   1      32.819  27.106  26.252  1.00  0.00     0.046 C 
ATOM     23  C   UNL A   1      33.105  26.062  25.205  1.00  0.00    -0.030 A 
ATOM     24  C   UNL A   1      33.593  26.475  23.956  1.00  0.00     0.006 A 
ATOM     25  C   UNL A   1      32.781  24.698  25.419  1.00  0.00     0.069 A 
ATOM     26  C   UNL A   1      33.740  25.560  22.922  1.00  0.00     0.023 A 
ATOM     27  Cl  UNL A   1      32.401  24.197  27.039  1.00  0.00    -0.082 Cl
ATOM     28  C   UNL A   1      33.345  24.235  23.118  1.00  0.00     0.066 A 
ATOM     29  Cl  UNL A   1      33.452  23.167  21.750  1.00  0.00    -0.082 Cl
ENDBRANCH  19  21
ENDBRANCH  14  19
ENDBRANCH  10  13
ENDBRANCH   7   9
ENDBRANCH   4   7
ENDBRANCH   2   3
ENDBRANCH   1   2
BRANCH   1  30
ATOM     30  C   UNL A   1      42.405  22.137  27.256  1.00  0.00     0.023 C 
BRANCH  30  31
ATOM     31  C   UNL A   1      43.034  23.524  27.192  1.00  0.00     0.116 C 
BRANCH  31  32
ATOM     32  N   UNL A   1      42.533  24.308  26.073  1.00  0.00    -0.352 N 
ATOM     33  C   UNL A   1      41.870  25.507  26.066  1.00  0.00     0.251 C 
ATOM     34  H   UNL A   1      42.694  23.916  25.184  1.00  0.00     0.163 HD
ATOM     35  O   UNL A   1      41.399  25.941  25.026  1.00  0.00    -0.269 OA
BRANCH  33  36
ATOM     36  C   UNL A   1      41.716  26.245  27.331  1.00  0.00     0.039 A 
ATOM     37  C   UNL A   1      42.645  27.237  27.642  1.00  0.00     0.014 A 
ATOM     38  C   UNL A   1      40.645  25.970  28.185  1.00  0.00     0.014 A 
ATOM     39  C   UNL A   1      42.471  27.997  28.796  1.00  0.00     0.010 A 
ATOM     40  C   UNL A   1      40.431  26.779  29.292  1.00  0.00     0.010 A 
ATOM     41  C   UNL A   1      41.346  27.794  29.610  1.00  0.00    -0.014 A 
BRANCH  41  42
ATOM     42  C   UNL A   1      41.110  28.623  30.815  1.00  0.00     0.031 A 
ATOM     43  C   UNL A   1      40.023  29.659  30.801  1.00  0.00     0.074 A 
ATOM     44  C   UNL A   1      41.922  28.489  31.882  1.00  0.00     0.049 A 
ATOM     45  N   UNL A   1      39.724  30.553  31.706  1.00  0.00    -0.248 NA
ATOM     46  C   UNL A   1      39.178  29.719  29.596  1.00  0.00     0.031 C 
ATOM     47  C   UNL A   1      43.033  27.540  31.986  1.00  0.00     0.029 A 
ATOM     48  N   UNL A   1      41.946  29.161  33.076  1.00  0.00    -0.354 N 
ATOM     49  C   UNL A   1      38.672  31.289  31.176  1.00  0.00     0.074 A 
ATOM     50  C   UNL A   1      38.420  30.775  29.848  1.00  0.00     0.031 C 
ATOM     51  C   UNL A   1      43.619  27.679  33.186  1.00  0.00     0.029 A 
ATOM     52  C   UNL A   1      42.957  28.755  33.916  1.00  0.00     0.049 A 
ATOM     53  H   UNL A   1      41.302  29.866  33.311  1.00  0.00     0.167 HD
ATOM     54  C   UNL A   1      37.966  32.288  31.755  1.00  0.00     0.037 A 
ATOM     55  C   UNL A   1      43.315  29.210  35.132  1.00  0.00     0.037 A 
ATOM     56  C   UNL A   1      38.214  32.772  33.088  1.00  0.00     0.049 A 
ATOM     57  C   UNL A   1      42.522  30.329  35.751  1.00  0.00     0.074 A 
ATOM     58  C   UNL A   1      37.526  33.745  33.791  1.00  0.00     0.029 A 
ATOM     59  N   UNL A   1      39.230  32.319  33.919  1.00  0.00    -0.354 N 
ATOM     60  N   UNL A   1      41.495  30.981  35.259  1.00  0.00    -0.248 NA
ATOM     61  C   UNL A   1      42.929  30.771  37.091  1.00  0.00     0.031 C 
ATOM     62  C   UNL A   1      38.158  33.917  35.027  1.00  0.00     0.029 A 
ATOM     63  C   UNL A   1      39.201  33.008  35.120  1.00  0.00     0.049 A 
ATOM     64  H   UNL A   1      39.876  31.613  33.689  1.00  0.00     0.167 HD
ATOM     65  C   UNL A   1      41.110  31.884  36.243  1.00  0.00     0.074 A 
ATOM     66  C   UNL A   1      42.013  31.692  37.360  1.00  0.00     0.031 C 
ATOM     67  C   UNL A   1      40.099  32.787  36.227  1.00  0.00     0.037 A 
BRANCH  54  68
ATOM     68  C   UNL A   1      36.862  32.923  30.953  1.00  0.00     0.058 A 
ATOM     69  C   UNL A   1      37.127  33.880  29.961  1.00  0.00     0.135 A 
ATOM     70  C   UNL A   1      35.526  32.545  31.158  1.00  0.00     0.135 A 
ATOM     71  F   UNL A   1      38.384  34.292  29.734  1.00  0.00    -0.206 F 
ATOM     72  C   UNL A   1      36.103  34.463  29.220  1.00  0.00     0.059 A 
ATOM     73  C   UNL A   1      34.489  33.092  30.408  1.00  0.00     0.059 A 
ATOM     74  F   UNL A   1      35.215  31.637  32.096  1.00  0.00    -0.206 F 
ATOM     75  C   UNL A   1      34.786  34.061  29.451  1.00  0.00     0.060 A 
BRANCH  75  76
ATOM     76  S   UNL A   1      33.471  34.821  28.478  1.00  0.00     0.124 S 
ATOM     77  O   UNL A   1      34.220  35.790  27.683  1.00  0.00    -0.237 OA
ATOM     78  O   UNL A   1      32.929  33.683  27.742  1.00  0.00    -0.237 OA
ATOM     79  O   UNL A   1      32.585  35.392  29.487  1.00  0.00    -0.744 OA
ENDBRANCH  75  76
ENDBRANCH  54  68
BRANCH  55  80
ATOM     80  C   UNL A   1      44.466  28.596  35.847  1.00  0.00     0.058 A 
ATOM     81  C   UNL A   1      44.281  27.509  36.712  1.00  0.00     0.135 A 
ATOM     82  C   UNL A   1      45.775  29.072  35.666  1.00  0.00     0.135 A 
ATOM     83  F   UNL A   1      43.048  27.020  36.920  1.00  0.00    -0.206 F 
ATOM     84  C   UNL A   1      45.347  26.926  37.390  1.00  0.00     0.059 A 
ATOM     85  C   UNL A   1      46.861  28.487  36.311  1.00  0.00     0.059 A 
ATOM     86  F   UNL A   1      46.009  30.098  34.833  1.00  0.00    -0.206 F 
ATOM     87  C   UNL A   1      46.634  27.422  37.181  1.00  0.00     0.060 A 
BRANCH  87  88
ATOM     88  S   UNL A   1      48.016  26.631  38.035  1.00  0.00     0.124 S 
ATOM     89  O   UNL A   1      48.372  27.648  39.018  1.00  0.00    -0.237 OA
ATOM     90  O   UNL A   1      47.394  25.421  38.563  1.00  0.00    -0.237 OA
ATOM     91  O   UNL A   1      48.988  26.414  36.969  1.00  0.00    -0.744 OA
ENDBRANCH  87  88
ENDBRANCH  55  80
BRANCH  67  92
ATOM     92  C   UNL A   1      39.873  33.602  37.470  1.00  0.00     0.058 A 
ATOM     93  C   UNL A   1      40.561  34.802  37.707  1.00  0.00     0.135 A 
ATOM     94  C   UNL A   1      38.900  33.208  38.404  1.00  0.00     0.135 A 
ATOM     95  F   UNL A   1      41.506  35.220  36.849  1.00  0.00    -0.206 F 
ATOM     96  C   UNL A   1      40.304  35.575  38.834  1.00  0.00     0.059 A 
ATOM     97  C   UNL A   1      38.606  33.980  39.522  1.00  0.00     0.059 A 
ATOM     98  F   UNL A   1      38.206  32.074  38.219  1.00  0.00    -0.206 F 
ATOM     99  C   UNL A   1      39.320  35.159  39.734  1.00  0.00     0.060 A 
BRANCH  99 100
ATOM    100  S   UNL A   1      38.962  36.196  41.165  1.00  0.00     0.124 S 
ATOM    101  O   UNL A   1      40.216  36.120  41.906  1.00  0.00    -0.237 OA
ATOM    102  O   UNL A   1      38.667  37.486  40.549  1.00  0.00    -0.237 OA
ATOM    103  O   UNL A   1      37.822  35.533  41.792  1.00  0.00    -0.744 OA
ENDBRANCH  99 100
ENDBRANCH  67  92
ENDBRANCH  41  42
ENDBRANCH  33  36
ENDBRANCH  31  32
ENDBRANCH  30  31
ENDBRANCH   1  30
TORSDOF 18
ENDMDL
MODEL 3
REMARK VINA RESULT:     -11.6      6.318     11.699
REMARK SMILES Cc1ccc(Cl)c(Nc2ccccc2C(=O)N[C@@H](C)C(=O)NCCCCNC(=O)c2ccc(-c3c4nc(c(-c5c(F)cc(S(=O)(=O)[O-])cc5F)c5ccc([nH]5)c(-c5c(F)cc(S(=O)(=O)[O-])cc5F)c5nc(c(-c6c(F)cc(S(=O)(=O)[O-])cc6F)c6ccc3[nH]6)C=C5)C=C4)cc2)c1Cl
REMARK SMILES IDX 24 1 23 2 22 3 20 4 21 5 18 7 19 8 17 9 15 10 16 11 14 13
REMARK SMILES IDX 9 14 10 15 11 16 13 17 12 18 8 19 7 21 1 22 2 23 3 24 96 25
REMARK SMILES IDX 4 26 97 27 5 28 6 29 25 30 26 31 27 32 28 33 29 35 30 36
REMARK SMILES IDX 31 37 95 38 32 39 94 40 33 41 34 42 35 43 88 44 36 45 93 46
REMARK SMILES IDX 87 47 89 48 37 49 92 50 86 51 85 52 38 54 72 55 51 56 71 57
REMARK SMILES IDX 52 58 55 59 70 60 90 61 53 62 54 63 69 65 91 66 56 67 39 68
REMARK SMILES IDX 40 69 49 70 41 71 42 72 48 73 50 74 43 75 44 76 45 77 46 78
REMARK SMILES IDX 47 79 73 80 74 81 83 82 75 83 76 84 82 85 84 86 77 87 78 88
REMARK SMILES IDX 79 89 80 90 81 91 57 92 58 93 67 94 59 95 60 96 66 97 68 98
REMARK SMILES IDX 61 99 62 100 63 101 64 102 65 103
REMARK H PARENT 22 6 17 12 8 20 27 34 89 53 55 64
REMARK Flexibility Score: inf
ROOT
ATOM      1  C   UNL A   1      35.200  30.822  27.418  1.00  0.00     0.023 C 
ENDROOT
BRANCH   1   2
ATOM      2  C   UNL A   1      33.780  30.282  27.182  1.00  0.00     0.116 C 
BRANCH   2   3
ATOM      3  N   UNL A   1      33.483  29.103  27.970  1.00  0.00    -0.354 N 
ATOM      4  C   UNL A   1      32.453  28.320  27.537  1.00  0.00     0.242 C 
ATOM      5  O   UNL A   1      31.321  28.636  27.899  1.00  0.00    -0.273 OA
ATOM      6  H   UNL A   1      33.999  28.879  28.778  1.00  0.00     0.163 HD
BRANCH   4   7
ATOM      7  C   UNL A   1      32.739  27.136  26.585  1.00  0.00     0.168 C 
ATOM      8  C   UNL A   1      33.533  27.457  25.329  1.00  0.00     0.041 C 
BRANCH   7   9
ATOM      9  N   UNL A   1      31.420  26.602  26.293  1.00  0.00    -0.340 N 
ATOM     10  C   UNL A   1      31.084  25.284  26.073  1.00  0.00     0.254 C 
ATOM     11  O   UNL A   1      30.008  24.920  26.560  1.00  0.00    -0.269 OA
ATOM     12  H   UNL A   1      30.684  27.256  26.249  1.00  0.00     0.164 HD
BRANCH  10  13
ATOM     13  C   UNL A   1      31.754  24.398  25.063  1.00  0.00     0.063 A 
ATOM     14  C   UNL A   1      31.636  24.323  23.658  1.00  0.00     0.051 A 
ATOM     15  C   UNL A   1      32.308  23.268  22.990  1.00  0.00     0.027 A 
ATOM     16  C   UNL A   1      33.137  22.366  23.654  1.00  0.00     0.002 A 
ATOM     17  C   UNL A   1      32.626  23.480  25.709  1.00  0.00     0.016 A 
ATOM     18  C   UNL A   1      33.319  22.489  25.017  1.00  0.00     0.001 A 
BRANCH  14  19
ATOM     19  N   UNL A   1      31.017  25.237  22.783  1.00  0.00    -0.352 N 
ATOM     20  H   UNL A   1      30.678  24.810  21.962  1.00  0.00     0.167 HD
BRANCH  19  21
ATOM     21  C   UNL A   1      30.772  26.636  22.818  1.00  0.00     0.077 A 
ATOM     22  C   UNL A   1      27.952  29.227  23.033  1.00  0.00     0.046 C 
ATOM     23  C   UNL A   1      29.326  28.622  22.909  1.00  0.00    -0.030 A 
ATOM     24  C   UNL A   1      30.371  29.418  22.417  1.00  0.00     0.006 A 
ATOM     25  C   UNL A   1      29.548  27.245  23.168  1.00  0.00     0.069 A 
ATOM     26  C   UNL A   1      31.617  28.860  22.161  1.00  0.00     0.023 A 
ATOM     27  Cl  UNL A   1      28.299  26.359  23.987  1.00  0.00    -0.082 Cl
ATOM     28  C   UNL A   1      31.804  27.489  22.343  1.00  0.00     0.066 A 
ATOM     29  Cl  UNL A   1      33.354  26.836  21.899  1.00  0.00    -0.082 Cl
ENDBRANCH  19  21
ENDBRANCH  14  19
ENDBRANCH  10  13
ENDBRANCH   7   9
ENDBRANCH   4   7
ENDBRANCH   2   3
ENDBRANCH   1   2
BRANCH   1  30
ATOM     30  C   UNL A   1      35.276  32.263  27.924  1.00  0.00     0.023 C 
BRANCH  30  31
ATOM     31  C   UNL A   1      36.250  32.482  29.076  1.00  0.00     0.116 C 
BRANCH  31  32
ATOM     32  N   UNL A   1      35.920  31.674  30.240  1.00  0.00    -0.352 N 
ATOM     33  C   UNL A   1      36.626  30.663  30.838  1.00  0.00     0.251 C 
ATOM     34  H   UNL A   1      35.057  31.887  30.665  1.00  0.00     0.163 HD
ATOM     35  O   UNL A   1      36.115  30.001  31.728  1.00  0.00    -0.269 OA
BRANCH  33  36
ATOM     36  C   UNL A   1      37.992  30.373  30.371  1.00  0.00     0.039 A 
ATOM     37  C   UNL A   1      39.016  30.294  31.315  1.00  0.00     0.014 A 
ATOM     38  C   UNL A   1      38.247  30.159  29.015  1.00  0.00     0.014 A 
ATOM     39  C   UNL A   1      40.300  29.946  30.902  1.00  0.00     0.010 A 
ATOM     40  C   UNL A   1      39.508  29.737  28.616  1.00  0.00     0.010 A 
ATOM     41  C   UNL A   1      40.546  29.634  29.555  1.00  0.00    -0.014 A 
BRANCH  41  42
ATOM     42  C   UNL A   1      41.889  29.211  29.098  1.00  0.00     0.031 A 
ATOM     43  C   UNL A   1      42.994  30.224  29.005  1.00  0.00     0.074 A 
ATOM     44  C   UNL A   1      42.085  27.938  28.702  1.00  0.00     0.049 A 
ATOM     45  N   UNL A   1      44.205  30.083  28.534  1.00  0.00    -0.248 NA
ATOM     46  C   UNL A   1      42.689  31.585  29.477  1.00  0.00     0.031 C 
ATOM     47  C   UNL A   1      41.070  26.882  28.715  1.00  0.00     0.029 A 
ATOM     48  N   UNL A   1      43.200  27.320  28.198  1.00  0.00    -0.354 N 
ATOM     49  C   UNL A   1      44.798  31.335  28.636  1.00  0.00     0.074 A 
ATOM     50  C   UNL A   1      43.798  32.237  29.162  1.00  0.00     0.031 C 
ATOM     51  C   UNL A   1      41.614  25.743  28.257  1.00  0.00     0.029 A 
ATOM     52  C   UNL A   1      43.000  25.998  27.876  1.00  0.00     0.049 A 
ATOM     53  H   UNL A   1      44.063  27.779  28.078  1.00  0.00     0.167 HD
ATOM     54  C   UNL A   1      46.069  31.693  28.338  1.00  0.00     0.037 A 
ATOM     55  C   UNL A   1      43.836  25.099  27.323  1.00  0.00     0.037 A 
ATOM     56  C   UNL A   1      47.059  30.776  27.837  1.00  0.00     0.049 A 
ATOM     57  C   UNL A   1      45.241  25.523  26.991  1.00  0.00     0.074 A 
ATOM     58  C   UNL A   1      48.390  31.022  27.550  1.00  0.00     0.029 A 
ATOM     59  N   UNL A   1      46.827  29.439  27.547  1.00  0.00    -0.354 N 
ATOM     60  N   UNL A   1      45.804  26.699  27.143  1.00  0.00    -0.248 NA
ATOM     61  C   UNL A   1      46.127  24.501  26.421  1.00  0.00     0.031 C 
ATOM     62  C   UNL A   1      48.950  29.846  27.039  1.00  0.00     0.029 A 
ATOM     63  C   UNL A   1      47.984  28.851  27.066  1.00  0.00     0.049 A 
ATOM     64  H   UNL A   1      45.966  28.976  27.667  1.00  0.00     0.167 HD
ATOM     65  C   UNL A   1      47.120  26.548  26.721  1.00  0.00     0.074 A 
ATOM     66  C   UNL A   1      47.270  25.166  26.311  1.00  0.00     0.031 C 
ATOM     67  C   UNL A   1      48.116  27.467  26.680  1.00  0.00     0.037 A 
BRANCH  54  68
ATOM     68  C   UNL A   1      46.459  33.131  28.545  1.00  0.00     0.058 A 
ATOM     69  C   UNL A   1      46.979  33.587  29.767  1.00  0.00     0.135 A 
ATOM     70  C   UNL A   1      46.338  34.059  27.499  1.00  0.00     0.135 A 
ATOM     71  F   UNL A   1      47.099  32.748  30.808  1.00  0.00    -0.206 F 
ATOM     72  C   UNL A   1      47.340  34.918  29.953  1.00  0.00     0.059 A 
ATOM     73  C   UNL A   1      46.722  35.388  27.652  1.00  0.00     0.059 A 
ATOM     74  F   UNL A   1      45.844  33.679  26.310  1.00  0.00    -0.206 F 
ATOM     75  C   UNL A   1      47.208  35.811  28.889  1.00  0.00     0.060 A 
BRANCH  75  76
ATOM     76  S   UNL A   1      47.686  37.532  29.144  1.00  0.00     0.124 S 
ATOM     77  O   UNL A   1      47.429  37.696  30.572  1.00  0.00    -0.237 OA
ATOM     78  O   UNL A   1      49.092  37.527  28.752  1.00  0.00    -0.237 OA
ATOM     79  O   UNL A   1      46.793  38.270  28.258  1.00  0.00    -0.744 OA
ENDBRANCH  75  76
ENDBRANCH  54  68
BRANCH  55  80
ATOM     80  C   UNL A   1      43.371  23.709  27.068  1.00  0.00     0.058 A 
ATOM     81  C   UNL A   1      43.231  22.791  28.119  1.00  0.00     0.135 A 
ATOM     82  C   UNL A   1      43.043  23.276  25.774  1.00  0.00     0.135 A 
ATOM     83  F   UNL A   1      43.536  23.157  29.374  1.00  0.00    -0.206 F 
ATOM     84  C   UNL A   1      42.801  21.487  27.895  1.00  0.00     0.059 A 
ATOM     85  C   UNL A   1      42.583  21.986  25.529  1.00  0.00     0.059 A 
ATOM     86  F   UNL A   1      43.141  24.122  24.736  1.00  0.00    -0.206 F 
ATOM     87  C   UNL A   1      42.477  21.095  26.596  1.00  0.00     0.060 A 
BRANCH  87  88
ATOM     88  S   UNL A   1      41.880  19.412  26.323  1.00  0.00     0.124 S 
ATOM     89  O   UNL A   1      42.539  19.067  25.068  1.00  0.00    -0.237 OA
ATOM     90  O   UNL A   1      42.369  18.720  27.512  1.00  0.00    -0.237 OA
ATOM     91  O   UNL A   1      40.432  19.577  26.253  1.00  0.00    -0.744 OA
ENDBRANCH  87  88
ENDBRANCH  55  80
BRANCH  67  92
ATOM     92  C   UNL A   1      49.473  27.004  26.229  1.00  0.00     0.058 A 
ATOM     93  C   UNL A   1      50.377  26.385  27.106  1.00  0.00     0.135 A 
ATOM     94  C   UNL A   1      49.843  27.120  24.878  1.00  0.00     0.135 A 
ATOM     95  F   UNL A   1      50.074  26.256  28.408  1.00  0.00    -0.206 F 
ATOM     96  C   UNL A   1      51.607  25.911  26.664  1.00  0.00     0.059 A 
ATOM     97  C   UNL A   1      51.056  26.626  24.408  1.00  0.00     0.059 A 
ATOM     98  F   UNL A   1      49.011  27.695  23.996  1.00  0.00    -0.206 F 
ATOM     99  C   UNL A   1      51.936  26.032  25.311  1.00  0.00     0.060 A 
BRANCH  99 100
ATOM    100  S   UNL A   1      53.514  25.368  24.742  1.00  0.00     0.124 S 
ATOM    101  O   UNL A   1      53.433  25.606  23.306  1.00  0.00    -0.237 OA
ATOM    102  O   UNL A   1      54.478  26.191  25.468  1.00  0.00    -0.237 OA
ATOM    103  O   UNL A   1      53.463  23.967  25.151  1.00  0.00    -0.744 OA
ENDBRANCH  99 100
ENDBRANCH  67  92
ENDBRANCH  41  42
ENDBRANCH  33  36
ENDBRANCH  31  32
ENDBRANCH  30  31
ENDBRANCH   1  30
TORSDOF 18
ENDMDL
