MODEL 1
REMARK VINA RESULT:     -14.9      0.000      0.000
REMARK SMILES Cc1c(C[N@H+]2CC[C@@H](C(=O)NCCCCNC(=O)c3ccc(-c4c5nc(c(-c6c(F)cc(S(=O)(=O)[O-])cc6F)c6ccc([nH]6)c(-c6c(F)cc(S(=O)(=O)[O-])cc6F)c6nc(c(-c7c(F)cc(S(=O)(=O)[O-])cc7F)c7ccc4[nH]7)C=C6)C=C5)cc3)[C@@H]2C)cccc1[N+](=O)[O-]
REMARK SMILES IDX 13 1 12 2 11 3 9 4 10 5 8 7 5 8 6 9 85 10 7 12 86 13 4 14
REMARK SMILES IDX 3 15 1 16 2 17 90 18 87 19 89 20 88 21 91 22 92 23 93 24
REMARK SMILES IDX 14 25 15 26 16 27 17 28 18 30 19 31 20 32 84 33 21 34 83 35
REMARK SMILES IDX 22 36 23 37 24 38 77 39 25 40 82 41 76 42 78 43 26 44 81 45
REMARK SMILES IDX 75 46 74 47 27 49 61 50 40 51 60 52 41 53 44 54 59 55 79 56
REMARK SMILES IDX 42 57 43 58 58 60 80 61 45 62 28 63 29 64 38 65 30 66 31 67
REMARK SMILES IDX 37 68 39 69 32 70 33 71 34 72 35 73 36 74 62 75 63 76 72 77
REMARK SMILES IDX 64 78 65 79 71 80 73 81 66 82 67 83 68 84 69 85 70 86 46 87
REMARK SMILES IDX 47 88 56 89 48 90 49 91 55 92 57 93 50 94 51 95 52 96 53 97
REMARK SMILES IDX 54 98
REMARK H PARENT 11 6 5 11 16 29 78 48 44 59
REMARK Flexibility Score: inf
ROOT
ATOM      1  C   UNL A   1      39.481  20.549  26.045  1.00  0.00     0.023 C 
ENDROOT
BRANCH   1   2
ATOM      2  C   UNL A   1      37.627  20.877  24.915  1.00  0.00     0.116 C 
BRANCH   2   3
ATOM      3  N   UNL A   1      36.157  20.250  25.018  1.00  0.00    -0.356 N 
ATOM      4  C   UNL A   1      34.962  20.682  25.491  1.00  0.00     0.229 C 
ATOM      5  O   UNL A   1      33.988  19.945  25.298  1.00  0.00    -0.275 OA
ATOM      6  H   UNL A   1      36.111  19.336  24.653  1.00  0.00     0.163 HD
BRANCH   4   7
ATOM      7  C   UNL A   1      34.771  21.981  26.260  1.00  0.00     0.142 C 
ATOM      8  N   UNL A   1      32.785  23.355  26.215  1.00  0.00    -0.328 N 
ATOM      9  C   UNL A   1      32.882  22.772  27.555  1.00  0.00     0.263 C 
ATOM     10  C   UNL A   1      34.003  23.034  25.470  1.00  0.00     0.193 C 
ATOM     11  H   UNL A   1      32.716  24.365  26.341  1.00  0.00     0.348 HD
ATOM     12  C   UNL A   1      34.064  21.812  27.592  1.00  0.00     0.081 C 
ATOM     13  C   UNL A   1      34.792  24.315  25.230  1.00  0.00     0.076 C 
BRANCH   8  14
ATOM     14  C   UNL A   1      31.537  23.100  25.471  1.00  0.00     0.299 C 
BRANCH  14  15
ATOM     15  C   UNL A   1      31.134  24.190  24.503  1.00  0.00     0.016 A 
ATOM     16  C   UNL A   1      32.620  23.009  22.365  1.00  0.00     0.052 C 
ATOM     17  C   UNL A   1      31.936  24.242  22.887  1.00  0.00     0.036 A 
ATOM     18  C   UNL A   1      31.855  25.750  21.905  1.00  0.00     0.272 A 
ATOM     19  C   UNL A   1      30.160  25.616  25.068  1.00  0.00     0.010 A 
ATOM     20  C   UNL A   1      30.946  27.195  22.500  1.00  0.00     0.086 A 
ATOM     21  C   UNL A   1      30.082  27.125  24.073  1.00  0.00     0.008 A 
BRANCH  18  22
ATOM     22  N   UNL A   1      32.950  26.027  21.022  1.00  0.00     0.062 N 
ATOM     23  O   UNL A   1      33.924  26.565  21.558  1.00  0.00    -0.258 OA
ATOM     24  O   UNL A   1      32.886  25.543  19.890  1.00  0.00    -0.258 OA
ENDBRANCH  18  22
ENDBRANCH  14  15
ENDBRANCH   8  14
ENDBRANCH   4   7
ENDBRANCH   2   3
ENDBRANCH   1   2
BRANCH   1  25
ATOM     25  C   UNL A   1      40.766  21.521  26.706  1.00  0.00     0.023 C 
BRANCH  25  26
ATOM     26  C   UNL A   1      40.408  22.872  27.317  1.00  0.00     0.116 C 
BRANCH  26  27
ATOM     27  N   UNL A   1      39.801  23.874  26.453  1.00  0.00    -0.352 N 
ATOM     28  C   UNL A   1      38.923  24.823  26.994  1.00  0.00     0.251 C 
ATOM     29  H   UNL A   1      40.006  23.884  25.491  1.00  0.00     0.163 HD
ATOM     30  O   UNL A   1      37.710  24.827  26.841  1.00  0.00    -0.269 OA
BRANCH  28  31
ATOM     31  C   UNL A   1      39.584  25.847  27.833  1.00  0.00     0.039 A 
ATOM     32  C   UNL A   1      39.183  26.081  29.152  1.00  0.00     0.014 A 
ATOM     33  C   UNL A   1      40.433  26.729  27.179  1.00  0.00     0.014 A 
ATOM     34  C   UNL A   1      39.458  27.314  29.729  1.00  0.00     0.010 A 
ATOM     35  C   UNL A   1      40.508  28.006  27.643  1.00  0.00     0.010 A 
ATOM     36  C   UNL A   1      40.017  28.289  28.918  1.00  0.00    -0.014 A 
BRANCH  36  37
ATOM     37  C   UNL A   1      40.333  29.635  29.327  1.00  0.00     0.031 A 
ATOM     38  C   UNL A   1      39.223  30.590  29.200  1.00  0.00     0.074 A 
ATOM     39  C   UNL A   1      41.454  29.785  30.057  1.00  0.00     0.049 A 
ATOM     40  N   UNL A   1      39.337  31.855  29.332  1.00  0.00    -0.248 NA
ATOM     41  C   UNL A   1      37.859  30.190  28.839  1.00  0.00     0.031 C 
ATOM     42  C   UNL A   1      41.810  30.773  31.070  1.00  0.00     0.029 A 
ATOM     43  N   UNL A   1      42.585  29.001  30.005  1.00  0.00    -0.354 N 
ATOM     44  C   UNL A   1      38.062  32.355  29.500  1.00  0.00     0.074 A 
ATOM     45  C   UNL A   1      37.188  31.332  28.997  1.00  0.00     0.031 C 
ATOM     46  C   UNL A   1      43.139  30.708  31.303  1.00  0.00     0.029 A 
ATOM     47  C   UNL A   1      43.697  29.758  30.348  1.00  0.00     0.049 A 
ATOM     48  H   UNL A   1      42.602  28.046  29.762  1.00  0.00     0.167 HD
ATOM     49  C   UNL A   1      37.933  33.496  30.234  1.00  0.00     0.037 A 
ATOM     50  C   UNL A   1      44.654  30.027  29.413  1.00  0.00     0.037 A 
ATOM     51  C   UNL A   1      39.278  33.943  30.636  1.00  0.00     0.049 A 
ATOM     52  C   UNL A   1      44.501  31.491  29.061  1.00  0.00     0.074 A 
ATOM     53  C   UNL A   1      39.995  33.799  31.812  1.00  0.00     0.029 A 
ATOM     54  N   UNL A   1      40.213  34.236  29.645  1.00  0.00    -0.354 N 
ATOM     55  N   UNL A   1      43.352  32.124  29.053  1.00  0.00    -0.248 NA
ATOM     56  C   UNL A   1      45.646  32.386  28.940  1.00  0.00     0.031 C 
ATOM     57  C   UNL A   1      41.381  33.945  31.496  1.00  0.00     0.029 A 
ATOM     58  C   UNL A   1      41.506  34.150  30.128  1.00  0.00     0.049 A 
ATOM     59  H   UNL A   1      39.982  34.476  28.718  1.00  0.00     0.167 HD
ATOM     60  C   UNL A   1      43.591  33.471  29.077  1.00  0.00     0.074 A 
ATOM     61  C   UNL A   1      45.038  33.583  28.968  1.00  0.00     0.031 C 
ATOM     62  C   UNL A   1      42.638  34.436  29.253  1.00  0.00     0.037 A 
BRANCH  49  63
ATOM     63  C   UNL A   1      36.651  34.068  30.816  1.00  0.00     0.058 A 
ATOM     64  C   UNL A   1      35.557  34.333  29.961  1.00  0.00     0.135 A 
ATOM     65  C   UNL A   1      36.410  34.390  32.171  1.00  0.00     0.135 A 
ATOM     66  F   UNL A   1      35.611  34.058  28.650  1.00  0.00    -0.206 F 
ATOM     67  C   UNL A   1      34.352  34.885  30.400  1.00  0.00     0.059 A 
ATOM     68  C   UNL A   1      35.217  34.960  32.633  1.00  0.00     0.059 A 
ATOM     69  F   UNL A   1      37.298  34.143  33.136  1.00  0.00    -0.206 F 
ATOM     70  C   UNL A   1      34.189  35.199  31.740  1.00  0.00     0.060 A 
BRANCH  70  71
ATOM     71  S   UNL A   1      32.612  35.871  32.292  1.00  0.00     0.124 S 
ATOM     72  O   UNL A   1      31.887  34.664  32.676  1.00  0.00    -0.237 OA
ATOM     73  O   UNL A   1      33.020  36.743  33.388  1.00  0.00    -0.237 OA
ATOM     74  O   UNL A   1      32.097  36.555  31.110  1.00  0.00    -0.744 OA
ENDBRANCH  70  71
ENDBRANCH  49  63
BRANCH  50  75
ATOM     75  C   UNL A   1      44.899  28.842  28.521  1.00  0.00     0.058 A 
ATOM     76  C   UNL A   1      44.315  28.921  27.234  1.00  0.00     0.135 A 
ATOM     77  C   UNL A   1      46.062  28.062  28.635  1.00  0.00     0.135 A 
ATOM     78  F   UNL A   1      43.167  29.598  27.061  1.00  0.00    -0.206 F 
ATOM     79  C   UNL A   1      44.980  28.478  26.090  1.00  0.00     0.059 A 
ATOM     80  C   UNL A   1      46.739  27.600  27.495  1.00  0.00     0.059 A 
ATOM     81  F   UNL A   1      46.671  27.926  29.822  1.00  0.00    -0.206 F 
ATOM     82  C   UNL A   1      46.237  27.902  26.228  1.00  0.00     0.060 A 
BRANCH  82  83
ATOM     83  S   UNL A   1      47.263  27.729  24.740  1.00  0.00     0.124 S 
ATOM     84  O   UNL A   1      47.032  26.338  24.368  1.00  0.00    -0.237 OA
ATOM     85  O   UNL A   1      46.681  28.737  23.850  1.00  0.00    -0.237 OA
ATOM     86  O   UNL A   1      48.604  28.035  25.223  1.00  0.00    -0.744 OA
ENDBRANCH  82  83
ENDBRANCH  50  75
BRANCH  62  87
ATOM     87  C   UNL A   1      42.760  35.805  28.628  1.00  0.00     0.058 A 
ATOM     88  C   UNL A   1      42.404  36.071  27.294  1.00  0.00     0.135 A 
ATOM     89  C   UNL A   1      43.072  36.945  29.410  1.00  0.00     0.135 A 
ATOM     90  F   UNL A   1      41.922  35.121  26.480  1.00  0.00    -0.206 F 
ATOM     91  C   UNL A   1      42.480  37.341  26.742  1.00  0.00     0.059 A 
ATOM     92  C   UNL A   1      43.055  38.236  28.903  1.00  0.00     0.059 A 
ATOM     93  F   UNL A   1      43.383  36.859  30.711  1.00  0.00    -0.206 F 
ATOM     94  C   UNL A   1      42.808  38.417  27.553  1.00  0.00     0.060 A 
BRANCH  94  95
ATOM     95  S   UNL A   1      42.890  40.049  26.820  1.00  0.00     0.124 S 
ATOM     96  O   UNL A   1      41.507  40.237  26.393  1.00  0.00    -0.237 OA
ATOM     97  O   UNL A   1      43.322  40.876  27.943  1.00  0.00    -0.237 OA
ATOM     98  O   UNL A   1      43.869  39.893  25.749  1.00  0.00    -0.744 OA
ENDBRANCH  94  95
ENDBRANCH  62  87
ENDBRANCH  36  37
ENDBRANCH  28  31
ENDBRANCH  26  27
ENDBRANCH  25  26
ENDBRANCH   1  25
TORSDOF 17
ENDMDL
MODEL 2
REMARK VINA RESULT:     -14.7      4.288     10.665
REMARK SMILES Cc1c(C[N@H+]2CC[C@@H](C(=O)NCCCCNC(=O)c3ccc(-c4c5nc(c(-c6c(F)cc(S(=O)(=O)[O-])cc6F)c6ccc([nH]6)c(-c6c(F)cc(S(=O)(=O)[O-])cc6F)c6nc(c(-c7c(F)cc(S(=O)(=O)[O-])cc7F)c7ccc4[nH]7)C=C6)C=C5)cc3)[C@@H]2C)cccc1[N+](=O)[O-]
REMARK SMILES IDX 13 1 12 2 11 3 9 4 10 5 8 7 5 8 6 9 85 10 7 12 86 13 4 14
REMARK SMILES IDX 3 15 1 16 2 17 90 18 87 19 89 20 88 21 91 22 92 23 93 24
REMARK SMILES IDX 14 25 15 26 16 27 17 28 18 30 19 31 20 32 84 33 21 34 83 35
REMARK SMILES IDX 22 36 23 37 24 38 77 39 25 40 82 41 76 42 78 43 26 44 81 45
REMARK SMILES IDX 75 46 74 47 27 49 61 50 40 51 60 52 41 53 44 54 59 55 79 56
REMARK SMILES IDX 42 57 43 58 58 60 80 61 45 62 28 63 29 64 38 65 30 66 31 67
REMARK SMILES IDX 37 68 39 69 32 70 33 71 34 72 35 73 36 74 62 75 63 76 72 77
REMARK SMILES IDX 64 78 65 79 71 80 73 81 66 82 67 83 68 84 69 85 70 86 46 87
REMARK SMILES IDX 47 88 56 89 48 90 49 91 55 92 57 93 50 94 51 95 52 96 53 97
REMARK SMILES IDX 54 98
REMARK H PARENT 11 6 5 11 16 29 78 48 44 59
REMARK Flexibility Score: inf
ROOT
ATOM      1  C   UNL A   1      31.344  27.899  27.432  1.00  0.00     0.023 C 
ENDROOT
BRANCH   1   2
ATOM      2  C   UNL A   1      30.936  26.137  26.184  1.00  0.00     0.116 C 
BRANCH   2   3
ATOM      3  N   UNL A   1      30.910  24.565  26.487  1.00  0.00    -0.356 N 
ATOM      4  C   UNL A   1      31.539  23.480  25.972  1.00  0.00     0.229 C 
ATOM      5  O   UNL A   1      31.350  22.402  26.548  1.00  0.00    -0.275 OA
ATOM      6  H   UNL A   1      30.293  24.332  27.219  1.00  0.00     0.163 HD
BRANCH   4   7
ATOM      7  C   UNL A   1      32.417  23.515  24.729  1.00  0.00     0.142 C 
ATOM      8  N   UNL A   1      34.677  22.675  24.588  1.00  0.00    -0.328 N 
ATOM      9  C   UNL A   1      33.835  21.805  23.763  1.00  0.00     0.263 C 
ATOM     10  C   UNL A   1      33.878  23.815  25.040  1.00  0.00     0.193 C 
ATOM     11  H   UNL A   1      35.434  23.003  23.987  1.00  0.00     0.348 HD
ATOM     12  C   UNL A   1      32.383  22.238  23.912  1.00  0.00     0.081 C 
ATOM     13  C   UNL A   1      34.399  25.083  24.375  1.00  0.00     0.076 C 
BRANCH   8  14
ATOM     14  C   UNL A   1      35.458  22.021  25.655  1.00  0.00     0.299 C 
BRANCH  14  15
ATOM     15  C   UNL A   1      36.944  22.301  25.624  1.00  0.00     0.016 A 
ATOM     16  C   UNL A   1      37.566  19.586  24.978  1.00  0.00     0.052 C 
ATOM     17  C   UNL A   1      38.078  20.903  25.492  1.00  0.00     0.036 A 
ATOM     18  C   UNL A   1      39.812  21.125  25.922  1.00  0.00     0.272 A 
ATOM     19  C   UNL A   1      37.587  23.939  26.078  1.00  0.00     0.010 A 
ATOM     20  C   UNL A   1      40.438  22.739  26.444  1.00  0.00     0.086 A 
ATOM     21  C   UNL A   1      39.331  24.151  26.506  1.00  0.00     0.008 A 
BRANCH  18  22
ATOM     22  N   UNL A   1      40.519  19.989  26.439  1.00  0.00     0.062 N 
ATOM     23  O   UNL A   1      40.999  19.244  25.579  1.00  0.00    -0.258 OA
ATOM     24  O   UNL A   1      40.733  19.973  27.653  1.00  0.00    -0.258 OA
ENDBRANCH  18  22
ENDBRANCH  14  15
ENDBRANCH   8  14
ENDBRANCH   4   7
ENDBRANCH   2   3
ENDBRANCH   1   2
BRANCH   1  25
ATOM     25  C   UNL A   1      32.037  29.483  27.223  1.00  0.00     0.023 C 
BRANCH  25  26
ATOM     26  C   UNL A   1      33.339  29.602  26.437  1.00  0.00     0.116 C 
BRANCH  26  27
ATOM     27  N   UNL A   1      34.139  30.804  26.618  1.00  0.00    -0.352 N 
ATOM     28  C   UNL A   1      34.601  31.151  27.895  1.00  0.00     0.251 C 
ATOM     29  H   UNL A   1      34.355  31.374  25.845  1.00  0.00     0.163 HD
ATOM     30  O   UNL A   1      34.162  32.065  28.577  1.00  0.00    -0.269 OA
BRANCH  28  31
ATOM     31  C   UNL A   1      35.678  30.274  28.406  1.00  0.00     0.039 A 
ATOM     32  C   UNL A   1      35.670  29.795  29.719  1.00  0.00     0.014 A 
ATOM     33  C   UNL A   1      36.812  30.162  27.613  1.00  0.00     0.014 A 
ATOM     34  C   UNL A   1      36.870  29.409  30.301  1.00  0.00     0.010 A 
ATOM     35  C   UNL A   1      38.013  30.007  28.234  1.00  0.00     0.010 A 
ATOM     36  C   UNL A   1      38.032  29.631  29.578  1.00  0.00    -0.014 A 
BRANCH  36  37
ATOM     37  C   UNL A   1      39.367  29.336  30.033  1.00  0.00     0.031 A 
ATOM     38  C   UNL A   1      39.905  28.051  29.563  1.00  0.00     0.074 A 
ATOM     39  C   UNL A   1      40.064  30.371  30.539  1.00  0.00     0.049 A 
ATOM     40  N   UNL A   1      40.983  27.517  29.990  1.00  0.00    -0.248 NA
ATOM     41  C   UNL A   1      39.214  27.203  28.585  1.00  0.00     0.031 C 
ATOM     42  C   UNL A   1      41.499  30.632  30.575  1.00  0.00     0.029 A 
ATOM     43  N   UNL A   1      39.551  31.477  31.180  1.00  0.00    -0.354 N 
ATOM     44  C   UNL A   1      41.330  26.537  29.082  1.00  0.00     0.074 A 
ATOM     45  C   UNL A   1      40.124  26.255  28.356  1.00  0.00     0.031 C 
ATOM     46  C   UNL A   1      41.745  31.635  31.444  1.00  0.00     0.029 A 
ATOM     47  C   UNL A   1      40.479  31.964  32.090  1.00  0.00     0.049 A 
ATOM     48  H   UNL A   1      38.660  31.865  31.016  1.00  0.00     0.167 HD
ATOM     49  C   UNL A   1      42.656  26.253  28.949  1.00  0.00     0.037 A 
ATOM     50  C   UNL A   1      40.220  31.901  33.429  1.00  0.00     0.037 A 
ATOM     51  C   UNL A   1      43.406  27.087  29.905  1.00  0.00     0.049 A 
ATOM     52  C   UNL A   1      41.124  30.820  33.983  1.00  0.00     0.074 A 
ATOM     53  C   UNL A   1      44.103  28.275  29.759  1.00  0.00     0.029 A 
ATOM     54  N   UNL A   1      43.129  26.965  31.266  1.00  0.00    -0.354 N 
ATOM     55  N   UNL A   1      41.479  29.750  33.312  1.00  0.00    -0.248 NA
ATOM     56  C   UNL A   1      41.876  30.994  35.221  1.00  0.00     0.031 C 
ATOM     57  C   UNL A   1      44.180  28.894  31.044  1.00  0.00     0.029 A 
ATOM     58  C   UNL A   1      43.508  28.098  31.963  1.00  0.00     0.049 A 
ATOM     59  H   UNL A   1      42.716  26.172  31.679  1.00  0.00     0.167 HD
ATOM     60  C   UNL A   1      42.570  29.190  33.921  1.00  0.00     0.074 A 
ATOM     61  C   UNL A   1      42.755  29.983  35.128  1.00  0.00     0.031 C 
ATOM     62  C   UNL A   1      43.319  28.169  33.408  1.00  0.00     0.037 A 
BRANCH  49  63
ATOM     63  C   UNL A   1      43.314  25.463  27.831  1.00  0.00     0.058 A 
ATOM     64  C   UNL A   1      43.549  24.080  28.003  1.00  0.00     0.135 A 
ATOM     65  C   UNL A   1      43.748  25.967  26.584  1.00  0.00     0.135 A 
ATOM     66  F   UNL A   1      43.172  23.439  29.119  1.00  0.00    -0.206 F 
ATOM     67  C   UNL A   1      44.174  23.279  27.044  1.00  0.00     0.059 A 
ATOM     68  C   UNL A   1      44.392  25.188  25.614  1.00  0.00     0.059 A 
ATOM     69  F   UNL A   1      43.546  27.232  26.212  1.00  0.00    -0.206 F 
ATOM     70  C   UNL A   1      44.596  23.841  25.850  1.00  0.00     0.060 A 
BRANCH  70  71
ATOM     71  S   UNL A   1      45.361  22.783  24.611  1.00  0.00     0.124 S 
ATOM     72  O   UNL A   1      46.042  21.791  25.437  1.00  0.00    -0.237 OA
ATOM     73  O   UNL A   1      44.203  22.302  23.865  1.00  0.00    -0.237 OA
ATOM     74  O   UNL A   1      46.240  23.691  23.879  1.00  0.00    -0.744 OA
ENDBRANCH  70  71
ENDBRANCH  49  63
BRANCH  50  75
ATOM     75  C   UNL A   1      38.775  32.193  33.723  1.00  0.00     0.058 A 
ATOM     76  C   UNL A   1      38.430  33.565  33.761  1.00  0.00     0.135 A 
ATOM     77  C   UNL A   1      37.754  31.299  33.360  1.00  0.00     0.135 A 
ATOM     78  F   UNL A   1      39.337  34.473  34.160  1.00  0.00    -0.206 F 
ATOM     79  C   UNL A   1      37.235  34.044  33.223  1.00  0.00     0.059 A 
ATOM     80  C   UNL A   1      36.542  31.762  32.825  1.00  0.00     0.059 A 
ATOM     81  F   UNL A   1      37.996  29.981  33.311  1.00  0.00    -0.206 F 
ATOM     82  C   UNL A   1      36.338  33.135  32.671  1.00  0.00     0.060 A 
BRANCH  82  83
ATOM     83  S   UNL A   1      35.018  33.780  31.606  1.00  0.00     0.124 S 
ATOM     84  O   UNL A   1      34.036  32.703  31.647  1.00  0.00    -0.237 OA
ATOM     85  O   UNL A   1      34.643  35.016  32.300  1.00  0.00    -0.237 OA
ATOM     86  O   UNL A   1      35.686  33.972  30.326  1.00  0.00    -0.744 OA
ENDBRANCH  82  83
ENDBRANCH  50  75
BRANCH  62  87
ATOM     87  C   UNL A   1      44.012  27.160  34.293  1.00  0.00     0.058 A 
ATOM     88  C   UNL A   1      45.377  27.239  34.619  1.00  0.00     0.135 A 
ATOM     89  C   UNL A   1      43.277  26.173  34.997  1.00  0.00     0.135 A 
ATOM     90  F   UNL A   1      46.163  28.226  34.166  1.00  0.00    -0.206 F 
ATOM     91  C   UNL A   1      45.994  26.332  35.466  1.00  0.00     0.059 A 
ATOM     92  C   UNL A   1      43.857  25.321  35.927  1.00  0.00     0.059 A 
ATOM     93  F   UNL A   1      41.958  26.007  34.832  1.00  0.00    -0.206 F 
ATOM     94  C   UNL A   1      45.227  25.375  36.115  1.00  0.00     0.060 A 
BRANCH  94  95
ATOM     95  S   UNL A   1      46.044  24.221  37.213  1.00  0.00     0.124 S 
ATOM     96  O   UNL A   1      45.443  22.959  36.795  1.00  0.00    -0.237 OA
ATOM     97  O   UNL A   1      47.450  24.398  36.865  1.00  0.00    -0.237 OA
ATOM     98  O   UNL A   1      45.668  24.692  38.543  1.00  0.00    -0.744 OA
ENDBRANCH  94  95
ENDBRANCH  62  87
ENDBRANCH  36  37
ENDBRANCH  28  31
ENDBRANCH  26  27
ENDBRANCH  25  26
ENDBRANCH   1  25
TORSDOF 17
ENDMDL
MODEL 3
REMARK VINA RESULT:     -14.6      4.217     10.233
REMARK SMILES Cc1c(C[N@H+]2CC[C@@H](C(=O)NCCCCNC(=O)c3ccc(-c4c5nc(c(-c6c(F)cc(S(=O)(=O)[O-])cc6F)c6ccc([nH]6)c(-c6c(F)cc(S(=O)(=O)[O-])cc6F)c6nc(c(-c7c(F)cc(S(=O)(=O)[O-])cc7F)c7ccc4[nH]7)C=C6)C=C5)cc3)[C@@H]2C)cccc1[N+](=O)[O-]
REMARK SMILES IDX 13 1 12 2 11 3 9 4 10 5 8 7 5 8 6 9 85 10 7 12 86 13 4 14
REMARK SMILES IDX 3 15 1 16 2 17 90 18 87 19 89 20 88 21 91 22 92 23 93 24
REMARK SMILES IDX 14 25 15 26 16 27 17 28 18 30 19 31 20 32 84 33 21 34 83 35
REMARK SMILES IDX 22 36 23 37 24 38 77 39 25 40 82 41 76 42 78 43 26 44 81 45
REMARK SMILES IDX 75 46 74 47 27 49 61 50 40 51 60 52 41 53 44 54 59 55 79 56
REMARK SMILES IDX 42 57 43 58 58 60 80 61 45 62 28 63 29 64 38 65 30 66 31 67
REMARK SMILES IDX 37 68 39 69 32 70 33 71 34 72 35 73 36 74 62 75 63 76 72 77
REMARK SMILES IDX 64 78 65 79 71 80 73 81 66 82 67 83 68 84 69 85 70 86 46 87
REMARK SMILES IDX 47 88 56 89 48 90 49 91 55 92 57 93 50 94 51 95 52 96 53 97
REMARK SMILES IDX 54 98
REMARK H PARENT 11 6 5 11 16 29 78 48 44 59
REMARK Flexibility Score: inf
ROOT
ATOM      1  C   UNL A   1      33.794  27.240  26.545  1.00  0.00     0.023 C 
ENDROOT
BRANCH   1   2
ATOM      2  C   UNL A   1      34.008  25.192  25.780  1.00  0.00     0.116 C 
BRANCH   2   3
ATOM      3  N   UNL A   1      34.817  24.564  24.550  1.00  0.00    -0.356 N 
ATOM      4  C   UNL A   1      35.339  23.343  24.269  1.00  0.00     0.229 C 
ATOM      5  O   UNL A   1      35.815  23.189  23.138  1.00  0.00    -0.275 OA
ATOM      6  H   UNL A   1      34.972  25.216  23.827  1.00  0.00     0.163 HD
BRANCH   4   7
ATOM      7  C   UNL A   1      35.399  22.194  25.265  1.00  0.00     0.142 C 
ATOM      8  N   UNL A   1      33.635  20.593  25.662  1.00  0.00    -0.328 N 
ATOM      9  C   UNL A   1      34.741  19.876  25.023  1.00  0.00     0.263 C 
ATOM     10  C   UNL A   1      34.074  21.953  25.977  1.00  0.00     0.193 C 
ATOM     11  H   UNL A   1      33.422  20.092  26.525  1.00  0.00     0.348 HD
ATOM     12  C   UNL A   1      35.831  20.873  24.658  1.00  0.00     0.081 C 
ATOM     13  C   UNL A   1      34.153  22.112  27.490  1.00  0.00     0.076 C 
BRANCH   8  14
ATOM     14  C   UNL A   1      32.323  20.521  24.990  1.00  0.00     0.299 C 
BRANCH  14  15
ATOM     15  C   UNL A   1      31.646  21.853  24.763  1.00  0.00     0.016 A 
ATOM     16  C   UNL A   1      32.329  21.868  21.987  1.00  0.00     0.052 C 
ATOM     17  C   UNL A   1      31.876  22.674  23.172  1.00  0.00     0.036 A 
ATOM     18  C   UNL A   1      31.505  24.430  23.019  1.00  0.00     0.272 A 
ATOM     19  C   UNL A   1      30.935  22.779  26.157  1.00  0.00     0.010 A 
ATOM     20  C   UNL A   1      30.866  25.368  24.426  1.00  0.00     0.086 A 
ATOM     21  C   UNL A   1      30.564  24.542  25.991  1.00  0.00     0.008 A 
BRANCH  18  22
ATOM     22  N   UNL A   1      32.255  25.185  22.059  1.00  0.00     0.062 N 
ATOM     23  O   UNL A   1      31.578  25.935  21.348  1.00  0.00    -0.258 OA
ATOM     24  O   UNL A   1      33.483  25.154  22.163  1.00  0.00    -0.258 OA
ENDBRANCH  18  22
ENDBRANCH  14  15
ENDBRANCH   8  14
ENDBRANCH   4   7
ENDBRANCH   2   3
ENDBRANCH   1   2
BRANCH   1  25
ATOM     25  C   UNL A   1      32.754  28.608  26.267  1.00  0.00     0.023 C 
BRANCH  25  26
ATOM     26  C   UNL A   1      32.948  29.850  27.131  1.00  0.00     0.116 C 
BRANCH  26  27
ATOM     27  N   UNL A   1      33.957  30.816  26.724  1.00  0.00    -0.352 N 
ATOM     28  C   UNL A   1      34.822  31.368  27.678  1.00  0.00     0.251 C 
ATOM     29  H   UNL A   1      34.031  31.082  25.779  1.00  0.00     0.163 HD
ATOM     30  O   UNL A   1      34.761  32.513  28.103  1.00  0.00    -0.269 OA
BRANCH  28  31
ATOM     31  C   UNL A   1      35.837  30.422  28.192  1.00  0.00     0.039 A 
ATOM     32  C   UNL A   1      35.780  29.926  29.498  1.00  0.00     0.014 A 
ATOM     33  C   UNL A   1      36.974  30.253  27.414  1.00  0.00     0.014 A 
ATOM     34  C   UNL A   1      36.946  29.462  30.092  1.00  0.00     0.010 A 
ATOM     35  C   UNL A   1      38.154  30.018  28.050  1.00  0.00     0.010 A 
ATOM     36  C   UNL A   1      38.130  29.624  29.389  1.00  0.00    -0.014 A 
BRANCH  36  37
ATOM     37  C   UNL A   1      39.438  29.243  29.859  1.00  0.00     0.031 A 
ATOM     38  C   UNL A   1      39.925  27.956  29.343  1.00  0.00     0.074 A 
ATOM     39  C   UNL A   1      40.171  30.219  30.428  1.00  0.00     0.049 A 
ATOM     40  N   UNL A   1      40.965  27.351  29.768  1.00  0.00    -0.248 NA
ATOM     41  C   UNL A   1      39.218  27.188  28.311  1.00  0.00     0.031 C 
ATOM     42  C   UNL A   1      41.616  30.407  30.508  1.00  0.00     0.029 A 
ATOM     43  N   UNL A   1      39.697  31.319  31.108  1.00  0.00    -0.354 N 
ATOM     44  C   UNL A   1      41.287  26.398  28.824  1.00  0.00     0.074 A 
ATOM     45  C   UNL A   1      40.087  26.208  28.059  1.00  0.00     0.031 C 
ATOM     46  C   UNL A   1      41.889  31.357  31.427  1.00  0.00     0.029 A 
ATOM     47  C   UNL A   1      40.625  31.718  32.060  1.00  0.00     0.049 A 
ATOM     48  H   UNL A   1      38.830  31.757  30.943  1.00  0.00     0.167 HD
ATOM     49  C   UNL A   1      42.601  26.055  28.707  1.00  0.00     0.037 A 
ATOM     50  C   UNL A   1      40.331  31.607  33.388  1.00  0.00     0.037 A 
ATOM     51  C   UNL A   1      43.366  26.807  29.717  1.00  0.00     0.049 A 
ATOM     52  C   UNL A   1      41.167  30.459  33.911  1.00  0.00     0.074 A 
ATOM     53  C   UNL A   1      44.123  27.965  29.641  1.00  0.00     0.029 A 
ATOM     54  N   UNL A   1      43.051  26.637  31.064  1.00  0.00    -0.354 N 
ATOM     55  N   UNL A   1      41.487  29.405  33.200  1.00  0.00    -0.248 NA
ATOM     56  C   UNL A   1      41.897  30.541  35.172  1.00  0.00     0.031 C 
ATOM     57  C   UNL A   1      44.198  28.521  30.955  1.00  0.00     0.029 A 
ATOM     58  C   UNL A   1      43.467  27.718  31.821  1.00  0.00     0.049 A 
ATOM     59  H   UNL A   1      42.590  25.848  31.431  1.00  0.00     0.167 HD
ATOM     60  C   UNL A   1      42.534  28.765  33.806  1.00  0.00     0.074 A 
ATOM     61  C   UNL A   1      42.728  29.492  35.052  1.00  0.00     0.031 C 
ATOM     62  C   UNL A   1      43.246  27.733  33.263  1.00  0.00     0.037 A 
BRANCH  49  63
ATOM     63  C   UNL A   1      43.247  25.285  27.568  1.00  0.00     0.058 A 
ATOM     64  C   UNL A   1      43.768  23.993  27.811  1.00  0.00     0.135 A 
ATOM     65  C   UNL A   1      43.406  25.725  26.235  1.00  0.00     0.135 A 
ATOM     66  F   UNL A   1      43.674  23.416  29.018  1.00  0.00    -0.206 F 
ATOM     67  C   UNL A   1      44.406  23.224  26.835  1.00  0.00     0.059 A 
ATOM     68  C   UNL A   1      44.055  24.979  25.243  1.00  0.00     0.059 A 
ATOM     69  F   UNL A   1      42.913  26.886  25.800  1.00  0.00    -0.206 F 
ATOM     70  C   UNL A   1      44.548  23.724  25.551  1.00  0.00     0.060 A 
BRANCH  70  71
ATOM     71  S   UNL A   1      45.335  22.699  24.298  1.00  0.00     0.124 S 
ATOM     72  O   UNL A   1      46.373  23.588  23.786  1.00  0.00    -0.237 OA
ATOM     73  O   UNL A   1      45.802  21.562  25.084  1.00  0.00    -0.237 OA
ATOM     74  O   UNL A   1      44.252  22.407  23.363  1.00  0.00    -0.744 OA
ENDBRANCH  70  71
ENDBRANCH  49  63
BRANCH  50  75
ATOM     75  C   UNL A   1      38.894  31.957  33.664  1.00  0.00     0.058 A 
ATOM     76  C   UNL A   1      38.602  33.341  33.693  1.00  0.00     0.135 A 
ATOM     77  C   UNL A   1      37.844  31.102  33.290  1.00  0.00     0.135 A 
ATOM     78  F   UNL A   1      39.540  34.214  34.100  1.00  0.00    -0.206 F 
ATOM     79  C   UNL A   1      37.433  33.864  33.138  1.00  0.00     0.059 A 
ATOM     80  C   UNL A   1      36.657  31.610  32.739  1.00  0.00     0.059 A 
ATOM     81  F   UNL A   1      38.035  29.775  33.249  1.00  0.00    -0.206 F 
ATOM     82  C   UNL A   1      36.509  32.989  32.579  1.00  0.00     0.060 A 
BRANCH  82  83
ATOM     83  S   UNL A   1      35.228  33.681  31.496  1.00  0.00     0.124 S 
ATOM     84  O   UNL A   1      35.993  34.048  30.310  1.00  0.00    -0.237 OA
ATOM     85  O   UNL A   1      34.313  32.546  31.342  1.00  0.00    -0.237 OA
ATOM     86  O   UNL A   1      34.701  34.796  32.272  1.00  0.00    -0.744 OA
ENDBRANCH  82  83
ENDBRANCH  50  75
BRANCH  62  87
ATOM     87  C   UNL A   1      43.868  26.653  34.116  1.00  0.00     0.058 A 
ATOM     88  C   UNL A   1      45.250  26.569  34.356  1.00  0.00     0.135 A 
ATOM     89  C   UNL A   1      43.067  25.763  34.875  1.00  0.00     0.135 A 
ATOM     90  F   UNL A   1      46.119  27.453  33.845  1.00  0.00    -0.206 F 
ATOM     91  C   UNL A   1      45.807  25.599  35.175  1.00  0.00     0.059 A 
ATOM     92  C   UNL A   1      43.598  24.852  35.777  1.00  0.00     0.059 A 
ATOM     93  F   UNL A   1      41.729  25.755  34.793  1.00  0.00    -0.206 F 
ATOM     94  C   UNL A   1      44.973  24.743  35.880  1.00  0.00     0.060 A 
BRANCH  94  95
ATOM     95  S   UNL A   1      45.715  23.504  36.940  1.00  0.00     0.124 S 
ATOM     96  O   UNL A   1      45.134  23.854  38.232  1.00  0.00    -0.237 OA
ATOM     97  O   UNL A   1      45.237  22.258  36.348  1.00  0.00    -0.237 OA
ATOM     98  O   UNL A   1      47.147  23.750  36.801  1.00  0.00    -0.744 OA
ENDBRANCH  94  95
ENDBRANCH  62  87
ENDBRANCH  36  37
ENDBRANCH  28  31
ENDBRANCH  26  27
ENDBRANCH  25  26
ENDBRANCH   1  25
TORSDOF 17
ENDMDL
