MODEL 1
REMARK VINA RESULT:     -12.8      0.000      0.000
REMARK SMILES O=C(CCSC1=[NH+][C@@H]2C=Cc3nsnc3[C@@H]2N1)NCCCCNC(=O)c1ccc(-c2c3nc(c(-c4c(F)cc(S(=O)(=O)[O-])cc4F)c4ccc([nH]4)c(-c4c(F)cc(S(=O)(=O)[O-])cc4F)c4nc(c(-c5c(F)cc(S(=O)(=O)[O-])cc5F)c5ccc2[nH]5)C=C4)C=C3)cc1
REMARK SMILES IDX 20 1 19 2 18 3 1 4 2 5 3 7 4 8 5 9 6 10 7 11 17 12 8 13
REMARK SMILES IDX 16 15 9 17 15 18 10 19 11 20 14 21 12 22 13 23 21 24 22 25
REMARK SMILES IDX 23 26 24 27 25 29 26 30 27 31 91 32 28 33 90 34 29 35 30 36
REMARK SMILES IDX 31 37 84 38 32 39 89 40 83 41 85 42 33 43 88 44 82 45 81 46
REMARK SMILES IDX 34 48 68 49 47 50 67 51 48 52 51 53 66 54 86 55 49 56 50 57
REMARK SMILES IDX 65 59 87 60 52 61 35 62 36 63 45 64 37 65 38 66 44 67 46 68
REMARK SMILES IDX 39 69 40 70 41 71 42 72 43 73 69 74 70 75 79 76 71 77 72 78
REMARK SMILES IDX 78 79 80 80 73 81 74 82 75 83 76 84 77 85 53 86 54 87 63 88
REMARK SMILES IDX 55 89 56 90 62 91 64 92 57 93 58 94 59 95 60 96 61 97
REMARK H PARENT 18 6 7 14 17 16 23 28 85 47 51 58
REMARK Flexibility Score: inf
ROOT
ATOM      1  C   UNL A   1      49.389  22.160  34.355  1.00  0.00     0.023 C 
ENDROOT
BRANCH   1   2
ATOM      2  C   UNL A   1      48.697  20.745  34.615  1.00  0.00     0.116 C 
BRANCH   2   3
ATOM      3  N   UNL A   1      49.022  20.089  35.872  1.00  0.00    -0.356 N 
ATOM      4  O   UNL A   1      48.243  21.723  37.312  1.00  0.00    -0.275 OA
ATOM      5  C   UNL A   1      48.711  20.603  37.124  1.00  0.00     0.220 C 
ATOM      6  H   UNL A   1      49.493  19.225  35.833  1.00  0.00     0.163 HD
BRANCH   5   7
ATOM      7  C   UNL A   1      48.813  19.584  38.240  1.00  0.00     0.111 C 
BRANCH   7   8
ATOM      8  C   UNL A   1      48.424  20.207  39.577  1.00  0.00     0.092 C 
BRANCH   8   9
ATOM      9  S   UNL A   1      46.723  19.857  40.025  1.00  0.00    -0.039 SA
BRANCH   9  10
ATOM     10  C   UNL A   1      46.694  18.122  40.332  1.00  0.00     0.305 C 
ATOM     11  N   UNL A   1      46.420  17.390  39.306  1.00  0.00    -0.258 N 
ATOM     12  N   UNL A   1      46.626  17.617  41.617  1.00  0.00    -0.256 N 
ATOM     13  C   UNL A   1      45.773  16.185  39.886  1.00  0.00     0.248 C 
ATOM     14  H   UNL A   1      46.598  17.584  38.357  1.00  0.00     0.306 HD
ATOM     15  C   UNL A   1      45.694  16.448  41.856  1.00  0.00     0.274 C 
ATOM     16  H   UNL A   1      47.163  18.003  42.347  1.00  0.00     0.306 HD
ATOM     17  C   UNL A   1      44.201  15.992  38.917  1.00  0.00     0.029 C 
ATOM     18  C   UNL A   1      43.784  16.317  42.615  1.00  0.00     0.131 A 
ATOM     19  C   UNL A   1      42.871  15.820  39.434  1.00  0.00     0.032 C 
ATOM     20  C   UNL A   1      42.440  15.695  41.110  1.00  0.00     0.105 A 
ATOM     21  N   UNL A   1      43.706  15.371  43.984  1.00  0.00    -0.173 NA
ATOM     22  N   UNL A   1      41.724  14.165  41.531  1.00  0.00    -0.173 NA
ATOM     23  S   UNL A   1      42.435  13.554  43.633  1.00  0.00     0.069 S 
ENDBRANCH   9  10
ENDBRANCH   8   9
ENDBRANCH   7   8
ENDBRANCH   5   7
ENDBRANCH   2   3
ENDBRANCH   1   2
BRANCH   1  24
ATOM     24  C   UNL A   1      48.698  23.701  34.168  1.00  0.00     0.023 C 
BRANCH  24  25
ATOM     25  C   UNL A   1      47.557  24.781  35.234  1.00  0.00     0.116 C 
BRANCH  25  26
ATOM     26  N   UNL A   1      46.989  24.273  37.094  1.00  0.00    -0.352 N 
ATOM     27  C   UNL A   1      45.452  23.940  37.438  1.00  0.00     0.251 C 
ATOM     28  H   UNL A   1      47.664  24.227  37.809  1.00  0.00     0.163 HD
ATOM     29  O   UNL A   1      45.508  23.945  38.697  1.00  0.00    -0.269 OA
BRANCH  27  30
ATOM     30  C   UNL A   1      44.241  23.602  35.660  1.00  0.00     0.039 A 
ATOM     31  C   UNL A   1      44.657  23.097  34.280  1.00  0.00     0.014 A 
ATOM     32  C   UNL A   1      43.152  24.468  35.111  1.00  0.00     0.014 A 
ATOM     33  C   UNL A   1      44.807  23.860  33.047  1.00  0.00     0.010 A 
ATOM     34  C   UNL A   1      43.304  25.328  33.915  1.00  0.00     0.010 A 
ATOM     35  C   UNL A   1      44.287  25.135  32.931  1.00  0.00    -0.014 A 
BRANCH  35  36
ATOM     36  C   UNL A   1      44.490  26.023  31.694  1.00  0.00     0.031 A 
ATOM     37  C   UNL A   1      44.383  25.299  30.366  1.00  0.00     0.074 A 
ATOM     38  C   UNL A   1      44.259  27.367  31.546  1.00  0.00     0.049 A 
ATOM     39  N   UNL A   1      43.291  25.077  29.687  1.00  0.00    -0.248 NA
ATOM     40  C   UNL A   1      45.550  24.577  29.854  1.00  0.00     0.031 C 
ATOM     41  C   UNL A   1      43.002  28.035  31.926  1.00  0.00     0.029 A 
ATOM     42  N   UNL A   1      44.879  28.317  30.717  1.00  0.00    -0.354 N 
ATOM     43  C   UNL A   1      43.606  24.162  28.686  1.00  0.00     0.074 A 
ATOM     44  C   UNL A   1      45.014  23.864  28.854  1.00  0.00     0.031 C 
ATOM     45  C   UNL A   1      42.890  29.201  31.245  1.00  0.00     0.029 A 
ATOM     46  C   UNL A   1      44.107  29.461  30.468  1.00  0.00     0.049 A 
ATOM     47  H   UNL A   1      45.780  28.190  30.340  1.00  0.00     0.167 HD
ATOM     48  C   UNL A   1      42.732  23.680  27.757  1.00  0.00     0.037 A 
ATOM     49  C   UNL A   1      44.162  30.310  29.389  1.00  0.00     0.037 A 
ATOM     50  C   UNL A   1      41.431  24.280  27.732  1.00  0.00     0.049 A 
ATOM     51  C   UNL A   1      43.336  29.557  28.385  1.00  0.00     0.074 A 
ATOM     52  C   UNL A   1      40.154  24.017  28.178  1.00  0.00     0.029 A 
ATOM     53  N   UNL A   1      41.286  25.440  27.008  1.00  0.00    -0.354 N 
ATOM     54  N   UNL A   1      42.036  29.512  28.297  1.00  0.00    -0.248 NA
ATOM     55  C   UNL A   1      44.046  28.511  27.652  1.00  0.00     0.031 C 
ATOM     56  C   UNL A   1      39.464  25.272  28.126  1.00  0.00     0.029 A 
ATOM     57  C   UNL A   1      40.380  26.219  27.675  1.00  0.00     0.049 A 
ATOM     58  H   UNL A   1      41.746  25.667  26.168  1.00  0.00     0.167 HD
ATOM     59  C   UNL A   1      41.759  28.258  27.746  1.00  0.00     0.074 A 
ATOM     60  C   UNL A   1      43.040  27.706  27.352  1.00  0.00     0.031 C 
ATOM     61  C   UNL A   1      40.540  27.648  27.826  1.00  0.00     0.037 A 
BRANCH  48  62
ATOM     62  C   UNL A   1      43.073  22.714  26.679  1.00  0.00     0.058 A 
ATOM     63  C   UNL A   1      42.666  21.376  26.810  1.00  0.00     0.135 A 
ATOM     64  C   UNL A   1      43.987  23.023  25.663  1.00  0.00     0.135 A 
ATOM     65  F   UNL A   1      41.790  21.033  27.769  1.00  0.00    -0.206 F 
ATOM     66  C   UNL A   1      43.191  20.368  26.010  1.00  0.00     0.059 A 
ATOM     67  C   UNL A   1      44.520  22.028  24.839  1.00  0.00     0.059 A 
ATOM     68  F   UNL A   1      44.412  24.284  25.495  1.00  0.00    -0.206 F 
ATOM     69  C   UNL A   1      44.136  20.700  25.041  1.00  0.00     0.060 A 
BRANCH  69  70
ATOM     70  S   UNL A   1      44.875  19.359  24.080  1.00  0.00     0.124 S 
ATOM     71  O   UNL A   1      46.299  19.572  24.310  1.00  0.00    -0.237 OA
ATOM     72  O   UNL A   1      44.296  18.179  24.714  1.00  0.00    -0.237 OA
ATOM     73  O   UNL A   1      44.414  19.622  22.719  1.00  0.00    -0.744 OA
ENDBRANCH  69  70
ENDBRANCH  48  62
BRANCH  49  74
ATOM     74  C   UNL A   1      45.436  31.002  28.978  1.00  0.00     0.058 A 
ATOM     75  C   UNL A   1      46.410  31.235  29.966  1.00  0.00     0.135 A 
ATOM     76  C   UNL A   1      45.749  31.501  27.697  1.00  0.00     0.135 A 
ATOM     77  F   UNL A   1      46.135  30.979  31.254  1.00  0.00    -0.206 F 
ATOM     78  C   UNL A   1      47.680  31.733  29.667  1.00  0.00     0.059 A 
ATOM     79  C   UNL A   1      47.024  31.968  27.359  1.00  0.00     0.059 A 
ATOM     80  F   UNL A   1      44.833  31.539  26.718  1.00  0.00    -0.206 F 
ATOM     81  C   UNL A   1      48.001  32.030  28.345  1.00  0.00     0.060 A 
BRANCH  81  82
ATOM     82  S   UNL A   1      49.725  32.370  27.928  1.00  0.00     0.124 S 
ATOM     83  O   UNL A   1      49.807  31.902  26.549  1.00  0.00    -0.237 OA
ATOM     84  O   UNL A   1      49.792  33.817  28.113  1.00  0.00    -0.237 OA
ATOM     85  O   UNL A   1      50.473  31.587  28.906  1.00  0.00    -0.744 OA
ENDBRANCH  81  82
ENDBRANCH  49  74
BRANCH  61  86
ATOM     86  C   UNL A   1      39.417  28.478  28.353  1.00  0.00     0.058 A 
ATOM     87  C   UNL A   1      39.022  28.374  29.695  1.00  0.00     0.135 A 
ATOM     88  C   UNL A   1      38.766  29.430  27.553  1.00  0.00     0.135 A 
ATOM     89  F   UNL A   1      39.616  27.487  30.510  1.00  0.00    -0.206 F 
ATOM     90  C   UNL A   1      38.045  29.208  30.231  1.00  0.00     0.059 A 
ATOM     91  C   UNL A   1      37.803  30.291  28.074  1.00  0.00     0.059 A 
ATOM     92  F   UNL A   1      39.081  29.563  26.254  1.00  0.00    -0.206 F 
ATOM     93  C   UNL A   1      37.454  30.177  29.417  1.00  0.00     0.060 A 
BRANCH  93  94
ATOM     94  S   UNL A   1      36.288  31.336  30.161  1.00  0.00     0.124 S 
ATOM     95  O   UNL A   1      37.087  32.553  30.263  1.00  0.00    -0.237 OA
ATOM     96  O   UNL A   1      35.210  31.369  29.176  1.00  0.00    -0.237 OA
ATOM     97  O   UNL A   1      35.940  30.707  31.433  1.00  0.00    -0.744 OA
ENDBRANCH  93  94
ENDBRANCH  61  86
ENDBRANCH  35  36
ENDBRANCH  27  30
ENDBRANCH  25  26
ENDBRANCH  24  25
ENDBRANCH   1  24
TORSDOF 17
ENDMDL
MODEL 2
REMARK VINA RESULT:     -12.7      6.334     12.329
REMARK SMILES O=C(CCSC1=[NH+][C@@H]2C=Cc3nsnc3[C@@H]2N1)NCCCCNC(=O)c1ccc(-c2c3nc(c(-c4c(F)cc(S(=O)(=O)[O-])cc4F)c4ccc([nH]4)c(-c4c(F)cc(S(=O)(=O)[O-])cc4F)c4nc(c(-c5c(F)cc(S(=O)(=O)[O-])cc5F)c5ccc2[nH]5)C=C4)C=C3)cc1
REMARK SMILES IDX 20 1 19 2 18 3 1 4 2 5 3 7 4 8 5 9 6 10 7 11 17 12 8 13
REMARK SMILES IDX 16 15 9 17 15 18 10 19 11 20 14 21 12 22 13 23 21 24 22 25
REMARK SMILES IDX 23 26 24 27 25 29 26 30 27 31 91 32 28 33 90 34 29 35 30 36
REMARK SMILES IDX 31 37 84 38 32 39 89 40 83 41 85 42 33 43 88 44 82 45 81 46
REMARK SMILES IDX 34 48 68 49 47 50 67 51 48 52 51 53 66 54 86 55 49 56 50 57
REMARK SMILES IDX 65 59 87 60 52 61 35 62 36 63 45 64 37 65 38 66 44 67 46 68
REMARK SMILES IDX 39 69 40 70 41 71 42 72 43 73 69 74 70 75 79 76 71 77 72 78
REMARK SMILES IDX 78 79 80 80 73 81 74 82 75 83 76 84 77 85 53 86 54 87 63 88
REMARK SMILES IDX 55 89 56 90 62 91 64 92 57 93 58 94 59 95 60 96 61 97
REMARK H PARENT 18 6 7 14 17 16 23 28 85 47 51 58
REMARK Flexibility Score: inf
ROOT
ATOM      1  C   UNL A   1      38.733  20.428  25.654  1.00  0.00     0.023 C 
ENDROOT
BRANCH   1   2
ATOM      2  C   UNL A   1      38.723  22.021  25.763  1.00  0.00     0.116 C 
BRANCH   2   3
ATOM      3  N   UNL A   1      37.488  22.628  26.233  1.00  0.00    -0.356 N 
ATOM      4  O   UNL A   1      36.231  22.358  24.310  1.00  0.00    -0.275 OA
ATOM      5  C   UNL A   1      36.318  22.693  25.489  1.00  0.00     0.220 C 
ATOM      6  H   UNL A   1      37.481  23.020  27.136  1.00  0.00     0.163 HD
BRANCH   5   7
ATOM      7  C   UNL A   1      35.093  23.026  26.315  1.00  0.00     0.111 C 
BRANCH   7   8
ATOM      8  C   UNL A   1      34.460  21.756  26.879  1.00  0.00     0.092 C 
BRANCH   8   9
ATOM      9  S   UNL A   1      33.005  22.100  27.870  1.00  0.00    -0.039 SA
BRANCH   9  10
ATOM     10  C   UNL A   1      31.970  23.062  26.817  1.00  0.00     0.305 C 
ATOM     11  N   UNL A   1      31.622  22.486  25.717  1.00  0.00    -0.258 N 
ATOM     12  N   UNL A   1      31.831  24.426  26.993  1.00  0.00    -0.256 N 
ATOM     13  C   UNL A   1      31.423  23.611  24.769  1.00  0.00     0.248 C 
ATOM     14  H   UNL A   1      31.513  21.522  25.546  1.00  0.00     0.306 HD
ATOM     15  C   UNL A   1      31.842  25.291  25.749  1.00  0.00     0.274 C 
ATOM     16  H   UNL A   1      31.730  24.819  27.890  1.00  0.00     0.306 HD
ATOM     17  C   UNL A   1      32.423  23.141  23.277  1.00  0.00     0.029 C 
ATOM     18  C   UNL A   1      33.310  26.415  24.843  1.00  0.00     0.131 A 
ATOM     19  C   UNL A   1      33.393  23.945  22.585  1.00  0.00     0.032 C 
ATOM     20  C   UNL A   1      33.812  25.585  22.967  1.00  0.00     0.105 A 
ATOM     21  N   UNL A   1      32.911  28.029  24.751  1.00  0.00    -0.173 NA
ATOM     22  N   UNL A   1      33.447  26.710  21.689  1.00  0.00    -0.173 NA
ATOM     23  S   UNL A   1      32.720  28.689  22.613  1.00  0.00     0.069 S 
ENDBRANCH   9  10
ENDBRANCH   8   9
ENDBRANCH   7   8
ENDBRANCH   5   7
ENDBRANCH   2   3
ENDBRANCH   1   2
BRANCH   1  24
ATOM     24  C   UNL A   1      40.011  19.324  25.835  1.00  0.00     0.023 C 
BRANCH  24  25
ATOM     25  C   UNL A   1      41.537  19.235  26.961  1.00  0.00     0.116 C 
BRANCH  25  26
ATOM     26  N   UNL A   1      43.396  19.656  26.324  1.00  0.00    -0.352 N 
ATOM     27  C   UNL A   1      43.764  21.098  25.708  1.00  0.00     0.251 C 
ATOM     28  H   UNL A   1      44.096  18.967  26.389  1.00  0.00     0.163 HD
ATOM     29  O   UNL A   1      44.894  20.839  25.215  1.00  0.00    -0.269 OA
BRANCH  27  30
ATOM     30  C   UNL A   1      42.247  22.606  26.122  1.00  0.00     0.039 A 
ATOM     31  C   UNL A   1      41.905  23.879  25.352  1.00  0.00     0.014 A 
ATOM     32  C   UNL A   1      41.881  23.202  27.444  1.00  0.00     0.014 A 
ATOM     33  C   UNL A   1      42.218  25.259  25.704  1.00  0.00     0.010 A 
ATOM     34  C   UNL A   1      42.265  24.567  27.869  1.00  0.00     0.010 A 
ATOM     35  C   UNL A   1      42.629  25.592  26.980  1.00  0.00    -0.014 A 
BRANCH  35  36
ATOM     36  C   UNL A   1      43.059  27.009  27.388  1.00  0.00     0.031 A 
ATOM     37  C   UNL A   1      41.925  28.007  27.514  1.00  0.00     0.074 A 
ATOM     38  C   UNL A   1      44.152  27.406  28.116  1.00  0.00     0.049 A 
ATOM     39  N   UNL A   1      41.192  28.222  28.572  1.00  0.00    -0.248 NA
ATOM     40  C   UNL A   1      41.422  28.668  26.308  1.00  0.00     0.031 C 
ATOM     41  C   UNL A   1      44.536  26.823  29.413  1.00  0.00     0.029 A 
ATOM     42  N   UNL A   1      44.892  28.600  28.080  1.00  0.00    -0.354 N 
ATOM     43  C   UNL A   1      40.114  29.009  28.175  1.00  0.00     0.074 A 
ATOM     44  C   UNL A   1      40.292  29.233  26.755  1.00  0.00     0.031 C 
ATOM     45  C   UNL A   1      45.319  27.700  30.085  1.00  0.00     0.029 A 
ATOM     46  C   UNL A   1      45.622  28.866  29.247  1.00  0.00     0.049 A 
ATOM     47  H   UNL A   1      44.898  29.201  27.299  1.00  0.00     0.167 HD
ATOM     48  C   UNL A   1      39.123  29.457  28.997  1.00  0.00     0.037 A 
ATOM     49  C   UNL A   1      46.030  30.081  29.740  1.00  0.00     0.037 A 
ATOM     50  C   UNL A   1      39.294  29.213  30.398  1.00  0.00     0.049 A 
ATOM     51  C   UNL A   1      44.783  30.546  30.437  1.00  0.00     0.074 A 
ATOM     52  C   UNL A   1      38.859  28.330  31.363  1.00  0.00     0.029 A 
ATOM     53  N   UNL A   1      40.048  30.117  31.108  1.00  0.00    -0.354 N 
ATOM     54  N   UNL A   1      44.354  30.198  31.618  1.00  0.00    -0.248 NA
ATOM     55  C   UNL A   1      43.788  31.181  29.576  1.00  0.00     0.031 C 
ATOM     56  C   UNL A   1      39.778  28.470  32.454  1.00  0.00     0.029 A 
ATOM     57  C   UNL A   1      40.727  29.413  32.064  1.00  0.00     0.049 A 
ATOM     58  H   UNL A   1      40.091  31.089  30.957  1.00  0.00     0.167 HD
ATOM     59  C   UNL A   1      42.963  30.299  31.537  1.00  0.00     0.074 A 
ATOM     60  C   UNL A   1      42.685  30.932  30.262  1.00  0.00     0.031 C 
ATOM     61  C   UNL A   1      42.106  29.683  32.403  1.00  0.00     0.037 A 
BRANCH  48  62
ATOM     62  C   UNL A   1      37.980  30.310  28.575  1.00  0.00     0.058 A 
ATOM     63  C   UNL A   1      38.019  31.687  28.853  1.00  0.00     0.135 A 
ATOM     64  C   UNL A   1      36.765  29.767  28.137  1.00  0.00     0.135 A 
ATOM     65  F   UNL A   1      39.163  32.252  29.274  1.00  0.00    -0.206 F 
ATOM     66  C   UNL A   1      36.886  32.486  28.763  1.00  0.00     0.059 A 
ATOM     67  C   UNL A   1      35.615  30.552  28.028  1.00  0.00     0.059 A 
ATOM     68  F   UNL A   1      36.670  28.456  27.862  1.00  0.00    -0.206 F 
ATOM     69  C   UNL A   1      35.681  31.905  28.371  1.00  0.00     0.060 A 
BRANCH  69  70
ATOM     70  S   UNL A   1      34.202  32.945  28.355  1.00  0.00     0.124 S 
ATOM     71  O   UNL A   1      34.663  34.114  27.616  1.00  0.00    -0.237 OA
ATOM     72  O   UNL A   1      33.241  32.093  27.664  1.00  0.00    -0.237 OA
ATOM     73  O   UNL A   1      33.930  33.168  29.773  1.00  0.00    -0.744 OA
ENDBRANCH  69  70
ENDBRANCH  48  62
BRANCH  49  74
ATOM     74  C   UNL A   1      46.862  31.038  28.926  1.00  0.00     0.058 A 
ATOM     75  C   UNL A   1      48.069  31.501  29.480  1.00  0.00     0.135 A 
ATOM     76  C   UNL A   1      46.536  31.576  27.664  1.00  0.00     0.135 A 
ATOM     77  F   UNL A   1      48.380  31.208  30.753  1.00  0.00    -0.206 F 
ATOM     78  C   UNL A   1      48.983  32.270  28.756  1.00  0.00     0.059 A 
ATOM     79  C   UNL A   1      47.446  32.315  26.900  1.00  0.00     0.059 A 
ATOM     80  F   UNL A   1      45.326  31.390  27.116  1.00  0.00    -0.206 F 
ATOM     81  C   UNL A   1      48.691  32.612  27.439  1.00  0.00     0.060 A 
BRANCH  81  82
ATOM     82  S   UNL A   1      50.000  33.329  26.420  1.00  0.00     0.124 S 
ATOM     83  O   UNL A   1      50.783  34.071  27.401  1.00  0.00    -0.237 OA
ATOM     84  O   UNL A   1      50.634  32.133  25.872  1.00  0.00    -0.237 OA
ATOM     85  O   UNL A   1      49.271  34.140  25.451  1.00  0.00    -0.744 OA
ENDBRANCH  81  82
ENDBRANCH  49  74
BRANCH  61  86
ATOM     86  C   UNL A   1      42.723  29.048  33.605  1.00  0.00     0.058 A 
ATOM     87  C   UNL A   1      42.792  29.742  34.822  1.00  0.00     0.135 A 
ATOM     88  C   UNL A   1      43.192  27.725  33.580  1.00  0.00     0.135 A 
ATOM     89  F   UNL A   1      42.349  31.007  34.908  1.00  0.00    -0.206 F 
ATOM     90  C   UNL A   1      43.272  29.133  35.978  1.00  0.00     0.059 A 
ATOM     91  C   UNL A   1      43.654  27.089  34.729  1.00  0.00     0.059 A 
ATOM     92  F   UNL A   1      43.177  27.015  32.440  1.00  0.00    -0.206 F 
ATOM     93  C   UNL A   1      43.684  27.799  35.926  1.00  0.00     0.060 A 
BRANCH  93  94
ATOM     94  S   UNL A   1      44.178  26.987  37.461  1.00  0.00     0.124 S 
ATOM     95  O   UNL A   1      45.100  25.963  36.982  1.00  0.00    -0.237 OA
ATOM     96  O   UNL A   1      44.785  28.083  38.212  1.00  0.00    -0.237 OA
ATOM     97  O   UNL A   1      42.919  26.489  38.008  1.00  0.00    -0.744 OA
ENDBRANCH  93  94
ENDBRANCH  61  86
ENDBRANCH  35  36
ENDBRANCH  27  30
ENDBRANCH  25  26
ENDBRANCH  24  25
ENDBRANCH   1  24
TORSDOF 17
ENDMDL
MODEL 3
REMARK VINA RESULT:     -12.6      6.889     12.842
REMARK SMILES O=C(CCSC1=[NH+][C@@H]2C=Cc3nsnc3[C@@H]2N1)NCCCCNC(=O)c1ccc(-c2c3nc(c(-c4c(F)cc(S(=O)(=O)[O-])cc4F)c4ccc([nH]4)c(-c4c(F)cc(S(=O)(=O)[O-])cc4F)c4nc(c(-c5c(F)cc(S(=O)(=O)[O-])cc5F)c5ccc2[nH]5)C=C4)C=C3)cc1
REMARK SMILES IDX 20 1 19 2 18 3 1 4 2 5 3 7 4 8 5 9 6 10 7 11 17 12 8 13
REMARK SMILES IDX 16 15 9 17 15 18 10 19 11 20 14 21 12 22 13 23 21 24 22 25
REMARK SMILES IDX 23 26 24 27 25 29 26 30 27 31 91 32 28 33 90 34 29 35 30 36
REMARK SMILES IDX 31 37 84 38 32 39 89 40 83 41 85 42 33 43 88 44 82 45 81 46
REMARK SMILES IDX 34 48 68 49 47 50 67 51 48 52 51 53 66 54 86 55 49 56 50 57
REMARK SMILES IDX 65 59 87 60 52 61 35 62 36 63 45 64 37 65 38 66 44 67 46 68
REMARK SMILES IDX 39 69 40 70 41 71 42 72 43 73 69 74 70 75 79 76 71 77 72 78
REMARK SMILES IDX 78 79 80 80 73 81 74 82 75 83 76 84 77 85 53 86 54 87 63 88
REMARK SMILES IDX 55 89 56 90 62 91 64 92 57 93 58 94 59 95 60 96 61 97
REMARK H PARENT 18 6 7 14 17 16 23 28 85 47 51 58
REMARK Flexibility Score: inf
ROOT
ATOM      1  C   UNL A   1      39.930  27.673  29.075  1.00  0.00     0.023 C 
ENDROOT
BRANCH   1   2
ATOM      2  C   UNL A   1      39.599  26.388  28.187  1.00  0.00     0.116 C 
BRANCH   2   3
ATOM      3  N   UNL A   1      40.431  25.216  28.412  1.00  0.00    -0.356 N 
ATOM      4  O   UNL A   1      39.223  23.702  27.147  1.00  0.00    -0.275 OA
ATOM      5  C   UNL A   1      40.211  23.978  27.822  1.00  0.00     0.220 C 
ATOM      6  H   UNL A   1      41.199  25.306  29.021  1.00  0.00     0.163 HD
BRANCH   5   7
ATOM      7  C   UNL A   1      41.401  23.044  27.914  1.00  0.00     0.111 C 
BRANCH   7   8
ATOM      8  C   UNL A   1      40.955  21.590  27.793  1.00  0.00     0.092 C 
BRANCH   8   9
ATOM      9  S   UNL A   1      41.400  20.868  26.212  1.00  0.00    -0.039 SA
BRANCH   9  10
ATOM     10  C   UNL A   1      42.836  21.756  25.708  1.00  0.00     0.305 C 
ATOM     11  N   UNL A   1      43.896  21.522  26.406  1.00  0.00    -0.258 N 
ATOM     12  N   UNL A   1      42.751  22.853  24.872  1.00  0.00    -0.256 N 
ATOM     13  C   UNL A   1      44.675  22.783  26.309  1.00  0.00     0.248 C 
ATOM     14  H   UNL A   1      44.133  20.698  26.890  1.00  0.00     0.306 HD
ATOM     15  C   UNL A   1      43.609  24.054  25.210  1.00  0.00     0.274 C 
ATOM     16  H   UNL A   1      42.154  22.853  24.088  1.00  0.00     0.306 HD
ATOM     17  C   UNL A   1      45.088  23.207  28.069  1.00  0.00     0.029 C 
ATOM     18  C   UNL A   1      43.211  25.827  26.178  1.00  0.00     0.131 A 
ATOM     19  C   UNL A   1      44.889  24.465  28.735  1.00  0.00     0.032 C 
ATOM     20  C   UNL A   1      44.259  25.911  28.010  1.00  0.00     0.105 A 
ATOM     21  N   UNL A   1      43.488  27.155  25.212  1.00  0.00    -0.173 NA
ATOM     22  N   UNL A   1      45.391  27.233  28.001  1.00  0.00    -0.173 NA
ATOM     23  S   UNL A   1      45.142  28.424  26.047  1.00  0.00     0.069 S 
ENDBRANCH   9  10
ENDBRANCH   8   9
ENDBRANCH   7   8
ENDBRANCH   5   7
ENDBRANCH   2   3
ENDBRANCH   1   2
BRANCH   1  24
ATOM     24  C   UNL A   1      38.919  28.932  29.602  1.00  0.00     0.023 C 
BRANCH  24  25
ATOM     25  C   UNL A   1      37.038  29.182  29.671  1.00  0.00     0.116 C 
BRANCH  25  26
ATOM     26  N   UNL A   1      35.884  29.280  28.027  1.00  0.00    -0.352 N 
ATOM     27  C   UNL A   1      35.095  30.629  27.638  1.00  0.00     0.251 C 
ATOM     28  H   UNL A   1      35.800  28.489  27.449  1.00  0.00     0.163 HD
ATOM     29  O   UNL A   1      34.327  30.179  26.746  1.00  0.00    -0.269 OA
BRANCH  27  30
ATOM     30  C   UNL A   1      35.807  32.372  28.732  1.00  0.00     0.039 A 
ATOM     31  C   UNL A   1      37.231  32.759  29.127  1.00  0.00     0.014 A 
ATOM     32  C   UNL A   1      35.205  33.004  29.946  1.00  0.00     0.014 A 
ATOM     33  C   UNL A   1      37.855  32.684  30.442  1.00  0.00     0.010 A 
ATOM     34  C   UNL A   1      35.763  32.868  31.312  1.00  0.00     0.010 A 
ATOM     35  C   UNL A   1      37.094  32.512  31.583  1.00  0.00    -0.014 A 
BRANCH  35  36
ATOM     36  C   UNL A   1      37.697  32.335  32.984  1.00  0.00     0.031 A 
ATOM     37  C   UNL A   1      38.740  31.241  33.095  1.00  0.00     0.074 A 
ATOM     38  C   UNL A   1      37.839  33.259  33.988  1.00  0.00     0.049 A 
ATOM     39  N   UNL A   1      40.019  31.359  32.860  1.00  0.00    -0.248 NA
ATOM     40  C   UNL A   1      38.301  29.855  33.272  1.00  0.00     0.031 C 
ATOM     41  C   UNL A   1      38.438  34.592  33.805  1.00  0.00     0.029 A 
ATOM     42  N   UNL A   1      37.856  33.099  35.385  1.00  0.00    -0.354 N 
ATOM     43  C   UNL A   1      40.550  30.073  32.818  1.00  0.00     0.074 A 
ATOM     44  C   UNL A   1      39.436  29.177  33.052  1.00  0.00     0.031 C 
ATOM     45  C   UNL A   1      38.870  35.059  35.001  1.00  0.00     0.029 A 
ATOM     46  C   UNL A   1      38.481  34.144  36.080  1.00  0.00     0.049 A 
ATOM     47  H   UNL A   1      37.463  32.317  35.837  1.00  0.00     0.167 HD
ATOM     48  C   UNL A   1      41.863  29.771  32.603  1.00  0.00     0.037 A 
ATOM     49  C   UNL A   1      39.088  34.106  37.311  1.00  0.00     0.037 A 
ATOM     50  C   UNL A   1      42.775  30.876  32.564  1.00  0.00     0.049 A 
ATOM     51  C   UNL A   1      40.442  33.563  36.951  1.00  0.00     0.074 A 
ATOM     52  C   UNL A   1      43.432  31.652  31.634  1.00  0.00     0.029 A 
ATOM     53  N   UNL A   1      43.260  31.335  33.766  1.00  0.00    -0.354 N 
ATOM     54  N   UNL A   1      41.456  34.217  36.457  1.00  0.00    -0.248 NA
ATOM     55  C   UNL A   1      40.517  32.109  36.821  1.00  0.00     0.031 C 
ATOM     56  C   UNL A   1      43.854  32.824  32.342  1.00  0.00     0.029 A 
ATOM     57  C   UNL A   1      43.399  32.691  33.652  1.00  0.00     0.049 A 
ATOM     58  H   UNL A   1      43.470  30.790  34.559  1.00  0.00     0.167 HD
ATOM     59  C   UNL A   1      42.150  33.277  35.692  1.00  0.00     0.074 A 
ATOM     60  C   UNL A   1      41.531  31.997  35.980  1.00  0.00     0.031 C 
ATOM     61  C   UNL A   1      43.045  33.605  34.715  1.00  0.00     0.037 A 
BRANCH  48  62
ATOM     62  C   UNL A   1      42.434  28.398  32.573  1.00  0.00     0.058 A 
ATOM     63  C   UNL A   1      42.626  27.714  33.785  1.00  0.00     0.135 A 
ATOM     64  C   UNL A   1      43.012  27.856  31.418  1.00  0.00     0.135 A 
ATOM     65  F   UNL A   1      42.089  28.196  34.918  1.00  0.00    -0.206 F 
ATOM     66  C   UNL A   1      43.414  26.573  33.866  1.00  0.00     0.059 A 
ATOM     67  C   UNL A   1      43.799  26.703  31.473  1.00  0.00     0.059 A 
ATOM     68  F   UNL A   1      42.864  28.470  30.235  1.00  0.00    -0.206 F 
ATOM     69  C   UNL A   1      44.016  26.086  32.707  1.00  0.00     0.060 A 
BRANCH  69  70
ATOM     70  S   UNL A   1      45.114  24.657  32.857  1.00  0.00     0.124 S 
ATOM     71  O   UNL A   1      45.070  24.392  34.291  1.00  0.00    -0.237 OA
ATOM     72  O   UNL A   1      44.449  23.675  32.007  1.00  0.00    -0.237 OA
ATOM     73  O   UNL A   1      46.390  25.155  32.351  1.00  0.00    -0.744 OA
ENDBRANCH  69  70
ENDBRANCH  48  62
BRANCH  49  74
ATOM     74  C   UNL A   1      38.369  33.628  38.546  1.00  0.00     0.058 A 
ATOM     75  C   UNL A   1      38.518  34.375  39.729  1.00  0.00     0.135 A 
ATOM     76  C   UNL A   1      37.586  32.461  38.668  1.00  0.00     0.135 A 
ATOM     77  F   UNL A   1      39.395  35.391  39.776  1.00  0.00    -0.206 F 
ATOM     78  C   UNL A   1      37.784  34.106  40.886  1.00  0.00     0.059 A 
ATOM     79  C   UNL A   1      36.810  32.188  39.799  1.00  0.00     0.059 A 
ATOM     80  F   UNL A   1      37.534  31.549  37.687  1.00  0.00    -0.206 F 
ATOM     81  C   UNL A   1      36.876  33.050  40.886  1.00  0.00     0.060 A 
BRANCH  81  82
ATOM     82  S   UNL A   1      35.716  32.906  42.262  1.00  0.00     0.124 S 
ATOM     83  O   UNL A   1      36.606  32.892  43.417  1.00  0.00    -0.237 OA
ATOM     84  O   UNL A   1      34.910  34.113  42.095  1.00  0.00    -0.237 OA
ATOM     85  O   UNL A   1      35.016  31.655  41.989  1.00  0.00    -0.744 OA
ENDBRANCH  81  82
ENDBRANCH  49  74
BRANCH  61  86
ATOM     86  C   UNL A   1      43.431  35.044  34.628  1.00  0.00     0.058 A 
ATOM     87  C   UNL A   1      42.743  35.917  33.774  1.00  0.00     0.135 A 
ATOM     88  C   UNL A   1      44.443  35.586  35.437  1.00  0.00     0.135 A 
ATOM     89  F   UNL A   1      41.758  35.458  32.984  1.00  0.00    -0.206 F 
ATOM     90  C   UNL A   1      43.022  37.281  33.751  1.00  0.00     0.059 A 
ATOM     91  C   UNL A   1      44.722  36.949  35.448  1.00  0.00     0.059 A 
ATOM     92  F   UNL A   1      45.156  34.799  36.259  1.00  0.00    -0.206 F 
ATOM     93  C   UNL A   1      44.001  37.792  34.606  1.00  0.00     0.060 A 
BRANCH  93  94
ATOM     94  S   UNL A   1      44.256  39.578  34.659  1.00  0.00     0.124 S 
ATOM     95  O   UNL A   1      44.392  39.826  36.091  1.00  0.00    -0.237 OA
ATOM     96  O   UNL A   1      45.475  39.741  33.872  1.00  0.00    -0.237 OA
ATOM     97  O   UNL A   1      43.048  40.117  34.042  1.00  0.00    -0.744 OA
ENDBRANCH  93  94
ENDBRANCH  61  86
ENDBRANCH  35  36
ENDBRANCH  27  30
ENDBRANCH  25  26
ENDBRANCH  24  25
ENDBRANCH   1  24
TORSDOF 17
ENDMDL
