MODEL 1
REMARK VINA RESULT:     -12.3      0.000      0.000
REMARK SMILES CC(C)[C@@H](NC(=O)/C(=C\c1ccccc1F)NC(=O)c1ccccc1)C(=O)NCCCCNC(=O)c1ccc(-c2c3nc(c(-c4c(F)cc(S(=O)(=O)[O-])cc4F)c4ccc([nH]4)c(-c4c(F)cc(S(=O)(=O)[O-])cc4F)c4nc(c(-c5c(F)cc(S(=O)(=O)[O-])cc5F)c5ccc2[nH]5)C=C4)C=C3)cc1
REMARK SMILES IDX 30 1 29 2 28 3 26 4 27 5 4 7 2 8 1 9 3 10 5 11 6 12 7 14
REMARK SMILES IDX 8 15 9 16 17 17 18 18 19 20 20 21 21 22 25 23 22 24 24 25
REMARK SMILES IDX 23 26 10 27 11 28 15 29 12 30 14 31 16 32 13 33 31 34 32 35
REMARK SMILES IDX 33 36 34 37 35 39 36 40 37 41 101 42 38 43 100 44 39 45
REMARK SMILES IDX 40 46 41 47 94 48 42 49 99 50 93 51 95 52 43 53 98 54 92 55
REMARK SMILES IDX 91 56 44 58 78 59 57 60 77 61 58 62 61 63 76 64 96 65 59 66
REMARK SMILES IDX 60 67 75 69 97 70 62 71 45 72 46 73 55 74 47 75 48 76 54 77
REMARK SMILES IDX 56 78 49 79 50 80 51 81 52 82 53 83 79 84 80 85 89 86 81 87
REMARK SMILES IDX 82 88 88 89 90 90 83 91 84 92 85 93 86 94 87 95 63 96 64 97
REMARK SMILES IDX 73 98 65 99 66 100 72 101 74 102 67 103 68 104 69 105 70 106
REMARK SMILES IDX 71 107
REMARK H PARENT 28 6 5 13 17 19 33 38 95 57 61 68
REMARK Flexibility Score: inf
ROOT
ATOM      1  C   UNL A   1      33.539  29.024  25.819  1.00  0.00     0.023 C 
ENDROOT
BRANCH   1   2
ATOM      2  C   UNL A   1      33.665  27.844  24.856  1.00  0.00     0.116 C 
BRANCH   2   3
ATOM      3  N   UNL A   1      32.987  26.713  25.437  1.00  0.00    -0.354 N 
ATOM      4  C   UNL A   1      32.254  25.818  24.723  1.00  0.00     0.242 C 
ATOM      5  O   UNL A   1      31.099  25.600  25.097  1.00  0.00    -0.273 OA
ATOM      6  H   UNL A   1      33.059  26.580  26.410  1.00  0.00     0.163 HD
BRANCH   4   7
ATOM      7  C   UNL A   1      32.806  25.234  23.413  1.00  0.00     0.174 C 
BRANCH   7   8
ATOM      8  C   UNL A   1      32.667  26.258  22.239  1.00  0.00     0.015 C 
ATOM      9  C   UNL A   1      32.765  25.564  20.875  1.00  0.00     0.010 C 
ATOM     10  C   UNL A   1      31.359  27.064  22.273  1.00  0.00     0.010 C 
ENDBRANCH   7   8
BRANCH   7  11
ATOM     11  N   UNL A   1      34.193  24.719  23.506  1.00  0.00    -0.339 N 
ATOM     12  C   UNL A   1      34.589  23.408  23.619  1.00  0.00     0.268 C 
ATOM     13  H   UNL A   1      34.912  25.393  23.486  1.00  0.00     0.164 HD
ATOM     14  O   UNL A   1      35.388  22.967  22.793  1.00  0.00    -0.268 OA
BRANCH  12  15
ATOM     15  C   UNL A   1      34.268  22.610  24.854  1.00  0.00     0.107 C 
ATOM     16  C   UNL A   1      35.184  22.299  25.798  1.00  0.00     0.043 C 
BRANCH  15  17
ATOM     17  N   UNL A   1      32.965  22.209  25.120  1.00  0.00    -0.317 N 
ATOM     18  C   UNL A   1      32.242  21.055  24.940  1.00  0.00     0.255 C 
ATOM     19  H   UNL A   1      32.432  22.922  25.539  1.00  0.00     0.170 HD
ATOM     20  O   UNL A   1      31.068  21.025  25.309  1.00  0.00    -0.269 OA
BRANCH  18  21
ATOM     21  C   UNL A   1      32.795  19.853  24.317  1.00  0.00     0.040 A 
ATOM     22  C   UNL A   1      32.165  19.328  23.186  1.00  0.00     0.014 A 
ATOM     23  C   UNL A   1      33.860  19.182  24.920  1.00  0.00     0.014 A 
ATOM     24  C   UNL A   1      32.653  18.153  22.615  1.00  0.00     0.001 A 
ATOM     25  C   UNL A   1      34.350  18.012  24.340  1.00  0.00     0.001 A 
ATOM     26  C   UNL A   1      33.751  17.505  23.184  1.00  0.00     0.000 A 
ENDBRANCH  18  21
ENDBRANCH  15  17
BRANCH  16  27
ATOM     27  C   UNL A   1      36.636  22.508  25.830  1.00  0.00     0.012 A 
ATOM     28  C   UNL A   1      37.089  23.764  26.266  1.00  0.00     0.011 A 
ATOM     29  C   UNL A   1      37.586  21.547  25.487  1.00  0.00     0.130 A 
ATOM     30  C   UNL A   1      38.449  24.000  26.474  1.00  0.00     0.001 A 
ATOM     31  C   UNL A   1      38.946  21.780  25.682  1.00  0.00     0.040 A 
ATOM     32  F   UNL A   1      37.211  20.364  24.983  1.00  0.00    -0.206 F 
ATOM     33  C   UNL A   1      39.377  22.999  26.203  1.00  0.00     0.003 A 
ENDBRANCH  16  27
ENDBRANCH  12  15
ENDBRANCH   7  11
ENDBRANCH   4   7
ENDBRANCH   2   3
ENDBRANCH   1   2
BRANCH   1  34
ATOM     34  C   UNL A   1      34.014  28.686  27.237  1.00  0.00     0.023 C 
BRANCH  34  35
ATOM     35  C   UNL A   1      35.382  29.266  27.577  1.00  0.00     0.116 C 
BRANCH  35  36
ATOM     36  N   UNL A   1      35.335  30.033  28.812  1.00  0.00    -0.352 N 
ATOM     37  C   UNL A   1      36.317  30.201  29.750  1.00  0.00     0.251 C 
ATOM     38  H   UNL A   1      34.484  30.491  28.999  1.00  0.00     0.163 HD
ATOM     39  O   UNL A   1      36.039  30.649  30.856  1.00  0.00    -0.269 OA
BRANCH  37  40
ATOM     40  C   UNL A   1      37.698  29.831  29.404  1.00  0.00     0.039 A 
ATOM     41  C   UNL A   1      38.566  29.433  30.420  1.00  0.00     0.014 A 
ATOM     42  C   UNL A   1      38.129  29.893  28.074  1.00  0.00     0.014 A 
ATOM     43  C   UNL A   1      39.874  29.084  30.098  1.00  0.00     0.010 A 
ATOM     44  C   UNL A   1      39.408  29.470  27.746  1.00  0.00     0.010 A 
ATOM     45  C   UNL A   1      40.301  29.096  28.760  1.00  0.00    -0.014 A 
BRANCH  45  46
ATOM     46  C   UNL A   1      41.708  28.801  28.413  1.00  0.00     0.031 A 
ATOM     47  C   UNL A   1      42.090  27.402  28.015  1.00  0.00     0.074 A 
ATOM     48  C   UNL A   1      42.631  29.779  28.476  1.00  0.00     0.049 A 
ATOM     49  N   UNL A   1      43.266  26.927  27.699  1.00  0.00    -0.248 NA
ATOM     50  C   UNL A   1      41.014  26.396  27.996  1.00  0.00     0.031 C 
ATOM     51  C   UNL A   1      42.372  31.160  28.889  1.00  0.00     0.029 A 
ATOM     52  N   UNL A   1      43.969  29.763  28.185  1.00  0.00    -0.354 N 
ATOM     53  C   UNL A   1      43.073  25.573  27.456  1.00  0.00     0.074 A 
ATOM     54  C   UNL A   1      41.681  25.285  27.721  1.00  0.00     0.031 C 
ATOM     55  C   UNL A   1      43.509  31.867  28.789  1.00  0.00     0.029 A 
ATOM     56  C   UNL A   1      44.579  30.985  28.331  1.00  0.00     0.049 A 
ATOM     57  H   UNL A   1      44.448  28.952  27.899  1.00  0.00     0.167 HD
ATOM     58  C   UNL A   1      43.968  24.659  27.020  1.00  0.00     0.037 A 
ATOM     59  C   UNL A   1      45.856  31.351  28.107  1.00  0.00     0.037 A 
ATOM     60  C   UNL A   1      45.341  24.966  26.721  1.00  0.00     0.049 A 
ATOM     61  C   UNL A   1      46.826  30.325  27.590  1.00  0.00     0.074 A 
ATOM     62  C   UNL A   1      46.329  24.123  26.247  1.00  0.00     0.029 A 
ATOM     63  N   UNL A   1      45.913  26.223  26.853  1.00  0.00    -0.354 N 
ATOM     64  N   UNL A   1      46.622  29.053  27.341  1.00  0.00    -0.248 NA
ATOM     65  C   UNL A   1      48.194  30.782  27.311  1.00  0.00     0.031 C 
ATOM     66  C   UNL A   1      47.506  24.866  26.113  1.00  0.00     0.029 A 
ATOM     67  C   UNL A   1      47.240  26.180  26.465  1.00  0.00     0.049 A 
ATOM     68  H   UNL A   1      45.445  27.026  27.174  1.00  0.00     0.167 HD
ATOM     69  C   UNL A   1      47.825  28.565  26.844  1.00  0.00     0.074 A 
ATOM     70  C   UNL A   1      48.750  29.680  26.827  1.00  0.00     0.031 C 
ATOM     71  C   UNL A   1      48.135  27.310  26.438  1.00  0.00     0.037 A 
BRANCH  58  72
ATOM     72  C   UNL A   1      43.486  23.250  26.818  1.00  0.00     0.058 A 
ATOM     73  C   UNL A   1      43.208  22.422  27.916  1.00  0.00     0.135 A 
ATOM     74  C   UNL A   1      43.331  22.706  25.532  1.00  0.00     0.135 A 
ATOM     75  F   UNL A   1      43.328  22.893  29.167  1.00  0.00    -0.206 F 
ATOM     76  C   UNL A   1      42.808  21.100  27.747  1.00  0.00     0.059 A 
ATOM     77  C   UNL A   1      42.907  21.394  25.339  1.00  0.00     0.059 A 
ATOM     78  F   UNL A   1      43.556  23.464  24.447  1.00  0.00    -0.206 F 
ATOM     79  C   UNL A   1      42.663  20.595  26.454  1.00  0.00     0.060 A 
BRANCH  79  80
ATOM     80  S   UNL A   1      42.111  18.888  26.250  1.00  0.00     0.124 S 
ATOM     81  O   UNL A   1      43.050  18.387  25.253  1.00  0.00    -0.237 OA
ATOM     82  O   UNL A   1      42.267  18.350  27.598  1.00  0.00    -0.237 OA
ATOM     83  O   UNL A   1      40.729  19.032  25.799  1.00  0.00    -0.744 OA
ENDBRANCH  79  80
ENDBRANCH  58  72
BRANCH  59  84
ATOM     84  C   UNL A   1      46.261  32.766  28.311  1.00  0.00     0.058 A 
ATOM     85  C   UNL A   1      46.751  33.216  29.545  1.00  0.00     0.135 A 
ATOM     86  C   UNL A   1      46.119  33.708  27.280  1.00  0.00     0.135 A 
ATOM     87  F   UNL A   1      46.890  32.358  30.567  1.00  0.00    -0.206 F 
ATOM     88  C   UNL A   1      47.068  34.553  29.759  1.00  0.00     0.059 A 
ATOM     89  C   UNL A   1      46.450  35.048  27.462  1.00  0.00     0.059 A 
ATOM     90  F   UNL A   1      45.658  33.323  26.080  1.00  0.00    -0.206 F 
ATOM     91  C   UNL A   1      46.909  35.463  28.711  1.00  0.00     0.060 A 
BRANCH  91  92
ATOM     92  S   UNL A   1      47.311  37.197  29.013  1.00  0.00     0.124 S 
ATOM     93  O   UNL A   1      48.379  37.080  30.001  1.00  0.00    -0.237 OA
ATOM     94  O   UNL A   1      47.719  37.652  27.688  1.00  0.00    -0.237 OA
ATOM     95  O   UNL A   1      46.056  37.753  29.507  1.00  0.00    -0.744 OA
ENDBRANCH  91  92
ENDBRANCH  59  84
BRANCH  71  96
ATOM     96  C   UNL A   1      49.515  27.077  25.895  1.00  0.00     0.058 A 
ATOM     97  C   UNL A   1      49.759  27.186  24.517  1.00  0.00     0.135 A 
ATOM     98  C   UNL A   1      50.573  26.669  26.721  1.00  0.00     0.135 A 
ATOM     99  F   UNL A   1      48.777  27.566  23.683  1.00  0.00    -0.206 F 
ATOM    100  C   UNL A   1      51.002  26.885  23.974  1.00  0.00     0.059 A 
ATOM    101  C   UNL A   1      51.833  26.387  26.203  1.00  0.00     0.059 A 
ATOM    102  F   UNL A   1      50.389  26.559  28.047  1.00  0.00    -0.206 F 
ATOM    103  C   UNL A   1      52.032  26.481  24.825  1.00  0.00     0.060 A 
BRANCH 103 104
ATOM    104  S   UNL A   1      53.646  26.110  24.108  1.00  0.00     0.124 S 
ATOM    105  O   UNL A   1      53.334  26.056  22.684  1.00  0.00    -0.237 OA
ATOM    106  O   UNL A   1      54.447  27.252  24.539  1.00  0.00    -0.237 OA
ATOM    107  O   UNL A   1      54.004  24.836  24.723  1.00  0.00    -0.744 OA
ENDBRANCH 103 104
ENDBRANCH  71  96
ENDBRANCH  45  46
ENDBRANCH  37  40
ENDBRANCH  35  36
ENDBRANCH  34  35
ENDBRANCH   1  34
TORSDOF 20
ENDMDL
MODEL 2
REMARK VINA RESULT:     -12.0      5.023      9.021
REMARK SMILES CC(C)[C@@H](NC(=O)/C(=C\c1ccccc1F)NC(=O)c1ccccc1)C(=O)NCCCCNC(=O)c1ccc(-c2c3nc(c(-c4c(F)cc(S(=O)(=O)[O-])cc4F)c4ccc([nH]4)c(-c4c(F)cc(S(=O)(=O)[O-])cc4F)c4nc(c(-c5c(F)cc(S(=O)(=O)[O-])cc5F)c5ccc2[nH]5)C=C4)C=C3)cc1
REMARK SMILES IDX 30 1 29 2 28 3 26 4 27 5 4 7 2 8 1 9 3 10 5 11 6 12 7 14
REMARK SMILES IDX 8 15 9 16 17 17 18 18 19 20 20 21 21 22 25 23 22 24 24 25
REMARK SMILES IDX 23 26 10 27 11 28 15 29 12 30 14 31 16 32 13 33 31 34 32 35
REMARK SMILES IDX 33 36 34 37 35 39 36 40 37 41 101 42 38 43 100 44 39 45
REMARK SMILES IDX 40 46 41 47 94 48 42 49 99 50 93 51 95 52 43 53 98 54 92 55
REMARK SMILES IDX 91 56 44 58 78 59 57 60 77 61 58 62 61 63 76 64 96 65 59 66
REMARK SMILES IDX 60 67 75 69 97 70 62 71 45 72 46 73 55 74 47 75 48 76 54 77
REMARK SMILES IDX 56 78 49 79 50 80 51 81 52 82 53 83 79 84 80 85 89 86 81 87
REMARK SMILES IDX 82 88 88 89 90 90 83 91 84 92 85 93 86 94 87 95 63 96 64 97
REMARK SMILES IDX 73 98 65 99 66 100 72 101 74 102 67 103 68 104 69 105 70 106
REMARK SMILES IDX 71 107
REMARK H PARENT 28 6 5 13 17 19 33 38 95 57 61 68
REMARK Flexibility Score: inf
ROOT
ATOM      1  C   UNL A   1      31.844  28.554  26.240  1.00  0.00     0.023 C 
ENDROOT
BRANCH   1   2
ATOM      2  C   UNL A   1      31.233  27.600  25.215  1.00  0.00     0.116 C 
BRANCH   2   3
ATOM      3  N   UNL A   1      31.898  27.804  23.954  1.00  0.00    -0.354 N 
ATOM      4  C   UNL A   1      32.972  27.083  23.535  1.00  0.00     0.242 C 
ATOM      5  O   UNL A   1      33.973  27.708  23.177  1.00  0.00    -0.273 OA
ATOM      6  H   UNL A   1      31.555  28.510  23.359  1.00  0.00     0.163 HD
BRANCH   4   7
ATOM      7  C   UNL A   1      32.974  25.551  23.663  1.00  0.00     0.174 C 
BRANCH   7   8
ATOM      8  C   UNL A   1      32.089  24.894  22.553  1.00  0.00     0.015 C 
ATOM      9  C   UNL A   1      30.720  24.475  23.102  1.00  0.00     0.010 C 
ATOM     10  C   UNL A   1      31.860  25.796  21.331  1.00  0.00     0.010 C 
ENDBRANCH   7   8
BRANCH   7  11
ATOM     11  N   UNL A   1      34.323  24.939  23.698  1.00  0.00    -0.339 N 
ATOM     12  C   UNL A   1      34.629  23.600  23.753  1.00  0.00     0.268 C 
ATOM     13  H   UNL A   1      35.087  25.561  23.680  1.00  0.00     0.164 HD
ATOM     14  O   UNL A   1      35.372  23.135  22.889  1.00  0.00    -0.268 OA
BRANCH  12  15
ATOM     15  C   UNL A   1      34.286  22.781  24.969  1.00  0.00     0.107 C 
ATOM     16  C   UNL A   1      35.199  22.393  25.887  1.00  0.00     0.043 C 
BRANCH  15  17
ATOM     17  N   UNL A   1      32.967  22.441  25.246  1.00  0.00    -0.317 N 
ATOM     18  C   UNL A   1      32.187  21.327  25.063  1.00  0.00     0.255 C 
ATOM     19  H   UNL A   1      32.474  23.176  25.679  1.00  0.00     0.170 HD
ATOM     20  O   UNL A   1      31.018  21.349  25.445  1.00  0.00    -0.269 OA
BRANCH  18  21
ATOM     21  C   UNL A   1      32.674  20.106  24.422  1.00  0.00     0.040 A 
ATOM     22  C   UNL A   1      32.171  19.755  23.167  1.00  0.00     0.014 A 
ATOM     23  C   UNL A   1      33.535  19.250  25.113  1.00  0.00     0.014 A 
ATOM     24  C   UNL A   1      32.589  18.567  22.569  1.00  0.00     0.001 A 
ATOM     25  C   UNL A   1      33.957  18.067  24.507  1.00  0.00     0.001 A 
ATOM     26  C   UNL A   1      33.490  17.732  23.234  1.00  0.00     0.000 A 
ENDBRANCH  18  21
ENDBRANCH  15  17
BRANCH  16  27
ATOM     27  C   UNL A   1      36.661  22.524  25.899  1.00  0.00     0.012 A 
ATOM     28  C   UNL A   1      37.185  23.774  26.268  1.00  0.00     0.011 A 
ATOM     29  C   UNL A   1      37.554  21.497  25.598  1.00  0.00     0.130 A 
ATOM     30  C   UNL A   1      38.557  23.946  26.456  1.00  0.00     0.001 A 
ATOM     31  C   UNL A   1      38.927  21.665  25.773  1.00  0.00     0.040 A 
ATOM     32  F   UNL A   1      37.111  20.313  25.157  1.00  0.00    -0.206 F 
ATOM     33  C   UNL A   1      39.427  22.883  26.230  1.00  0.00     0.003 A 
ENDBRANCH  16  27
ENDBRANCH  12  15
ENDBRANCH   7  11
ENDBRANCH   4   7
ENDBRANCH   2   3
ENDBRANCH   1   2
BRANCH   1  34
ATOM     34  C   UNL A   1      33.143  28.016  26.850  1.00  0.00     0.023 C 
BRANCH  34  35
ATOM     35  C   UNL A   1      34.363  28.879  26.549  1.00  0.00     0.116 C 
BRANCH  35  36
ATOM     36  N   UNL A   1      34.076  30.288  26.767  1.00  0.00    -0.352 N 
ATOM     37  C   UNL A   1      34.641  31.144  27.673  1.00  0.00     0.251 C 
ATOM     38  H   UNL A   1      33.385  30.678  26.186  1.00  0.00     0.163 HD
ATOM     39  O   UNL A   1      34.109  32.221  27.914  1.00  0.00    -0.269 OA
BRANCH  37  40
ATOM     40  C   UNL A   1      35.887  30.744  28.346  1.00  0.00     0.039 A 
ATOM     41  C   UNL A   1      37.052  31.466  28.095  1.00  0.00     0.014 A 
ATOM     42  C   UNL A   1      35.893  29.645  29.212  1.00  0.00     0.014 A 
ATOM     43  C   UNL A   1      38.233  31.090  28.728  1.00  0.00     0.010 A 
ATOM     44  C   UNL A   1      37.052  29.321  29.901  1.00  0.00     0.010 A 
ATOM     45  C   UNL A   1      38.239  30.019  29.637  1.00  0.00    -0.014 A 
BRANCH  45  46
ATOM     46  C   UNL A   1      39.502  29.561  30.258  1.00  0.00     0.031 A 
ATOM     47  C   UNL A   1      39.981  30.219  31.521  1.00  0.00     0.074 A 
ATOM     48  C   UNL A   1      40.214  28.578  29.676  1.00  0.00     0.049 A 
ATOM     49  N   UNL A   1      41.068  29.988  32.210  1.00  0.00    -0.248 NA
ATOM     50  C   UNL A   1      39.143  31.299  32.072  1.00  0.00     0.031 C 
ATOM     51  C   UNL A   1      39.858  27.902  28.427  1.00  0.00     0.029 A 
ATOM     52  N   UNL A   1      41.381  27.974  30.062  1.00  0.00    -0.354 N 
ATOM     53  C   UNL A   1      41.049  30.897  33.261  1.00  0.00     0.074 A 
ATOM     54  C   UNL A   1      39.877  31.725  33.088  1.00  0.00     0.031 C 
ATOM     55  C   UNL A   1      40.768  26.949  28.170  1.00  0.00     0.029 A 
ATOM     56  C   UNL A   1      41.783  26.966  29.219  1.00  0.00     0.049 A 
ATOM     57  H   UNL A   1      41.883  28.237  30.867  1.00  0.00     0.167 HD
ATOM     58  C   UNL A   1      41.913  31.008  34.295  1.00  0.00     0.037 A 
ATOM     59  C   UNL A   1      42.846  26.142  29.297  1.00  0.00     0.037 A 
ATOM     60  C   UNL A   1      43.052  30.150  34.478  1.00  0.00     0.049 A 
ATOM     61  C   UNL A   1      43.775  26.262  30.473  1.00  0.00     0.074 A 
ATOM     62  C   UNL A   1      43.979  30.156  35.504  1.00  0.00     0.029 A 
ATOM     63  N   UNL A   1      43.409  29.121  33.619  1.00  0.00    -0.354 N 
ATOM     64  N   UNL A   1      43.729  27.110  31.474  1.00  0.00    -0.248 NA
ATOM     65  C   UNL A   1      44.890  25.308  30.542  1.00  0.00     0.031 C 
ATOM     66  C   UNL A   1      44.910  29.143  35.254  1.00  0.00     0.029 A 
ATOM     67  C   UNL A   1      44.540  28.482  34.094  1.00  0.00     0.049 A 
ATOM     68  H   UNL A   1      42.929  28.881  32.794  1.00  0.00     0.167 HD
ATOM     69  C   UNL A   1      44.788  26.772  32.308  1.00  0.00     0.074 A 
ATOM     70  C   UNL A   1      45.454  25.640  31.695  1.00  0.00     0.031 C 
ATOM     71  C   UNL A   1      45.173  27.343  33.475  1.00  0.00     0.037 A 
BRANCH  58  72
ATOM     72  C   UNL A   1      41.645  32.076  35.317  1.00  0.00     0.058 A 
ATOM     73  C   UNL A   1      40.682  31.884  36.320  1.00  0.00     0.135 A 
ATOM     74  C   UNL A   1      42.319  33.309  35.284  1.00  0.00     0.135 A 
ATOM     75  F   UNL A   1      40.016  30.721  36.405  1.00  0.00    -0.206 F 
ATOM     76  C   UNL A   1      40.387  32.881  37.244  1.00  0.00     0.059 A 
ATOM     77  C   UNL A   1      42.058  34.310  36.215  1.00  0.00     0.059 A 
ATOM     78  F   UNL A   1      43.269  33.534  34.363  1.00  0.00    -0.206 F 
ATOM     79  C   UNL A   1      41.078  34.091  37.182  1.00  0.00     0.060 A 
BRANCH  79  80
ATOM     80  S   UNL A   1      40.707  35.363  38.409  1.00  0.00     0.124 S 
ATOM     81  O   UNL A   1      39.252  35.421  38.349  1.00  0.00    -0.237 OA
ATOM     82  O   UNL A   1      41.271  34.791  39.627  1.00  0.00    -0.237 OA
ATOM     83  O   UNL A   1      41.407  36.539  37.898  1.00  0.00    -0.744 OA
ENDBRANCH  79  80
ENDBRANCH  58  72
BRANCH  59  84
ATOM     84  C   UNL A   1      43.041  25.095  28.260  1.00  0.00     0.058 A 
ATOM     85  C   UNL A   1      42.692  23.758  28.497  1.00  0.00     0.135 A 
ATOM     86  C   UNL A   1      43.627  25.410  27.024  1.00  0.00     0.135 A 
ATOM     87  F   UNL A   1      42.143  23.403  29.668  1.00  0.00    -0.206 F 
ATOM     88  C   UNL A   1      42.933  22.765  27.553  1.00  0.00     0.059 A 
ATOM     89  C   UNL A   1      43.859  24.438  26.055  1.00  0.00     0.059 A 
ATOM     90  F   UNL A   1      43.973  26.678  26.751  1.00  0.00    -0.206 F 
ATOM     91  C   UNL A   1      43.523  23.115  26.337  1.00  0.00     0.060 A 
BRANCH  91  92
ATOM     92  S   UNL A   1      43.843  21.809  25.132  1.00  0.00     0.124 S 
ATOM     93  O   UNL A   1      43.793  22.553  23.876  1.00  0.00    -0.237 OA
ATOM     94  O   UNL A   1      45.162  21.335  25.537  1.00  0.00    -0.237 OA
ATOM     95  O   UNL A   1      42.747  20.872  25.351  1.00  0.00    -0.744 OA
ENDBRANCH  91  92
ENDBRANCH  59  84
BRANCH  71  96
ATOM     96  C   UNL A   1      46.339  26.732  34.196  1.00  0.00     0.058 A 
ATOM     97  C   UNL A   1      47.648  27.131  33.885  1.00  0.00     0.135 A 
ATOM     98  C   UNL A   1      46.168  25.701  35.132  1.00  0.00     0.135 A 
ATOM     99  F   UNL A   1      47.864  28.110  32.991  1.00  0.00    -0.206 F 
ATOM    100  C   UNL A   1      48.751  26.518  34.468  1.00  0.00     0.059 A 
ATOM    101  C   UNL A   1      47.257  25.091  35.747  1.00  0.00     0.059 A 
ATOM    102  F   UNL A   1      44.934  25.292  35.468  1.00  0.00    -0.206 F 
ATOM    103  C   UNL A   1      48.545  25.495  35.394  1.00  0.00     0.060 A 
BRANCH 103 104
ATOM    104  S   UNL A   1      49.986  24.721  36.156  1.00  0.00     0.124 S 
ATOM    105  O   UNL A   1      49.725  23.305  35.919  1.00  0.00    -0.237 OA
ATOM    106  O   UNL A   1      51.089  25.300  35.394  1.00  0.00    -0.237 OA
ATOM    107  O   UNL A   1      49.904  25.151  37.549  1.00  0.00    -0.744 OA
ENDBRANCH 103 104
ENDBRANCH  71  96
ENDBRANCH  45  46
ENDBRANCH  37  40
ENDBRANCH  35  36
ENDBRANCH  34  35
ENDBRANCH   1  34
TORSDOF 20
ENDMDL
MODEL 3
REMARK VINA RESULT:     -11.1      6.429     11.205
REMARK SMILES CC(C)[C@@H](NC(=O)/C(=C\c1ccccc1F)NC(=O)c1ccccc1)C(=O)NCCCCNC(=O)c1ccc(-c2c3nc(c(-c4c(F)cc(S(=O)(=O)[O-])cc4F)c4ccc([nH]4)c(-c4c(F)cc(S(=O)(=O)[O-])cc4F)c4nc(c(-c5c(F)cc(S(=O)(=O)[O-])cc5F)c5ccc2[nH]5)C=C4)C=C3)cc1
REMARK SMILES IDX 30 1 29 2 28 3 26 4 27 5 4 7 2 8 1 9 3 10 5 11 6 12 7 14
REMARK SMILES IDX 8 15 9 16 17 17 18 18 19 20 20 21 21 22 25 23 22 24 24 25
REMARK SMILES IDX 23 26 10 27 11 28 15 29 12 30 14 31 16 32 13 33 31 34 32 35
REMARK SMILES IDX 33 36 34 37 35 39 36 40 37 41 101 42 38 43 100 44 39 45
REMARK SMILES IDX 40 46 41 47 94 48 42 49 99 50 93 51 95 52 43 53 98 54 92 55
REMARK SMILES IDX 91 56 44 58 78 59 57 60 77 61 58 62 61 63 76 64 96 65 59 66
REMARK SMILES IDX 60 67 75 69 97 70 62 71 45 72 46 73 55 74 47 75 48 76 54 77
REMARK SMILES IDX 56 78 49 79 50 80 51 81 52 82 53 83 79 84 80 85 89 86 81 87
REMARK SMILES IDX 82 88 88 89 90 90 83 91 84 92 85 93 86 94 87 95 63 96 64 97
REMARK SMILES IDX 73 98 65 99 66 100 72 101 74 102 67 103 68 104 69 105 70 106
REMARK SMILES IDX 71 107
REMARK H PARENT 28 6 5 13 17 19 33 38 95 57 61 68
REMARK Flexibility Score: inf
ROOT
ATOM      1  C   UNL A   1      40.187  21.674  26.143  1.00  0.00     0.023 C 
ENDROOT
BRANCH   1   2
ATOM      2  C   UNL A   1      38.712  21.423  25.835  1.00  0.00     0.116 C 
BRANCH   2   3
ATOM      3  N   UNL A   1      38.189  22.582  25.156  1.00  0.00    -0.354 N 
ATOM      4  C   UNL A   1      36.969  22.625  24.557  1.00  0.00     0.242 C 
ATOM      5  O   UNL A   1      36.926  22.992  23.381  1.00  0.00    -0.273 OA
ATOM      6  H   UNL A   1      38.748  23.391  25.125  1.00  0.00     0.163 HD
BRANCH   4   7
ATOM      7  C   UNL A   1      35.729  22.081  25.283  1.00  0.00     0.174 C 
BRANCH   7   8
ATOM      8  C   UNL A   1      34.944  23.234  25.992  1.00  0.00     0.015 C 
ATOM      9  C   UNL A   1      34.764  22.953  27.489  1.00  0.00     0.010 C 
ATOM     10  C   UNL A   1      35.600  24.615  25.838  1.00  0.00     0.010 C 
ENDBRANCH   7   8
BRANCH   7  11
ATOM     11  N   UNL A   1      34.826  21.268  24.434  1.00  0.00    -0.339 N 
ATOM     12  C   UNL A   1      33.486  21.475  24.207  1.00  0.00     0.268 C 
ATOM     13  H   UNL A   1      35.231  20.492  23.983  1.00  0.00     0.164 HD
ATOM     14  O   UNL A   1      33.100  21.572  23.043  1.00  0.00    -0.268 OA
BRANCH  12  15
ATOM     15  C   UNL A   1      32.484  21.326  25.321  1.00  0.00     0.107 C 
ATOM     16  C   UNL A   1      31.512  22.230  25.574  1.00  0.00     0.043 C 
BRANCH  15  17
ATOM     17  N   UNL A   1      32.469  20.184  26.114  1.00  0.00    -0.317 N 
ATOM     18  C   UNL A   1      32.660  18.842  25.896  1.00  0.00     0.255 C 
ATOM     19  H   UNL A   1      32.277  20.386  27.058  1.00  0.00     0.170 HD
ATOM     20  O   UNL A   1      32.586  18.068  26.849  1.00  0.00    -0.269 OA
BRANCH  18  21
ATOM     21  C   UNL A   1      32.938  18.277  24.575  1.00  0.00     0.040 A 
ATOM     22  C   UNL A   1      34.102  17.528  24.393  1.00  0.00     0.014 A 
ATOM     23  C   UNL A   1      32.110  18.590  23.495  1.00  0.00     0.014 A 
ATOM     24  C   UNL A   1      34.403  17.028  23.126  1.00  0.00     0.001 A 
ATOM     25  C   UNL A   1      32.411  18.081  22.232  1.00  0.00     0.001 A 
ATOM     26  C   UNL A   1      33.551  17.295  22.052  1.00  0.00     0.000 A 
ENDBRANCH  18  21
ENDBRANCH  15  17
BRANCH  16  27
ATOM     27  C   UNL A   1      31.256  23.551  24.988  1.00  0.00     0.012 A 
ATOM     28  C   UNL A   1      30.700  23.578  23.698  1.00  0.00     0.011 A 
ATOM     29  C   UNL A   1      31.501  24.766  25.627  1.00  0.00     0.130 A 
ATOM     30  C   UNL A   1      30.282  24.781  23.126  1.00  0.00     0.001 A 
ATOM     31  C   UNL A   1      31.096  25.972  25.056  1.00  0.00     0.040 A 
ATOM     32  F   UNL A   1      32.109  24.801  26.819  1.00  0.00    -0.206 F 
ATOM     33  C   UNL A   1      30.460  25.976  23.816  1.00  0.00     0.003 A 
ENDBRANCH  16  27
ENDBRANCH  12  15
ENDBRANCH   7  11
ENDBRANCH   4   7
ENDBRANCH   2   3
ENDBRANCH   1   2
BRANCH   1  34
ATOM     34  C   UNL A   1      40.405  22.319  27.517  1.00  0.00     0.023 C 
BRANCH  34  35
ATOM     35  C   UNL A   1      41.574  23.296  27.555  1.00  0.00     0.116 C 
BRANCH  35  36
ATOM     36  N   UNL A   1      41.644  24.080  26.332  1.00  0.00    -0.352 N 
ATOM     37  C   UNL A   1      41.301  25.390  26.137  1.00  0.00     0.251 C 
ATOM     38  H   UNL A   1      41.983  23.606  25.539  1.00  0.00     0.163 HD
ATOM     39  O   UNL A   1      41.164  25.826  25.001  1.00  0.00    -0.269 OA
BRANCH  37  40
ATOM     40  C   UNL A   1      41.099  26.252  27.312  1.00  0.00     0.039 A 
ATOM     41  C   UNL A   1      40.003  26.018  28.141  1.00  0.00     0.014 A 
ATOM     42  C   UNL A   1      41.992  27.296  27.578  1.00  0.00     0.014 A 
ATOM     43  C   UNL A   1      39.807  26.831  29.253  1.00  0.00     0.010 A 
ATOM     44  C   UNL A   1      41.838  28.055  28.728  1.00  0.00     0.010 A 
ATOM     45  C   UNL A   1      40.725  27.851  29.555  1.00  0.00    -0.014 A 
BRANCH  45  46
ATOM     46  C   UNL A   1      40.487  28.770  30.690  1.00  0.00     0.031 A 
ATOM     47  C   UNL A   1      41.337  28.652  31.924  1.00  0.00     0.074 A 
ATOM     48  C   UNL A   1      39.503  29.686  30.612  1.00  0.00     0.049 A 
ATOM     49  N   UNL A   1      41.277  29.338  33.034  1.00  0.00    -0.248 NA
ATOM     50  C   UNL A   1      42.374  27.605  31.922  1.00  0.00     0.031 C 
ATOM     51  C   UNL A   1      38.595  29.857  29.476  1.00  0.00     0.029 A 
ATOM     52  N   UNL A   1      39.109  30.649  31.502  1.00  0.00    -0.354 N 
ATOM     53  C   UNL A   1      42.256  28.801  33.862  1.00  0.00     0.074 A 
ATOM     54  C   UNL A   1      42.854  27.692  33.154  1.00  0.00     0.031 C 
ATOM     55  C   UNL A   1      37.774  30.890  29.724  1.00  0.00     0.029 A 
ATOM     56  C   UNL A   1      38.079  31.435  31.043  1.00  0.00     0.049 A 
ATOM     57  H   UNL A   1      39.524  30.767  32.387  1.00  0.00     0.167 HD
ATOM     58  C   UNL A   1      42.643  29.216  35.089  1.00  0.00     0.037 A 
ATOM     59  C   UNL A   1      37.463  32.484  31.621  1.00  0.00     0.037 A 
ATOM     60  C   UNL A   1      42.068  30.347  35.767  1.00  0.00     0.049 A 
ATOM     61  C   UNL A   1      37.933  32.949  32.972  1.00  0.00     0.074 A 
ATOM     62  C   UNL A   1      42.402  30.873  37.001  1.00  0.00     0.029 A 
ATOM     63  N   UNL A   1      41.048  31.136  35.256  1.00  0.00    -0.354 N 
ATOM     64  N   UNL A   1      38.878  32.447  33.732  1.00  0.00    -0.248 NA
ATOM     65  C   UNL A   1      37.266  34.129  33.539  1.00  0.00     0.031 C 
ATOM     66  C   UNL A   1      41.568  31.968  37.247  1.00  0.00     0.029 A 
ATOM     67  C   UNL A   1      40.742  32.148  36.148  1.00  0.00     0.049 A 
ATOM     68  H   UNL A   1      40.607  30.997  34.387  1.00  0.00     0.167 HD
ATOM     69  C   UNL A   1      38.942  33.267  34.851  1.00  0.00     0.074 A 
ATOM     70  C   UNL A   1      37.943  34.300  34.668  1.00  0.00     0.031 C 
ATOM     71  C   UNL A   1      39.755  33.177  35.932  1.00  0.00     0.037 A 
BRANCH  58  72
ATOM     72  C   UNL A   1      43.753  28.461  35.764  1.00  0.00     0.058 A 
ATOM     73  C   UNL A   1      43.472  27.390  36.626  1.00  0.00     0.135 A 
ATOM     74  C   UNL A   1      45.099  28.821  35.584  1.00  0.00     0.135 A 
ATOM     75  F   UNL A   1      42.204  26.997  36.826  1.00  0.00    -0.206 F 
ATOM     76  C   UNL A   1      44.484  26.713  37.298  1.00  0.00     0.059 A 
ATOM     77  C   UNL A   1      46.130  28.140  36.225  1.00  0.00     0.059 A 
ATOM     78  F   UNL A   1      45.425  29.820  34.748  1.00  0.00    -0.206 F 
ATOM     79  C   UNL A   1      45.811  27.096  37.092  1.00  0.00     0.060 A 
BRANCH  79  80
ATOM     80  S   UNL A   1      47.116  26.186  37.945  1.00  0.00     0.124 S 
ATOM     81  O   UNL A   1      47.673  25.381  36.865  1.00  0.00    -0.237 OA
ATOM     82  O   UNL A   1      47.968  27.261  38.443  1.00  0.00    -0.237 OA
ATOM     83  O   UNL A   1      46.392  25.444  38.974  1.00  0.00    -0.744 OA
ENDBRANCH  79  80
ENDBRANCH  58  72
BRANCH  59  84
ATOM     84  C   UNL A   1      36.384  33.197  30.889  1.00  0.00     0.058 A 
ATOM     85  C   UNL A   1      36.667  34.016  29.787  1.00  0.00     0.135 A 
ATOM     86  C   UNL A   1      35.050  33.106  31.313  1.00  0.00     0.135 A 
ATOM     87  F   UNL A   1      37.929  34.148  29.352  1.00  0.00    -0.206 F 
ATOM     88  C   UNL A   1      35.668  34.735  29.140  1.00  0.00     0.059 A 
ATOM     89  C   UNL A   1      34.029  33.799  30.669  1.00  0.00     0.059 A 
ATOM     90  F   UNL A   1      34.731  32.330  32.360  1.00  0.00    -0.206 F 
ATOM     91  C   UNL A   1      34.351  34.625  29.593  1.00  0.00     0.060 A 
BRANCH  91  92
ATOM     92  S   UNL A   1      33.071  35.580  28.751  1.00  0.00     0.124 S 
ATOM     93  O   UNL A   1      33.873  36.548  28.007  1.00  0.00    -0.237 OA
ATOM     94  O   UNL A   1      32.405  34.559  27.950  1.00  0.00    -0.237 OA
ATOM     95  O   UNL A   1      32.282  36.128  29.849  1.00  0.00    -0.744 OA
ENDBRANCH  91  92
ENDBRANCH  59  84
BRANCH  71  96
ATOM     96  C   UNL A   1      39.637  34.243  36.982  1.00  0.00     0.058 A 
ATOM     97  C   UNL A   1      40.354  35.443  36.852  1.00  0.00     0.135 A 
ATOM     98  C   UNL A   1      38.885  34.047  38.149  1.00  0.00     0.135 A 
ATOM     99  F   UNL A   1      41.095  35.675  35.757  1.00  0.00    -0.206 F 
ATOM    100  C   UNL A   1      40.338  36.408  37.852  1.00  0.00     0.059 A 
ATOM    101  C   UNL A   1      38.834  35.011  39.151  1.00  0.00     0.059 A 
ATOM    102  F   UNL A   1      38.175  32.918  38.314  1.00  0.00    -0.206 F 
ATOM    103  C   UNL A   1      39.579  36.181  39.001  1.00  0.00     0.060 A 
BRANCH 103 104
ATOM    104  S   UNL A   1      39.555  37.451  40.282  1.00  0.00     0.124 S 
ATOM    105  O   UNL A   1      38.771  38.503  39.645  1.00  0.00    -0.237 OA
ATOM    106  O   UNL A   1      38.906  36.760  41.393  1.00  0.00    -0.237 OA
ATOM    107  O   UNL A   1      40.969  37.754  40.484  1.00  0.00    -0.744 OA
ENDBRANCH 103 104
ENDBRANCH  71  96
ENDBRANCH  45  46
ENDBRANCH  37  40
ENDBRANCH  35  36
ENDBRANCH  34  35
ENDBRANCH   1  34
TORSDOF 20
ENDMDL
