MODEL 1
REMARK VINA RESULT:     -11.2      0.000      0.000
REMARK SMILES CC/C(=C/C(=O)[C@H](Cc1ccc(Cl)cc1Cl)C(=O)NCCCCNC(=O)c1ccc(-c2c3nc(c(-c4c(F)cc(S(=O)(=O)[O-])cc4F)c4ccc([nH]4)c(-c4c(F)cc(S(=O)(=O)[O-])cc4F)c4nc(c(-c5c(F)cc(S(=O)(=O)[O-])cc5F)c5ccc2[nH]5)C=C4)C=C3)cc1)N(C)C
REMARK SMILES IDX 21 1 20 2 19 3 17 4 18 5 7 7 5 8 6 9 4 10 3 11 2 12 1 13
REMARK SMILES IDX 93 14 94 15 95 16 8 17 9 18 10 19 15 20 11 21 14 22 16 23
REMARK SMILES IDX 12 24 13 25 22 26 23 27 24 28 25 29 26 31 27 32 28 33 92 34
REMARK SMILES IDX 29 35 91 36 30 37 31 38 32 39 85 40 33 41 90 42 84 43 86 44
REMARK SMILES IDX 34 45 89 46 83 47 82 48 35 50 69 51 48 52 68 53 49 54 52 55
REMARK SMILES IDX 67 56 87 57 50 58 51 59 66 61 88 62 53 63 36 64 37 65 46 66
REMARK SMILES IDX 38 67 39 68 45 69 47 70 40 71 41 72 42 73 43 74 44 75 70 76
REMARK SMILES IDX 71 77 80 78 72 79 73 80 79 81 81 82 74 83 75 84 76 85 77 86
REMARK SMILES IDX 78 87 54 88 55 89 64 90 56 91 57 92 63 93 65 94 58 95 59 96
REMARK SMILES IDX 60 97 61 98 62 99
REMARK H PARENT 19 6 24 30 86 49 52 60
REMARK Flexibility Score: inf
ROOT
ATOM      1  C   UNL A   1      38.223  22.424  25.883  1.00  0.00     0.023 C 
ENDROOT
BRANCH   1   2
ATOM      2  C   UNL A   1      36.964  22.088  25.076  1.00  0.00     0.116 C 
BRANCH   2   3
ATOM      3  N   UNL A   1      35.748  22.327  25.814  1.00  0.00    -0.355 N 
ATOM      4  C   UNL A   1      34.440  22.299  25.455  1.00  0.00     0.231 C 
ATOM      5  O   UNL A   1      33.643  22.557  26.368  1.00  0.00    -0.274 OA
ATOM      6  H   UNL A   1      35.896  22.554  26.761  1.00  0.00     0.163 HD
BRANCH   4   7
ATOM      7  C   UNL A   1      33.911  22.070  24.034  1.00  0.00     0.154 C 
BRANCH   7   8
ATOM      8  C   UNL A   1      33.977  23.294  23.120  1.00  0.00     0.170 C 
ATOM      9  O   UNL A   1      34.076  23.220  21.895  1.00  0.00    -0.294 OA
BRANCH   8  10
ATOM     10  C   UNL A   1      34.035  24.660  23.719  1.00  0.00     0.069 C 
ATOM     11  C   UNL A   1      33.035  25.555  23.853  1.00  0.00     0.016 C 
BRANCH  11  12
ATOM     12  C   UNL A   1      33.204  26.505  25.040  1.00  0.00     0.050 C 
ATOM     13  C   UNL A   1      32.419  26.132  26.282  1.00  0.00     0.010 C 
ENDBRANCH  11  12
BRANCH  11  14
ATOM     14  N   UNL A   1      31.835  25.587  23.121  1.00  0.00    -0.381 N 
ATOM     15  C   UNL A   1      30.636  24.813  23.461  1.00  0.00     0.143 C 
ATOM     16  C   UNL A   1      31.608  26.510  21.997  1.00  0.00     0.143 C 
ENDBRANCH  11  14
ENDBRANCH   8  10
ENDBRANCH   7   8
BRANCH   7  17
ATOM     17  C   UNL A   1      32.781  21.048  23.814  1.00  0.00     0.059 C 
BRANCH  17  18
ATOM     18  C   UNL A   1      32.721  19.547  24.056  1.00  0.00    -0.028 A 
ATOM     19  C   UNL A   1      32.800  19.200  25.431  1.00  0.00     0.007 A 
ATOM     20  C   UNL A   1      32.650  18.487  23.140  1.00  0.00     0.045 A 
ATOM     21  C   UNL A   1      32.888  17.879  25.864  1.00  0.00     0.021 A 
ATOM     22  C   UNL A   1      32.779  17.156  23.574  1.00  0.00     0.041 A 
ATOM     23  Cl  UNL A   1      32.329  18.682  21.459  1.00  0.00    -0.084 Cl
ATOM     24  C   UNL A   1      32.912  16.861  24.926  1.00  0.00     0.042 A 
ATOM     25  Cl  UNL A   1      33.098  15.231  25.442  1.00  0.00    -0.084 Cl
ENDBRANCH  17  18
ENDBRANCH   7  17
ENDBRANCH   4   7
ENDBRANCH   2   3
ENDBRANCH   1   2
BRANCH   1  26
ATOM     26  C   UNL A   1      38.250  23.792  26.542  1.00  0.00     0.023 C 
BRANCH  26  27
ATOM     27  C   UNL A   1      39.275  24.744  25.971  1.00  0.00     0.116 C 
BRANCH  27  28
ATOM     28  N   UNL A   1      40.647  24.263  26.061  1.00  0.00    -0.352 N 
ATOM     29  C   UNL A   1      41.634  24.755  26.883  1.00  0.00     0.251 C 
ATOM     30  H   UNL A   1      40.893  23.512  25.474  1.00  0.00     0.163 HD
ATOM     31  O   UNL A   1      42.782  24.333  26.824  1.00  0.00    -0.269 OA
BRANCH  29  32
ATOM     32  C   UNL A   1      41.261  25.846  27.800  1.00  0.00     0.039 A 
ATOM     33  C   UNL A   1      40.222  25.643  28.707  1.00  0.00     0.014 A 
ATOM     34  C   UNL A   1      42.059  26.991  27.859  1.00  0.00     0.014 A 
ATOM     35  C   UNL A   1      40.016  26.578  29.720  1.00  0.00     0.010 A 
ATOM     36  C   UNL A   1      41.921  27.859  28.928  1.00  0.00     0.010 A 
ATOM     37  C   UNL A   1      40.886  27.673  29.856  1.00  0.00    -0.014 A 
BRANCH  37  38
ATOM     38  C   UNL A   1      40.695  28.681  30.925  1.00  0.00     0.031 A 
ATOM     39  C   UNL A   1      41.541  28.593  32.166  1.00  0.00     0.074 A 
ATOM     40  C   UNL A   1      39.736  29.620  30.809  1.00  0.00     0.049 A 
ATOM     41  N   UNL A   1      41.487  29.312  33.256  1.00  0.00    -0.248 NA
ATOM     42  C   UNL A   1      42.555  27.524  32.204  1.00  0.00     0.031 C 
ATOM     43  C   UNL A   1      38.817  29.761  29.677  1.00  0.00     0.029 A 
ATOM     44  N   UNL A   1      39.370  30.631  31.659  1.00  0.00    -0.354 N 
ATOM     45  C   UNL A   1      42.440  28.770  34.110  1.00  0.00     0.074 A 
ATOM     46  C   UNL A   1      43.006  27.619  33.445  1.00  0.00     0.031 C 
ATOM     47  C   UNL A   1      38.014  30.818  29.890  1.00  0.00     0.029 A 
ATOM     48  C   UNL A   1      38.339  31.408  31.184  1.00  0.00     0.049 A 
ATOM     49  H   UNL A   1      39.806  30.787  32.527  1.00  0.00     0.167 HD
ATOM     50  C   UNL A   1      42.836  29.215  35.324  1.00  0.00     0.037 A 
ATOM     51  C   UNL A   1      37.731  32.476  31.736  1.00  0.00     0.037 A 
ATOM     52  C   UNL A   1      42.302  30.391  35.953  1.00  0.00     0.049 A 
ATOM     53  C   UNL A   1      38.210  32.971  33.075  1.00  0.00     0.074 A 
ATOM     54  C   UNL A   1      42.670  30.968  37.154  1.00  0.00     0.029 A 
ATOM     55  N   UNL A   1      41.290  31.178  35.421  1.00  0.00    -0.354 N 
ATOM     56  N   UNL A   1      39.154  32.483  33.844  1.00  0.00    -0.248 NA
ATOM     57  C   UNL A   1      37.551  34.167  33.617  1.00  0.00     0.031 C 
ATOM     58  C   UNL A   1      41.858  32.087  37.364  1.00  0.00     0.029 A 
ATOM     59  C   UNL A   1      41.015  32.232  36.273  1.00  0.00     0.049 A 
ATOM     60  H   UNL A   1      40.835  31.010  34.565  1.00  0.00     0.167 HD
ATOM     61  C   UNL A   1      39.224  33.329  34.944  1.00  0.00     0.074 A 
ATOM     62  C   UNL A   1      38.232  34.365  34.737  1.00  0.00     0.031 C 
ATOM     63  C   UNL A   1      40.035  33.260  36.030  1.00  0.00     0.037 A 
BRANCH  50  64
ATOM     64  C   UNL A   1      43.909  28.436  36.032  1.00  0.00     0.058 A 
ATOM     65  C   UNL A   1      45.268  28.758  35.887  1.00  0.00     0.135 A 
ATOM     66  C   UNL A   1      43.577  27.364  36.876  1.00  0.00     0.135 A 
ATOM     67  F   UNL A   1      45.644  29.758  35.073  1.00  0.00    -0.206 F 
ATOM     68  C   UNL A   1      46.262  28.027  36.528  1.00  0.00     0.059 A 
ATOM     69  C   UNL A   1      44.553  26.638  37.552  1.00  0.00     0.059 A 
ATOM     70  F   UNL A   1      42.294  27.010  37.046  1.00  0.00    -0.206 F 
ATOM     71  C   UNL A   1      45.895  26.969  37.359  1.00  0.00     0.060 A 
BRANCH  71  72
ATOM     72  S   UNL A   1      47.196  26.038  38.194  1.00  0.00     0.124 S 
ATOM     73  O   UNL A   1      48.090  27.110  38.623  1.00  0.00    -0.237 OA
ATOM     74  O   UNL A   1      46.463  25.362  39.259  1.00  0.00    -0.237 OA
ATOM     75  O   UNL A   1      47.718  25.167  37.145  1.00  0.00    -0.744 OA
ENDBRANCH  71  72
ENDBRANCH  50  64
BRANCH  51  76
ATOM     76  C   UNL A   1      36.635  33.171  31.010  1.00  0.00     0.058 A 
ATOM     77  C   UNL A   1      35.301  33.043  31.426  1.00  0.00     0.135 A 
ATOM     78  C   UNL A   1      36.894  33.978  29.891  1.00  0.00     0.135 A 
ATOM     79  F   UNL A   1      35.001  32.280  32.489  1.00  0.00    -0.206 F 
ATOM     80  C   UNL A   1      34.260  33.670  30.747  1.00  0.00     0.059 A 
ATOM     81  C   UNL A   1      35.873  34.635  29.211  1.00  0.00     0.059 A 
ATOM     82  F   UNL A   1      38.154  34.150  29.464  1.00  0.00    -0.206 F 
ATOM     83  C   UNL A   1      34.557  34.464  29.639  1.00  0.00     0.060 A 
BRANCH  83  84
ATOM     84  S   UNL A   1      33.204  35.303  28.787  1.00  0.00     0.124 S 
ATOM     85  O   UNL A   1      33.922  36.310  28.015  1.00  0.00    -0.237 OA
ATOM     86  O   UNL A   1      32.602  34.217  28.019  1.00  0.00    -0.237 OA
ATOM     87  O   UNL A   1      32.384  35.812  29.883  1.00  0.00    -0.744 OA
ENDBRANCH  83  84
ENDBRANCH  51  76
BRANCH  63  88
ATOM     88  C   UNL A   1      39.917  34.354  37.052  1.00  0.00     0.058 A 
ATOM     89  C   UNL A   1      40.572  35.585  36.893  1.00  0.00     0.135 A 
ATOM     90  C   UNL A   1      39.085  34.190  38.170  1.00  0.00     0.135 A 
ATOM     91  F   UNL A   1      41.381  35.789  35.842  1.00  0.00    -0.206 F 
ATOM     92  C   UNL A   1      40.423  36.608  37.822  1.00  0.00     0.059 A 
ATOM     93  C   UNL A   1      38.899  35.208  39.097  1.00  0.00     0.059 A 
ATOM     94  F   UNL A   1      38.426  33.034  38.359  1.00  0.00    -0.206 F 
ATOM     95  C   UNL A   1      39.583  36.412  38.921  1.00  0.00     0.060 A 
BRANCH  95  96
ATOM     96  S   UNL A   1      39.369  37.760  40.100  1.00  0.00     0.124 S 
ATOM     97  O   UNL A   1      39.149  37.030  41.343  1.00  0.00    -0.237 OA
ATOM     98  O   UNL A   1      40.640  38.471  39.997  1.00  0.00    -0.237 OA
ATOM     99  O   UNL A   1      38.211  38.483  39.581  1.00  0.00    -0.744 OA
ENDBRANCH  95  96
ENDBRANCH  63  88
ENDBRANCH  37  38
ENDBRANCH  29  32
ENDBRANCH  27  28
ENDBRANCH  26  27
ENDBRANCH   1  26
TORSDOF 20
ENDMDL
MODEL 2
REMARK VINA RESULT:     -11.2      5.095      6.597
REMARK SMILES CC/C(=C/C(=O)[C@H](Cc1ccc(Cl)cc1Cl)C(=O)NCCCCNC(=O)c1ccc(-c2c3nc(c(-c4c(F)cc(S(=O)(=O)[O-])cc4F)c4ccc([nH]4)c(-c4c(F)cc(S(=O)(=O)[O-])cc4F)c4nc(c(-c5c(F)cc(S(=O)(=O)[O-])cc5F)c5ccc2[nH]5)C=C4)C=C3)cc1)N(C)C
REMARK SMILES IDX 21 1 20 2 19 3 17 4 18 5 7 7 5 8 6 9 4 10 3 11 2 12 1 13
REMARK SMILES IDX 93 14 94 15 95 16 8 17 9 18 10 19 15 20 11 21 14 22 16 23
REMARK SMILES IDX 12 24 13 25 22 26 23 27 24 28 25 29 26 31 27 32 28 33 92 34
REMARK SMILES IDX 29 35 91 36 30 37 31 38 32 39 85 40 33 41 90 42 84 43 86 44
REMARK SMILES IDX 34 45 89 46 83 47 82 48 35 50 69 51 48 52 68 53 49 54 52 55
REMARK SMILES IDX 67 56 87 57 50 58 51 59 66 61 88 62 53 63 36 64 37 65 46 66
REMARK SMILES IDX 38 67 39 68 45 69 47 70 40 71 41 72 42 73 43 74 44 75 70 76
REMARK SMILES IDX 71 77 80 78 72 79 73 80 79 81 81 82 74 83 75 84 76 85 77 86
REMARK SMILES IDX 78 87 54 88 55 89 64 90 56 91 57 92 63 93 65 94 58 95 59 96
REMARK SMILES IDX 60 97 61 98 62 99
REMARK H PARENT 19 6 24 30 86 49 52 60
REMARK Flexibility Score: inf
ROOT
ATOM      1  C   UNL A   1      35.062  23.602  23.827  1.00  0.00     0.023 C 
ENDROOT
BRANCH   1   2
ATOM      2  C   UNL A   1      34.204  24.864  23.965  1.00  0.00     0.116 C 
BRANCH   2   3
ATOM      3  N   UNL A   1      33.610  25.275  22.717  1.00  0.00    -0.355 N 
ATOM      4  C   UNL A   1      32.323  25.480  22.340  1.00  0.00     0.231 C 
ATOM      5  O   UNL A   1      32.175  25.842  21.163  1.00  0.00    -0.274 OA
ATOM      6  H   UNL A   1      34.265  25.439  22.000  1.00  0.00     0.163 HD
BRANCH   4   7
ATOM      7  C   UNL A   1      31.088  25.215  23.208  1.00  0.00     0.154 C 
BRANCH   7   8
ATOM      8  C   UNL A   1      30.824  26.267  24.287  1.00  0.00     0.170 C 
ATOM      9  O   UNL A   1      30.969  26.053  25.490  1.00  0.00    -0.294 OA
BRANCH   8  10
ATOM     10  C   UNL A   1      30.260  27.594  23.902  1.00  0.00     0.069 C 
ATOM     11  C   UNL A   1      30.925  28.723  23.586  1.00  0.00     0.016 C 
BRANCH  11  12
ATOM     12  C   UNL A   1      30.170  29.644  22.627  1.00  0.00     0.050 C 
ATOM     13  C   UNL A   1      28.715  29.285  22.398  1.00  0.00     0.010 C 
ENDBRANCH  11  12
BRANCH  11  14
ATOM     14  N   UNL A   1      32.252  29.038  23.929  1.00  0.00    -0.381 N 
ATOM     15  C   UNL A   1      33.392  28.935  23.010  1.00  0.00     0.143 C 
ATOM     16  C   UNL A   1      32.625  29.634  25.222  1.00  0.00     0.143 C 
ENDBRANCH  11  14
ENDBRANCH   8  10
ENDBRANCH   7   8
BRANCH   7  17
ATOM     17  C   UNL A   1      30.666  23.760  23.482  1.00  0.00     0.059 C 
BRANCH  17  18
ATOM     18  C   UNL A   1      31.477  22.534  23.876  1.00  0.00    -0.028 A 
ATOM     19  C   UNL A   1      31.862  21.740  22.764  1.00  0.00     0.007 A 
ATOM     20  C   UNL A   1      31.844  22.065  25.146  1.00  0.00     0.045 A 
ATOM     21  C   UNL A   1      32.502  20.510  22.911  1.00  0.00     0.021 A 
ATOM     22  C   UNL A   1      32.453  20.806  25.295  1.00  0.00     0.041 A 
ATOM     23  Cl  UNL A   1      31.672  22.973  26.599  1.00  0.00    -0.084 Cl
ATOM     24  C   UNL A   1      32.764  20.033  24.183  1.00  0.00     0.042 A 
ATOM     25  Cl  UNL A   1      33.482  18.483  24.381  1.00  0.00    -0.084 Cl
ENDBRANCH  17  18
ENDBRANCH   7  17
ENDBRANCH   4   7
ENDBRANCH   2   3
ENDBRANCH   1   2
BRANCH   1  26
ATOM     26  C   UNL A   1      36.526  23.744  24.206  1.00  0.00     0.023 C 
BRANCH  26  27
ATOM     27  C   UNL A   1      36.809  23.596  25.683  1.00  0.00     0.116 C 
BRANCH  27  28
ATOM     28  N   UNL A   1      37.782  22.560  26.001  1.00  0.00    -0.352 N 
ATOM     29  C   UNL A   1      39.015  22.746  26.582  1.00  0.00     0.251 C 
ATOM     30  H   UNL A   1      37.533  21.634  25.777  1.00  0.00     0.163 HD
ATOM     31  O   UNL A   1      39.795  21.814  26.732  1.00  0.00    -0.269 OA
BRANCH  29  32
ATOM     32  C   UNL A   1      39.375  24.121  26.966  1.00  0.00     0.039 A 
ATOM     33  C   UNL A   1      39.267  24.501  28.304  1.00  0.00     0.014 A 
ATOM     34  C   UNL A   1      39.972  24.960  26.022  1.00  0.00     0.014 A 
ATOM     35  C   UNL A   1      39.815  25.717  28.708  1.00  0.00     0.010 A 
ATOM     36  C   UNL A   1      40.610  26.113  26.447  1.00  0.00     0.010 A 
ATOM     37  C   UNL A   1      40.520  26.513  27.789  1.00  0.00    -0.014 A 
BRANCH  37  38
ATOM     38  C   UNL A   1      41.117  27.807  28.189  1.00  0.00     0.031 A 
ATOM     39  C   UNL A   1      42.602  28.001  28.039  1.00  0.00     0.074 A 
ATOM     40  C   UNL A   1      40.348  28.769  28.738  1.00  0.00     0.049 A 
ATOM     41  N   UNL A   1      43.344  29.013  28.400  1.00  0.00    -0.248 NA
ATOM     42  C   UNL A   1      43.359  26.887  27.439  1.00  0.00     0.031 C 
ATOM     43  C   UNL A   1      38.908  28.666  28.988  1.00  0.00     0.029 A 
ATOM     44  N   UNL A   1      40.674  30.021  29.190  1.00  0.00    -0.354 N 
ATOM     45  C   UNL A   1      44.650  28.649  28.092  1.00  0.00     0.074 A 
ATOM     46  C   UNL A   1      44.608  27.297  27.584  1.00  0.00     0.031 C 
ATOM     47  C   UNL A   1      38.471  29.820  29.521  1.00  0.00     0.029 A 
ATOM     48  C   UNL A   1      39.601  30.730  29.679  1.00  0.00     0.049 A 
ATOM     49  H   UNL A   1      41.590  30.380  29.167  1.00  0.00     0.167 HD
ATOM     50  C   UNL A   1      45.778  29.388  28.189  1.00  0.00     0.037 A 
ATOM     51  C   UNL A   1      39.543  31.973  30.193  1.00  0.00     0.037 A 
ATOM     52  C   UNL A   1      45.799  30.750  28.648  1.00  0.00     0.049 A 
ATOM     53  C   UNL A   1      40.807  32.789  30.262  1.00  0.00     0.074 A 
ATOM     54  C   UNL A   1      46.875  31.614  28.730  1.00  0.00     0.029 A 
ATOM     55  N   UNL A   1      44.685  31.449  29.092  1.00  0.00    -0.354 N 
ATOM     56  N   UNL A   1      42.025  32.452  29.910  1.00  0.00    -0.248 NA
ATOM     57  C   UNL A   1      40.689  34.157  30.784  1.00  0.00     0.031 C 
ATOM     58  C   UNL A   1      46.417  32.827  29.254  1.00  0.00     0.029 A 
ATOM     59  C   UNL A   1      45.049  32.732  29.456  1.00  0.00     0.049 A 
ATOM     60  H   UNL A   1      43.772  31.084  29.140  1.00  0.00     0.167 HD
ATOM     61  C   UNL A   1      42.812  33.574  30.140  1.00  0.00     0.074 A 
ATOM     62  C   UNL A   1      41.930  34.603  30.651  1.00  0.00     0.031 C 
ATOM     63  C   UNL A   1      44.145  33.742  29.944  1.00  0.00     0.037 A 
BRANCH  50  64
ATOM     64  C   UNL A   1      47.068  28.743  27.769  1.00  0.00     0.058 A 
ATOM     65  C   UNL A   1      47.892  28.079  28.693  1.00  0.00     0.135 A 
ATOM     66  C   UNL A   1      47.482  28.774  26.428  1.00  0.00     0.135 A 
ATOM     67  F   UNL A   1      47.557  28.039  29.993  1.00  0.00    -0.206 F 
ATOM     68  C   UNL A   1      49.095  27.496  28.308  1.00  0.00     0.059 A 
ATOM     69  C   UNL A   1      48.666  28.171  26.015  1.00  0.00     0.059 A 
ATOM     70  F   UNL A   1      46.735  29.400  25.505  1.00  0.00    -0.206 F 
ATOM     71  C   UNL A   1      49.473  27.547  26.966  1.00  0.00     0.060 A 
BRANCH  71  72
ATOM     72  S   UNL A   1      51.031  26.776  26.482  1.00  0.00     0.124 S 
ATOM     73  O   UNL A   1      51.994  27.810  26.849  1.00  0.00    -0.237 OA
ATOM     74  O   UNL A   1      51.052  25.571  27.305  1.00  0.00    -0.237 OA
ATOM     75  O   UNL A   1      50.867  26.550  25.049  1.00  0.00    -0.744 OA
ENDBRANCH  71  72
ENDBRANCH  50  64
BRANCH  51  76
ATOM     76  C   UNL A   1      38.243  32.537  30.645  1.00  0.00     0.058 A 
ATOM     77  C   UNL A   1      37.791  32.343  31.959  1.00  0.00     0.135 A 
ATOM     78  C   UNL A   1      37.428  33.282  29.778  1.00  0.00     0.135 A 
ATOM     79  F   UNL A   1      38.533  31.635  32.824  1.00  0.00    -0.206 F 
ATOM     80  C   UNL A   1      36.568  32.845  32.393  1.00  0.00     0.059 A 
ATOM     81  C   UNL A   1      36.212  33.816  30.197  1.00  0.00     0.059 A 
ATOM     82  F   UNL A   1      37.822  33.514  28.517  1.00  0.00    -0.206 F 
ATOM     83  C   UNL A   1      35.785  33.581  31.503  1.00  0.00     0.060 A 
BRANCH  83  84
ATOM     84  S   UNL A   1      34.217  34.261  32.087  1.00  0.00     0.124 S 
ATOM     85  O   UNL A   1      33.725  33.181  32.933  1.00  0.00    -0.237 OA
ATOM     86  O   UNL A   1      34.646  35.472  32.780  1.00  0.00    -0.237 OA
ATOM     87  O   UNL A   1      33.471  34.488  30.852  1.00  0.00    -0.744 OA
ENDBRANCH  83  84
ENDBRANCH  51  76
BRANCH  63  88
ATOM     88  C   UNL A   1      44.720  35.097  30.241  1.00  0.00     0.058 A 
ATOM     89  C   UNL A   1      44.750  36.113  29.274  1.00  0.00     0.135 A 
ATOM     90  C   UNL A   1      45.188  35.400  31.529  1.00  0.00     0.135 A 
ATOM     91  F   UNL A   1      44.317  35.873  28.026  1.00  0.00    -0.206 F 
ATOM     92  C   UNL A   1      45.245  37.378  29.569  1.00  0.00     0.059 A 
ATOM     93  C   UNL A   1      45.662  36.665  31.854  1.00  0.00     0.059 A 
ATOM     94  F   UNL A   1      45.168  34.464  32.493  1.00  0.00    -0.206 F 
ATOM     95  C   UNL A   1      45.698  37.645  30.863  1.00  0.00     0.060 A 
BRANCH  95  96
ATOM     96  S   UNL A   1      46.305  39.302  31.244  1.00  0.00     0.124 S 
ATOM     97  O   UNL A   1      47.027  39.069  32.491  1.00  0.00    -0.237 OA
ATOM     98  O   UNL A   1      47.130  39.608  30.080  1.00  0.00    -0.237 OA
ATOM     99  O   UNL A   1      45.082  40.091  31.363  1.00  0.00    -0.744 OA
ENDBRANCH  95  96
ENDBRANCH  63  88
ENDBRANCH  37  38
ENDBRANCH  29  32
ENDBRANCH  27  28
ENDBRANCH  26  27
ENDBRANCH   1  26
TORSDOF 20
ENDMDL
MODEL 3
REMARK VINA RESULT:     -11.1      6.794     12.332
REMARK SMILES CC/C(=C/C(=O)[C@H](Cc1ccc(Cl)cc1Cl)C(=O)NCCCCNC(=O)c1ccc(-c2c3nc(c(-c4c(F)cc(S(=O)(=O)[O-])cc4F)c4ccc([nH]4)c(-c4c(F)cc(S(=O)(=O)[O-])cc4F)c4nc(c(-c5c(F)cc(S(=O)(=O)[O-])cc5F)c5ccc2[nH]5)C=C4)C=C3)cc1)N(C)C
REMARK SMILES IDX 21 1 20 2 19 3 17 4 18 5 7 7 5 8 6 9 4 10 3 11 2 12 1 13
REMARK SMILES IDX 93 14 94 15 95 16 8 17 9 18 10 19 15 20 11 21 14 22 16 23
REMARK SMILES IDX 12 24 13 25 22 26 23 27 24 28 25 29 26 31 27 32 28 33 92 34
REMARK SMILES IDX 29 35 91 36 30 37 31 38 32 39 85 40 33 41 90 42 84 43 86 44
REMARK SMILES IDX 34 45 89 46 83 47 82 48 35 50 69 51 48 52 68 53 49 54 52 55
REMARK SMILES IDX 67 56 87 57 50 58 51 59 66 61 88 62 53 63 36 64 37 65 46 66
REMARK SMILES IDX 38 67 39 68 45 69 47 70 40 71 41 72 42 73 43 74 44 75 70 76
REMARK SMILES IDX 71 77 80 78 72 79 73 80 79 81 81 82 74 83 75 84 76 85 77 86
REMARK SMILES IDX 78 87 54 88 55 89 64 90 56 91 57 92 63 93 65 94 58 95 59 96
REMARK SMILES IDX 60 97 61 98 62 99
REMARK H PARENT 19 6 24 30 86 49 52 60
REMARK Flexibility Score: inf
ROOT
ATOM      1  C   UNL A   1      33.787  28.626  26.105  1.00  0.00     0.023 C 
ENDROOT
BRANCH   1   2
ATOM      2  C   UNL A   1      33.765  27.105  25.924  1.00  0.00     0.116 C 
BRANCH   2   3
ATOM      3  N   UNL A   1      32.549  26.502  26.411  1.00  0.00    -0.355 N 
ATOM      4  C   UNL A   1      31.550  25.826  25.789  1.00  0.00     0.231 C 
ATOM      5  O   UNL A   1      30.640  25.437  26.536  1.00  0.00    -0.274 OA
ATOM      6  H   UNL A   1      32.418  26.599  27.383  1.00  0.00     0.163 HD
BRANCH   4   7
ATOM      7  C   UNL A   1      31.433  25.602  24.278  1.00  0.00     0.154 C 
BRANCH   7   8
ATOM      8  C   UNL A   1      32.055  24.299  23.772  1.00  0.00     0.170 C 
ATOM      9  O   UNL A   1      31.410  23.417  23.206  1.00  0.00    -0.294 OA
BRANCH   8  10
ATOM     10  C   UNL A   1      33.490  24.007  24.059  1.00  0.00     0.069 C 
ATOM     11  C   UNL A   1      34.008  22.974  24.755  1.00  0.00     0.016 C 
BRANCH  11  12
ATOM     12  C   UNL A   1      35.419  22.575  24.322  1.00  0.00     0.050 C 
ATOM     13  C   UNL A   1      36.503  23.584  24.648  1.00  0.00     0.010 C 
ENDBRANCH  11  12
BRANCH  11  14
ATOM     14  N   UNL A   1      33.333  22.175  25.695  1.00  0.00    -0.381 N 
ATOM     15  C   UNL A   1      32.920  22.632  27.027  1.00  0.00     0.143 C 
ATOM     16  C   UNL A   1      32.851  20.818  25.393  1.00  0.00     0.143 C 
ENDBRANCH  11  14
ENDBRANCH   8  10
ENDBRANCH   7   8
BRANCH   7  17
ATOM     17  C   UNL A   1      31.423  26.823  23.341  1.00  0.00     0.059 C 
BRANCH  17  18
ATOM     18  C   UNL A   1      30.324  27.819  22.998  1.00  0.00    -0.028 A 
ATOM     19  C   UNL A   1      30.803  28.962  22.305  1.00  0.00     0.007 A 
ATOM     20  C   UNL A   1      28.955  27.793  23.303  1.00  0.00     0.045 A 
ATOM     21  C   UNL A   1      29.987  30.052  22.007  1.00  0.00     0.021 A 
ATOM     22  C   UNL A   1      28.141  28.908  23.038  1.00  0.00     0.041 A 
ATOM     23  Cl  UNL A   1      28.132  26.419  23.936  1.00  0.00    -0.084 Cl
ATOM     24  C   UNL A   1      28.662  30.033  22.408  1.00  0.00     0.042 A 
ATOM     25  Cl  UNL A   1      27.663  31.402  22.116  1.00  0.00    -0.084 Cl
ENDBRANCH  17  18
ENDBRANCH   7  17
ENDBRANCH   4   7
ENDBRANCH   2   3
ENDBRANCH   1   2
BRANCH   1  26
ATOM     26  C   UNL A   1      33.922  29.128  27.532  1.00  0.00     0.023 C 
BRANCH  26  27
ATOM     27  C   UNL A   1      35.306  29.610  27.900  1.00  0.00     0.116 C 
BRANCH  27  28
ATOM     28  N   UNL A   1      35.359  30.377  29.137  1.00  0.00    -0.352 N 
ATOM     29  C   UNL A   1      36.452  30.532  29.957  1.00  0.00     0.251 C 
ATOM     30  H   UNL A   1      34.530  30.830  29.413  1.00  0.00     0.163 HD
ATOM     31  O   UNL A   1      36.370  31.132  31.022  1.00  0.00    -0.269 OA
BRANCH  29  32
ATOM     32  C   UNL A   1      37.711  29.900  29.525  1.00  0.00     0.039 A 
ATOM     33  C   UNL A   1      38.065  29.948  28.177  1.00  0.00     0.014 A 
ATOM     34  C   UNL A   1      38.598  29.416  30.490  1.00  0.00     0.014 A 
ATOM     35  C   UNL A   1      39.348  29.556  27.802  1.00  0.00     0.010 A 
ATOM     36  C   UNL A   1      39.904  29.132  30.127  1.00  0.00     0.010 A 
ATOM     37  C   UNL A   1      40.285  29.179  28.778  1.00  0.00    -0.014 A 
BRANCH  37  38
ATOM     38  C   UNL A   1      41.658  28.761  28.410  1.00  0.00     0.031 A 
ATOM     39  C   UNL A   1      42.746  29.799  28.363  1.00  0.00     0.074 A 
ATOM     40  C   UNL A   1      41.907  27.483  28.063  1.00  0.00     0.049 A 
ATOM     41  N   UNL A   1      43.991  29.675  27.988  1.00  0.00    -0.248 NA
ATOM     42  C   UNL A   1      42.371  31.171  28.750  1.00  0.00     0.031 C 
ATOM     43  C   UNL A   1      40.916  26.406  28.013  1.00  0.00     0.029 A 
ATOM     44  N   UNL A   1      43.075  26.876  27.678  1.00  0.00    -0.354 N 
ATOM     45  C   UNL A   1      44.537  30.950  28.073  1.00  0.00     0.074 A 
ATOM     46  C   UNL A   1      43.473  31.846  28.464  1.00  0.00     0.031 C 
ATOM     47  C   UNL A   1      41.525  25.264  27.649  1.00  0.00     0.029 A 
ATOM     48  C   UNL A   1      42.939  25.533  27.411  1.00  0.00     0.049 A 
ATOM     49  H   UNL A   1      43.931  27.355  27.601  1.00  0.00     0.167 HD
ATOM     50  C   UNL A   1      45.819  31.335  27.881  1.00  0.00     0.037 A 
ATOM     51  C   UNL A   1      43.856  24.628  27.020  1.00  0.00     0.037 A 
ATOM     52  C   UNL A   1      46.879  30.426  27.543  1.00  0.00     0.049 A 
ATOM     53  C   UNL A   1      45.284  25.073  26.842  1.00  0.00     0.074 A 
ATOM     54  C   UNL A   1      48.226  30.694  27.383  1.00  0.00     0.029 A 
ATOM     55  N   UNL A   1      46.711  29.065  27.325  1.00  0.00    -0.354 N 
ATOM     56  N   UNL A   1      45.797  26.272  26.985  1.00  0.00    -0.248 NA
ATOM     57  C   UNL A   1      46.260  24.043  26.462  1.00  0.00     0.031 C 
ATOM     58  C   UNL A   1      48.868  29.501  27.037  1.00  0.00     0.029 A 
ATOM     59  C   UNL A   1      47.928  28.482  27.025  1.00  0.00     0.049 A 
ATOM     60  H   UNL A   1      45.852  28.587  27.376  1.00  0.00     0.167 HD
ATOM     61  C   UNL A   1      47.158  26.135  26.744  1.00  0.00     0.074 A 
ATOM     62  C   UNL A   1      47.391  24.735  26.454  1.00  0.00     0.031 C 
ATOM     63  C   UNL A   1      48.132  27.080  26.760  1.00  0.00     0.037 A 
BRANCH  50  64
ATOM     64  C   UNL A   1      46.140  32.792  28.054  1.00  0.00     0.058 A 
ATOM     65  C   UNL A   1      45.976  33.711  27.004  1.00  0.00     0.135 A 
ATOM     66  C   UNL A   1      46.603  33.283  29.286  1.00  0.00     0.135 A 
ATOM     67  F   UNL A   1      45.559  33.293  25.798  1.00  0.00    -0.206 F 
ATOM     68  C   UNL A   1      46.289  35.057  27.159  1.00  0.00     0.059 A 
ATOM     69  C   UNL A   1      46.893  34.631  29.473  1.00  0.00     0.059 A 
ATOM     70  F   UNL A   1      46.783  32.448  30.321  1.00  0.00    -0.206 F 
ATOM     71  C   UNL A   1      46.746  35.508  28.398  1.00  0.00     0.060 A 
BRANCH  71  72
ATOM     72  S   UNL A   1      47.136  37.259  28.585  1.00  0.00     0.124 S 
ATOM     73  O   UNL A   1      48.381  37.363  27.829  1.00  0.00    -0.237 OA
ATOM     74  O   UNL A   1      45.974  37.904  27.981  1.00  0.00    -0.237 OA
ATOM     75  O   UNL A   1      47.263  37.427  30.030  1.00  0.00    -0.744 OA
ENDBRANCH  71  72
ENDBRANCH  50  64
BRANCH  51  76
ATOM     76  C   UNL A   1      43.465  23.209  26.809  1.00  0.00     0.058 A 
ATOM     77  C   UNL A   1      43.270  22.699  25.517  1.00  0.00     0.135 A 
ATOM     78  C   UNL A   1      43.281  22.332  27.890  1.00  0.00     0.135 A 
ATOM     79  F   UNL A   1      43.431  23.499  24.451  1.00  0.00    -0.206 F 
ATOM     80  C   UNL A   1      42.884  21.380  25.301  1.00  0.00     0.059 A 
ATOM     81  C   UNL A   1      42.920  21.001  27.699  1.00  0.00     0.059 A 
ATOM     82  F   UNL A   1      43.475  22.762  29.146  1.00  0.00    -0.206 F 
ATOM     83  C   UNL A   1      42.711  20.538  26.401  1.00  0.00     0.060 A 
BRANCH  83  84
ATOM     84  S   UNL A   1      42.247  18.817  26.109  1.00  0.00     0.124 S 
ATOM     85  O   UNL A   1      43.152  18.448  25.028  1.00  0.00    -0.237 OA
ATOM     86  O   UNL A   1      42.516  18.202  27.406  1.00  0.00    -0.237 OA
ATOM     87  O   UNL A   1      40.835  18.907  25.750  1.00  0.00    -0.744 OA
ENDBRANCH  83  84
ENDBRANCH  51  76
BRANCH  63  88
ATOM     88  C   UNL A   1      49.540  26.625  26.503  1.00  0.00     0.058 A 
ATOM     89  C   UNL A   1      50.362  26.149  27.535  1.00  0.00     0.135 A 
ATOM     90  C   UNL A   1      50.049  26.606  25.195  1.00  0.00     0.135 A 
ATOM     91  F   UNL A   1      49.922  26.150  28.804  1.00  0.00    -0.206 F 
ATOM     92  C   UNL A   1      51.649  25.690  27.282  1.00  0.00     0.059 A 
ATOM     93  C   UNL A   1      51.322  26.126  24.914  1.00  0.00     0.059 A 
ATOM     94  F   UNL A   1      49.295  27.040  24.170  1.00  0.00    -0.206 F 
ATOM     95  C   UNL A   1      52.121  25.681  25.968  1.00  0.00     0.060 A 
BRANCH  95  96
ATOM     96  S   UNL A   1      53.780  25.048  25.646  1.00  0.00     0.124 S 
ATOM     97  O   UNL A   1      53.511  23.635  25.401  1.00  0.00    -0.237 OA
ATOM     98  O   UNL A   1      54.192  25.828  24.483  1.00  0.00    -0.237 OA
ATOM     99  O   UNL A   1      54.501  25.347  26.880  1.00  0.00    -0.744 OA
ENDBRANCH  95  96
ENDBRANCH  63  88
ENDBRANCH  37  38
ENDBRANCH  29  32
ENDBRANCH  27  28
ENDBRANCH  26  27
ENDBRANCH   1  26
TORSDOF 20
ENDMDL
