MODEL 1
REMARK VINA RESULT:     -11.5      0.000      0.000
REMARK SMILES Cc1csc2nc(C(=O)NCCCCNC(=O)c3ccc(-c4c5nc(c(-c6c(F)cc(S(=O)(=O)[O-])cc6F)c6ccc([nH]6)c(-c6c(F)cc(S(=O)(=O)[O-])cc6F)c6nc(c(-c7c(F)cc(S(=O)(=O)[O-])cc7F)c7ccc4[nH]7)C=C6)C=C5)cc3)cn12
REMARK SMILES IDX 14 1 13 2 12 3 11 4 10 5 8 6 9 7 7 9 1 10 2 11 3 12 85 13
REMARK SMILES IDX 4 14 5 15 84 16 6 17 15 18 16 19 17 21 18 22 19 23 83 24
REMARK SMILES IDX 20 25 82 26 21 27 22 28 23 29 76 30 24 31 81 32 75 33 77 34
REMARK SMILES IDX 25 35 80 36 74 37 73 38 26 40 60 41 39 42 59 43 40 44 43 45
REMARK SMILES IDX 58 46 78 47 41 48 42 49 57 51 79 52 44 53 27 54 28 55 37 56
REMARK SMILES IDX 29 57 30 58 36 59 38 60 31 61 32 62 33 63 34 64 35 65 61 66
REMARK SMILES IDX 62 67 71 68 63 69 64 70 70 71 72 72 65 73 66 74 67 75 68 76
REMARK SMILES IDX 69 77 45 78 46 79 55 80 47 81 48 82 54 83 56 84 49 85 50 86
REMARK SMILES IDX 51 87 52 88 53 89
REMARK H PARENT 10 8 15 20 77 39 43 50
REMARK Flexibility Score: inf
ROOT
ATOM      1  C   UNL A   1      42.277  19.787  26.755  1.00  0.00     0.116 C 
ENDROOT
BRANCH   1   2
ATOM      2  C   UNL A   1      40.887  19.894  26.134  1.00  0.00     0.023 C 
BRANCH   2   3
ATOM      3  C   UNL A   1      40.132  21.191  26.469  1.00  0.00     0.023 C 
BRANCH   3   4
ATOM      4  C   UNL A   1      38.799  21.379  25.736  1.00  0.00     0.116 C 
BRANCH   4   5
ATOM      5  N   UNL A   1      38.239  22.703  25.950  1.00  0.00    -0.351 N 
ATOM      6  C   UNL A   1      36.958  23.178  25.776  1.00  0.00     0.271 C 
ATOM      7  O   UNL A   1      36.746  24.364  26.036  1.00  0.00    -0.267 OA
ATOM      8  H   UNL A   1      38.884  23.374  26.273  1.00  0.00     0.163 HD
BRANCH   6   9
ATOM      9  C   UNL A   1      35.877  22.300  25.301  1.00  0.00     0.148 A 
ATOM     10  C   UNL A   1      32.169  22.200  22.732  1.00  0.00     0.066 C 
ATOM     11  C   UNL A   1      32.895  21.258  23.622  1.00  0.00     0.032 A 
ATOM     12  C   UNL A   1      32.551  19.980  23.887  1.00  0.00     0.090 A 
ATOM     13  N   UNL A   1      34.056  21.605  24.294  1.00  0.00    -0.294 N 
ATOM     14  S   UNL A   1      33.679  19.156  24.971  1.00  0.00    -0.105 S 
ATOM     15  C   UNL A   1      34.613  20.614  25.041  1.00  0.00     0.194 A 
ATOM     16  C   UNL A   1      34.848  22.703  24.443  1.00  0.00     0.128 A 
ATOM     17  N   UNL A   1      35.720  20.957  25.632  1.00  0.00    -0.214 NA
ENDBRANCH   6   9
ENDBRANCH   4   5
ENDBRANCH   3   4
ENDBRANCH   2   3
ENDBRANCH   1   2
BRANCH   1  18
ATOM     18  N   UNL A   1      43.337  19.568  25.769  1.00  0.00    -0.352 N 
ATOM     19  C   UNL A   1      43.983  20.516  24.992  1.00  0.00     0.251 C 
ATOM     20  H   UNL A   1      43.626  18.635  25.645  1.00  0.00     0.163 HD
ATOM     21  O   UNL A   1      44.544  20.204  23.956  1.00  0.00    -0.269 OA
BRANCH  19  22
ATOM     22  C   UNL A   1      43.990  21.916  25.459  1.00  0.00     0.039 A 
ATOM     23  C   UNL A   1      43.057  22.854  25.004  1.00  0.00     0.014 A 
ATOM     24  C   UNL A   1      44.952  22.268  26.402  1.00  0.00     0.014 A 
ATOM     25  C   UNL A   1      43.045  24.127  25.577  1.00  0.00     0.010 A 
ATOM     26  C   UNL A   1      44.841  23.459  27.069  1.00  0.00     0.010 A 
ATOM     27  C   UNL A   1      43.931  24.416  26.625  1.00  0.00    -0.014 A 
BRANCH  27  28
ATOM     28  C   UNL A   1      43.821  25.648  27.409  1.00  0.00     0.031 A 
ATOM     29  C   UNL A   1      44.892  26.641  27.093  1.00  0.00     0.074 A 
ATOM     30  C   UNL A   1      42.686  25.943  28.090  1.00  0.00     0.049 A 
ATOM     31  N   UNL A   1      45.814  27.106  27.872  1.00  0.00    -0.248 NA
ATOM     32  C   UNL A   1      45.078  27.032  25.680  1.00  0.00     0.031 C 
ATOM     33  C   UNL A   1      41.464  25.125  28.160  1.00  0.00     0.029 A 
ATOM     34  N   UNL A   1      42.305  27.081  28.737  1.00  0.00    -0.354 N 
ATOM     35  C   UNL A   1      46.497  28.061  27.115  1.00  0.00     0.074 A 
ATOM     36  C   UNL A   1      46.181  27.780  25.745  1.00  0.00     0.031 C 
ATOM     37  C   UNL A   1      40.423  25.885  28.564  1.00  0.00     0.029 A 
ATOM     38  C   UNL A   1      40.927  27.186  28.954  1.00  0.00     0.049 A 
ATOM     39  H   UNL A   1      42.944  27.771  29.027  1.00  0.00     0.167 HD
ATOM     40  C   UNL A   1      46.963  29.203  27.699  1.00  0.00     0.037 A 
ATOM     41  C   UNL A   1      40.245  28.272  29.401  1.00  0.00     0.037 A 
ATOM     42  C   UNL A   1      46.968  29.052  29.133  1.00  0.00     0.049 A 
ATOM     43  C   UNL A   1      41.236  29.150  30.064  1.00  0.00     0.074 A 
ATOM     44  C   UNL A   1      47.662  28.307  30.061  1.00  0.00     0.029 A 
ATOM     45  N   UNL A   1      45.815  29.484  29.733  1.00  0.00    -0.354 N 
ATOM     46  N   UNL A   1      41.887  28.812  31.144  1.00  0.00    -0.248 NA
ATOM     47  C   UNL A   1      41.809  30.257  29.312  1.00  0.00     0.031 C 
ATOM     48  C   UNL A   1      46.761  28.107  31.149  1.00  0.00     0.029 A 
ATOM     49  C   UNL A   1      45.573  28.790  30.885  1.00  0.00     0.049 A 
ATOM     50  H   UNL A   1      45.236  30.199  29.381  1.00  0.00     0.167 HD
ATOM     51  C   UNL A   1      43.149  29.353  30.973  1.00  0.00     0.074 A 
ATOM     52  C   UNL A   1      42.991  30.358  29.926  1.00  0.00     0.031 C 
ATOM     53  C   UNL A   1      44.248  28.709  31.462  1.00  0.00     0.037 A 
BRANCH  40  54
ATOM     54  C   UNL A   1      46.891  30.598  27.076  1.00  0.00     0.058 A 
ATOM     55  C   UNL A   1      48.035  31.429  27.145  1.00  0.00     0.135 A 
ATOM     56  C   UNL A   1      45.696  31.266  26.722  1.00  0.00     0.135 A 
ATOM     57  F   UNL A   1      49.236  30.913  27.455  1.00  0.00    -0.206 F 
ATOM     58  C   UNL A   1      47.976  32.815  26.982  1.00  0.00     0.059 A 
ATOM     59  C   UNL A   1      45.624  32.641  26.512  1.00  0.00     0.059 A 
ATOM     60  F   UNL A   1      44.515  30.649  26.641  1.00  0.00    -0.206 F 
ATOM     61  C   UNL A   1      46.758  33.414  26.684  1.00  0.00     0.060 A 
BRANCH  61  62
ATOM     62  S   UNL A   1      46.649  35.208  26.565  1.00  0.00     0.124 S 
ATOM     63  O   UNL A   1      45.213  35.403  26.401  1.00  0.00    -0.237 OA
ATOM     64  O   UNL A   1      47.213  35.629  27.842  1.00  0.00    -0.237 OA
ATOM     65  O   UNL A   1      47.466  35.516  25.394  1.00  0.00    -0.744 OA
ENDBRANCH  61  62
ENDBRANCH  40  54
BRANCH  41  66
ATOM     66  C   UNL A   1      38.873  28.744  29.054  1.00  0.00     0.058 A 
ATOM     67  C   UNL A   1      37.875  28.890  30.037  1.00  0.00     0.135 A 
ATOM     68  C   UNL A   1      38.603  29.344  27.808  1.00  0.00     0.135 A 
ATOM     69  F   UNL A   1      38.048  28.360  31.257  1.00  0.00    -0.206 F 
ATOM     70  C   UNL A   1      36.710  29.640  29.820  1.00  0.00     0.059 A 
ATOM     71  C   UNL A   1      37.448  30.091  27.567  1.00  0.00     0.059 A 
ATOM     72  F   UNL A   1      39.503  29.302  26.816  1.00  0.00    -0.206 F 
ATOM     73  C   UNL A   1      36.517  30.259  28.585  1.00  0.00     0.060 A 
BRANCH  73  74
ATOM     74  S   UNL A   1      35.110  31.377  28.357  1.00  0.00     0.124 S 
ATOM     75  O   UNL A   1      35.684  32.419  27.514  1.00  0.00    -0.237 OA
ATOM     76  O   UNL A   1      34.125  30.511  27.719  1.00  0.00    -0.237 OA
ATOM     77  O   UNL A   1      34.782  31.789  29.719  1.00  0.00    -0.744 OA
ENDBRANCH  73  74
ENDBRANCH  41  66
BRANCH  53  78
ATOM     78  C   UNL A   1      44.048  27.743  32.594  1.00  0.00     0.058 A 
ATOM     79  C   UNL A   1      43.770  28.091  33.927  1.00  0.00     0.135 A 
ATOM     80  C   UNL A   1      44.032  26.379  32.269  1.00  0.00     0.135 A 
ATOM     81  F   UNL A   1      43.685  29.375  34.302  1.00  0.00    -0.206 F 
ATOM     82  C   UNL A   1      43.520  27.119  34.899  1.00  0.00     0.059 A 
ATOM     83  C   UNL A   1      43.754  25.397  33.210  1.00  0.00     0.059 A 
ATOM     84  F   UNL A   1      44.241  25.989  31.000  1.00  0.00    -0.206 F 
ATOM     85  C   UNL A   1      43.512  25.773  34.529  1.00  0.00     0.060 A 
BRANCH  85  86
ATOM     86  S   UNL A   1      43.126  24.516  35.765  1.00  0.00     0.124 S 
ATOM     87  O   UNL A   1      41.680  24.384  35.629  1.00  0.00    -0.237 OA
ATOM     88  O   UNL A   1      43.915  23.373  35.312  1.00  0.00    -0.237 OA
ATOM     89  O   UNL A   1      43.581  25.118  37.017  1.00  0.00    -0.744 OA
ENDBRANCH  85  86
ENDBRANCH  53  78
ENDBRANCH  27  28
ENDBRANCH  19  22
ENDBRANCH   1  18
TORSDOF 14
ENDMDL
MODEL 2
REMARK VINA RESULT:     -11.5      3.138      5.041
REMARK SMILES Cc1csc2nc(C(=O)NCCCCNC(=O)c3ccc(-c4c5nc(c(-c6c(F)cc(S(=O)(=O)[O-])cc6F)c6ccc([nH]6)c(-c6c(F)cc(S(=O)(=O)[O-])cc6F)c6nc(c(-c7c(F)cc(S(=O)(=O)[O-])cc7F)c7ccc4[nH]7)C=C6)C=C5)cc3)cn12
REMARK SMILES IDX 14 1 13 2 12 3 11 4 10 5 8 6 9 7 7 9 1 10 2 11 3 12 85 13
REMARK SMILES IDX 4 14 5 15 84 16 6 17 15 18 16 19 17 21 18 22 19 23 83 24
REMARK SMILES IDX 20 25 82 26 21 27 22 28 23 29 76 30 24 31 81 32 75 33 77 34
REMARK SMILES IDX 25 35 80 36 74 37 73 38 26 40 60 41 39 42 59 43 40 44 43 45
REMARK SMILES IDX 58 46 78 47 41 48 42 49 57 51 79 52 44 53 27 54 28 55 37 56
REMARK SMILES IDX 29 57 30 58 36 59 38 60 31 61 32 62 33 63 34 64 35 65 61 66
REMARK SMILES IDX 62 67 71 68 63 69 64 70 70 71 72 72 65 73 66 74 67 75 68 76
REMARK SMILES IDX 69 77 45 78 46 79 55 80 47 81 48 82 54 83 56 84 49 85 50 86
REMARK SMILES IDX 51 87 52 88 53 89
REMARK H PARENT 10 8 15 20 77 39 43 50
REMARK Flexibility Score: inf
ROOT
ATOM      1  C   UNL A   1      41.539  21.139  27.291  1.00  0.00     0.116 C 
ENDROOT
BRANCH   1   2
ATOM      2  C   UNL A   1      41.922  19.686  27.556  1.00  0.00     0.023 C 
BRANCH   2   3
ATOM      3  C   UNL A   1      42.294  18.881  26.300  1.00  0.00     0.023 C 
BRANCH   3   4
ATOM      4  C   UNL A   1      43.772  18.496  26.183  1.00  0.00     0.116 C 
BRANCH   4   5
ATOM      5  N   UNL A   1      44.269  18.638  24.825  1.00  0.00    -0.351 N 
ATOM      6  C   UNL A   1      44.761  19.738  24.157  1.00  0.00     0.271 C 
ATOM      7  O   UNL A   1      45.123  19.584  22.989  1.00  0.00    -0.267 OA
ATOM      8  H   UNL A   1      44.251  17.810  24.292  1.00  0.00     0.163 HD
BRANCH   6   9
ATOM      9  C   UNL A   1      44.855  21.051  24.814  1.00  0.00     0.148 A 
ATOM     10  C   UNL A   1      42.883  25.098  25.101  1.00  0.00     0.066 C 
ATOM     11  C   UNL A   1      44.093  24.443  25.658  1.00  0.00     0.032 A 
ATOM     12  C   UNL A   1      44.992  25.000  26.496  1.00  0.00     0.090 A 
ATOM     13  N   UNL A   1      44.436  23.132  25.369  1.00  0.00    -0.294 N 
ATOM     14  S   UNL A   1      46.289  23.897  26.974  1.00  0.00    -0.105 S 
ATOM     15  C   UNL A   1      45.558  22.674  25.988  1.00  0.00     0.194 A 
ATOM     16  C   UNL A   1      43.963  22.108  24.605  1.00  0.00     0.128 A 
ATOM     17  N   UNL A   1      45.835  21.430  25.728  1.00  0.00    -0.214 NA
ENDBRANCH   6   9
ENDBRANCH   4   5
ENDBRANCH   3   4
ENDBRANCH   2   3
ENDBRANCH   1   2
BRANCH   1  18
ATOM     18  N   UNL A   1      40.305  21.281  26.516  1.00  0.00    -0.352 N 
ATOM     19  C   UNL A   1      39.416  22.345  26.522  1.00  0.00     0.251 C 
ATOM     20  H   UNL A   1      40.081  20.531  25.918  1.00  0.00     0.163 HD
ATOM     21  O   UNL A   1      38.261  22.201  26.162  1.00  0.00    -0.269 OA
BRANCH  19  22
ATOM     22  C   UNL A   1      39.910  23.665  26.959  1.00  0.00     0.039 A 
ATOM     23  C   UNL A   1      39.263  24.854  26.601  1.00  0.00     0.014 A 
ATOM     24  C   UNL A   1      41.037  23.686  27.774  1.00  0.00     0.014 A 
ATOM     25  C   UNL A   1      39.712  26.057  27.147  1.00  0.00     0.010 A 
ATOM     26  C   UNL A   1      41.378  24.840  28.428  1.00  0.00     0.010 A 
ATOM     27  C   UNL A   1      40.761  26.039  28.078  1.00  0.00    -0.014 A 
BRANCH  27  28
ATOM     28  C   UNL A   1      41.129  27.230  28.846  1.00  0.00     0.031 A 
ATOM     29  C   UNL A   1      42.297  27.962  28.269  1.00  0.00     0.074 A 
ATOM     30  C   UNL A   1      40.288  27.750  29.773  1.00  0.00     0.049 A 
ATOM     31  N   UNL A   1      43.459  28.169  28.798  1.00  0.00    -0.248 NA
ATOM     32  C   UNL A   1      42.231  28.358  26.846  1.00  0.00     0.031 C 
ATOM     33  C   UNL A   1      38.960  27.234  30.145  1.00  0.00     0.029 A 
ATOM     34  N   UNL A   1      40.346  28.918  30.475  1.00  0.00    -0.354 N 
ATOM     35  C   UNL A   1      44.148  28.972  27.886  1.00  0.00     0.074 A 
ATOM     36  C   UNL A   1      43.463  28.828  26.635  1.00  0.00     0.031 C 
ATOM     37  C   UNL A   1      38.251  28.195  30.774  1.00  0.00     0.029 A 
ATOM     38  C   UNL A   1      39.121  29.328  31.012  1.00  0.00     0.049 A 
ATOM     39  H   UNL A   1      41.179  29.429  30.594  1.00  0.00     0.167 HD
ATOM     40  C   UNL A   1      44.993  29.951  28.324  1.00  0.00     0.037 A 
ATOM     41  C   UNL A   1      38.837  30.523  31.592  1.00  0.00     0.037 A 
ATOM     42  C   UNL A   1      45.299  29.743  29.718  1.00  0.00     0.049 A 
ATOM     43  C   UNL A   1      40.133  31.121  31.987  1.00  0.00     0.074 A 
ATOM     44  C   UNL A   1      45.998  28.821  30.465  1.00  0.00     0.029 A 
ATOM     45  N   UNL A   1      44.453  30.404  30.569  1.00  0.00    -0.354 N 
ATOM     46  N   UNL A   1      40.923  30.597  32.886  1.00  0.00    -0.248 NA
ATOM     47  C   UNL A   1      40.755  32.096  31.103  1.00  0.00     0.031 C 
ATOM     48  C   UNL A   1      45.358  28.789  31.739  1.00  0.00     0.029 A 
ATOM     49  C   UNL A   1      44.334  29.738  31.755  1.00  0.00     0.049 A 
ATOM     50  H   UNL A   1      43.991  31.248  30.354  1.00  0.00     0.167 HD
ATOM     51  C   UNL A   1      42.199  30.840  32.410  1.00  0.00     0.074 A 
ATOM     52  C   UNL A   1      42.038  31.897  31.416  1.00  0.00     0.031 C 
ATOM     53  C   UNL A   1      43.201  29.941  32.634  1.00  0.00     0.037 A 
BRANCH  40  54
ATOM     54  C   UNL A   1      45.103  31.349  27.715  1.00  0.00     0.058 A 
ATOM     55  C   UNL A   1      46.348  31.754  27.176  1.00  0.00     0.135 A 
ATOM     56  C   UNL A   1      44.180  32.399  27.924  1.00  0.00     0.135 A 
ATOM     57  F   UNL A   1      47.306  30.850  26.915  1.00  0.00    -0.206 F 
ATOM     58  C   UNL A   1      46.682  33.095  26.965  1.00  0.00     0.059 A 
ATOM     59  C   UNL A   1      44.477  33.737  27.678  1.00  0.00     0.059 A 
ATOM     60  F   UNL A   1      42.970  32.209  28.455  1.00  0.00    -0.206 F 
ATOM     61  C   UNL A   1      45.743  34.082  27.239  1.00  0.00     0.060 A 
BRANCH  61  62
ATOM     62  S   UNL A   1      46.192  35.817  27.062  1.00  0.00     0.124 S 
ATOM     63  O   UNL A   1      44.881  36.446  26.943  1.00  0.00    -0.237 OA
ATOM     64  O   UNL A   1      46.915  36.068  28.303  1.00  0.00    -0.237 OA
ATOM     65  O   UNL A   1      47.011  35.829  25.853  1.00  0.00    -0.744 OA
ENDBRANCH  61  62
ENDBRANCH  40  54
BRANCH  41  66
ATOM     66  C   UNL A   1      37.571  31.312  31.575  1.00  0.00     0.058 A 
ATOM     67  C   UNL A   1      36.834  31.545  32.752  1.00  0.00     0.135 A 
ATOM     68  C   UNL A   1      37.222  32.103  30.463  1.00  0.00     0.135 A 
ATOM     69  F   UNL A   1      37.102  30.845  33.865  1.00  0.00    -0.206 F 
ATOM     70  C   UNL A   1      35.854  32.544  32.840  1.00  0.00     0.059 A 
ATOM     71  C   UNL A   1      36.246  33.100  30.525  1.00  0.00     0.059 A 
ATOM     72  F   UNL A   1      37.888  31.993  29.305  1.00  0.00    -0.206 F 
ATOM     73  C   UNL A   1      35.584  33.335  31.724  1.00  0.00     0.060 A 
BRANCH  73  74
ATOM     74  S   UNL A   1      34.456  34.744  31.880  1.00  0.00     0.124 S 
ATOM     75  O   UNL A   1      34.197  35.082  30.485  1.00  0.00    -0.237 OA
ATOM     76  O   UNL A   1      33.336  34.166  32.615  1.00  0.00    -0.237 OA
ATOM     77  O   UNL A   1      35.242  35.726  32.623  1.00  0.00    -0.744 OA
ENDBRANCH  73  74
ENDBRANCH  41  66
BRANCH  53  78
ATOM     78  C   UNL A   1      43.053  29.001  33.795  1.00  0.00     0.058 A 
ATOM     79  C   UNL A   1      43.268  29.329  35.144  1.00  0.00     0.135 A 
ATOM     80  C   UNL A   1      42.555  27.720  33.515  1.00  0.00     0.135 A 
ATOM     81  F   UNL A   1      43.664  30.558  35.501  1.00  0.00    -0.206 F 
ATOM     82  C   UNL A   1      43.028  28.407  36.167  1.00  0.00     0.059 A 
ATOM     83  C   UNL A   1      42.278  26.800  34.517  1.00  0.00     0.059 A 
ATOM     84  F   UNL A   1      42.282  27.367  32.248  1.00  0.00    -0.206 F 
ATOM     85  C   UNL A   1      42.530  27.144  35.842  1.00  0.00     0.060 A 
BRANCH  85  86
ATOM     86  S   UNL A   1      42.157  25.971  37.162  1.00  0.00     0.124 S 
ATOM     87  O   UNL A   1      42.419  24.690  36.518  1.00  0.00    -0.237 OA
ATOM     88  O   UNL A   1      43.098  26.361  38.208  1.00  0.00    -0.237 OA
ATOM     89  O   UNL A   1      40.754  26.238  37.469  1.00  0.00    -0.744 OA
ENDBRANCH  85  86
ENDBRANCH  53  78
ENDBRANCH  27  28
ENDBRANCH  19  22
ENDBRANCH   1  18
TORSDOF 14
ENDMDL
MODEL 3
REMARK VINA RESULT:     -11.4      4.216     11.152
REMARK SMILES Cc1csc2nc(C(=O)NCCCCNC(=O)c3ccc(-c4c5nc(c(-c6c(F)cc(S(=O)(=O)[O-])cc6F)c6ccc([nH]6)c(-c6c(F)cc(S(=O)(=O)[O-])cc6F)c6nc(c(-c7c(F)cc(S(=O)(=O)[O-])cc7F)c7ccc4[nH]7)C=C6)C=C5)cc3)cn12
REMARK SMILES IDX 14 1 13 2 12 3 11 4 10 5 8 6 9 7 7 9 1 10 2 11 3 12 85 13
REMARK SMILES IDX 4 14 5 15 84 16 6 17 15 18 16 19 17 21 18 22 19 23 83 24
REMARK SMILES IDX 20 25 82 26 21 27 22 28 23 29 76 30 24 31 81 32 75 33 77 34
REMARK SMILES IDX 25 35 80 36 74 37 73 38 26 40 60 41 39 42 59 43 40 44 43 45
REMARK SMILES IDX 58 46 78 47 41 48 42 49 57 51 79 52 44 53 27 54 28 55 37 56
REMARK SMILES IDX 29 57 30 58 36 59 38 60 31 61 32 62 33 63 34 64 35 65 61 66
REMARK SMILES IDX 62 67 71 68 63 69 64 70 70 71 72 72 65 73 66 74 67 75 68 76
REMARK SMILES IDX 69 77 45 78 46 79 55 80 47 81 48 82 54 83 56 84 49 85 50 86
REMARK SMILES IDX 51 87 52 88 53 89
REMARK H PARENT 10 8 15 20 77 39 43 50
REMARK Flexibility Score: inf
ROOT
ATOM      1  C   UNL A   1      35.025  33.783  28.646  1.00  0.00     0.116 C 
ENDROOT
BRANCH   1   2
ATOM      2  C   UNL A   1      34.738  35.128  27.987  1.00  0.00     0.023 C 
BRANCH   2   3
ATOM      3  C   UNL A   1      33.755  36.025  28.759  1.00  0.00     0.023 C 
BRANCH   3   4
ATOM      4  C   UNL A   1      32.870  35.299  29.777  1.00  0.00     0.116 C 
BRANCH   4   5
ATOM      5  N   UNL A   1      32.548  36.138  30.919  1.00  0.00    -0.351 N 
ATOM      6  C   UNL A   1      33.118  36.213  32.170  1.00  0.00     0.271 C 
ATOM      7  O   UNL A   1      32.646  37.026  32.967  1.00  0.00    -0.267 OA
ATOM      8  H   UNL A   1      31.795  36.757  30.775  1.00  0.00     0.163 HD
BRANCH   6   9
ATOM      9  C   UNL A   1      34.253  35.355  32.544  1.00  0.00     0.148 A 
ATOM     10  C   UNL A   1      35.896  31.170  32.174  1.00  0.00     0.066 C 
ATOM     11  C   UNL A   1      36.288  32.429  32.856  1.00  0.00     0.032 A 
ATOM     12  C   UNL A   1      37.384  32.618  33.620  1.00  0.00     0.090 A 
ATOM     13  N   UNL A   1      35.541  33.593  32.768  1.00  0.00    -0.294 N 
ATOM     14  S   UNL A   1      37.534  34.268  34.240  1.00  0.00    -0.105 S 
ATOM     15  C   UNL A   1      36.058  34.666  33.425  1.00  0.00     0.194 A 
ATOM     16  C   UNL A   1      34.379  34.007  32.192  1.00  0.00     0.128 A 
ATOM     17  N   UNL A   1      35.356  35.753  33.295  1.00  0.00    -0.214 NA
ENDBRANCH   6   9
ENDBRANCH   4   5
ENDBRANCH   3   4
ENDBRANCH   2   3
ENDBRANCH   1   2
BRANCH   1  18
ATOM     18  N   UNL A   1      34.221  32.687  28.102  1.00  0.00    -0.352 N 
ATOM     19  C   UNL A   1      34.649  31.422  27.732  1.00  0.00     0.251 C 
ATOM     20  H   UNL A   1      33.261  32.872  27.985  1.00  0.00     0.163 HD
ATOM     21  O   UNL A   1      34.007  30.745  26.948  1.00  0.00    -0.269 OA
BRANCH  19  22
ATOM     22  C   UNL A   1      35.896  30.904  28.328  1.00  0.00     0.039 A 
ATOM     23  C   UNL A   1      36.134  29.532  28.473  1.00  0.00     0.014 A 
ATOM     24  C   UNL A   1      36.851  31.837  28.720  1.00  0.00     0.014 A 
ATOM     25  C   UNL A   1      37.382  29.110  28.933  1.00  0.00     0.010 A 
ATOM     26  C   UNL A   1      38.120  31.422  29.021  1.00  0.00     0.010 A 
ATOM     27  C   UNL A   1      38.379  30.063  29.187  1.00  0.00    -0.014 A 
BRANCH  27  28
ATOM     28  C   UNL A   1      39.764  29.674  29.459  1.00  0.00     0.031 A 
ATOM     29  C   UNL A   1      40.059  29.530  30.916  1.00  0.00     0.074 A 
ATOM     30  C   UNL A   1      40.561  29.198  28.470  1.00  0.00     0.049 A 
ATOM     31  N   UNL A   1      40.887  30.208  31.642  1.00  0.00    -0.248 NA
ATOM     32  C   UNL A   1      39.187  28.640  31.713  1.00  0.00     0.031 C 
ATOM     33  C   UNL A   1      40.197  29.016  27.056  1.00  0.00     0.029 A 
ATOM     34  N   UNL A   1      41.802  28.635  28.519  1.00  0.00    -0.354 N 
ATOM     35  C   UNL A   1      40.842  29.621  32.909  1.00  0.00     0.074 A 
ATOM     36  C   UNL A   1      39.622  28.868  32.954  1.00  0.00     0.031 C 
ATOM     37  C   UNL A   1      41.060  28.164  26.463  1.00  0.00     0.029 A 
ATOM     38  C   UNL A   1      42.137  27.881  27.389  1.00  0.00     0.049 A 
ATOM     39  H   UNL A   1      42.411  28.748  29.285  1.00  0.00     0.167 HD
ATOM     40  C   UNL A   1      41.974  29.518  33.665  1.00  0.00     0.037 A 
ATOM     41  C   UNL A   1      43.212  27.065  27.234  1.00  0.00     0.037 A 
ATOM     42  C   UNL A   1      42.997  30.385  33.134  1.00  0.00     0.049 A 
ATOM     43  C   UNL A   1      44.203  27.471  28.257  1.00  0.00     0.074 A 
ATOM     44  C   UNL A   1      43.205  31.742  33.028  1.00  0.00     0.029 A 
ATOM     45  N   UNL A   1      43.818  29.772  32.225  1.00  0.00    -0.354 N 
ATOM     46  N   UNL A   1      44.786  28.640  28.269  1.00  0.00    -0.248 NA
ATOM     47  C   UNL A   1      44.264  26.731  29.509  1.00  0.00     0.031 C 
ATOM     48  C   UNL A   1      43.994  31.923  31.853  1.00  0.00     0.029 A 
ATOM     49  C   UNL A   1      44.300  30.671  31.317  1.00  0.00     0.049 A 
ATOM     50  H   UNL A   1      44.031  28.810  32.225  1.00  0.00     0.167 HD
ATOM     51  C   UNL A   1      44.897  28.958  29.611  1.00  0.00     0.074 A 
ATOM     52  C   UNL A   1      44.719  27.693  30.317  1.00  0.00     0.031 C 
ATOM     53  C   UNL A   1      44.797  30.255  30.022  1.00  0.00     0.037 A 
BRANCH  40  54
ATOM     54  C   UNL A   1      42.363  28.295  34.497  1.00  0.00     0.058 A 
ATOM     55  C   UNL A   1      42.549  28.458  35.891  1.00  0.00     0.135 A 
ATOM     56  C   UNL A   1      42.870  27.085  33.971  1.00  0.00     0.135 A 
ATOM     57  F   UNL A   1      42.097  29.558  36.516  1.00  0.00    -0.206 F 
ATOM     58  C   UNL A   1      43.269  27.549  36.670  1.00  0.00     0.059 A 
ATOM     59  C   UNL A   1      43.552  26.145  34.739  1.00  0.00     0.059 A 
ATOM     60  F   UNL A   1      42.813  26.775  32.673  1.00  0.00    -0.206 F 
ATOM     61  C   UNL A   1      43.785  26.403  36.078  1.00  0.00     0.060 A 
BRANCH  61  62
ATOM     62  S   UNL A   1      44.794  25.271  37.049  1.00  0.00     0.124 S 
ATOM     63  O   UNL A   1      44.320  25.545  38.401  1.00  0.00    -0.237 OA
ATOM     64  O   UNL A   1      44.421  23.978  36.487  1.00  0.00    -0.237 OA
ATOM     65  O   UNL A   1      46.158  25.704  36.758  1.00  0.00    -0.744 OA
ENDBRANCH  61  62
ENDBRANCH  40  54
BRANCH  41  66
ATOM     66  C   UNL A   1      43.336  25.789  26.471  1.00  0.00     0.058 A 
ATOM     67  C   UNL A   1      44.301  25.629  25.458  1.00  0.00     0.135 A 
ATOM     68  C   UNL A   1      42.715  24.608  26.923  1.00  0.00     0.135 A 
ATOM     69  F   UNL A   1      44.951  26.697  24.972  1.00  0.00    -0.206 F 
ATOM     70  C   UNL A   1      44.674  24.369  24.968  1.00  0.00     0.059 A 
ATOM     71  C   UNL A   1      43.067  23.343  26.447  1.00  0.00     0.059 A 
ATOM     72  F   UNL A   1      41.813  24.641  27.914  1.00  0.00    -0.206 F 
ATOM     73  C   UNL A   1      44.066  23.227  25.489  1.00  0.00     0.060 A 
BRANCH  73  74
ATOM     74  S   UNL A   1      44.670  21.591  24.997  1.00  0.00     0.124 S 
ATOM     75  O   UNL A   1      44.569  21.655  23.543  1.00  0.00    -0.237 OA
ATOM     76  O   UNL A   1      46.023  21.583  25.542  1.00  0.00    -0.237 OA
ATOM     77  O   UNL A   1      43.735  20.676  25.646  1.00  0.00    -0.744 OA
ENDBRANCH  73  74
ENDBRANCH  41  66
BRANCH  53  78
ATOM     78  C   UNL A   1      45.092  31.333  29.020  1.00  0.00     0.058 A 
ATOM     79  C   UNL A   1      46.371  31.704  28.570  1.00  0.00     0.135 A 
ATOM     80  C   UNL A   1      43.991  31.946  28.404  1.00  0.00     0.135 A 
ATOM     81  F   UNL A   1      47.471  31.106  29.049  1.00  0.00    -0.206 F 
ATOM     82  C   UNL A   1      46.543  32.667  27.573  1.00  0.00     0.059 A 
ATOM     83  C   UNL A   1      44.137  32.881  27.389  1.00  0.00     0.059 A 
ATOM     84  F   UNL A   1      42.743  31.595  28.757  1.00  0.00    -0.206 F 
ATOM     85  C   UNL A   1      45.418  33.249  26.986  1.00  0.00     0.060 A 
BRANCH  85  86
ATOM     86  S   UNL A   1      45.632  34.447  25.653  1.00  0.00     0.124 S 
ATOM     87  O   UNL A   1      45.161  35.681  26.271  1.00  0.00    -0.237 OA
ATOM     88  O   UNL A   1      47.066  34.375  25.389  1.00  0.00    -0.237 OA
ATOM     89  O   UNL A   1      44.785  33.922  24.585  1.00  0.00    -0.744 OA
ENDBRANCH  85  86
ENDBRANCH  53  78
ENDBRANCH  27  28
ENDBRANCH  19  22
ENDBRANCH   1  18
TORSDOF 14
ENDMDL
