MODEL 1
REMARK VINA RESULT:     -13.4      0.000      0.000
REMARK SMILES O=C(Cn1cc(/C=C2\SC(=S)N(C[C@H]3CCCO3)C2=O)c2ccccc21)NCCCCNC(=O)c1ccc(-c2c3nc(c(-c4c(F)cc(S(=O)(=O)[O-])cc4F)c4ccc([nH]4)c(-c4c(F)cc(S(=O)(=O)[O-])cc4F)c4nc(c(-c5c(F)cc(S(=O)(=O)[O-])cc5F)c5ccc2[nH]5)C=C4)C=C3)cc1
REMARK SMILES IDX 29 1 28 2 27 3 1 4 2 5 3 7 4 8 5 9 26 10 6 11 21 12 25 13
REMARK SMILES IDX 22 14 24 15 23 16 7 17 8 18 9 19 19 20 10 21 12 22 20 23
REMARK SMILES IDX 11 24 13 25 14 26 15 27 18 28 16 29 17 30 30 31 31 32 32 33
REMARK SMILES IDX 33 34 34 36 35 37 36 38 100 39 37 40 99 41 38 42 39 43 40 44
REMARK SMILES IDX 93 45 41 46 98 47 92 48 94 49 42 50 97 51 91 52 90 53 43 55
REMARK SMILES IDX 77 56 56 57 76 58 57 59 60 60 75 61 95 62 58 63 59 64 74 66
REMARK SMILES IDX 96 67 61 68 44 69 45 70 54 71 46 72 47 73 53 74 55 75 48 76
REMARK SMILES IDX 49 77 50 78 51 79 52 80 78 81 79 82 88 83 80 84 81 85 87 86
REMARK SMILES IDX 89 87 82 88 83 89 84 90 85 91 86 92 62 93 63 94 72 95 64 96
REMARK SMILES IDX 65 97 71 98 73 99 66 100 67 101 68 102 69 103 70 104
REMARK H PARENT 27 6 32 35 94 54 60 65
REMARK Flexibility Score: inf
ROOT
ATOM      1  C   UNL A   1      40.751  21.275  27.267  1.00  0.00     0.023 C 
ENDROOT
BRANCH   1   2
ATOM      2  C   UNL A   1      39.724  22.320  26.838  1.00  0.00     0.116 C 
BRANCH   2   3
ATOM      3  N   UNL A   1      38.899  21.879  25.728  1.00  0.00    -0.355 N 
ATOM      4  O   UNL A   1      37.156  23.324  26.146  1.00  0.00    -0.273 OA
ATOM      5  C   UNL A   1      37.694  22.490  25.422  1.00  0.00     0.239 C 
ATOM      6  H   UNL A   1      39.205  21.124  25.177  1.00  0.00     0.163 HD
BRANCH   5   7
ATOM      7  C   UNL A   1      37.102  22.081  24.083  1.00  0.00     0.222 C 
BRANCH   7   8
ATOM      8  N   UNL A   1      35.704  22.479  23.928  1.00  0.00    -0.337 N 
ATOM      9  C   UNL A   1      35.280  23.598  23.263  1.00  0.00     0.095 A 
ATOM     10  C   UNL A   1      34.605  21.750  24.353  1.00  0.00     0.049 A 
ATOM     11  C   UNL A   1      33.909  23.588  23.223  1.00  0.00     0.001 A 
ATOM     12  C   UNL A   1      33.459  22.445  23.934  1.00  0.00     0.007 A 
ATOM     13  C   UNL A   1      34.514  20.542  25.065  1.00  0.00     0.027 A 
ATOM     14  C   UNL A   1      32.188  21.916  24.245  1.00  0.00     0.011 A 
ATOM     15  C   UNL A   1      33.241  20.043  25.361  1.00  0.00     0.002 A 
ATOM     16  C   UNL A   1      32.094  20.718  24.961  1.00  0.00     0.001 A 
BRANCH  11  17
ATOM     17  C   UNL A   1      33.153  24.613  22.589  1.00  0.00     0.031 C 
ATOM     18  C   UNL A   1      32.606  25.677  23.198  1.00  0.00     0.081 C 
ATOM     19  S   UNL A   1      32.777  26.187  24.829  1.00  0.00    -0.054 SA
ATOM     20  C   UNL A   1      31.800  26.661  22.450  1.00  0.00     0.266 C 
ATOM     21  C   UNL A   1      32.084  27.771  24.493  1.00  0.00     0.148 C 
ATOM     22  N   UNL A   1      31.654  27.820  23.183  1.00  0.00    -0.290 N 
ATOM     23  O   UNL A   1      31.341  26.445  21.329  1.00  0.00    -0.268 OA
ATOM     24  S   UNL A   1      32.017  28.966  25.653  1.00  0.00    -0.052 S 
BRANCH  22  25
ATOM     25  C   UNL A   1      31.041  28.984  22.541  1.00  0.00     0.159 C 
BRANCH  25  26
ATOM     26  C   UNL A   1      29.557  29.188  22.925  1.00  0.00     0.138 C 
ATOM     27  C   UNL A   1      29.206  30.528  23.563  1.00  0.00     0.036 C 
ATOM     28  O   UNL A   1      28.780  29.157  21.707  1.00  0.00    -0.376 OA
ATOM     29  C   UNL A   1      29.052  31.421  22.360  1.00  0.00     0.031 C 
ATOM     30  C   UNL A   1      28.346  30.492  21.398  1.00  0.00     0.160 C 
ENDBRANCH  25  26
ENDBRANCH  22  25
ENDBRANCH  11  17
ENDBRANCH   7   8
ENDBRANCH   5   7
ENDBRANCH   2   3
ENDBRANCH   1   2
BRANCH   1  31
ATOM     31  C   UNL A   1      40.830  20.011  26.398  1.00  0.00     0.023 C 
BRANCH  31  32
ATOM     32  C   UNL A   1      42.181  19.297  26.389  1.00  0.00     0.116 C 
BRANCH  32  33
ATOM     33  N   UNL A   1      43.043  19.652  25.282  1.00  0.00    -0.352 N 
ATOM     34  C   UNL A   1      43.866  20.710  25.001  1.00  0.00     0.251 C 
ATOM     35  H   UNL A   1      43.038  18.977  24.565  1.00  0.00     0.163 HD
ATOM     36  O   UNL A   1      44.634  20.547  24.049  1.00  0.00    -0.269 OA
BRANCH  34  37
ATOM     37  C   UNL A   1      43.845  22.033  25.686  1.00  0.00     0.039 A 
ATOM     38  C   UNL A   1      44.470  22.346  26.892  1.00  0.00     0.014 A 
ATOM     39  C   UNL A   1      43.060  23.024  25.062  1.00  0.00     0.014 A 
ATOM     40  C   UNL A   1      44.224  23.571  27.513  1.00  0.00     0.010 A 
ATOM     41  C   UNL A   1      42.823  24.252  25.670  1.00  0.00     0.010 A 
ATOM     42  C   UNL A   1      43.365  24.506  26.924  1.00  0.00    -0.014 A 
BRANCH  42  43
ATOM     43  C   UNL A   1      43.188  25.808  27.573  1.00  0.00     0.031 A 
ATOM     44  C   UNL A   1      44.281  26.778  27.260  1.00  0.00     0.074 A 
ATOM     45  C   UNL A   1      42.083  26.155  28.271  1.00  0.00     0.049 A 
ATOM     46  N   UNL A   1      45.117  27.329  28.077  1.00  0.00    -0.248 NA
ATOM     47  C   UNL A   1      44.578  27.046  25.840  1.00  0.00     0.031 C 
ATOM     48  C   UNL A   1      40.848  25.381  28.428  1.00  0.00     0.029 A 
ATOM     49  N   UNL A   1      41.786  27.319  28.925  1.00  0.00    -0.354 N 
ATOM     50  C   UNL A   1      45.899  28.187  27.304  1.00  0.00     0.074 A 
ATOM     51  C   UNL A   1      45.644  27.842  25.932  1.00  0.00     0.031 C 
ATOM     52  C   UNL A   1      39.872  26.176  28.923  1.00  0.00     0.029 A 
ATOM     53  C   UNL A   1      40.437  27.475  29.245  1.00  0.00     0.049 A 
ATOM     54  H   UNL A   1      42.468  27.990  29.151  1.00  0.00     0.167 HD
ATOM     55  C   UNL A   1      46.508  29.275  27.849  1.00  0.00     0.037 A 
ATOM     56  C   UNL A   1      39.819  28.598  29.704  1.00  0.00     0.037 A 
ATOM     57  C   UNL A   1      46.607  29.149  29.279  1.00  0.00     0.049 A 
ATOM     58  C   UNL A   1      40.878  29.456  30.289  1.00  0.00     0.074 A 
ATOM     59  C   UNL A   1      47.259  28.300  30.148  1.00  0.00     0.029 A 
ATOM     60  N   UNL A   1      45.651  29.798  30.018  1.00  0.00    -0.354 N 
ATOM     61  N   UNL A   1      41.571  29.139  31.349  1.00  0.00    -0.248 NA
ATOM     62  C   UNL A   1      41.468  30.478  29.439  1.00  0.00     0.031 C 
ATOM     63  C   UNL A   1      46.386  28.166  31.265  1.00  0.00     0.029 A 
ATOM     64  C   UNL A   1      45.274  28.983  31.051  1.00  0.00     0.049 A 
ATOM     65  H   UNL A   1      45.296  30.698  29.837  1.00  0.00     0.167 HD
ATOM     66  C   UNL A   1      42.854  29.589  31.078  1.00  0.00     0.074 A 
ATOM     67  C   UNL A   1      42.705  30.493  29.939  1.00  0.00     0.031 C 
ATOM     68  C   UNL A   1      43.942  28.970  31.623  1.00  0.00     0.037 A 
BRANCH  55  69
ATOM     69  C   UNL A   1      46.636  30.616  27.155  1.00  0.00     0.058 A 
ATOM     70  C   UNL A   1      47.901  31.239  27.082  1.00  0.00     0.135 A 
ATOM     71  C   UNL A   1      45.536  31.444  26.836  1.00  0.00     0.135 A 
ATOM     72  F   UNL A   1      49.019  30.556  27.375  1.00  0.00    -0.206 F 
ATOM     73  C   UNL A   1      48.054  32.596  26.786  1.00  0.00     0.059 A 
ATOM     74  C   UNL A   1      45.670  32.785  26.490  1.00  0.00     0.059 A 
ATOM     75  F   UNL A   1      44.270  31.024  26.936  1.00  0.00    -0.206 F 
ATOM     76  C   UNL A   1      46.927  33.362  26.503  1.00  0.00     0.060 A 
BRANCH  76  77
ATOM     77  S   UNL A   1      47.112  35.130  26.208  1.00  0.00     0.124 S 
ATOM     78  O   UNL A   1      48.451  35.193  25.634  1.00  0.00    -0.237 OA
ATOM     79  O   UNL A   1      46.008  35.397  25.291  1.00  0.00    -0.237 OA
ATOM     80  O   UNL A   1      46.967  35.710  27.539  1.00  0.00    -0.744 OA
ENDBRANCH  76  77
ENDBRANCH  55  69
BRANCH  56  81
ATOM     81  C   UNL A   1      38.469  29.135  29.345  1.00  0.00     0.058 A 
ATOM     82  C   UNL A   1      37.505  29.431  30.332  1.00  0.00     0.135 A 
ATOM     83  C   UNL A   1      38.198  29.643  28.060  1.00  0.00     0.135 A 
ATOM     84  F   UNL A   1      37.679  29.009  31.594  1.00  0.00    -0.206 F 
ATOM     85  C   UNL A   1      36.378  30.226  30.072  1.00  0.00     0.059 A 
ATOM     86  C   UNL A   1      37.079  30.429  27.775  1.00  0.00     0.059 A 
ATOM     87  F   UNL A   1      39.065  29.472  27.052  1.00  0.00    -0.206 F 
ATOM     88  C   UNL A   1      36.185  30.740  28.792  1.00  0.00     0.060 A 
BRANCH  88  89
ATOM     89  S   UNL A   1      34.830  31.900  28.482  1.00  0.00     0.124 S 
ATOM     90  O   UNL A   1      35.457  32.871  27.592  1.00  0.00    -0.237 OA
ATOM     91  O   UNL A   1      33.819  31.040  27.876  1.00  0.00    -0.237 OA
ATOM     92  O   UNL A   1      34.499  32.400  29.814  1.00  0.00    -0.744 OA
ENDBRANCH  88  89
ENDBRANCH  56  81
BRANCH  68  93
ATOM     93  C   UNL A   1      43.730  28.026  32.781  1.00  0.00     0.058 A 
ATOM     94  C   UNL A   1      43.450  28.430  34.098  1.00  0.00     0.135 A 
ATOM     95  C   UNL A   1      43.604  26.660  32.488  1.00  0.00     0.135 A 
ATOM     96  F   UNL A   1      43.472  29.725  34.443  1.00  0.00    -0.206 F 
ATOM     97  C   UNL A   1      43.059  27.512  35.078  1.00  0.00     0.059 A 
ATOM     98  C   UNL A   1      43.186  25.735  33.439  1.00  0.00     0.059 A 
ATOM     99  F   UNL A   1      43.811  26.221  31.235  1.00  0.00    -0.206 F 
ATOM    100  C   UNL A   1      42.912  26.169  34.733  1.00  0.00     0.060 A 
BRANCH 100 101
ATOM    101  S   UNL A   1      42.269  25.010  35.961  1.00  0.00     0.124 S 
ATOM    102  O   UNL A   1      42.231  23.757  35.215  1.00  0.00    -0.237 OA
ATOM    103  O   UNL A   1      43.269  25.086  37.023  1.00  0.00    -0.237 OA
ATOM    104  O   UNL A   1      40.963  25.568  36.309  1.00  0.00    -0.744 OA
ENDBRANCH 100 101
ENDBRANCH  68  93
ENDBRANCH  42  43
ENDBRANCH  34  37
ENDBRANCH  32  33
ENDBRANCH  31  32
ENDBRANCH   1  31
TORSDOF 18
ENDMDL
MODEL 2
REMARK VINA RESULT:     -12.9      3.071      9.839
REMARK SMILES O=C(Cn1cc(/C=C2\SC(=S)N(C[C@H]3CCCO3)C2=O)c2ccccc21)NCCCCNC(=O)c1ccc(-c2c3nc(c(-c4c(F)cc(S(=O)(=O)[O-])cc4F)c4ccc([nH]4)c(-c4c(F)cc(S(=O)(=O)[O-])cc4F)c4nc(c(-c5c(F)cc(S(=O)(=O)[O-])cc5F)c5ccc2[nH]5)C=C4)C=C3)cc1
REMARK SMILES IDX 29 1 28 2 27 3 1 4 2 5 3 7 4 8 5 9 26 10 6 11 21 12 25 13
REMARK SMILES IDX 22 14 24 15 23 16 7 17 8 18 9 19 19 20 10 21 12 22 20 23
REMARK SMILES IDX 11 24 13 25 14 26 15 27 18 28 16 29 17 30 30 31 31 32 32 33
REMARK SMILES IDX 33 34 34 36 35 37 36 38 100 39 37 40 99 41 38 42 39 43 40 44
REMARK SMILES IDX 93 45 41 46 98 47 92 48 94 49 42 50 97 51 91 52 90 53 43 55
REMARK SMILES IDX 77 56 56 57 76 58 57 59 60 60 75 61 95 62 58 63 59 64 74 66
REMARK SMILES IDX 96 67 61 68 44 69 45 70 54 71 46 72 47 73 53 74 55 75 48 76
REMARK SMILES IDX 49 77 50 78 51 79 52 80 78 81 79 82 88 83 80 84 81 85 87 86
REMARK SMILES IDX 89 87 82 88 83 89 84 90 85 91 86 92 62 93 63 94 72 95 64 96
REMARK SMILES IDX 65 97 71 98 73 99 66 100 67 101 68 102 69 103 70 104
REMARK H PARENT 27 6 32 35 94 54 60 65
REMARK Flexibility Score: inf
ROOT
ATOM      1  C   UNL A   1      35.460  32.832  28.016  1.00  0.00     0.023 C 
ENDROOT
BRANCH   1   2
ATOM      2  C   UNL A   1      35.310  31.317  27.910  1.00  0.00     0.116 C 
BRANCH   2   3
ATOM      3  N   UNL A   1      33.936  30.898  27.704  1.00  0.00    -0.355 N 
ATOM      4  O   UNL A   1      34.450  28.969  26.557  1.00  0.00    -0.273 OA
ATOM      5  C   UNL A   1      33.619  29.692  27.103  1.00  0.00     0.239 C 
ATOM      6  H   UNL A   1      33.207  31.490  28.000  1.00  0.00     0.163 HD
BRANCH   5   7
ATOM      7  C   UNL A   1      32.155  29.298  27.212  1.00  0.00     0.222 C 
BRANCH   7   8
ATOM      8  N   UNL A   1      31.809  28.140  26.390  1.00  0.00    -0.337 N 
ATOM      9  C   UNL A   1      31.879  26.837  26.806  1.00  0.00     0.095 A 
ATOM     10  C   UNL A   1      31.285  28.187  25.108  1.00  0.00     0.049 A 
ATOM     11  C   UNL A   1      31.374  26.035  25.815  1.00  0.00     0.001 A 
ATOM     12  C   UNL A   1      31.021  26.864  24.718  1.00  0.00     0.007 A 
ATOM     13  C   UNL A   1      31.015  29.272  24.257  1.00  0.00     0.027 A 
ATOM     14  C   UNL A   1      30.479  26.625  23.437  1.00  0.00     0.011 A 
ATOM     15  C   UNL A   1      30.481  29.005  22.992  1.00  0.00     0.002 A 
ATOM     16  C   UNL A   1      30.218  27.702  22.585  1.00  0.00     0.001 A 
BRANCH  11  17
ATOM     17  C   UNL A   1      31.295  24.620  25.940  1.00  0.00     0.031 C 
ATOM     18  C   UNL A   1      32.229  23.742  25.542  1.00  0.00     0.081 C 
ATOM     19  S   UNL A   1      33.803  24.053  24.931  1.00  0.00    -0.054 SA
ATOM     20  C   UNL A   1      32.025  22.287  25.679  1.00  0.00     0.266 C 
ATOM     21  C   UNL A   1      34.300  22.374  25.124  1.00  0.00     0.148 C 
ATOM     22  N   UNL A   1      33.224  21.619  25.547  1.00  0.00    -0.290 N 
ATOM     23  O   UNL A   1      30.925  21.776  25.886  1.00  0.00    -0.268 OA
ATOM     24  S   UNL A   1      35.862  21.878  24.826  1.00  0.00    -0.052 S 
BRANCH  22  25
ATOM     25  C   UNL A   1      33.263  20.184  25.832  1.00  0.00     0.159 C 
BRANCH  25  26
ATOM     26  C   UNL A   1      33.046  19.302  24.580  1.00  0.00     0.138 C 
ATOM     27  C   UNL A   1      34.176  18.340  24.231  1.00  0.00     0.036 C 
ATOM     28  O   UNL A   1      31.912  18.444  24.839  1.00  0.00    -0.376 OA
ATOM     29  C   UNL A   1      33.893  17.174  25.142  1.00  0.00     0.031 C 
ATOM     30  C   UNL A   1      32.384  17.104  25.063  1.00  0.00     0.160 C 
ENDBRANCH  25  26
ENDBRANCH  22  25
ENDBRANCH  11  17
ENDBRANCH   7   8
ENDBRANCH   5   7
ENDBRANCH   2   3
ENDBRANCH   1   2
BRANCH   1  31
ATOM     31  C   UNL A   1      34.154  33.633  28.133  1.00  0.00     0.023 C 
BRANCH  31  32
ATOM     32  C   UNL A   1      34.186  34.815  29.101  1.00  0.00     0.116 C 
BRANCH  32  33
ATOM     33  N   UNL A   1      33.777  34.499  30.452  1.00  0.00    -0.352 N 
ATOM     34  C   UNL A   1      34.403  33.978  31.553  1.00  0.00     0.251 C 
ATOM     35  H   UNL A   1      32.829  34.706  30.620  1.00  0.00     0.163 HD
ATOM     36  O   UNL A   1      33.780  34.075  32.614  1.00  0.00    -0.269 OA
BRANCH  34  37
ATOM     37  C   UNL A   1      35.703  33.250  31.550  1.00  0.00     0.039 A 
ATOM     38  C   UNL A   1      36.967  33.823  31.410  1.00  0.00     0.014 A 
ATOM     39  C   UNL A   1      35.610  31.845  31.636  1.00  0.00     0.014 A 
ATOM     40  C   UNL A   1      38.090  33.012  31.246  1.00  0.00     0.010 A 
ATOM     41  C   UNL A   1      36.729  31.034  31.487  1.00  0.00     0.010 A 
ATOM     42  C   UNL A   1      37.965  31.618  31.238  1.00  0.00    -0.014 A 
BRANCH  42  43
ATOM     43  C   UNL A   1      39.178  30.801  31.134  1.00  0.00     0.031 A 
ATOM     44  C   UNL A   1      39.879  30.613  32.439  1.00  0.00     0.074 A 
ATOM     45  C   UNL A   1      39.556  30.162  30.003  1.00  0.00     0.049 A 
ATOM     46  N   UNL A   1      41.070  30.993  32.767  1.00  0.00    -0.248 NA
ATOM     47  C   UNL A   1      39.098  30.074  33.568  1.00  0.00     0.031 C 
ATOM     48  C   UNL A   1      38.817  30.069  28.741  1.00  0.00     0.029 A 
ATOM     49  N   UNL A   1      40.651  29.379  29.762  1.00  0.00    -0.354 N 
ATOM     50  C   UNL A   1      41.271  30.539  34.071  1.00  0.00     0.074 A 
ATOM     51  C   UNL A   1      39.981  30.143  34.566  1.00  0.00     0.031 C 
ATOM     52  C   UNL A   1      39.361  29.103  27.966  1.00  0.00     0.029 A 
ATOM     53  C   UNL A   1      40.562  28.599  28.607  1.00  0.00     0.049 A 
ATOM     54  H   UNL A   1      41.437  29.367  30.353  1.00  0.00     0.167 HD
ATOM     55  C   UNL A   1      42.521  30.297  34.552  1.00  0.00     0.037 A 
ATOM     56  C   UNL A   1      41.391  27.590  28.225  1.00  0.00     0.037 A 
ATOM     57  C   UNL A   1      43.518  30.965  33.759  1.00  0.00     0.049 A 
ATOM     58  C   UNL A   1      42.668  27.790  28.950  1.00  0.00     0.074 A 
ATOM     59  C   UNL A   1      43.837  32.279  33.485  1.00  0.00     0.029 A 
ATOM     60  N   UNL A   1      44.157  30.207  32.812  1.00  0.00    -0.354 N 
ATOM     61  N   UNL A   1      43.463  28.808  28.760  1.00  0.00    -0.248 NA
ATOM     62  C   UNL A   1      42.854  27.078  30.204  1.00  0.00     0.031 C 
ATOM     63  C   UNL A   1      44.299  32.277  32.137  1.00  0.00     0.029 A 
ATOM     64  C   UNL A   1      44.297  30.959  31.677  1.00  0.00     0.049 A 
ATOM     65  H   UNL A   1      44.464  29.279  32.928  1.00  0.00     0.167 HD
ATOM     66  C   UNL A   1      43.937  29.125  30.024  1.00  0.00     0.074 A 
ATOM     67  C   UNL A   1      43.611  27.965  30.852  1.00  0.00     0.031 C 
ATOM     68  C   UNL A   1      44.294  30.405  30.337  1.00  0.00     0.037 A 
BRANCH  55  69
ATOM     69  C   UNL A   1      42.872  29.140  35.466  1.00  0.00     0.058 A 
ATOM     70  C   UNL A   1      43.642  29.383  36.624  1.00  0.00     0.135 A 
ATOM     71  C   UNL A   1      42.747  27.781  35.098  1.00  0.00     0.135 A 
ATOM     72  F   UNL A   1      43.840  30.635  37.064  1.00  0.00    -0.206 F 
ATOM     73  C   UNL A   1      44.297  28.362  37.318  1.00  0.00     0.059 A 
ATOM     74  C   UNL A   1      43.349  26.745  35.804  1.00  0.00     0.059 A 
ATOM     75  F   UNL A   1      42.117  27.395  33.982  1.00  0.00    -0.206 F 
ATOM     76  C   UNL A   1      44.153  27.046  36.890  1.00  0.00     0.060 A 
BRANCH  76  77
ATOM     77  S   UNL A   1      45.065  25.738  37.728  1.00  0.00     0.124 S 
ATOM     78  O   UNL A   1      46.380  25.854  37.107  1.00  0.00    -0.237 OA
ATOM     79  O   UNL A   1      44.975  26.157  39.123  1.00  0.00    -0.237 OA
ATOM     80  O   UNL A   1      44.312  24.534  37.392  1.00  0.00    -0.744 OA
ENDBRANCH  76  77
ENDBRANCH  55  69
BRANCH  56  81
ATOM     81  C   UNL A   1      41.038  26.285  27.580  1.00  0.00     0.058 A 
ATOM     82  C   UNL A   1      41.892  25.670  26.641  1.00  0.00     0.135 A 
ATOM     83  C   UNL A   1      40.004  25.473  28.085  1.00  0.00     0.135 A 
ATOM     84  F   UNL A   1      42.921  26.353  26.115  1.00  0.00    -0.206 F 
ATOM     85  C   UNL A   1      41.761  24.322  26.270  1.00  0.00     0.059 A 
ATOM     86  C   UNL A   1      39.848  24.132  27.725  1.00  0.00     0.059 A 
ATOM     87  F   UNL A   1      39.161  25.930  29.021  1.00  0.00    -0.206 F 
ATOM     88  C   UNL A   1      40.747  23.554  26.837  1.00  0.00     0.060 A 
BRANCH  88  89
ATOM     89  S   UNL A   1      40.667  21.777  26.498  1.00  0.00     0.124 S 
ATOM     90  O   UNL A   1      39.388  21.655  25.808  1.00  0.00    -0.237 OA
ATOM     91  O   UNL A   1      41.855  21.566  25.677  1.00  0.00    -0.237 OA
ATOM     92  O   UNL A   1      40.718  21.174  27.827  1.00  0.00    -0.744 OA
ENDBRANCH  88  89
ENDBRANCH  56  81
BRANCH  68  93
ATOM     93  C   UNL A   1      44.498  31.392  29.214  1.00  0.00     0.058 A 
ATOM     94  C   UNL A   1      45.629  31.428  28.380  1.00  0.00     0.135 A 
ATOM     95  C   UNL A   1      43.404  32.191  28.849  1.00  0.00     0.135 A 
ATOM     96  F   UNL A   1      46.686  30.638  28.614  1.00  0.00    -0.206 F 
ATOM     97  C   UNL A   1      45.667  32.225  27.232  1.00  0.00     0.059 A 
ATOM     98  C   UNL A   1      43.408  32.967  27.694  1.00  0.00     0.059 A 
ATOM     99  F   UNL A   1      42.277  32.161  29.580  1.00  0.00    -0.206 F 
ATOM    100  C   UNL A   1      44.544  32.977  26.887  1.00  0.00     0.060 A 
BRANCH 100 101
ATOM    101  S   UNL A   1      44.541  33.892  25.329  1.00  0.00     0.124 S 
ATOM    102  O   UNL A   1      43.566  34.946  25.590  1.00  0.00    -0.237 OA
ATOM    103  O   UNL A   1      45.930  34.327  25.215  1.00  0.00    -0.237 OA
ATOM    104  O   UNL A   1      44.129  32.892  24.345  1.00  0.00    -0.744 OA
ENDBRANCH 100 101
ENDBRANCH  68  93
ENDBRANCH  42  43
ENDBRANCH  34  37
ENDBRANCH  32  33
ENDBRANCH  31  32
ENDBRANCH   1  31
TORSDOF 18
ENDMDL
MODEL 3
REMARK VINA RESULT:     -12.3      2.047      2.708
REMARK SMILES O=C(Cn1cc(/C=C2\SC(=S)N(C[C@H]3CCCO3)C2=O)c2ccccc21)NCCCCNC(=O)c1ccc(-c2c3nc(c(-c4c(F)cc(S(=O)(=O)[O-])cc4F)c4ccc([nH]4)c(-c4c(F)cc(S(=O)(=O)[O-])cc4F)c4nc(c(-c5c(F)cc(S(=O)(=O)[O-])cc5F)c5ccc2[nH]5)C=C4)C=C3)cc1
REMARK SMILES IDX 29 1 28 2 27 3 1 4 2 5 3 7 4 8 5 9 26 10 6 11 21 12 25 13
REMARK SMILES IDX 22 14 24 15 23 16 7 17 8 18 9 19 19 20 10 21 12 22 20 23
REMARK SMILES IDX 11 24 13 25 14 26 15 27 18 28 16 29 17 30 30 31 31 32 32 33
REMARK SMILES IDX 33 34 34 36 35 37 36 38 100 39 37 40 99 41 38 42 39 43 40 44
REMARK SMILES IDX 93 45 41 46 98 47 92 48 94 49 42 50 97 51 91 52 90 53 43 55
REMARK SMILES IDX 77 56 56 57 76 58 57 59 60 60 75 61 95 62 58 63 59 64 74 66
REMARK SMILES IDX 96 67 61 68 44 69 45 70 54 71 46 72 47 73 53 74 55 75 48 76
REMARK SMILES IDX 49 77 50 78 51 79 52 80 78 81 79 82 88 83 80 84 81 85 87 86
REMARK SMILES IDX 89 87 82 88 83 89 84 90 85 91 86 92 62 93 63 94 72 95 64 96
REMARK SMILES IDX 65 97 71 98 73 99 66 100 67 101 68 102 69 103 70 104
REMARK H PARENT 27 6 32 35 94 54 60 65
REMARK Flexibility Score: inf
ROOT
ATOM      1  C   UNL A   1      40.087  23.271  27.077  1.00  0.00     0.023 C 
ENDROOT
BRANCH   1   2
ATOM      2  C   UNL A   1      38.892  24.018  26.491  1.00  0.00     0.116 C 
BRANCH   2   3
ATOM      3  N   UNL A   1      37.620  23.416  26.848  1.00  0.00    -0.355 N 
ATOM      4  O   UNL A   1      37.231  22.455  24.793  1.00  0.00    -0.273 OA
ATOM      5  C   UNL A   1      36.923  22.600  25.974  1.00  0.00     0.239 C 
ATOM      6  H   UNL A   1      37.242  23.595  27.740  1.00  0.00     0.163 HD
BRANCH   5   7
ATOM      7  C   UNL A   1      35.760  21.849  26.602  1.00  0.00     0.222 C 
BRANCH   7   8
ATOM      8  N   UNL A   1      34.476  22.148  25.971  1.00  0.00    -0.337 N 
ATOM      9  C   UNL A   1      33.780  23.317  26.131  1.00  0.00     0.095 A 
ATOM     10  C   UNL A   1      33.815  21.337  25.063  1.00  0.00     0.049 A 
ATOM     11  C   UNL A   1      32.685  23.288  25.306  1.00  0.00     0.001 A 
ATOM     12  C   UNL A   1      32.668  22.032  24.644  1.00  0.00     0.007 A 
ATOM     13  C   UNL A   1      34.122  20.058  24.567  1.00  0.00     0.027 A 
ATOM     14  C   UNL A   1      31.804  21.422  23.710  1.00  0.00     0.011 A 
ATOM     15  C   UNL A   1      33.245  19.478  23.644  1.00  0.00     0.002 A 
ATOM     16  C   UNL A   1      32.102  20.146  23.222  1.00  0.00     0.001 A 
BRANCH  11  17
ATOM     17  C   UNL A   1      31.757  24.363  25.226  1.00  0.00     0.031 C 
ATOM     18  C   UNL A   1      32.044  25.624  24.869  1.00  0.00     0.081 C 
ATOM     19  S   UNL A   1      33.524  26.263  24.276  1.00  0.00    -0.054 SA
ATOM     20  C   UNL A   1      31.009  26.677  24.863  1.00  0.00     0.266 C 
ATOM     21  C   UNL A   1      32.763  27.762  23.751  1.00  0.00     0.148 C 
ATOM     22  N   UNL A   1      31.438  27.769  24.137  1.00  0.00    -0.290 N 
ATOM     23  O   UNL A   1      29.925  26.560  25.432  1.00  0.00    -0.268 OA
ATOM     24  S   UNL A   1      33.605  28.929  22.912  1.00  0.00    -0.052 S 
BRANCH  22  25
ATOM     25  C   UNL A   1      30.485  28.844  23.858  1.00  0.00     0.159 C 
BRANCH  25  26
ATOM     26  C   UNL A   1      29.582  28.563  22.634  1.00  0.00     0.138 C 
ATOM     27  C   UNL A   1      28.087  28.786  22.836  1.00  0.00     0.036 C 
ATOM     28  O   UNL A   1      29.947  29.499  21.595  1.00  0.00    -0.376 OA
ATOM     29  C   UNL A   1      27.958  30.273  22.632  1.00  0.00     0.031 C 
ATOM     30  C   UNL A   1      28.912  30.491  21.479  1.00  0.00     0.160 C 
ENDBRANCH  25  26
ENDBRANCH  22  25
ENDBRANCH  11  17
ENDBRANCH   7   8
ENDBRANCH   5   7
ENDBRANCH   2   3
ENDBRANCH   1   2
BRANCH   1  31
ATOM     31  C   UNL A   1      40.401  21.903  26.451  1.00  0.00     0.023 C 
BRANCH  31  32
ATOM     32  C   UNL A   1      41.878  21.512  26.418  1.00  0.00     0.116 C 
BRANCH  32  33
ATOM     33  N   UNL A   1      42.633  22.100  25.332  1.00  0.00    -0.352 N 
ATOM     34  C   UNL A   1      43.302  23.281  25.150  1.00  0.00     0.251 C 
ATOM     35  H   UNL A   1      42.676  21.516  24.540  1.00  0.00     0.163 HD
ATOM     36  O   UNL A   1      44.036  23.328  24.159  1.00  0.00    -0.269 OA
BRANCH  34  37
ATOM     37  C   UNL A   1      43.150  24.504  25.988  1.00  0.00     0.039 A 
ATOM     38  C   UNL A   1      43.675  24.697  27.265  1.00  0.00     0.014 A 
ATOM     39  C   UNL A   1      42.341  25.518  25.435  1.00  0.00     0.014 A 
ATOM     40  C   UNL A   1      43.310  25.819  28.011  1.00  0.00     0.010 A 
ATOM     41  C   UNL A   1      41.986  26.644  26.171  1.00  0.00     0.010 A 
ATOM     42  C   UNL A   1      42.429  26.768  27.481  1.00  0.00    -0.014 A 
BRANCH  42  43
ATOM     43  C   UNL A   1      42.126  27.966  28.270  1.00  0.00     0.031 A 
ATOM     44  C   UNL A   1      43.218  28.985  28.242  1.00  0.00     0.074 A 
ATOM     45  C   UNL A   1      40.927  28.198  28.852  1.00  0.00     0.049 A 
ATOM     46  N   UNL A   1      43.920  29.429  29.232  1.00  0.00    -0.248 NA
ATOM     47  C   UNL A   1      43.693  29.450  26.925  1.00  0.00     0.031 C 
ATOM     48  C   UNL A   1      39.708  27.392  28.733  1.00  0.00     0.029 A 
ATOM     49  N   UNL A   1      40.508  29.256  29.610  1.00  0.00    -0.354 N 
ATOM     50  C   UNL A   1      44.770  30.397  28.695  1.00  0.00     0.074 A 
ATOM     51  C   UNL A   1      44.710  30.241  27.267  1.00  0.00     0.031 C 
ATOM     52  C   UNL A   1      38.650  28.098  29.194  1.00  0.00     0.029 A 
ATOM     53  C   UNL A   1      39.124  29.348  29.762  1.00  0.00     0.049 A 
ATOM     54  H   UNL A   1      41.132  29.899  30.015  1.00  0.00     0.167 HD
ATOM     55  C   UNL A   1      45.266  31.407  29.460  1.00  0.00     0.037 A 
ATOM     56  C   UNL A   1      38.415  30.388  30.280  1.00  0.00     0.037 A 
ATOM     57  C   UNL A   1      45.177  31.087  30.860  1.00  0.00     0.049 A 
ATOM     58  C   UNL A   1      39.358  31.171  31.113  1.00  0.00     0.074 A 
ATOM     59  C   UNL A   1      45.736  30.135  31.687  1.00  0.00     0.029 A 
ATOM     60  N   UNL A   1      44.112  31.614  31.543  1.00  0.00    -0.354 N 
ATOM     61  N   UNL A   1      39.914  30.721  32.206  1.00  0.00    -0.248 NA
ATOM     62  C   UNL A   1      40.023  32.309  30.498  1.00  0.00     0.031 C 
ATOM     63  C   UNL A   1      44.727  29.836  32.646  1.00  0.00     0.029 A 
ATOM     64  C   UNL A   1      43.627  30.659  32.396  1.00  0.00     0.049 A 
ATOM     65  H   UNL A   1      43.754  32.526  31.438  1.00  0.00     0.167 HD
ATOM     66  C   UNL A   1      41.207  31.222  32.174  1.00  0.00     0.074 A 
ATOM     67  C   UNL A   1      41.181  32.272  31.158  1.00  0.00     0.031 C 
ATOM     68  C   UNL A   1      42.232  30.549  32.774  1.00  0.00     0.037 A 
BRANCH  55  69
ATOM     69  C   UNL A   1      45.441  32.833  28.977  1.00  0.00     0.058 A 
ATOM     70  C   UNL A   1      46.690  33.470  29.142  1.00  0.00     0.135 A 
ATOM     71  C   UNL A   1      44.366  33.689  28.646  1.00  0.00     0.135 A 
ATOM     72  F   UNL A   1      47.782  32.762  29.469  1.00  0.00    -0.206 F 
ATOM     73  C   UNL A   1      46.843  34.856  29.056  1.00  0.00     0.059 A 
ATOM     74  C   UNL A   1      44.506  35.065  28.505  1.00  0.00     0.059 A 
ATOM     75  F   UNL A   1      43.107  33.249  28.535  1.00  0.00    -0.206 F 
ATOM     76  C   UNL A   1      45.739  35.646  28.748  1.00  0.00     0.060 A 
BRANCH  76  77
ATOM     77  S   UNL A   1      45.913  37.438  28.723  1.00  0.00     0.124 S 
ATOM     78  O   UNL A   1      44.751  37.857  29.499  1.00  0.00    -0.237 OA
ATOM     79  O   UNL A   1      47.211  37.623  29.363  1.00  0.00    -0.237 OA
ATOM     80  O   UNL A   1      45.871  37.760  27.300  1.00  0.00    -0.744 OA
ENDBRANCH  76  77
ENDBRANCH  55  69
BRANCH  56  81
ATOM     81  C   UNL A   1      37.107  30.950  29.817  1.00  0.00     0.058 A 
ATOM     82  C   UNL A   1      36.211  31.571  30.712  1.00  0.00     0.135 A 
ATOM     83  C   UNL A   1      36.839  31.153  28.449  1.00  0.00     0.135 A 
ATOM     84  F   UNL A   1      36.391  31.455  32.036  1.00  0.00    -0.206 F 
ATOM     85  C   UNL A   1      35.152  32.384  30.278  1.00  0.00     0.059 A 
ATOM     86  C   UNL A   1      35.786  31.951  27.993  1.00  0.00     0.059 A 
ATOM     87  F   UNL A   1      37.649  30.657  27.504  1.00  0.00    -0.206 F 
ATOM     88  C   UNL A   1      34.962  32.586  28.913  1.00  0.00     0.060 A 
BRANCH  88  89
ATOM     89  S   UNL A   1      33.708  33.763  28.344  1.00  0.00     0.124 S 
ATOM     90  O   UNL A   1      33.208  34.307  29.601  1.00  0.00    -0.237 OA
ATOM     91  O   UNL A   1      34.493  34.677  27.522  1.00  0.00    -0.237 OA
ATOM     92  O   UNL A   1      32.764  32.925  27.609  1.00  0.00    -0.744 OA
ENDBRANCH  88  89
ENDBRANCH  56  81
BRANCH  68  93
ATOM     93  C   UNL A   1      41.899  29.451  33.754  1.00  0.00     0.058 A 
ATOM     94  C   UNL A   1      41.765  28.093  33.415  1.00  0.00     0.135 A 
ATOM     95  C   UNL A   1      41.925  29.772  35.120  1.00  0.00     0.135 A 
ATOM     96  F   UNL A   1      41.808  27.692  32.137  1.00  0.00    -0.206 F 
ATOM     97  C   UNL A   1      41.663  27.100  34.395  1.00  0.00     0.059 A 
ATOM     98  C   UNL A   1      41.857  28.798  36.110  1.00  0.00     0.059 A 
ATOM     99  F   UNL A   1      42.101  31.048  35.505  1.00  0.00    -0.206 F 
ATOM    100  C   UNL A   1      41.729  27.462  35.740  1.00  0.00     0.060 A 
BRANCH 100 101
ATOM    101  S   UNL A   1      41.742  26.167  37.001  1.00  0.00     0.124 S 
ATOM    102  O   UNL A   1      40.433  26.327  37.624  1.00  0.00    -0.237 OA
ATOM    103  O   UNL A   1      41.922  24.955  36.206  1.00  0.00    -0.237 OA
ATOM    104  O   UNL A   1      42.882  26.522  37.845  1.00  0.00    -0.744 OA
ENDBRANCH 100 101
ENDBRANCH  68  93
ENDBRANCH  42  43
ENDBRANCH  34  37
ENDBRANCH  32  33
ENDBRANCH  31  32
ENDBRANCH   1  31
TORSDOF 18
ENDMDL
