MODEL 1
REMARK VINA RESULT:     -13.8      0.000      0.000
REMARK SMILES Cc1ccc([C@@H]2[C@H](C(=O)NCCCCNC(=O)c3ccc(-c4c5nc(c(-c6c(F)cc(S(=O)(=O)[O-])cc6F)c6ccc([nH]6)c(-c6c(F)cc(S(=O)(=O)[O-])cc6F)c6nc(c(-c7c(F)cc(S(=O)(=O)[O-])cc7F)c7ccc4[nH]7)C=C6)C=C5)cc3)c3ccccc3C(=O)N2c2ccccc2)cc1
REMARK SMILES IDX 13 1 12 2 11 3 10 4 8 5 9 6 7 8 6 9 92 10 84 11 90 12 85 13
REMARK SMILES IDX 89 14 91 15 86 16 88 17 87 18 5 19 1 20 2 21 3 22 100 23
REMARK SMILES IDX 4 24 99 25 93 26 94 27 98 28 95 29 97 30 96 31 14 32 15 33
REMARK SMILES IDX 16 34 17 36 18 37 19 38 83 39 20 40 82 41 21 42 22 43 23 44
REMARK SMILES IDX 76 45 24 46 81 47 75 48 77 49 25 50 80 51 74 52 73 53 26 55
REMARK SMILES IDX 60 56 39 57 59 58 40 59 43 60 58 61 78 62 41 63 42 64 57 66
REMARK SMILES IDX 79 67 44 68 27 69 28 70 37 71 29 72 30 73 36 74 38 75 31 76
REMARK SMILES IDX 32 77 33 78 34 79 35 80 61 81 62 82 71 83 63 84 64 85 70 86
REMARK SMILES IDX 72 87 65 88 66 89 67 90 68 91 69 92 45 93 46 94 55 95 47 96
REMARK SMILES IDX 48 97 54 98 56 99 49 100 50 101 51 102 52 103 53 104
REMARK H PARENT 10 7 15 35 77 54 43 65
REMARK Flexibility Score: inf
ROOT
ATOM      1  C   UNL A   1      33.976  29.920  26.870  1.00  0.00     0.023 C 
ENDROOT
BRANCH   1   2
ATOM      2  C   UNL A   1      34.196  28.516  26.305  1.00  0.00     0.023 C 
BRANCH   2   3
ATOM      3  C   UNL A   1      33.250  27.451  26.877  1.00  0.00     0.116 C 
BRANCH   3   4
ATOM      4  N   UNL A   1      32.963  26.411  25.899  1.00  0.00    -0.355 N 
ATOM      5  C   UNL A   1      33.883  25.420  25.635  1.00  0.00     0.230 C 
ATOM      6  O   UNL A   1      34.184  24.595  26.494  1.00  0.00    -0.274 OA
ATOM      7  H   UNL A   1      32.101  26.416  25.423  1.00  0.00     0.163 HD
BRANCH   5   8
ATOM      8  C   UNL A   1      34.483  25.376  24.221  1.00  0.00     0.137 C 
ATOM      9  C   UNL A   1      34.917  23.943  23.780  1.00  0.00     0.138 C 
ATOM     10  N   UNL A   1      33.733  23.196  23.321  1.00  0.00    -0.300 N 
ATOM     11  C   UNL A   1      33.596  25.981  23.125  1.00  0.00    -0.020 A 
ATOM     12  C   UNL A   1      33.283  23.690  22.083  1.00  0.00     0.259 C 
ATOM     13  C   UNL A   1      33.280  27.348  23.144  1.00  0.00     0.005 A 
ATOM     14  C   UNL A   1      33.067  25.178  22.089  1.00  0.00     0.044 A 
ATOM     15  O   UNL A   1      32.979  22.998  21.118  1.00  0.00    -0.269 OA
ATOM     16  C   UNL A   1      32.414  27.887  22.193  1.00  0.00     0.000 A 
ATOM     17  C   UNL A   1      32.235  25.734  21.111  1.00  0.00     0.014 A 
ATOM     18  C   UNL A   1      31.895  27.084  21.177  1.00  0.00     0.001 A 
BRANCH   9  19
ATOM     19  C   UNL A   1      36.082  23.253  24.487  1.00  0.00    -0.024 A 
ATOM     20  C   UNL A   1      39.540  21.157  26.048  1.00  0.00     0.044 C 
ATOM     21  C   UNL A   1      38.282  21.849  25.614  1.00  0.00    -0.051 A 
ATOM     22  C   UNL A   1      38.034  23.183  25.948  1.00  0.00     0.004 A 
ATOM     23  C   UNL A   1      37.371  21.187  24.795  1.00  0.00     0.004 A 
ATOM     24  C   UNL A   1      36.917  23.857  25.433  1.00  0.00     0.006 A 
ATOM     25  C   UNL A   1      36.292  21.879  24.238  1.00  0.00     0.006 A 
ENDBRANCH   9  19
BRANCH  10  26
ATOM     26  C   UNL A   1      32.710  22.690  24.217  1.00  0.00     0.045 A 
ATOM     27  C   UNL A   1      31.500  23.400  24.365  1.00  0.00     0.026 A 
ATOM     28  C   UNL A   1      32.896  21.587  25.058  1.00  0.00     0.026 A 
ATOM     29  C   UNL A   1      30.567  23.075  25.354  1.00  0.00     0.002 A 
ATOM     30  C   UNL A   1      31.942  21.230  26.021  1.00  0.00     0.002 A 
ATOM     31  C   UNL A   1      30.789  21.988  26.185  1.00  0.00     0.000 A 
ENDBRANCH  10  26
ENDBRANCH   5   8
ENDBRANCH   3   4
ENDBRANCH   2   3
ENDBRANCH   1   2
BRANCH   1  32
ATOM     32  C   UNL A   1      34.371  30.040  28.339  1.00  0.00     0.116 C 
BRANCH  32  33
ATOM     33  N   UNL A   1      35.276  31.150  28.624  1.00  0.00    -0.352 N 
ATOM     34  C   UNL A   1      36.618  31.101  28.997  1.00  0.00     0.251 C 
ATOM     35  H   UNL A   1      34.888  32.051  28.540  1.00  0.00     0.163 HD
ATOM     36  O   UNL A   1      37.236  32.057  29.401  1.00  0.00    -0.269 OA
BRANCH  34  37
ATOM     37  C   UNL A   1      37.321  29.825  28.727  1.00  0.00     0.039 A 
ATOM     38  C   UNL A   1      37.466  28.960  29.819  1.00  0.00     0.014 A 
ATOM     39  C   UNL A   1      38.115  29.710  27.593  1.00  0.00     0.014 A 
ATOM     40  C   UNL A   1      38.585  28.141  29.877  1.00  0.00     0.010 A 
ATOM     41  C   UNL A   1      39.282  28.984  27.702  1.00  0.00     0.010 A 
ATOM     42  C   UNL A   1      39.543  28.259  28.872  1.00  0.00    -0.014 A 
BRANCH  42  43
ATOM     43  C   UNL A   1      40.891  27.725  29.010  1.00  0.00     0.031 A 
ATOM     44  C   UNL A   1      41.161  26.342  28.575  1.00  0.00     0.074 A 
ATOM     45  C   UNL A   1      41.877  28.516  29.489  1.00  0.00     0.049 A 
ATOM     46  N   UNL A   1      42.134  25.613  29.001  1.00  0.00    -0.248 NA
ATOM     47  C   UNL A   1      40.286  25.646  27.641  1.00  0.00     0.031 C 
ATOM     48  C   UNL A   1      43.310  28.246  29.482  1.00  0.00     0.029 A 
ATOM     49  N   UNL A   1      41.737  29.655  30.293  1.00  0.00    -0.354 N 
ATOM     50  C   UNL A   1      42.176  24.476  28.224  1.00  0.00     0.074 A 
ATOM     51  C   UNL A   1      40.967  24.518  27.435  1.00  0.00     0.031 C 
ATOM     52  C   UNL A   1      43.894  28.995  30.430  1.00  0.00     0.029 A 
ATOM     53  C   UNL A   1      42.838  29.667  31.169  1.00  0.00     0.049 A 
ATOM     54  H   UNL A   1      41.010  30.317  30.253  1.00  0.00     0.167 HD
ATOM     55  C   UNL A   1      43.298  23.698  28.234  1.00  0.00     0.037 A 
ATOM     56  C   UNL A   1      42.655  29.560  32.517  1.00  0.00     0.037 A 
ATOM     57  C   UNL A   1      44.247  24.178  29.239  1.00  0.00     0.049 A 
ATOM     58  C   UNL A   1      43.249  28.302  33.109  1.00  0.00     0.074 A 
ATOM     59  C   UNL A   1      45.342  25.023  29.156  1.00  0.00     0.029 A 
ATOM     60  N   UNL A   1      43.920  24.096  30.591  1.00  0.00    -0.354 N 
ATOM     61  N   UNL A   1      43.573  27.246  32.411  1.00  0.00    -0.248 NA
ATOM     62  C   UNL A   1      43.548  28.141  34.529  1.00  0.00     0.031 C 
ATOM     63  C   UNL A   1      45.606  25.531  30.455  1.00  0.00     0.029 A 
ATOM     64  C   UNL A   1      44.700  24.965  31.335  1.00  0.00     0.049 A 
ATOM     65  H   UNL A   1      43.230  23.501  30.966  1.00  0.00     0.167 HD
ATOM     66  C   UNL A   1      44.108  26.290  33.238  1.00  0.00     0.074 A 
ATOM     67  C   UNL A   1      44.085  26.907  34.552  1.00  0.00     0.031 C 
ATOM     68  C   UNL A   1      44.540  25.075  32.780  1.00  0.00     0.037 A 
BRANCH  55  69
ATOM     69  C   UNL A   1      43.637  22.764  27.086  1.00  0.00     0.058 A 
ATOM     70  C   UNL A   1      43.024  21.496  26.978  1.00  0.00     0.135 A 
ATOM     71  C   UNL A   1      44.632  23.015  26.121  1.00  0.00     0.135 A 
ATOM     72  F   UNL A   1      41.978  21.157  27.742  1.00  0.00    -0.206 F 
ATOM     73  C   UNL A   1      43.466  20.512  26.089  1.00  0.00     0.059 A 
ATOM     74  C   UNL A   1      45.136  22.028  25.267  1.00  0.00     0.059 A 
ATOM     75  F   UNL A   1      45.123  24.249  25.938  1.00  0.00    -0.206 F 
ATOM     76  C   UNL A   1      44.556  20.769  25.269  1.00  0.00     0.060 A 
BRANCH  76  77
ATOM     77  S   UNL A   1      45.186  19.451  24.213  1.00  0.00     0.124 S 
ATOM     78  O   UNL A   1      44.574  19.764  22.925  1.00  0.00    -0.237 OA
ATOM     79  O   UNL A   1      46.627  19.657  24.298  1.00  0.00    -0.237 OA
ATOM     80  O   UNL A   1      44.687  18.235  24.852  1.00  0.00    -0.744 OA
ENDBRANCH  76  77
ENDBRANCH  55  69
BRANCH  56  81
ATOM     81  C   UNL A   1      41.485  30.328  33.021  1.00  0.00     0.058 A 
ATOM     82  C   UNL A   1      40.287  29.615  33.231  1.00  0.00     0.135 A 
ATOM     83  C   UNL A   1      41.620  31.558  33.679  1.00  0.00     0.135 A 
ATOM     84  F   UNL A   1      40.092  28.441  32.610  1.00  0.00    -0.206 F 
ATOM     85  C   UNL A   1      39.339  30.020  34.165  1.00  0.00     0.059 A 
ATOM     86  C   UNL A   1      40.680  31.985  34.625  1.00  0.00     0.059 A 
ATOM     87  F   UNL A   1      42.727  32.296  33.508  1.00  0.00    -0.206 F 
ATOM     88  C   UNL A   1      39.581  31.172  34.908  1.00  0.00     0.060 A 
BRANCH  88  89
ATOM     89  S   UNL A   1      38.493  31.521  36.314  1.00  0.00     0.124 S 
ATOM     90  O   UNL A   1      38.136  30.180  36.767  1.00  0.00    -0.237 OA
ATOM     91  O   UNL A   1      39.388  32.262  37.203  1.00  0.00    -0.237 OA
ATOM     92  O   UNL A   1      37.411  32.288  35.711  1.00  0.00    -0.744 OA
ENDBRANCH  88  89
ENDBRANCH  56  81
BRANCH  68  93
ATOM     93  C   UNL A   1      44.960  23.904  33.642  1.00  0.00     0.058 A 
ATOM     94  C   UNL A   1      44.103  22.853  34.012  1.00  0.00     0.135 A 
ATOM     95  C   UNL A   1      46.319  23.738  34.007  1.00  0.00     0.135 A 
ATOM     96  F   UNL A   1      42.818  22.835  33.633  1.00  0.00    -0.206 F 
ATOM     97  C   UNL A   1      44.546  21.749  34.743  1.00  0.00     0.059 A 
ATOM     98  C   UNL A   1      46.792  22.618  34.684  1.00  0.00     0.059 A 
ATOM     99  F   UNL A   1      47.245  24.660  33.702  1.00  0.00    -0.206 F 
ATOM    100  C   UNL A   1      45.893  21.636  35.072  1.00  0.00     0.060 A 
BRANCH 100 101
ATOM    101  S   UNL A   1      46.494  20.178  35.943  1.00  0.00     0.124 S 
ATOM    102  O   UNL A   1      46.085  20.467  37.313  1.00  0.00    -0.237 OA
ATOM    103  O   UNL A   1      45.777  19.087  35.288  1.00  0.00    -0.237 OA
ATOM    104  O   UNL A   1      47.931  20.213  35.690  1.00  0.00    -0.744 OA
ENDBRANCH 100 101
ENDBRANCH  68  93
ENDBRANCH  42  43
ENDBRANCH  34  37
ENDBRANCH  32  33
ENDBRANCH   1  32
TORSDOF 16
ENDMDL
MODEL 2
REMARK VINA RESULT:     -13.5      1.446      3.854
REMARK SMILES Cc1ccc([C@@H]2[C@H](C(=O)NCCCCNC(=O)c3ccc(-c4c5nc(c(-c6c(F)cc(S(=O)(=O)[O-])cc6F)c6ccc([nH]6)c(-c6c(F)cc(S(=O)(=O)[O-])cc6F)c6nc(c(-c7c(F)cc(S(=O)(=O)[O-])cc7F)c7ccc4[nH]7)C=C6)C=C5)cc3)c3ccccc3C(=O)N2c2ccccc2)cc1
REMARK SMILES IDX 13 1 12 2 11 3 10 4 8 5 9 6 7 8 6 9 92 10 84 11 90 12 85 13
REMARK SMILES IDX 89 14 91 15 86 16 88 17 87 18 5 19 1 20 2 21 3 22 100 23
REMARK SMILES IDX 4 24 99 25 93 26 94 27 98 28 95 29 97 30 96 31 14 32 15 33
REMARK SMILES IDX 16 34 17 36 18 37 19 38 83 39 20 40 82 41 21 42 22 43 23 44
REMARK SMILES IDX 76 45 24 46 81 47 75 48 77 49 25 50 80 51 74 52 73 53 26 55
REMARK SMILES IDX 60 56 39 57 59 58 40 59 43 60 58 61 78 62 41 63 42 64 57 66
REMARK SMILES IDX 79 67 44 68 27 69 28 70 37 71 29 72 30 73 36 74 38 75 31 76
REMARK SMILES IDX 32 77 33 78 34 79 35 80 61 81 62 82 71 83 63 84 64 85 70 86
REMARK SMILES IDX 72 87 65 88 66 89 67 90 68 91 69 92 45 93 46 94 55 95 47 96
REMARK SMILES IDX 48 97 54 98 56 99 49 100 50 101 51 102 52 103 53 104
REMARK H PARENT 10 7 15 35 77 54 43 65
REMARK Flexibility Score: inf
ROOT
ATOM      1  C   UNL A   1      32.931  30.439  27.222  1.00  0.00     0.023 C 
ENDROOT
BRANCH   1   2
ATOM      2  C   UNL A   1      31.843  29.365  27.248  1.00  0.00     0.023 C 
BRANCH   2   3
ATOM      3  C   UNL A   1      31.503  28.776  25.871  1.00  0.00     0.116 C 
BRANCH   3   4
ATOM      4  N   UNL A   1      30.479  27.747  25.968  1.00  0.00    -0.355 N 
ATOM      5  C   UNL A   1      30.820  26.412  25.956  1.00  0.00     0.230 C 
ATOM      6  O   UNL A   1      31.467  25.919  26.878  1.00  0.00    -0.274 OA
ATOM      7  H   UNL A   1      29.532  28.008  26.042  1.00  0.00     0.163 HD
BRANCH   5   8
ATOM      8  C   UNL A   1      30.329  25.570  24.769  1.00  0.00     0.137 C 
ATOM      9  C   UNL A   1      30.543  26.267  23.389  1.00  0.00     0.138 C 
ATOM     10  N   UNL A   1      31.942  26.085  22.963  1.00  0.00    -0.300 N 
ATOM     11  C   UNL A   1      30.911  24.152  24.699  1.00  0.00    -0.020 A 
ATOM     12  C   UNL A   1      32.176  24.751  22.584  1.00  0.00     0.259 C 
ATOM     13  C   UNL A   1      30.628  23.221  25.710  1.00  0.00     0.005 A 
ATOM     14  C   UNL A   1      31.752  23.760  23.633  1.00  0.00     0.044 A 
ATOM     15  O   UNL A   1      32.765  24.400  21.568  1.00  0.00    -0.269 OA
ATOM     16  C   UNL A   1      31.215  21.955  25.690  1.00  0.00     0.000 A 
ATOM     17  C   UNL A   1      32.301  22.474  23.595  1.00  0.00     0.014 A 
ATOM     18  C   UNL A   1      32.046  21.581  24.635  1.00  0.00     0.001 A 
BRANCH   9  19
ATOM     19  C   UNL A   1      29.754  27.529  23.047  1.00  0.00    -0.024 A 
ATOM     20  C   UNL A   1      27.380  31.122  22.545  1.00  0.00     0.044 C 
ATOM     21  C   UNL A   1      28.169  29.847  22.600  1.00  0.00    -0.051 A 
ATOM     22  C   UNL A   1      29.505  29.801  22.194  1.00  0.00     0.004 A 
ATOM     23  C   UNL A   1      27.596  28.697  23.138  1.00  0.00     0.004 A 
ATOM     24  C   UNL A   1      30.270  28.638  22.367  1.00  0.00     0.006 A 
ATOM     25  C   UNL A   1      28.378  27.560  23.360  1.00  0.00     0.006 A 
ENDBRANCH   9  19
BRANCH  10  26
ATOM     26  C   UNL A   1      33.059  26.782  23.571  1.00  0.00     0.045 A 
ATOM     27  C   UNL A   1      33.703  26.221  24.694  1.00  0.00     0.026 A 
ATOM     28  C   UNL A   1      33.472  28.063  23.187  1.00  0.00     0.026 A 
ATOM     29  C   UNL A   1      34.647  26.934  25.440  1.00  0.00     0.002 A 
ATOM     30  C   UNL A   1      34.451  28.764  23.906  1.00  0.00     0.002 A 
ATOM     31  C   UNL A   1      35.021  28.209  25.045  1.00  0.00     0.000 A 
ENDBRANCH  10  26
ENDBRANCH   5   8
ENDBRANCH   3   4
ENDBRANCH   2   3
ENDBRANCH   1   2
BRANCH   1  32
ATOM     32  C   UNL A   1      34.219  30.001  27.913  1.00  0.00     0.116 C 
BRANCH  32  33
ATOM     33  N   UNL A   1      35.109  31.103  28.270  1.00  0.00    -0.352 N 
ATOM     34  C   UNL A   1      36.413  31.041  28.755  1.00  0.00     0.251 C 
ATOM     35  H   UNL A   1      34.739  32.007  28.149  1.00  0.00     0.163 HD
ATOM     36  O   UNL A   1      37.006  31.991  29.206  1.00  0.00    -0.269 OA
BRANCH  34  37
ATOM     37  C   UNL A   1      37.122  29.756  28.552  1.00  0.00     0.039 A 
ATOM     38  C   UNL A   1      37.306  28.967  29.694  1.00  0.00     0.014 A 
ATOM     39  C   UNL A   1      37.887  29.572  27.406  1.00  0.00     0.014 A 
ATOM     40  C   UNL A   1      38.435  28.163  29.776  1.00  0.00     0.010 A 
ATOM     41  C   UNL A   1      39.064  28.866  27.531  1.00  0.00     0.010 A 
ATOM     42  C   UNL A   1      39.364  28.222  28.739  1.00  0.00    -0.014 A 
BRANCH  42  43
ATOM     43  C   UNL A   1      40.721  27.711  28.875  1.00  0.00     0.031 A 
ATOM     44  C   UNL A   1      41.008  26.325  28.461  1.00  0.00     0.074 A 
ATOM     45  C   UNL A   1      41.699  28.524  29.333  1.00  0.00     0.049 A 
ATOM     46  N   UNL A   1      41.995  25.618  28.891  1.00  0.00    -0.248 NA
ATOM     47  C   UNL A   1      40.135  25.600  27.547  1.00  0.00     0.031 C 
ATOM     48  C   UNL A   1      43.135  28.275  29.318  1.00  0.00     0.029 A 
ATOM     49  N   UNL A   1      41.549  29.674  30.118  1.00  0.00    -0.354 N 
ATOM     50  C   UNL A   1      42.047  24.468  28.134  1.00  0.00     0.074 A 
ATOM     51  C   UNL A   1      40.832  24.479  27.354  1.00  0.00     0.031 C 
ATOM     52  C   UNL A   1      43.716  29.049  30.249  1.00  0.00     0.029 A 
ATOM     53  C   UNL A   1      42.656  29.718  30.985  1.00  0.00     0.049 A 
ATOM     54  H   UNL A   1      40.812  30.325  30.073  1.00  0.00     0.167 HD
ATOM     55  C   UNL A   1      43.181  23.707  28.148  1.00  0.00     0.037 A 
ATOM     56  C   UNL A   1      42.486  29.631  32.335  1.00  0.00     0.037 A 
ATOM     57  C   UNL A   1      44.131  24.218  29.136  1.00  0.00     0.049 A 
ATOM     58  C   UNL A   1      43.103  28.392  32.944  1.00  0.00     0.074 A 
ATOM     59  C   UNL A   1      45.213  25.078  29.030  1.00  0.00     0.029 A 
ATOM     60  N   UNL A   1      43.816  24.154  30.493  1.00  0.00    -0.354 N 
ATOM     61  N   UNL A   1      43.437  27.329  32.261  1.00  0.00    -0.248 NA
ATOM     62  C   UNL A   1      43.415  28.260  34.364  1.00  0.00     0.031 C 
ATOM     63  C   UNL A   1      45.479  25.612  30.318  1.00  0.00     0.029 A 
ATOM     64  C   UNL A   1      44.589  25.047  31.215  1.00  0.00     0.049 A 
ATOM     65  H   UNL A   1      43.138  23.556  30.883  1.00  0.00     0.167 HD
ATOM     66  C   UNL A   1      43.993  26.396  33.099  1.00  0.00     0.074 A 
ATOM     67  C   UNL A   1      43.971  27.035  34.404  1.00  0.00     0.031 C 
ATOM     68  C   UNL A   1      44.439  25.180  32.659  1.00  0.00     0.037 A 
BRANCH  55  69
ATOM     69  C   UNL A   1      43.524  22.758  27.013  1.00  0.00     0.058 A 
ATOM     70  C   UNL A   1      42.850  21.526  26.869  1.00  0.00     0.135 A 
ATOM     71  C   UNL A   1      44.577  22.958  26.098  1.00  0.00     0.135 A 
ATOM     72  F   UNL A   1      41.752  21.242  27.579  1.00  0.00    -0.206 F 
ATOM     73  C   UNL A   1      43.281  20.521  25.997  1.00  0.00     0.059 A 
ATOM     74  C   UNL A   1      45.069  21.947  25.265  1.00  0.00     0.059 A 
ATOM     75  F   UNL A   1      45.143  24.163  25.946  1.00  0.00    -0.206 F 
ATOM     76  C   UNL A   1      44.422  20.721  25.233  1.00  0.00     0.060 A 
BRANCH  76  77
ATOM     77  S   UNL A   1      45.031  19.373  24.201  1.00  0.00     0.124 S 
ATOM     78  O   UNL A   1      44.383  18.208  24.797  1.00  0.00    -0.237 OA
ATOM     79  O   UNL A   1      44.550  19.762  22.881  1.00  0.00    -0.237 OA
ATOM     80  O   UNL A   1      46.480  19.433  24.384  1.00  0.00    -0.744 OA
ENDBRANCH  76  77
ENDBRANCH  55  69
BRANCH  56  81
ATOM     81  C   UNL A   1      41.308  30.390  32.837  1.00  0.00     0.058 A 
ATOM     82  C   UNL A   1      40.131  29.659  33.093  1.00  0.00     0.135 A 
ATOM     83  C   UNL A   1      41.429  31.645  33.451  1.00  0.00     0.135 A 
ATOM     84  F   UNL A   1      39.949  28.461  32.514  1.00  0.00    -0.206 F 
ATOM     85  C   UNL A   1      39.191  30.075  34.031  1.00  0.00     0.059 A 
ATOM     86  C   UNL A   1      40.497  32.083  34.400  1.00  0.00     0.059 A 
ATOM     87  F   UNL A   1      42.515  32.400  33.234  1.00  0.00    -0.206 F 
ATOM     88  C   UNL A   1      39.421  31.256  34.730  1.00  0.00     0.060 A 
BRANCH  88  89
ATOM     89  S   UNL A   1      38.352  31.628  36.144  1.00  0.00     0.124 S 
ATOM     90  O   UNL A   1      39.154  32.591  36.893  1.00  0.00    -0.237 OA
ATOM     91  O   UNL A   1      37.170  32.183  35.483  1.00  0.00    -0.237 OA
ATOM     92  O   UNL A   1      38.179  30.328  36.778  1.00  0.00    -0.744 OA
ENDBRANCH  88  89
ENDBRANCH  56  81
BRANCH  68  93
ATOM     93  C   UNL A   1      44.883  24.030  33.537  1.00  0.00     0.058 A 
ATOM     94  C   UNL A   1      44.050  22.963  33.917  1.00  0.00     0.135 A 
ATOM     95  C   UNL A   1      46.244  23.901  33.909  1.00  0.00     0.135 A 
ATOM     96  F   UNL A   1      42.767  22.909  33.533  1.00  0.00    -0.206 F 
ATOM     97  C   UNL A   1      44.516  21.879  34.664  1.00  0.00     0.059 A 
ATOM     98  C   UNL A   1      46.741  22.800  34.602  1.00  0.00     0.059 A 
ATOM     99  F   UNL A   1      47.149  24.841  33.597  1.00  0.00    -0.206 F 
ATOM    100  C   UNL A   1      45.864  21.802  34.999  1.00  0.00     0.060 A 
BRANCH 100 101
ATOM    101  S   UNL A   1      46.496  20.370  35.890  1.00  0.00     0.124 S 
ATOM    102  O   UNL A   1      46.173  20.719  37.270  1.00  0.00    -0.237 OA
ATOM    103  O   UNL A   1      45.727  19.266  35.322  1.00  0.00    -0.237 OA
ATOM    104  O   UNL A   1      47.916  20.373  35.552  1.00  0.00    -0.744 OA
ENDBRANCH 100 101
ENDBRANCH  68  93
ENDBRANCH  42  43
ENDBRANCH  34  37
ENDBRANCH  32  33
ENDBRANCH   1  32
TORSDOF 16
ENDMDL
MODEL 3
REMARK VINA RESULT:     -13.2      4.762     11.266
REMARK SMILES Cc1ccc([C@@H]2[C@H](C(=O)NCCCCNC(=O)c3ccc(-c4c5nc(c(-c6c(F)cc(S(=O)(=O)[O-])cc6F)c6ccc([nH]6)c(-c6c(F)cc(S(=O)(=O)[O-])cc6F)c6nc(c(-c7c(F)cc(S(=O)(=O)[O-])cc7F)c7ccc4[nH]7)C=C6)C=C5)cc3)c3ccccc3C(=O)N2c2ccccc2)cc1
REMARK SMILES IDX 13 1 12 2 11 3 10 4 8 5 9 6 7 8 6 9 92 10 84 11 90 12 85 13
REMARK SMILES IDX 89 14 91 15 86 16 88 17 87 18 5 19 1 20 2 21 3 22 100 23
REMARK SMILES IDX 4 24 99 25 93 26 94 27 98 28 95 29 97 30 96 31 14 32 15 33
REMARK SMILES IDX 16 34 17 36 18 37 19 38 83 39 20 40 82 41 21 42 22 43 23 44
REMARK SMILES IDX 76 45 24 46 81 47 75 48 77 49 25 50 80 51 74 52 73 53 26 55
REMARK SMILES IDX 60 56 39 57 59 58 40 59 43 60 58 61 78 62 41 63 42 64 57 66
REMARK SMILES IDX 79 67 44 68 27 69 28 70 37 71 29 72 30 73 36 74 38 75 31 76
REMARK SMILES IDX 32 77 33 78 34 79 35 80 61 81 62 82 71 83 63 84 64 85 70 86
REMARK SMILES IDX 72 87 65 88 66 89 67 90 68 91 69 92 45 93 46 94 55 95 47 96
REMARK SMILES IDX 48 97 54 98 56 99 49 100 50 101 51 102 52 103 53 104
REMARK H PARENT 10 7 15 35 77 54 43 65
REMARK Flexibility Score: inf
ROOT
ATOM      1  C   UNL A   1      38.138  23.650  25.460  1.00  0.00     0.023 C 
ENDROOT
BRANCH   1   2
ATOM      2  C   UNL A   1      36.620  23.833  25.502  1.00  0.00     0.023 C 
BRANCH   2   3
ATOM      3  C   UNL A   1      35.988  24.175  24.146  1.00  0.00     0.116 C 
BRANCH   3   4
ATOM      4  N   UNL A   1      34.576  24.501  24.281  1.00  0.00    -0.355 N 
ATOM      5  C   UNL A   1      34.177  25.642  24.943  1.00  0.00     0.230 C 
ATOM      6  O   UNL A   1      34.438  26.755  24.492  1.00  0.00    -0.274 OA
ATOM      7  H   UNL A   1      33.898  23.899  23.895  1.00  0.00     0.163 HD
BRANCH   5   8
ATOM      8  C   UNL A   1      33.370  25.459  26.237  1.00  0.00     0.137 C 
ATOM      9  C   UNL A   1      32.308  26.580  26.464  1.00  0.00     0.138 C 
ATOM     10  N   UNL A   1      31.111  26.287  25.655  1.00  0.00    -0.300 N 
ATOM     11  C   UNL A   1      32.684  24.094  26.382  1.00  0.00    -0.020 A 
ATOM     12  C   UNL A   1      30.407  25.193  26.189  1.00  0.00     0.259 C 
ATOM     13  C   UNL A   1      33.452  22.924  26.482  1.00  0.00     0.005 A 
ATOM     14  C   UNL A   1      31.275  23.984  26.403  1.00  0.00     0.044 A 
ATOM     15  O   UNL A   1      29.194  25.153  26.364  1.00  0.00    -0.269 OA
ATOM     16  C   UNL A   1      32.833  21.675  26.539  1.00  0.00     0.000 A 
ATOM     17  C   UNL A   1      30.661  22.732  26.506  1.00  0.00     0.014 A 
ATOM     18  C   UNL A   1      31.442  21.578  26.554  1.00  0.00     0.001 A 
BRANCH   9  19
ATOM     19  C   UNL A   1      32.763  28.011  26.742  1.00  0.00    -0.024 A 
ATOM     20  C   UNL A   1      33.706  32.088  27.872  1.00  0.00     0.044 C 
ATOM     21  C   UNL A   1      33.414  30.708  27.362  1.00  0.00    -0.051 A 
ATOM     22  C   UNL A   1      34.401  29.719  27.334  1.00  0.00     0.004 A 
ATOM     23  C   UNL A   1      32.118  30.367  26.981  1.00  0.00     0.004 A 
ATOM     24  C   UNL A   1      34.087  28.400  26.975  1.00  0.00     0.006 A 
ATOM     25  C   UNL A   1      31.799  29.040  26.680  1.00  0.00     0.006 A 
ENDBRANCH   9  19
BRANCH  10  26
ATOM     26  C   UNL A   1      31.066  26.435  24.213  1.00  0.00     0.045 A 
ATOM     27  C   UNL A   1      31.267  25.307  23.390  1.00  0.00     0.026 A 
ATOM     28  C   UNL A   1      30.957  27.671  23.566  1.00  0.00     0.026 A 
ATOM     29  C   UNL A   1      31.433  25.420  22.006  1.00  0.00     0.002 A 
ATOM     30  C   UNL A   1      31.078  27.783  22.174  1.00  0.00     0.002 A 
ATOM     31  C   UNL A   1      31.340  26.661  21.397  1.00  0.00     0.000 A 
ENDBRANCH  10  26
ENDBRANCH   5   8
ENDBRANCH   3   4
ENDBRANCH   2   3
ENDBRANCH   1   2
BRANCH   1  32
ATOM     32  C   UNL A   1      38.695  22.998  26.723  1.00  0.00     0.116 C 
BRANCH  32  33
ATOM     33  N   UNL A   1      40.136  23.165  26.894  1.00  0.00    -0.352 N 
ATOM     34  C   UNL A   1      40.865  24.348  26.993  1.00  0.00     0.251 C 
ATOM     35  H   UNL A   1      40.659  22.332  26.947  1.00  0.00     0.163 HD
ATOM     36  O   UNL A   1      42.070  24.398  26.938  1.00  0.00    -0.269 OA
BRANCH  34  37
ATOM     37  C   UNL A   1      40.089  25.563  27.331  1.00  0.00     0.039 A 
ATOM     38  C   UNL A   1      40.344  26.695  26.546  1.00  0.00     0.014 A 
ATOM     39  C   UNL A   1      39.482  25.661  28.577  1.00  0.00     0.014 A 
ATOM     40  C   UNL A   1      40.223  27.950  27.125  1.00  0.00     0.010 A 
ATOM     41  C   UNL A   1      39.472  26.897  29.187  1.00  0.00     0.010 A 
ATOM     42  C   UNL A   1      39.908  28.025  28.480  1.00  0.00    -0.014 A 
BRANCH  42  43
ATOM     43  C   UNL A   1      40.100  29.239  29.262  1.00  0.00     0.031 A 
ATOM     44  C   UNL A   1      39.055  30.279  29.236  1.00  0.00     0.074 A 
ATOM     45  C   UNL A   1      41.205  29.372  30.029  1.00  0.00     0.049 A 
ATOM     46  N   UNL A   1      39.248  31.524  29.507  1.00  0.00    -0.248 NA
ATOM     47  C   UNL A   1      37.686  29.983  28.832  1.00  0.00     0.031 C 
ATOM     48  C   UNL A   1      41.460  30.387  31.044  1.00  0.00     0.029 A 
ATOM     49  N   UNL A   1      42.432  28.715  29.873  1.00  0.00    -0.354 N 
ATOM     50  C   UNL A   1      38.014  32.133  29.574  1.00  0.00     0.074 A 
ATOM     51  C   UNL A   1      37.082  31.145  29.085  1.00  0.00     0.031 C 
ATOM     52  C   UNL A   1      42.785  30.483  31.233  1.00  0.00     0.029 A 
ATOM     53  C   UNL A   1      43.431  29.631  30.249  1.00  0.00     0.049 A 
ATOM     54  H   UNL A   1      42.568  27.792  29.559  1.00  0.00     0.167 HD
ATOM     55  C   UNL A   1      37.903  33.358  30.167  1.00  0.00     0.037 A 
ATOM     56  C   UNL A   1      44.353  30.066  29.342  1.00  0.00     0.037 A 
ATOM     57  C   UNL A   1      39.224  33.881  30.517  1.00  0.00     0.049 A 
ATOM     58  C   UNL A   1      44.263  31.547  29.052  1.00  0.00     0.074 A 
ATOM     59  C   UNL A   1      39.960  33.845  31.691  1.00  0.00     0.029 A 
ATOM     60  N   UNL A   1      40.122  34.218  29.505  1.00  0.00    -0.354 N 
ATOM     61  N   UNL A   1      43.217  32.283  29.321  1.00  0.00    -0.248 NA
ATOM     62  C   UNL A   1      45.349  32.321  28.459  1.00  0.00     0.031 C 
ATOM     63  C   UNL A   1      41.324  34.057  31.363  1.00  0.00     0.029 A 
ATOM     64  C   UNL A   1      41.415  34.265  29.997  1.00  0.00     0.049 A 
ATOM     65  H   UNL A   1      39.871  34.397  28.569  1.00  0.00     0.167 HD
ATOM     66  C   UNL A   1      43.462  33.585  28.962  1.00  0.00     0.074 A 
ATOM     67  C   UNL A   1      44.818  33.558  28.441  1.00  0.00     0.031 C 
ATOM     68  C   UNL A   1      42.542  34.584  29.129  1.00  0.00     0.037 A 
BRANCH  55  69
ATOM     69  C   UNL A   1      36.586  33.858  30.733  1.00  0.00     0.058 A 
ATOM     70  C   UNL A   1      35.580  34.371  29.884  1.00  0.00     0.135 A 
ATOM     71  C   UNL A   1      36.294  33.957  32.108  1.00  0.00     0.135 A 
ATOM     72  F   UNL A   1      35.653  34.239  28.554  1.00  0.00    -0.206 F 
ATOM     73  C   UNL A   1      34.459  35.056  30.361  1.00  0.00     0.059 A 
ATOM     74  C   UNL A   1      35.216  34.694  32.611  1.00  0.00     0.059 A 
ATOM     75  F   UNL A   1      37.025  33.300  33.019  1.00  0.00    -0.206 F 
ATOM     76  C   UNL A   1      34.309  35.256  31.726  1.00  0.00     0.060 A 
BRANCH  76  77
ATOM     77  S   UNL A   1      32.919  36.241  32.318  1.00  0.00     0.124 S 
ATOM     78  O   UNL A   1      33.490  36.920  33.478  1.00  0.00    -0.237 OA
ATOM     79  O   UNL A   1      32.633  37.085  31.164  1.00  0.00    -0.237 OA
ATOM     80  O   UNL A   1      31.901  35.240  32.630  1.00  0.00    -0.744 OA
ENDBRANCH  76  77
ENDBRANCH  55  69
BRANCH  56  81
ATOM     81  C   UNL A   1      44.840  28.997  28.429  1.00  0.00     0.058 A 
ATOM     82  C   UNL A   1      44.252  28.924  27.151  1.00  0.00     0.135 A 
ATOM     83  C   UNL A   1      46.084  28.374  28.598  1.00  0.00     0.135 A 
ATOM     84  F   UNL A   1      43.050  29.483  26.935  1.00  0.00    -0.206 F 
ATOM     85  C   UNL A   1      44.929  28.398  26.055  1.00  0.00     0.059 A 
ATOM     86  C   UNL A   1      46.785  27.841  27.509  1.00  0.00     0.059 A 
ATOM     87  F   UNL A   1      46.689  28.390  29.795  1.00  0.00    -0.206 F 
ATOM     88  C   UNL A   1      46.225  27.923  26.233  1.00  0.00     0.060 A 
BRANCH  88  89
ATOM     89  S   UNL A   1      47.194  27.521  24.756  1.00  0.00     0.124 S 
ATOM     90  O   UNL A   1      46.780  28.564  23.822  1.00  0.00    -0.237 OA
ATOM     91  O   UNL A   1      48.562  27.642  25.258  1.00  0.00    -0.237 OA
ATOM     92  O   UNL A   1      46.749  26.173  24.427  1.00  0.00    -0.744 OA
ENDBRANCH  88  89
ENDBRANCH  56  81
BRANCH  68  93
ATOM     93  C   UNL A   1      42.658  35.992  28.589  1.00  0.00     0.058 A 
ATOM     94  C   UNL A   1      42.208  36.386  27.317  1.00  0.00     0.135 A 
ATOM     95  C   UNL A   1      43.112  37.042  29.425  1.00  0.00     0.135 A 
ATOM     96  F   UNL A   1      41.654  35.507  26.470  1.00  0.00    -0.206 F 
ATOM     97  C   UNL A   1      42.261  37.712  26.881  1.00  0.00     0.059 A 
ATOM     98  C   UNL A   1      43.117  38.378  29.033  1.00  0.00     0.059 A 
ATOM     99  F   UNL A   1      43.555  36.807  30.670  1.00  0.00    -0.206 F 
ATOM    100  C   UNL A   1      42.712  38.703  27.747  1.00  0.00     0.060 A 
BRANCH 100 101
ATOM    101  S   UNL A   1      42.708  40.429  27.229  1.00  0.00     0.124 S 
ATOM    102  O   UNL A   1      43.358  41.076  28.364  1.00  0.00    -0.237 OA
ATOM    103  O   UNL A   1      43.483  40.401  25.992  1.00  0.00    -0.237 OA
ATOM    104  O   UNL A   1      41.287  40.719  27.062  1.00  0.00    -0.744 OA
ENDBRANCH 100 101
ENDBRANCH  68  93
ENDBRANCH  42  43
ENDBRANCH  34  37
ENDBRANCH  32  33
ENDBRANCH   1  32
TORSDOF 16
ENDMDL
