MODEL 1
REMARK VINA RESULT:     -11.2      0.000      0.000
REMARK SMILES C[C@@H]1C[C@@H]1C(=O)NCCC(=O)N[C@@](C)(C(=O)NCCCCNC(=O)c1ccc(-c2c3nc(c(-c4c(F)cc(S(=O)(=O)[O-])cc4F)c4ccc([nH]4)c(-c4c(F)cc(S(=O)(=O)[O-])cc4F)c4nc(c(-c5c(F)cc(S(=O)(=O)[O-])cc5F)c5ccc2[nH]5)C=C4)C=C3)cc1)C(F)(F)F
REMARK SMILES IDX 18 1 17 2 15 3 16 4 13 6 14 7 12 8 10 9 11 10 9 12 8 13 7 14
REMARK SMILES IDX 5 15 6 16 4 18 1 19 2 20 3 21 91 22 92 23 93 24 94 25 19 26
REMARK SMILES IDX 20 27 21 28 22 29 23 30 24 32 25 33 26 34 90 35 27 36 89 37
REMARK SMILES IDX 28 38 29 39 30 40 83 41 31 42 88 43 82 44 84 45 32 46 87 47
REMARK SMILES IDX 81 48 80 49 33 51 67 52 46 53 66 54 47 55 50 56 65 57 85 58
REMARK SMILES IDX 48 59 49 60 64 62 86 63 51 64 34 65 35 66 44 67 36 68 37 69
REMARK SMILES IDX 43 70 45 71 38 72 39 73 40 74 41 75 42 76 68 77 69 78 78 79
REMARK SMILES IDX 70 80 71 81 77 82 79 83 72 84 73 85 74 86 75 87 76 88 52 89
REMARK SMILES IDX 53 90 62 91 54 92 55 93 61 94 63 95 56 96 57 97 58 98 59 99
REMARK SMILES IDX 60 100
REMARK H PARENT 17 5 12 11 7 17 22 31 84 50 50 61
REMARK Flexibility Score: inf
ROOT
ATOM      1  C   UNL A   1      33.782  28.830  26.521  1.00  0.00     0.116 C 
ENDROOT
BRANCH   1   2
ATOM      2  N   UNL A   1      33.837  29.211  25.121  1.00  0.00    -0.354 N 
ATOM      3  C   UNL A   1      33.416  28.647  23.960  1.00  0.00     0.254 C 
ATOM      4  O   UNL A   1      33.670  29.319  22.956  1.00  0.00    -0.272 OA
ATOM      5  H   UNL A   1      34.283  30.078  24.982  1.00  0.00     0.163 HD
BRANCH   3   6
ATOM      6  C   UNL A   1      32.574  27.352  23.916  1.00  0.00     0.212 C 
ATOM      7  C   UNL A   1      33.234  26.360  24.895  1.00  0.00     0.056 C 
BRANCH   6   8
ATOM      8  N   UNL A   1      32.627  26.794  22.515  1.00  0.00    -0.335 N 
ATOM      9  C   UNL A   1      32.727  25.540  21.998  1.00  0.00     0.222 C 
ATOM     10  O   UNL A   1      33.178  25.444  20.852  1.00  0.00    -0.275 OA
ATOM     11  H   UNL A   1      32.579  27.491  21.822  1.00  0.00     0.164 HD
BRANCH   9  12
ATOM     12  C   UNL A   1      32.228  24.304  22.712  1.00  0.00     0.121 C 
BRANCH  12  13
ATOM     13  C   UNL A   1      33.155  23.093  22.687  1.00  0.00     0.125 C 
BRANCH  13  14
ATOM     14  N   UNL A   1      34.570  23.367  22.858  1.00  0.00    -0.355 N 
ATOM     15  C   UNL A   1      35.527  22.811  23.668  1.00  0.00     0.223 C 
ATOM     16  O   UNL A   1      36.674  23.251  23.593  1.00  0.00    -0.275 OA
ATOM     17  H   UNL A   1      34.908  24.090  22.283  1.00  0.00     0.163 HD
BRANCH  15  18
ATOM     18  C   UNL A   1      35.188  21.692  24.589  1.00  0.00     0.081 C 
ATOM     19  C   UNL A   1      34.239  23.169  26.612  1.00  0.00     0.008 C 
ATOM     20  C   UNL A   1      34.601  21.865  25.986  1.00  0.00    -0.001 C 
ATOM     21  C   UNL A   1      36.047  21.494  25.824  1.00  0.00     0.018 C 
ENDBRANCH  15  18
ENDBRANCH  13  14
ENDBRANCH  12  13
ENDBRANCH   9  12
ENDBRANCH   6   8
BRANCH   6  22
ATOM     22  C   UNL A   1      31.187  27.800  24.426  1.00  0.00     0.420 C 
ATOM     23  F   UNL A   1      30.968  27.414  25.705  1.00  0.00    -0.168 F 
ATOM     24  F   UNL A   1      31.067  29.146  24.416  1.00  0.00    -0.168 F 
ATOM     25  F   UNL A   1      30.165  27.356  23.662  1.00  0.00    -0.168 F 
ENDBRANCH   6  22
ENDBRANCH   3   6
ENDBRANCH   1   2
BRANCH   1  26
ATOM     26  C   UNL A   1      34.953  29.455  27.278  1.00  0.00     0.023 C 
BRANCH  26  27
ATOM     27  C   UNL A   1      34.740  30.924  27.667  1.00  0.00     0.023 C 
BRANCH  27  28
ATOM     28  C   UNL A   1      35.813  31.515  28.576  1.00  0.00     0.116 C 
BRANCH  28  29
ATOM     29  N   UNL A   1      35.680  31.060  29.950  1.00  0.00    -0.352 N 
ATOM     30  C   UNL A   1      36.595  30.390  30.726  1.00  0.00     0.251 C 
ATOM     31  H   UNL A   1      34.819  31.258  30.382  1.00  0.00     0.163 HD
ATOM     32  O   UNL A   1      36.254  29.916  31.804  1.00  0.00    -0.269 OA
BRANCH  30  33
ATOM     33  C   UNL A   1      37.978  30.220  30.233  1.00  0.00     0.039 A 
ATOM     34  C   UNL A   1      39.026  30.234  31.154  1.00  0.00     0.014 A 
ATOM     35  C   UNL A   1      38.231  30.011  28.874  1.00  0.00     0.014 A 
ATOM     36  C   UNL A   1      40.325  29.962  30.720  1.00  0.00     0.010 A 
ATOM     37  C   UNL A   1      39.514  29.670  28.456  1.00  0.00     0.010 A 
ATOM     38  C   UNL A   1      40.573  29.634  29.376  1.00  0.00    -0.014 A 
BRANCH  38  39
ATOM     39  C   UNL A   1      41.926  29.212  28.930  1.00  0.00     0.031 A 
ATOM     40  C   UNL A   1      43.045  30.213  28.837  1.00  0.00     0.074 A 
ATOM     41  C   UNL A   1      42.126  27.935  28.546  1.00  0.00     0.049 A 
ATOM     42  N   UNL A   1      44.273  30.040  28.419  1.00  0.00    -0.248 NA
ATOM     43  C   UNL A   1      42.739  31.594  29.245  1.00  0.00     0.031 C 
ATOM     44  C   UNL A   1      41.105  26.884  28.541  1.00  0.00     0.029 A 
ATOM     45  N   UNL A   1      43.250  27.303  28.077  1.00  0.00    -0.354 N 
ATOM     46  C   UNL A   1      44.883  31.285  28.507  1.00  0.00     0.074 A 
ATOM     47  C   UNL A   1      43.876  32.217  28.967  1.00  0.00     0.031 C 
ATOM     48  C   UNL A   1      41.654  25.737  28.113  1.00  0.00     0.029 A 
ATOM     49  C   UNL A   1      43.052  25.976  27.771  1.00  0.00     0.049 A 
ATOM     50  H   UNL A   1      44.117  27.756  27.968  1.00  0.00     0.167 HD
ATOM     51  C   UNL A   1      46.171  31.617  28.247  1.00  0.00     0.037 A 
ATOM     52  C   UNL A   1      43.896  25.058  27.260  1.00  0.00     0.037 A 
ATOM     53  C   UNL A   1      47.170  30.679  27.803  1.00  0.00     0.049 A 
ATOM     54  C   UNL A   1      45.316  25.456  26.962  1.00  0.00     0.074 A 
ATOM     55  C   UNL A   1      48.516  30.903  27.573  1.00  0.00     0.029 A 
ATOM     56  N   UNL A   1      46.932  29.344  27.510  1.00  0.00    -0.354 N 
ATOM     57  N   UNL A   1      45.897  26.622  27.125  1.00  0.00    -0.248 NA
ATOM     58  C   UNL A   1      46.198  24.417  26.414  1.00  0.00     0.031 C 
ATOM     59  C   UNL A   1      49.081  29.720  27.086  1.00  0.00     0.029 A 
ATOM     60  C   UNL A   1      48.100  28.740  27.069  1.00  0.00     0.049 A 
ATOM     61  H   UNL A   1      46.063  28.891  27.601  1.00  0.00     0.167 HD
ATOM     62  C   UNL A   1      47.216  26.449  26.719  1.00  0.00     0.074 A 
ATOM     63  C   UNL A   1      47.352  25.063  26.323  1.00  0.00     0.031 C 
ATOM     64  C   UNL A   1      48.222  27.358  26.676  1.00  0.00     0.037 A 
BRANCH  51  65
ATOM     65  C   UNL A   1      46.577  33.053  28.437  1.00  0.00     0.058 A 
ATOM     66  C   UNL A   1      47.043  33.532  29.673  1.00  0.00     0.135 A 
ATOM     67  C   UNL A   1      46.548  33.952  27.358  1.00  0.00     0.135 A 
ATOM     68  F   UNL A   1      47.078  32.722  30.742  1.00  0.00    -0.206 F 
ATOM     69  C   UNL A   1      47.441  34.856  29.838  1.00  0.00     0.059 A 
ATOM     70  C   UNL A   1      46.970  35.272  27.493  1.00  0.00     0.059 A 
ATOM     71  F   UNL A   1      46.112  33.550  26.154  1.00  0.00    -0.206 F 
ATOM     72  C   UNL A   1      47.403  35.717  28.741  1.00  0.00     0.060 A 
BRANCH  72  73
ATOM     73  S   UNL A   1      47.937  37.426  28.971  1.00  0.00     0.124 S 
ATOM     74  O   UNL A   1      49.184  37.446  28.214  1.00  0.00    -0.237 OA
ATOM     75  O   UNL A   1      46.830  38.178  28.388  1.00  0.00    -0.237 OA
ATOM     76  O   UNL A   1      48.080  37.548  30.419  1.00  0.00    -0.744 OA
ENDBRANCH  72  73
ENDBRANCH  51  65
BRANCH  52  77
ATOM     77  C   UNL A   1      43.420  23.672  27.002  1.00  0.00     0.058 A 
ATOM     78  C   UNL A   1      43.238  22.762  28.054  1.00  0.00     0.135 A 
ATOM     79  C   UNL A   1      43.131  23.231  25.701  1.00  0.00     0.135 A 
ATOM     80  F   UNL A   1      43.508  23.132  29.315  1.00  0.00    -0.206 F 
ATOM     81  C   UNL A   1      42.804  21.460  27.826  1.00  0.00     0.059 A 
ATOM     82  C   UNL A   1      42.667  21.943  25.451  1.00  0.00     0.059 A 
ATOM     83  F   UNL A   1      43.272  24.066  24.660  1.00  0.00    -0.206 F 
ATOM     84  C   UNL A   1      42.517  21.061  26.520  1.00  0.00     0.060 A 
BRANCH  84  85
ATOM     85  S   UNL A   1      41.908  19.384  26.240  1.00  0.00     0.124 S 
ATOM     86  O   UNL A   1      42.616  19.015  25.019  1.00  0.00    -0.237 OA
ATOM     87  O   UNL A   1      42.332  18.699  27.456  1.00  0.00    -0.237 OA
ATOM     88  O   UNL A   1      40.466  19.569  26.104  1.00  0.00    -0.744 OA
ENDBRANCH  84  85
ENDBRANCH  52  77
BRANCH  64  89
ATOM     89  C   UNL A   1      49.567  26.879  26.201  1.00  0.00     0.058 A 
ATOM     90  C   UNL A   1      49.918  26.894  24.842  1.00  0.00     0.135 A 
ATOM     91  C   UNL A   1      50.534  26.442  27.122  1.00  0.00     0.135 A 
ATOM     92  F   UNL A   1      49.029  27.293  23.919  1.00  0.00    -0.206 F 
ATOM     93  C   UNL A   1      51.171  26.471  24.410  1.00  0.00     0.059 A 
ATOM     94  C   UNL A   1      51.803  26.045  26.716  1.00  0.00     0.059 A 
ATOM     95  F   UNL A   1      50.254  26.416  28.435  1.00  0.00    -0.206 F 
ATOM     96  C   UNL A   1      52.109  26.051  25.355  1.00  0.00     0.060 A 
BRANCH  96  97
ATOM     97  S   UNL A   1      53.742  25.537  24.783  1.00  0.00     0.124 S 
ATOM     98  O   UNL A   1      54.601  26.060  25.840  1.00  0.00    -0.237 OA
ATOM     99  O   UNL A   1      53.611  24.084  24.734  1.00  0.00    -0.237 OA
ATOM    100  O   UNL A   1      53.872  26.194  23.486  1.00  0.00    -0.744 OA
ENDBRANCH  96  97
ENDBRANCH  64  89
ENDBRANCH  38  39
ENDBRANCH  30  33
ENDBRANCH  28  29
ENDBRANCH  27  28
ENDBRANCH  26  27
ENDBRANCH   1  26
TORSDOF 20
ENDMDL
MODEL 2
REMARK VINA RESULT:     -11.1      1.525      2.085
REMARK SMILES C[C@@H]1C[C@@H]1C(=O)NCCC(=O)N[C@@](C)(C(=O)NCCCCNC(=O)c1ccc(-c2c3nc(c(-c4c(F)cc(S(=O)(=O)[O-])cc4F)c4ccc([nH]4)c(-c4c(F)cc(S(=O)(=O)[O-])cc4F)c4nc(c(-c5c(F)cc(S(=O)(=O)[O-])cc5F)c5ccc2[nH]5)C=C4)C=C3)cc1)C(F)(F)F
REMARK SMILES IDX 18 1 17 2 15 3 16 4 13 6 14 7 12 8 10 9 11 10 9 12 8 13 7 14
REMARK SMILES IDX 5 15 6 16 4 18 1 19 2 20 3 21 91 22 92 23 93 24 94 25 19 26
REMARK SMILES IDX 20 27 21 28 22 29 23 30 24 32 25 33 26 34 90 35 27 36 89 37
REMARK SMILES IDX 28 38 29 39 30 40 83 41 31 42 88 43 82 44 84 45 32 46 87 47
REMARK SMILES IDX 81 48 80 49 33 51 67 52 46 53 66 54 47 55 50 56 65 57 85 58
REMARK SMILES IDX 48 59 49 60 64 62 86 63 51 64 34 65 35 66 44 67 36 68 37 69
REMARK SMILES IDX 43 70 45 71 38 72 39 73 40 74 41 75 42 76 68 77 69 78 78 79
REMARK SMILES IDX 70 80 71 81 77 82 79 83 72 84 73 85 74 86 75 87 76 88 52 89
REMARK SMILES IDX 53 90 62 91 54 92 55 93 61 94 63 95 56 96 57 97 58 98 59 99
REMARK SMILES IDX 60 100
REMARK H PARENT 17 5 12 11 7 17 22 31 84 50 50 61
REMARK Flexibility Score: inf
ROOT
ATOM      1  C   UNL A   1      32.429  28.549  27.226  1.00  0.00     0.116 C 
ENDROOT
BRANCH   1   2
ATOM      2  N   UNL A   1      31.796  29.013  26.004  1.00  0.00    -0.354 N 
ATOM      3  C   UNL A   1      31.475  28.440  24.816  1.00  0.00     0.254 C 
ATOM      4  O   UNL A   1      30.930  29.209  24.020  1.00  0.00    -0.272 OA
ATOM      5  H   UNL A   1      31.540  29.963  26.048  1.00  0.00     0.163 HD
BRANCH   3   6
ATOM      6  C   UNL A   1      31.651  26.930  24.542  1.00  0.00     0.212 C 
ATOM      7  C   UNL A   1      30.819  26.607  23.284  1.00  0.00     0.056 C 
BRANCH   6   8
ATOM      8  N   UNL A   1      31.106  26.162  25.722  1.00  0.00    -0.335 N 
ATOM      9  C   UNL A   1      30.617  24.905  25.889  1.00  0.00     0.222 C 
ATOM     10  O   UNL A   1      29.860  24.725  26.849  1.00  0.00    -0.275 OA
ATOM     11  H   UNL A   1      31.103  26.689  26.553  1.00  0.00     0.164 HD
BRANCH   9  12
ATOM     12  C   UNL A   1      31.029  23.731  25.031  1.00  0.00     0.121 C 
BRANCH  12  13
ATOM     13  C   UNL A   1      31.195  22.396  25.751  1.00  0.00     0.125 C 
BRANCH  13  14
ATOM     14  N   UNL A   1      32.095  22.390  26.889  1.00  0.00    -0.355 N 
ATOM     15  C   UNL A   1      33.436  22.653  27.007  1.00  0.00     0.223 C 
ATOM     16  O   UNL A   1      33.944  22.574  28.125  1.00  0.00    -0.275 OA
ATOM     17  H   UNL A   1      31.661  22.151  27.739  1.00  0.00     0.163 HD
BRANCH  15  18
ATOM     18  C   UNL A   1      34.241  23.048  25.819  1.00  0.00     0.081 C 
ATOM     19  C   UNL A   1      34.882  20.584  24.986  1.00  0.00     0.008 C 
ATOM     20  C   UNL A   1      34.941  22.070  24.881  1.00  0.00    -0.001 C 
ATOM     21  C   UNL A   1      35.745  22.855  25.876  1.00  0.00     0.018 C 
ENDBRANCH  15  18
ENDBRANCH  13  14
ENDBRANCH  12  13
ENDBRANCH   9  12
ENDBRANCH   6   8
BRANCH   6  22
ATOM     22  C   UNL A   1      33.163  26.781  24.264  1.00  0.00     0.420 C 
ATOM     23  F   UNL A   1      33.409  25.947  23.227  1.00  0.00    -0.168 F 
ATOM     24  F   UNL A   1      33.724  27.965  23.932  1.00  0.00    -0.168 F 
ATOM     25  F   UNL A   1      33.867  26.354  25.335  1.00  0.00    -0.168 F 
ENDBRANCH   6  22
ENDBRANCH   3   6
ENDBRANCH   1   2
BRANCH   1  26
ATOM     26  C   UNL A   1      33.890  28.995  27.259  1.00  0.00     0.023 C 
BRANCH  26  27
ATOM     27  C   UNL A   1      34.082  30.507  27.446  1.00  0.00     0.023 C 
BRANCH  27  28
ATOM     28  C   UNL A   1      35.449  30.923  27.979  1.00  0.00     0.116 C 
BRANCH  28  29
ATOM     29  N   UNL A   1      35.427  31.176  29.410  1.00  0.00    -0.352 N 
ATOM     30  C   UNL A   1      36.334  30.787  30.366  1.00  0.00     0.251 C 
ATOM     31  H   UNL A   1      34.659  31.695  29.739  1.00  0.00     0.163 HD
ATOM     32  O   UNL A   1      36.068  30.924  31.555  1.00  0.00    -0.269 OA
BRANCH  30  33
ATOM     33  C   UNL A   1      37.612  30.175  29.947  1.00  0.00     0.039 A 
ATOM     34  C   UNL A   1      37.920  30.128  28.586  1.00  0.00     0.014 A 
ATOM     35  C   UNL A   1      38.515  29.685  30.896  1.00  0.00     0.014 A 
ATOM     36  C   UNL A   1      39.170  29.658  28.182  1.00  0.00     0.010 A 
ATOM     37  C   UNL A   1      39.786  29.285  30.494  1.00  0.00     0.010 A 
ATOM     38  C   UNL A   1      40.130  29.274  29.134  1.00  0.00    -0.014 A 
BRANCH  38  39
ATOM     39  C   UNL A   1      41.508  28.900  28.723  1.00  0.00     0.031 A 
ATOM     40  C   UNL A   1      42.587  29.944  28.636  1.00  0.00     0.074 A 
ATOM     41  C   UNL A   1      41.768  27.626  28.366  1.00  0.00     0.049 A 
ATOM     42  N   UNL A   1      43.830  29.814  28.247  1.00  0.00    -0.248 NA
ATOM     43  C   UNL A   1      42.218  31.318  29.013  1.00  0.00     0.031 C 
ATOM     44  C   UNL A   1      40.791  26.534  28.359  1.00  0.00     0.029 A 
ATOM     45  N   UNL A   1      42.927  27.032  27.931  1.00  0.00    -0.354 N 
ATOM     46  C   UNL A   1      44.387  31.084  28.325  1.00  0.00     0.074 A 
ATOM     47  C   UNL A   1      43.334  31.982  28.748  1.00  0.00     0.031 C 
ATOM     48  C   UNL A   1      41.394  25.403  27.963  1.00  0.00     0.029 A 
ATOM     49  C   UNL A   1      42.788  25.694  27.646  1.00  0.00     0.049 A 
ATOM     50  H   UNL A   1      43.777  27.519  27.833  1.00  0.00     0.167 HD
ATOM     51  C   UNL A   1      45.666  31.464  28.086  1.00  0.00     0.037 A 
ATOM     52  C   UNL A   1      43.680  24.802  27.168  1.00  0.00     0.037 A 
ATOM     53  C   UNL A   1      46.712  30.561  27.679  1.00  0.00     0.049 A 
ATOM     54  C   UNL A   1      45.088  25.253  26.893  1.00  0.00     0.074 A 
ATOM     55  C   UNL A   1      48.052  30.835  27.473  1.00  0.00     0.029 A 
ATOM     56  N   UNL A   1      46.535  29.212  27.404  1.00  0.00    -0.354 N 
ATOM     57  N   UNL A   1      45.618  26.444  27.047  1.00  0.00    -0.248 NA
ATOM     58  C   UNL A   1      46.023  24.241  26.381  1.00  0.00     0.031 C 
ATOM     59  C   UNL A   1      48.675  29.668  27.019  1.00  0.00     0.029 A 
ATOM     60  C   UNL A   1      47.735  28.649  26.999  1.00  0.00     0.049 A 
ATOM     61  H   UNL A   1      45.682  28.726  27.486  1.00  0.00     0.167 HD
ATOM     62  C   UNL A   1      46.951  26.318  26.671  1.00  0.00     0.074 A 
ATOM     63  C   UNL A   1      47.152  24.932  26.303  1.00  0.00     0.031 C 
ATOM     64  C   UNL A   1      47.920  27.266  26.633  1.00  0.00     0.037 A 
BRANCH  51  65
ATOM     65  C   UNL A   1      46.010  32.919  28.258  1.00  0.00     0.058 A 
ATOM     66  C   UNL A   1      46.454  33.432  29.488  1.00  0.00     0.135 A 
ATOM     67  C   UNL A   1      45.944  33.803  27.168  1.00  0.00     0.135 A 
ATOM     68  F   UNL A   1      46.523  32.637  30.568  1.00  0.00    -0.206 F 
ATOM     69  C   UNL A   1      46.794  34.774  29.638  1.00  0.00     0.059 A 
ATOM     70  C   UNL A   1      46.308  35.141  27.287  1.00  0.00     0.059 A 
ATOM     71  F   UNL A   1      45.526  33.367  25.969  1.00  0.00    -0.206 F 
ATOM     72  C   UNL A   1      46.720  35.619  28.531  1.00  0.00     0.060 A 
BRANCH  72  73
ATOM     73  S   UNL A   1      47.179  37.353  28.740  1.00  0.00     0.124 S 
ATOM     74  O   UNL A   1      48.549  37.353  28.236  1.00  0.00    -0.237 OA
ATOM     75  O   UNL A   1      46.197  38.037  27.906  1.00  0.00    -0.237 OA
ATOM     76  O   UNL A   1      47.039  37.572  30.177  1.00  0.00    -0.744 OA
ENDBRANCH  72  73
ENDBRANCH  51  65
BRANCH  52  77
ATOM     77  C   UNL A   1      43.266  23.394  26.926  1.00  0.00     0.058 A 
ATOM     78  C   UNL A   1      43.069  22.910  25.624  1.00  0.00     0.135 A 
ATOM     79  C   UNL A   1      43.067  22.500  27.990  1.00  0.00     0.135 A 
ATOM     80  F   UNL A   1      43.238  23.727  24.573  1.00  0.00    -0.206 F 
ATOM     81  C   UNL A   1      42.672  21.599  25.385  1.00  0.00     0.059 A 
ATOM     82  C   UNL A   1      42.698  21.176  27.775  1.00  0.00     0.059 A 
ATOM     83  F   UNL A   1      43.257  22.907  29.255  1.00  0.00    -0.206 F 
ATOM     84  C   UNL A   1      42.493  20.737  26.468  1.00  0.00     0.060 A 
BRANCH  84  85
ATOM     85  S   UNL A   1      42.024  19.023  26.144  1.00  0.00     0.124 S 
ATOM     86  O   UNL A   1      42.274  18.401  27.439  1.00  0.00    -0.237 OA
ATOM     87  O   UNL A   1      40.623  19.158  25.760  1.00  0.00    -0.237 OA
ATOM     88  O   UNL A   1      42.926  18.627  25.067  1.00  0.00    -0.744 OA
ENDBRANCH  84  85
ENDBRANCH  52  77
BRANCH  64  89
ATOM     89  C   UNL A   1      49.294  26.834  26.194  1.00  0.00     0.058 A 
ATOM     90  C   UNL A   1      49.746  27.036  24.881  1.00  0.00     0.135 A 
ATOM     91  C   UNL A   1      50.186  26.253  27.112  1.00  0.00     0.135 A 
ATOM     92  F   UNL A   1      48.933  27.579  23.961  1.00  0.00    -0.206 F 
ATOM     93  C   UNL A   1      51.025  26.655  24.486  1.00  0.00     0.059 A 
ATOM     94  C   UNL A   1      51.478  25.894  26.748  1.00  0.00     0.059 A 
ATOM     95  F   UNL A   1      49.807  26.047  28.384  1.00  0.00    -0.206 F 
ATOM     96  C   UNL A   1      51.886  26.088  25.428  1.00  0.00     0.060 A 
BRANCH  96  97
ATOM     97  S   UNL A   1      53.553  25.630  24.910  1.00  0.00     0.124 S 
ATOM     98  O   UNL A   1      53.603  24.222  25.291  1.00  0.00    -0.237 OA
ATOM     99  O   UNL A   1      53.518  25.898  23.476  1.00  0.00    -0.237 OA
ATOM    100  O   UNL A   1      54.409  26.521  25.688  1.00  0.00    -0.744 OA
ENDBRANCH  96  97
ENDBRANCH  64  89
ENDBRANCH  38  39
ENDBRANCH  30  33
ENDBRANCH  28  29
ENDBRANCH  27  28
ENDBRANCH  26  27
ENDBRANCH   1  26
TORSDOF 20
ENDMDL
MODEL 3
REMARK VINA RESULT:     -10.9      6.857     12.006
REMARK SMILES C[C@@H]1C[C@@H]1C(=O)NCCC(=O)N[C@@](C)(C(=O)NCCCCNC(=O)c1ccc(-c2c3nc(c(-c4c(F)cc(S(=O)(=O)[O-])cc4F)c4ccc([nH]4)c(-c4c(F)cc(S(=O)(=O)[O-])cc4F)c4nc(c(-c5c(F)cc(S(=O)(=O)[O-])cc5F)c5ccc2[nH]5)C=C4)C=C3)cc1)C(F)(F)F
REMARK SMILES IDX 18 1 17 2 15 3 16 4 13 6 14 7 12 8 10 9 11 10 9 12 8 13 7 14
REMARK SMILES IDX 5 15 6 16 4 18 1 19 2 20 3 21 91 22 92 23 93 24 94 25 19 26
REMARK SMILES IDX 20 27 21 28 22 29 23 30 24 32 25 33 26 34 90 35 27 36 89 37
REMARK SMILES IDX 28 38 29 39 30 40 83 41 31 42 88 43 82 44 84 45 32 46 87 47
REMARK SMILES IDX 81 48 80 49 33 51 67 52 46 53 66 54 47 55 50 56 65 57 85 58
REMARK SMILES IDX 48 59 49 60 64 62 86 63 51 64 34 65 35 66 44 67 36 68 37 69
REMARK SMILES IDX 43 70 45 71 38 72 39 73 40 74 41 75 42 76 68 77 69 78 78 79
REMARK SMILES IDX 70 80 71 81 77 82 79 83 72 84 73 85 74 86 75 87 76 88 52 89
REMARK SMILES IDX 53 90 62 91 54 92 55 93 61 94 63 95 56 96 57 97 58 98 59 99
REMARK SMILES IDX 60 100
REMARK H PARENT 17 5 12 11 7 17 22 31 84 50 50 61
REMARK Flexibility Score: inf
ROOT
ATOM      1  C   UNL A   1      35.608  22.499  24.075  1.00  0.00     0.116 C 
ENDROOT
BRANCH   1   2
ATOM      2  N   UNL A   1      35.081  21.859  25.266  1.00  0.00    -0.354 N 
ATOM      3  C   UNL A   1      33.946  21.991  26.000  1.00  0.00     0.254 C 
ATOM      4  O   UNL A   1      33.886  21.231  26.970  1.00  0.00    -0.272 OA
ATOM      5  H   UNL A   1      35.685  21.168  25.624  1.00  0.00     0.163 HD
BRANCH   3   6
ATOM      6  C   UNL A   1      32.779  22.911  25.577  1.00  0.00     0.212 C 
ATOM      7  C   UNL A   1      31.601  22.595  26.519  1.00  0.00     0.056 C 
BRANCH   6   8
ATOM      8  N   UNL A   1      32.396  22.575  24.156  1.00  0.00    -0.335 N 
ATOM      9  C   UNL A   1      32.458  21.446  23.400  1.00  0.00     0.222 C 
ATOM     10  O   UNL A   1      32.479  21.597  22.174  1.00  0.00    -0.275 OA
ATOM     11  H   UNL A   1      32.019  23.342  23.669  1.00  0.00     0.164 HD
BRANCH   9  12
ATOM     12  C   UNL A   1      32.403  20.052  23.981  1.00  0.00     0.121 C 
BRANCH  12  13
ATOM     13  C   UNL A   1      31.890  18.956  23.053  1.00  0.00     0.125 C 
BRANCH  13  14
ATOM     14  N   UNL A   1      32.863  17.965  22.633  1.00  0.00    -0.355 N 
ATOM     15  C   UNL A   1      33.478  16.936  23.298  1.00  0.00     0.223 C 
ATOM     16  O   UNL A   1      34.275  16.237  22.671  1.00  0.00    -0.275 OA
ATOM     17  H   UNL A   1      33.133  18.047  21.691  1.00  0.00     0.163 HD
BRANCH  15  18
ATOM     18  C   UNL A   1      33.170  16.661  24.728  1.00  0.00     0.081 C 
ATOM     19  C   UNL A   1      35.591  15.772  25.452  1.00  0.00     0.008 C 
ATOM     20  C   UNL A   1      34.163  16.091  25.736  1.00  0.00    -0.001 C 
ATOM     21  C   UNL A   1      33.080  15.214  25.177  1.00  0.00     0.018 C 
ENDBRANCH  15  18
ENDBRANCH  13  14
ENDBRANCH  12  13
ENDBRANCH   9  12
ENDBRANCH   6   8
BRANCH   6  22
ATOM     22  C   UNL A   1      33.326  24.334  25.824  1.00  0.00     0.420 C 
ATOM     23  F   UNL A   1      34.384  24.332  26.667  1.00  0.00    -0.168 F 
ATOM     24  F   UNL A   1      33.762  24.902  24.678  1.00  0.00    -0.168 F 
ATOM     25  F   UNL A   1      32.397  25.191  26.302  1.00  0.00    -0.168 F 
ENDBRANCH   6  22
ENDBRANCH   3   6
ENDBRANCH   1   2
BRANCH   1  26
ATOM     26  C   UNL A   1      37.004  23.055  24.355  1.00  0.00     0.023 C 
BRANCH  26  27
ATOM     27  C   UNL A   1      37.324  23.227  25.847  1.00  0.00     0.023 C 
BRANCH  27  28
ATOM     28  C   UNL A   1      38.300  24.353  26.172  1.00  0.00     0.116 C 
BRANCH  28  29
ATOM     29  N   UNL A   1      39.677  23.889  26.221  1.00  0.00    -0.352 N 
ATOM     30  C   UNL A   1      40.755  24.460  26.853  1.00  0.00     0.251 C 
ATOM     31  H   UNL A   1      39.862  23.053  25.736  1.00  0.00     0.163 HD
ATOM     32  O   UNL A   1      41.886  24.038  26.639  1.00  0.00    -0.269 OA
BRANCH  30  33
ATOM     33  C   UNL A   1      40.539  25.604  27.764  1.00  0.00     0.039 A 
ATOM     34  C   UNL A   1      39.553  25.505  28.746  1.00  0.00     0.014 A 
ATOM     35  C   UNL A   1      41.332  26.752  27.669  1.00  0.00     0.014 A 
ATOM     36  C   UNL A   1      39.413  26.528  29.684  1.00  0.00     0.010 A 
ATOM     37  C   UNL A   1      41.238  27.737  28.648  1.00  0.00     0.010 A 
ATOM     38  C   UNL A   1      40.283  27.631  29.670  1.00  0.00    -0.014 A 
BRANCH  38  39
ATOM     39  C   UNL A   1      40.232  28.659  30.743  1.00  0.00     0.031 A 
ATOM     40  C   UNL A   1      41.104  28.534  31.961  1.00  0.00     0.074 A 
ATOM     41  C   UNL A   1      39.348  29.674  30.643  1.00  0.00     0.049 A 
ATOM     42  N   UNL A   1      41.157  29.302  33.019  1.00  0.00    -0.248 NA
ATOM     43  C   UNL A   1      42.019  27.383  32.010  1.00  0.00     0.031 C 
ATOM     44  C   UNL A   1      38.413  29.874  29.534  1.00  0.00     0.029 A 
ATOM     45  N   UNL A   1      39.084  30.722  31.489  1.00  0.00    -0.354 N 
ATOM     46  C   UNL A   1      42.102  28.727  33.860  1.00  0.00     0.074 A 
ATOM     47  C   UNL A   1      42.560  27.516  33.214  1.00  0.00     0.031 C 
ATOM     48  C   UNL A   1      37.695  30.985  29.756  1.00  0.00     0.029 A 
ATOM     49  C   UNL A   1      38.085  31.554  31.041  1.00  0.00     0.049 A 
ATOM     50  H   UNL A   1      39.564  30.864  32.336  1.00  0.00     0.167 HD
ATOM     51  C   UNL A   1      42.562  29.178  35.052  1.00  0.00     0.037 A 
ATOM     52  C   UNL A   1      37.533  32.646  31.608  1.00  0.00     0.037 A 
ATOM     53  C   UNL A   1      42.110  30.393  35.681  1.00  0.00     0.049 A 
ATOM     54  C   UNL A   1      38.048  33.117  32.941  1.00  0.00     0.074 A 
ATOM     55  C   UNL A   1      42.558  30.970  36.857  1.00  0.00     0.029 A 
ATOM     56  N   UNL A   1      41.101  31.212  35.195  1.00  0.00    -0.354 N 
ATOM     57  N   UNL A   1      38.999  32.603  33.686  1.00  0.00    -0.248 NA
ATOM     58  C   UNL A   1      37.420  34.316  33.512  1.00  0.00     0.031 C 
ATOM     59  C   UNL A   1      41.782  32.105  37.112  1.00  0.00     0.029 A 
ATOM     60  C   UNL A   1      40.890  32.271  36.065  1.00  0.00     0.049 A 
ATOM     61  H   UNL A   1      40.607  31.064  34.356  1.00  0.00     0.167 HD
ATOM     62  C   UNL A   1      39.095  33.428  34.801  1.00  0.00     0.074 A 
ATOM     63  C   UNL A   1      38.122  34.485  34.623  1.00  0.00     0.031 C 
ATOM     64  C   UNL A   1      39.914  33.317  35.876  1.00  0.00     0.037 A 
BRANCH  51  65
ATOM     65  C   UNL A   1      43.608  28.359  35.757  1.00  0.00     0.058 A 
ATOM     66  C   UNL A   1      44.980  28.569  35.543  1.00  0.00     0.135 A 
ATOM     67  C   UNL A   1      43.237  27.382  36.697  1.00  0.00     0.135 A 
ATOM     68  F   UNL A   1      45.393  29.478  34.646  1.00  0.00    -0.206 F 
ATOM     69  C   UNL A   1      45.946  27.825  36.215  1.00  0.00     0.059 A 
ATOM     70  C   UNL A   1      44.185  26.647  37.403  1.00  0.00     0.059 A 
ATOM     71  F   UNL A   1      41.940  27.138  36.942  1.00  0.00    -0.206 F 
ATOM     72  C   UNL A   1      45.537  26.868  37.145  1.00  0.00     0.060 A 
BRANCH  72  73
ATOM     73  S   UNL A   1      46.804  25.923  38.018  1.00  0.00     0.124 S 
ATOM     74  O   UNL A   1      48.018  26.627  37.620  1.00  0.00    -0.237 OA
ATOM     75  O   UNL A   1      46.405  26.084  39.413  1.00  0.00    -0.237 OA
ATOM     76  O   UNL A   1      46.656  24.574  37.479  1.00  0.00    -0.744 OA
ENDBRANCH  72  73
ENDBRANCH  51  65
BRANCH  52  77
ATOM     77  C   UNL A   1      36.435  33.371  30.912  1.00  0.00     0.058 A 
ATOM     78  C   UNL A   1      35.114  33.300  31.376  1.00  0.00     0.135 A 
ATOM     79  C   UNL A   1      36.687  34.156  29.775  1.00  0.00     0.135 A 
ATOM     80  F   UNL A   1      34.820  32.557  32.454  1.00  0.00    -0.206 F 
ATOM     81  C   UNL A   1      34.077  33.965  30.729  1.00  0.00     0.059 A 
ATOM     82  C   UNL A   1      35.672  34.853  29.128  1.00  0.00     0.059 A 
ATOM     83  F   UNL A   1      37.937  34.270  29.300  1.00  0.00    -0.206 F 
ATOM     84  C   UNL A   1      34.367  34.742  29.607  1.00  0.00     0.060 A 
BRANCH  84  85
ATOM     85  S   UNL A   1      33.021  35.639  28.803  1.00  0.00     0.124 S 
ATOM     86  O   UNL A   1      33.753  36.648  28.045  1.00  0.00    -0.237 OA
ATOM     87  O   UNL A   1      32.381  34.589  28.017  1.00  0.00    -0.237 OA
ATOM     88  O   UNL A   1      32.234  36.140  29.926  1.00  0.00    -0.744 OA
ENDBRANCH  84  85
ENDBRANCH  52  77
BRANCH  64  89
ATOM     89  C   UNL A   1      39.809  34.378  36.939  1.00  0.00     0.058 A 
ATOM     90  C   UNL A   1      39.009  34.203  38.079  1.00  0.00     0.135 A 
ATOM     91  C   UNL A   1      40.554  35.566  36.837  1.00  0.00     0.135 A 
ATOM     92  F   UNL A   1      38.270  33.092  38.222  1.00  0.00    -0.206 F 
ATOM     93  C   UNL A   1      38.932  35.178  39.069  1.00  0.00     0.059 A 
ATOM     94  C   UNL A   1      40.516  36.538  37.830  1.00  0.00     0.059 A 
ATOM     95  F   UNL A   1      41.342  35.780  35.773  1.00  0.00    -0.206 F 
ATOM     96  C   UNL A   1      39.692  36.341  38.938  1.00  0.00     0.060 A 
BRANCH  96  97
ATOM     97  S   UNL A   1      39.608  37.581  40.247  1.00  0.00     0.124 S 
ATOM     98  O   UNL A   1      39.048  36.807  41.350  1.00  0.00    -0.237 OA
ATOM     99  O   UNL A   1      41.006  37.973  40.393  1.00  0.00    -0.237 OA
ATOM    100  O   UNL A   1      38.730  38.606  39.690  1.00  0.00    -0.744 OA
ENDBRANCH  96  97
ENDBRANCH  64  89
ENDBRANCH  38  39
ENDBRANCH  30  33
ENDBRANCH  28  29
ENDBRANCH  27  28
ENDBRANCH  26  27
ENDBRANCH   1  26
TORSDOF 20
ENDMDL
