MODEL 1
REMARK VINA RESULT:     -12.0      0.000      0.000
REMARK SMILES O=C(NCCCCNC(=O)[C@@H]1CC[C@@H](CN2C(=O)CC3(CCCC3)CC2=O)O1)c1ccc(-c2c3nc(c(-c4c(F)cc(S(=O)(=O)[O-])cc4F)c4ccc([nH]4)c(-c4c(F)cc(S(=O)(=O)[O-])cc4F)c4nc(c(-c5c(F)cc(S(=O)(=O)[O-])cc5F)c5ccc2[nH]5)C=C4)C=C3)cc1
REMARK SMILES IDX 5 1 4 2 3 3 1 4 2 5 29 7 30 8 94 9 31 10 93 11 32 12 33 13
REMARK SMILES IDX 34 14 87 15 35 16 92 17 86 18 88 19 36 20 91 21 85 22 84 23
REMARK SMILES IDX 37 25 71 26 50 27 70 28 51 29 54 30 69 31 89 32 52 33 53 34
REMARK SMILES IDX 68 36 90 37 55 38 38 39 39 40 48 41 40 42 41 43 47 44 49 45
REMARK SMILES IDX 42 46 43 47 44 48 45 49 46 50 72 51 73 52 82 53 74 54 75 55
REMARK SMILES IDX 81 56 83 57 76 58 77 59 78 60 79 61 80 62 56 63 57 64 66 65
REMARK SMILES IDX 58 66 59 67 65 68 67 69 60 70 61 71 62 72 63 73 64 74 6 75
REMARK SMILES IDX 7 76 8 77 9 78 10 80 11 81 12 82 28 83 13 84 14 85 15 86
REMARK SMILES IDX 16 87 17 88 26 89 18 90 19 91 25 92 27 93 20 94 21 95 24 96
REMARK SMILES IDX 22 97 23 98
REMARK H PARENT 3 6 88 24 54 35 8 79
REMARK Flexibility Score: inf
ROOT
ATOM      1  C   UNL A   1      33.949  27.938  25.491  1.00  0.00     0.023 C 
ENDROOT
BRANCH   1   2
ATOM      2  C   UNL A   1      33.582  28.108  26.962  1.00  0.00     0.116 C 
BRANCH   2   3
ATOM      3  N   UNL A   1      33.346  29.493  27.337  1.00  0.00    -0.352 N 
ATOM      4  O   UNL A   1      33.810  31.481  28.299  1.00  0.00    -0.269 OA
ATOM      5  C   UNL A   1      34.215  30.379  27.936  1.00  0.00     0.251 C 
ATOM      6  H   UNL A   1      32.448  29.845  27.136  1.00  0.00     0.163 HD
BRANCH   5   7
ATOM      7  C   UNL A   1      35.623  29.986  28.169  1.00  0.00     0.039 A 
ATOM      8  C   UNL A   1      36.041  29.536  29.423  1.00  0.00     0.014 A 
ATOM      9  C   UNL A   1      36.541  30.073  27.117  1.00  0.00     0.014 A 
ATOM     10  C   UNL A   1      37.394  29.306  29.661  1.00  0.00     0.010 A 
ATOM     11  C   UNL A   1      37.889  29.772  27.339  1.00  0.00     0.010 A 
ATOM     12  C   UNL A   1      38.332  29.416  28.622  1.00  0.00    -0.014 A 
BRANCH  12  13
ATOM     13  C   UNL A   1      39.760  29.107  28.896  1.00  0.00     0.031 A 
ATOM     14  C   UNL A   1      40.663  30.114  29.557  1.00  0.00     0.074 A 
ATOM     15  C   UNL A   1      40.228  27.883  28.582  1.00  0.00     0.049 A 
ATOM     16  N   UNL A   1      41.923  29.993  29.893  1.00  0.00    -0.248 NA
ATOM     17  C   UNL A   1      40.082  31.426  29.879  1.00  0.00     0.031 C 
ATOM     18  C   UNL A   1      39.450  26.827  27.927  1.00  0.00     0.029 A 
ATOM     19  N   UNL A   1      41.458  27.311  28.783  1.00  0.00    -0.354 N 
ATOM     20  C   UNL A   1      42.289  31.210  30.456  1.00  0.00     0.074 A 
ATOM     21  C   UNL A   1      41.124  32.068  30.390  1.00  0.00     0.031 C 
ATOM     22  C   UNL A   1      40.206  25.726  27.819  1.00  0.00     0.029 A 
ATOM     23  C   UNL A   1      41.536  26.009  28.348  1.00  0.00     0.049 A 
ATOM     24  H   UNL A   1      42.213  27.786  29.200  1.00  0.00     0.167 HD
ATOM     25  C   UNL A   1      43.482  31.573  30.989  1.00  0.00     0.037 A 
ATOM     26  C   UNL A   1      42.566  25.142  28.358  1.00  0.00     0.037 A 
ATOM     27  C   UNL A   1      44.634  30.711  31.059  1.00  0.00     0.049 A 
ATOM     28  C   UNL A   1      43.880  25.576  28.940  1.00  0.00     0.074 A 
ATOM     29  C   UNL A   1      45.885  30.985  31.587  1.00  0.00     0.029 A 
ATOM     30  N   UNL A   1      44.679  29.406  30.590  1.00  0.00    -0.354 N 
ATOM     31  N   UNL A   1      44.201  26.727  29.480  1.00  0.00    -0.248 NA
ATOM     32  C   UNL A   1      44.973  24.595  28.914  1.00  0.00     0.031 C 
ATOM     33  C   UNL A   1      46.695  29.856  31.409  1.00  0.00     0.029 A 
ATOM     34  C   UNL A   1      45.938  28.866  30.806  1.00  0.00     0.049 A 
ATOM     35  H   UNL A   1      43.928  28.933  30.165  1.00  0.00     0.167 HD
ATOM     36  C   UNL A   1      45.529  26.607  29.867  1.00  0.00     0.074 A 
ATOM     37  C   UNL A   1      45.946  25.262  29.519  1.00  0.00     0.031 C 
ATOM     38  C   UNL A   1      46.335  27.527  30.452  1.00  0.00     0.037 A 
BRANCH  25  39
ATOM     39  C   UNL A   1      43.607  32.969  31.537  1.00  0.00     0.058 A 
ATOM     40  C   UNL A   1      43.989  34.046  30.722  1.00  0.00     0.135 A 
ATOM     41  C   UNL A   1      43.297  33.242  32.879  1.00  0.00     0.135 A 
ATOM     42  F   UNL A   1      44.310  33.839  29.436  1.00  0.00    -0.206 F 
ATOM     43  C   UNL A   1      44.081  35.342  31.223  1.00  0.00     0.059 A 
ATOM     44  C   UNL A   1      43.360  34.533  33.396  1.00  0.00     0.059 A 
ATOM     45  F   UNL A   1      42.924  32.249  33.702  1.00  0.00    -0.206 F 
ATOM     46  C   UNL A   1      43.766  35.575  32.563  1.00  0.00     0.060 A 
BRANCH  46  47
ATOM     47  S   UNL A   1      43.888  37.261  33.199  1.00  0.00     0.124 S 
ATOM     48  O   UNL A   1      43.866  38.038  31.963  1.00  0.00    -0.237 OA
ATOM     49  O   UNL A   1      42.698  37.369  34.037  1.00  0.00    -0.237 OA
ATOM     50  O   UNL A   1      45.159  37.262  33.917  1.00  0.00    -0.744 OA
ENDBRANCH  46  47
ENDBRANCH  25  39
BRANCH  26  51
ATOM     51  C   UNL A   1      42.390  23.781  27.790  1.00  0.00     0.058 A 
ATOM     52  C   UNL A   1      42.361  23.573  26.405  1.00  0.00     0.135 A 
ATOM     53  C   UNL A   1      42.270  22.659  28.625  1.00  0.00     0.135 A 
ATOM     54  F   UNL A   1      42.468  24.615  25.566  1.00  0.00    -0.206 F 
ATOM     55  C   UNL A   1      42.202  22.300  25.864  1.00  0.00     0.059 A 
ATOM     56  C   UNL A   1      42.136  21.376  28.110  1.00  0.00     0.059 A 
ATOM     57  F   UNL A   1      42.311  22.806  29.959  1.00  0.00    -0.206 F 
ATOM     58  C   UNL A   1      42.090  21.208  26.727  1.00  0.00     0.060 A 
BRANCH  58  59
ATOM     59  S   UNL A   1      41.930  19.553  26.022  1.00  0.00     0.124 S 
ATOM     60  O   UNL A   1      40.509  19.509  25.700  1.00  0.00    -0.237 OA
ATOM     61  O   UNL A   1      42.841  19.611  24.883  1.00  0.00    -0.237 OA
ATOM     62  O   UNL A   1      42.360  18.683  27.114  1.00  0.00    -0.744 OA
ENDBRANCH  58  59
ENDBRANCH  26  51
BRANCH  38  63
ATOM     63  C   UNL A   1      47.739  27.100  30.768  1.00  0.00     0.058 A 
ATOM     64  C   UNL A   1      48.070  26.522  32.003  1.00  0.00     0.135 A 
ATOM     65  C   UNL A   1      48.760  27.247  29.815  1.00  0.00     0.135 A 
ATOM     66  F   UNL A   1      47.132  26.369  32.950  1.00  0.00    -0.206 F 
ATOM     67  C   UNL A   1      49.373  26.130  32.294  1.00  0.00     0.059 A 
ATOM     68  C   UNL A   1      50.064  26.841  30.077  1.00  0.00     0.059 A 
ATOM     69  F   UNL A   1      48.492  27.787  28.615  1.00  0.00    -0.206 F 
ATOM     70  C   UNL A   1      50.364  26.296  31.325  1.00  0.00     0.060 A 
BRANCH  70  71
ATOM     71  S   UNL A   1      52.047  25.765  31.704  1.00  0.00     0.124 S 
ATOM     72  O   UNL A   1      52.380  26.631  32.831  1.00  0.00    -0.237 OA
ATOM     73  O   UNL A   1      51.868  24.352  32.022  1.00  0.00    -0.237 OA
ATOM     74  O   UNL A   1      52.774  26.035  30.467  1.00  0.00    -0.744 OA
ENDBRANCH  70  71
ENDBRANCH  38  63
ENDBRANCH  12  13
ENDBRANCH   5   7
ENDBRANCH   2   3
ENDBRANCH   1   2
BRANCH   1  75
ATOM     75  C   UNL A   1      33.334  28.965  24.534  1.00  0.00     0.023 C 
BRANCH  75  76
ATOM     76  C   UNL A   1      33.165  28.481  23.092  1.00  0.00     0.116 C 
BRANCH  76  77
ATOM     77  N   UNL A   1      32.017  29.093  22.443  1.00  0.00    -0.354 N 
ATOM     78  C   UNL A   1      30.738  28.616  22.331  1.00  0.00     0.249 C 
ATOM     79  H   UNL A   1      32.183  29.970  22.027  1.00  0.00     0.163 HD
ATOM     80  O   UNL A   1      29.913  29.277  21.700  1.00  0.00    -0.272 OA
BRANCH  78  81
ATOM     81  C   UNL A   1      30.392  27.276  22.993  1.00  0.00     0.207 C 
ATOM     82  C   UNL A   1      30.305  27.321  24.509  1.00  0.00     0.045 C 
ATOM     83  O   UNL A   1      31.382  26.281  22.682  1.00  0.00    -0.363 OA
ATOM     84  C   UNL A   1      30.613  25.890  24.882  1.00  0.00     0.037 C 
ATOM     85  C   UNL A   1      31.696  25.528  23.874  1.00  0.00     0.139 C 
BRANCH  85  86
ATOM     86  C   UNL A   1      31.821  24.022  23.537  1.00  0.00     0.160 C 
BRANCH  86  87
ATOM     87  N   UNL A   1      33.156  23.539  23.893  1.00  0.00    -0.280 N 
ATOM     88  C   UNL A   1      34.086  23.324  22.897  1.00  0.00     0.229 C 
ATOM     89  C   UNL A   1      33.382  23.202  25.217  1.00  0.00     0.229 C 
ATOM     90  O   UNL A   1      33.788  23.243  21.704  1.00  0.00    -0.274 OA
ATOM     91  C   UNL A   1      35.541  23.320  23.309  1.00  0.00     0.108 C 
ATOM     92  C   UNL A   1      34.772  23.513  25.695  1.00  0.00     0.108 C 
ATOM     93  O   UNL A   1      32.528  22.756  25.978  1.00  0.00    -0.274 OA
ATOM     94  C   UNL A   1      35.854  22.974  24.770  1.00  0.00    -0.012 C 
ATOM     95  C   UNL A   1      37.224  23.603  25.156  1.00  0.00     0.008 C 
ATOM     96  C   UNL A   1      36.047  21.452  24.977  1.00  0.00     0.008 C 
ATOM     97  C   UNL A   1      38.029  22.490  25.800  1.00  0.00     0.001 C 
ATOM     98  C   UNL A   1      37.556  21.253  25.062  1.00  0.00     0.001 C 
ENDBRANCH  86  87
ENDBRANCH  85  86
ENDBRANCH  78  81
ENDBRANCH  76  77
ENDBRANCH  75  76
ENDBRANCH   1  75
TORSDOF 16
ENDMDL
MODEL 2
REMARK VINA RESULT:     -11.8      0.516      8.151
REMARK SMILES O=C(NCCCCNC(=O)[C@@H]1CC[C@@H](CN2C(=O)CC3(CCCC3)CC2=O)O1)c1ccc(-c2c3nc(c(-c4c(F)cc(S(=O)(=O)[O-])cc4F)c4ccc([nH]4)c(-c4c(F)cc(S(=O)(=O)[O-])cc4F)c4nc(c(-c5c(F)cc(S(=O)(=O)[O-])cc5F)c5ccc2[nH]5)C=C4)C=C3)cc1
REMARK SMILES IDX 5 1 4 2 3 3 1 4 2 5 29 7 30 8 94 9 31 10 93 11 32 12 33 13
REMARK SMILES IDX 34 14 87 15 35 16 92 17 86 18 88 19 36 20 91 21 85 22 84 23
REMARK SMILES IDX 37 25 71 26 50 27 70 28 51 29 54 30 69 31 89 32 52 33 53 34
REMARK SMILES IDX 68 36 90 37 55 38 38 39 39 40 48 41 40 42 41 43 47 44 49 45
REMARK SMILES IDX 42 46 43 47 44 48 45 49 46 50 72 51 73 52 82 53 74 54 75 55
REMARK SMILES IDX 81 56 83 57 76 58 77 59 78 60 79 61 80 62 56 63 57 64 66 65
REMARK SMILES IDX 58 66 59 67 65 68 67 69 60 70 61 71 62 72 63 73 64 74 6 75
REMARK SMILES IDX 7 76 8 77 9 78 10 80 11 81 12 82 28 83 13 84 14 85 15 86
REMARK SMILES IDX 16 87 17 88 26 89 18 90 19 91 25 92 27 93 20 94 21 95 24 96
REMARK SMILES IDX 22 97 23 98
REMARK H PARENT 3 6 88 24 54 35 8 79
REMARK Flexibility Score: inf
ROOT
ATOM      1  C   UNL A   1      34.023  28.024  25.429  1.00  0.00     0.023 C 
ENDROOT
BRANCH   1   2
ATOM      2  C   UNL A   1      33.769  28.152  26.928  1.00  0.00     0.116 C 
BRANCH   2   3
ATOM      3  N   UNL A   1      33.519  29.520  27.352  1.00  0.00    -0.352 N 
ATOM      4  O   UNL A   1      33.956  31.471  28.397  1.00  0.00    -0.269 OA
ATOM      5  C   UNL A   1      34.372  30.387  27.999  1.00  0.00     0.251 C 
ATOM      6  H   UNL A   1      32.623  29.875  27.148  1.00  0.00     0.163 HD
BRANCH   5   7
ATOM      7  C   UNL A   1      35.779  29.992  28.242  1.00  0.00     0.039 A 
ATOM      8  C   UNL A   1      36.192  29.557  29.503  1.00  0.00     0.014 A 
ATOM      9  C   UNL A   1      36.700  30.062  27.191  1.00  0.00     0.014 A 
ATOM     10  C   UNL A   1      37.543  29.326  29.748  1.00  0.00     0.010 A 
ATOM     11  C   UNL A   1      38.047  29.759  27.421  1.00  0.00     0.010 A 
ATOM     12  C   UNL A   1      38.484  29.419  28.710  1.00  0.00    -0.014 A 
BRANCH  12  13
ATOM     13  C   UNL A   1      39.911  29.108  28.992  1.00  0.00     0.031 A 
ATOM     14  C   UNL A   1      40.498  27.765  28.651  1.00  0.00     0.074 A 
ATOM     15  C   UNL A   1      40.689  30.072  29.522  1.00  0.00     0.049 A 
ATOM     16  N   UNL A   1      41.728  27.343  28.803  1.00  0.00    -0.248 NA
ATOM     17  C   UNL A   1      39.591  26.765  28.068  1.00  0.00     0.031 C 
ATOM     18  C   UNL A   1      40.229  31.409  29.906  1.00  0.00     0.029 A 
ATOM     19  N   UNL A   1      42.029  30.087  29.815  1.00  0.00    -0.354 N 
ATOM     20  C   UNL A   1      41.743  26.031  28.346  1.00  0.00     0.074 A 
ATOM     21  C   UNL A   1      40.391  25.715  27.937  1.00  0.00     0.031 C 
ATOM     22  C   UNL A   1      41.274  32.126  30.342  1.00  0.00     0.029 A 
ATOM     23  C   UNL A   1      42.468  31.288  30.319  1.00  0.00     0.049 A 
ATOM     24  H   UNL A   1      42.620  29.312  29.675  1.00  0.00     0.167 HD
ATOM     25  C   UNL A   1      42.791  25.173  28.265  1.00  0.00     0.037 A 
ATOM     26  C   UNL A   1      43.691  31.670  30.731  1.00  0.00     0.037 A 
ATOM     27  C   UNL A   1      44.136  25.496  28.666  1.00  0.00     0.049 A 
ATOM     28  C   UNL A   1      44.829  30.696  30.645  1.00  0.00     0.074 A 
ATOM     29  C   UNL A   1      45.267  24.698  28.616  1.00  0.00     0.029 A 
ATOM     30  N   UNL A   1      44.536  26.717  29.191  1.00  0.00    -0.354 N 
ATOM     31  N   UNL A   1      44.825  29.463  30.197  1.00  0.00    -0.248 NA
ATOM     32  C   UNL A   1      46.138  31.161  31.121  1.00  0.00     0.031 C 
ATOM     33  C   UNL A   1      46.343  25.425  29.139  1.00  0.00     0.029 A 
ATOM     34  C   UNL A   1      45.892  26.689  29.478  1.00  0.00     0.049 A 
ATOM     35  H   UNL A   1      43.944  27.489  29.338  1.00  0.00     0.167 HD
ATOM     36  C   UNL A   1      46.130  29.008  30.327  1.00  0.00     0.074 A 
ATOM     37  C   UNL A   1      46.903  30.105  30.875  1.00  0.00     0.031 C 
ATOM     38  C   UNL A   1      46.644  27.790  30.025  1.00  0.00     0.037 A 
BRANCH  25  39
ATOM     39  C   UNL A   1      42.525  23.794  27.724  1.00  0.00     0.058 A 
ATOM     40  C   UNL A   1      42.463  23.546  26.344  1.00  0.00     0.135 A 
ATOM     41  C   UNL A   1      42.378  22.700  28.592  1.00  0.00     0.135 A 
ATOM     42  F   UNL A   1      42.582  24.557  25.470  1.00  0.00    -0.206 F 
ATOM     43  C   UNL A   1      42.241  22.266  25.843  1.00  0.00     0.059 A 
ATOM     44  C   UNL A   1      42.178  21.408  28.114  1.00  0.00     0.059 A 
ATOM     45  F   UNL A   1      42.431  22.881  29.922  1.00  0.00    -0.206 F 
ATOM     46  C   UNL A   1      42.099  21.203  26.737  1.00  0.00     0.060 A 
BRANCH  46  47
ATOM     47  S   UNL A   1      41.814  19.548  26.073  1.00  0.00     0.124 S 
ATOM     48  O   UNL A   1      42.700  19.545  24.913  1.00  0.00    -0.237 OA
ATOM     49  O   UNL A   1      42.219  18.689  27.182  1.00  0.00    -0.237 OA
ATOM     50  O   UNL A   1      40.385  19.544  25.770  1.00  0.00    -0.744 OA
ENDBRANCH  46  47
ENDBRANCH  25  39
BRANCH  26  51
ATOM     51  C   UNL A   1      43.892  33.040  31.271  1.00  0.00     0.058 A 
ATOM     52  C   UNL A   1      43.729  33.313  32.635  1.00  0.00     0.135 A 
ATOM     53  C   UNL A   1      44.275  34.098  30.431  1.00  0.00     0.135 A 
ATOM     54  F   UNL A   1      43.360  32.334  33.476  1.00  0.00    -0.206 F 
ATOM     55  C   UNL A   1      43.921  34.591  33.149  1.00  0.00     0.059 A 
ATOM     56  C   UNL A   1      44.498  35.378  30.924  1.00  0.00     0.059 A 
ATOM     57  F   UNL A   1      44.463  33.882  29.120  1.00  0.00    -0.206 F 
ATOM     58  C   UNL A   1      44.305  35.618  32.284  1.00  0.00     0.060 A 
BRANCH  58  59
ATOM     59  S   UNL A   1      44.599  37.266  32.962  1.00  0.00     0.124 S 
ATOM     60  O   UNL A   1      45.861  37.069  33.667  1.00  0.00    -0.237 OA
ATOM     61  O   UNL A   1      44.662  38.090  31.759  1.00  0.00    -0.237 OA
ATOM     62  O   UNL A   1      43.430  37.492  33.806  1.00  0.00    -0.744 OA
ENDBRANCH  58  59
ENDBRANCH  26  51
BRANCH  38  63
ATOM     63  C   UNL A   1      48.113  27.592  30.266  1.00  0.00     0.058 A 
ATOM     64  C   UNL A   1      48.593  27.059  31.471  1.00  0.00     0.135 A 
ATOM     65  C   UNL A   1      49.048  27.917  29.270  1.00  0.00     0.135 A 
ATOM     66  F   UNL A   1      47.740  26.742  32.457  1.00  0.00    -0.206 F 
ATOM     67  C   UNL A   1      49.955  26.880  31.693  1.00  0.00     0.059 A 
ATOM     68  C   UNL A   1      50.412  27.725  29.463  1.00  0.00     0.059 A 
ATOM     69  F   UNL A   1      48.638  28.422  28.096  1.00  0.00    -0.206 F 
ATOM     70  C   UNL A   1      50.857  27.218  30.683  1.00  0.00     0.060 A 
BRANCH  70  71
ATOM     71  S   UNL A   1      52.621  26.963  30.972  1.00  0.00     0.124 S 
ATOM     72  O   UNL A   1      53.158  27.074  29.620  1.00  0.00    -0.237 OA
ATOM     73  O   UNL A   1      52.954  28.058  31.878  1.00  0.00    -0.237 OA
ATOM     74  O   UNL A   1      52.677  25.630  31.565  1.00  0.00    -0.744 OA
ENDBRANCH  70  71
ENDBRANCH  38  63
ENDBRANCH  12  13
ENDBRANCH   5   7
ENDBRANCH   2   3
ENDBRANCH   1   2
BRANCH   1  75
ATOM     75  C   UNL A   1      33.267  29.022  24.544  1.00  0.00     0.023 C 
BRANCH  75  76
ATOM     76  C   UNL A   1      33.135  28.609  23.076  1.00  0.00     0.116 C 
BRANCH  76  77
ATOM     77  N   UNL A   1      32.008  29.259  22.428  1.00  0.00    -0.354 N 
ATOM     78  C   UNL A   1      30.723  28.807  22.283  1.00  0.00     0.249 C 
ATOM     79  H   UNL A   1      32.196  30.143  22.038  1.00  0.00     0.163 HD
ATOM     80  O   UNL A   1      29.919  29.499  21.658  1.00  0.00    -0.272 OA
BRANCH  78  81
ATOM     81  C   UNL A   1      30.343  27.456  22.903  1.00  0.00     0.207 C 
ATOM     82  C   UNL A   1      30.217  27.465  24.417  1.00  0.00     0.045 C 
ATOM     83  O   UNL A   1      31.330  26.457  22.593  1.00  0.00    -0.363 OA
ATOM     84  C   UNL A   1      30.499  26.021  24.762  1.00  0.00     0.037 C 
ATOM     85  C   UNL A   1      31.604  25.671  23.774  1.00  0.00     0.139 C 
BRANCH  85  86
ATOM     86  C   UNL A   1      31.720  24.172  23.404  1.00  0.00     0.160 C 
BRANCH  86  87
ATOM     87  N   UNL A   1      33.039  23.664  23.783  1.00  0.00    -0.280 N 
ATOM     88  C   UNL A   1      33.966  23.388  22.800  1.00  0.00     0.229 C 
ATOM     89  C   UNL A   1      33.250  23.367  25.119  1.00  0.00     0.229 C 
ATOM     90  O   UNL A   1      33.671  23.273  21.609  1.00  0.00    -0.274 OA
ATOM     91  C   UNL A   1      35.419  23.357  23.219  1.00  0.00     0.108 C 
ATOM     92  C   UNL A   1      34.647  23.655  25.593  1.00  0.00     0.108 C 
ATOM     93  O   UNL A   1      32.380  22.973  25.891  1.00  0.00    -0.274 OA
ATOM     94  C   UNL A   1      35.717  23.053  24.693  1.00  0.00    -0.012 C 
ATOM     95  C   UNL A   1      37.102  23.656  25.063  1.00  0.00     0.008 C 
ATOM     96  C   UNL A   1      35.865  21.534  24.953  1.00  0.00     0.008 C 
ATOM     97  C   UNL A   1      37.873  22.543  25.750  1.00  0.00     0.001 C 
ATOM     98  C   UNL A   1      37.367  21.295  25.053  1.00  0.00     0.001 C 
ENDBRANCH  86  87
ENDBRANCH  85  86
ENDBRANCH  78  81
ENDBRANCH  76  77
ENDBRANCH  75  76
ENDBRANCH   1  75
TORSDOF 16
ENDMDL
MODEL 3
REMARK VINA RESULT:     -11.8      4.562     10.374
REMARK SMILES O=C(NCCCCNC(=O)[C@@H]1CC[C@@H](CN2C(=O)CC3(CCCC3)CC2=O)O1)c1ccc(-c2c3nc(c(-c4c(F)cc(S(=O)(=O)[O-])cc4F)c4ccc([nH]4)c(-c4c(F)cc(S(=O)(=O)[O-])cc4F)c4nc(c(-c5c(F)cc(S(=O)(=O)[O-])cc5F)c5ccc2[nH]5)C=C4)C=C3)cc1
REMARK SMILES IDX 5 1 4 2 3 3 1 4 2 5 29 7 30 8 94 9 31 10 93 11 32 12 33 13
REMARK SMILES IDX 34 14 87 15 35 16 92 17 86 18 88 19 36 20 91 21 85 22 84 23
REMARK SMILES IDX 37 25 71 26 50 27 70 28 51 29 54 30 69 31 89 32 52 33 53 34
REMARK SMILES IDX 68 36 90 37 55 38 38 39 39 40 48 41 40 42 41 43 47 44 49 45
REMARK SMILES IDX 42 46 43 47 44 48 45 49 46 50 72 51 73 52 82 53 74 54 75 55
REMARK SMILES IDX 81 56 83 57 76 58 77 59 78 60 79 61 80 62 56 63 57 64 66 65
REMARK SMILES IDX 58 66 59 67 65 68 67 69 60 70 61 71 62 72 63 73 64 74 6 75
REMARK SMILES IDX 7 76 8 77 9 78 10 80 11 81 12 82 28 83 13 84 14 85 15 86
REMARK SMILES IDX 16 87 17 88 26 89 18 90 19 91 25 92 27 93 20 94 21 95 24 96
REMARK SMILES IDX 22 97 23 98
REMARK H PARENT 3 6 88 24 54 35 8 79
REMARK Flexibility Score: inf
ROOT
ATOM      1  C   UNL A   1      37.301  23.675  25.474  1.00  0.00     0.023 C 
ENDROOT
BRANCH   1   2
ATOM      2  C   UNL A   1      38.290  24.149  26.535  1.00  0.00     0.116 C 
BRANCH   2   3
ATOM      3  N   UNL A   1      39.676  24.071  26.101  1.00  0.00    -0.352 N 
ATOM      4  O   UNL A   1      41.828  24.728  25.934  1.00  0.00    -0.269 OA
ATOM      5  C   UNL A   1      40.744  24.847  26.497  1.00  0.00     0.251 C 
ATOM      6  H   UNL A   1      39.879  23.371  25.439  1.00  0.00     0.163 HD
BRANCH   5   7
ATOM      7  C   UNL A   1      40.568  25.846  27.577  1.00  0.00     0.039 A 
ATOM      8  C   UNL A   1      41.369  26.988  27.631  1.00  0.00     0.014 A 
ATOM      9  C   UNL A   1      39.587  25.633  28.552  1.00  0.00     0.014 A 
ATOM     10  C   UNL A   1      41.285  27.841  28.729  1.00  0.00     0.010 A 
ATOM     11  C   UNL A   1      39.455  26.531  29.617  1.00  0.00     0.010 A 
ATOM     12  C   UNL A   1      40.325  27.626  29.731  1.00  0.00    -0.014 A 
BRANCH  12  13
ATOM     13  C   UNL A   1      40.223  28.589  30.859  1.00  0.00     0.031 A 
ATOM     14  C   UNL A   1      41.140  28.497  32.048  1.00  0.00     0.074 A 
ATOM     15  C   UNL A   1      39.317  29.583  30.780  1.00  0.00     0.049 A 
ATOM     16  N   UNL A   1      41.203  29.273  33.101  1.00  0.00    -0.248 NA
ATOM     17  C   UNL A   1      42.109  27.390  32.063  1.00  0.00     0.031 C 
ATOM     18  C   UNL A   1      38.365  29.769  29.681  1.00  0.00     0.029 A 
ATOM     19  N   UNL A   1      39.057  30.633  31.623  1.00  0.00    -0.354 N 
ATOM     20  C   UNL A   1      42.207  28.748  33.906  1.00  0.00     0.074 A 
ATOM     21  C   UNL A   1      42.708  27.567  33.233  1.00  0.00     0.031 C 
ATOM     22  C   UNL A   1      37.655  30.885  29.896  1.00  0.00     0.029 A 
ATOM     23  C   UNL A   1      38.064  31.469  31.169  1.00  0.00     0.049 A 
ATOM     24  H   UNL A   1      39.537  30.776  32.471  1.00  0.00     0.167 HD
ATOM     25  C   UNL A   1      42.675  29.215  35.090  1.00  0.00     0.037 A 
ATOM     26  C   UNL A   1      37.529  32.574  31.722  1.00  0.00     0.037 A 
ATOM     27  C   UNL A   1      42.178  30.395  35.750  1.00  0.00     0.049 A 
ATOM     28  C   UNL A   1      38.055  33.060  33.041  1.00  0.00     0.074 A 
ATOM     29  C   UNL A   1      42.592  30.953  36.948  1.00  0.00     0.029 A 
ATOM     30  N   UNL A   1      41.158  31.203  35.269  1.00  0.00    -0.354 N 
ATOM     31  N   UNL A   1      39.015  32.556  33.780  1.00  0.00    -0.248 NA
ATOM     32  C   UNL A   1      37.427  34.261  33.604  1.00  0.00     0.031 C 
ATOM     33  C   UNL A   1      41.801  32.079  37.206  1.00  0.00     0.029 A 
ATOM     34  C   UNL A   1      40.922  32.247  36.150  1.00  0.00     0.049 A 
ATOM     35  H   UNL A   1      40.672  31.057  34.425  1.00  0.00     0.167 HD
ATOM     36  C   UNL A   1      39.113  33.384  34.890  1.00  0.00     0.074 A 
ATOM     37  C   UNL A   1      38.130  34.435  34.715  1.00  0.00     0.031 C 
ATOM     38  C   UNL A   1      39.938  33.282  35.961  1.00  0.00     0.037 A 
BRANCH  25  39
ATOM     39  C   UNL A   1      43.782  28.444  35.757  1.00  0.00     0.058 A 
ATOM     40  C   UNL A   1      43.512  27.402  36.659  1.00  0.00     0.135 A 
ATOM     41  C   UNL A   1      45.127  28.717  35.457  1.00  0.00     0.135 A 
ATOM     42  F   UNL A   1      42.246  27.110  36.992  1.00  0.00    -0.206 F 
ATOM     43  C   UNL A   1      44.536  26.673  37.257  1.00  0.00     0.059 A 
ATOM     44  C   UNL A   1      46.166  27.986  36.026  1.00  0.00     0.059 A 
ATOM     45  F   UNL A   1      45.442  29.701  34.600  1.00  0.00    -0.206 F 
ATOM     46  C   UNL A   1      45.861  26.974  36.935  1.00  0.00     0.060 A 
BRANCH  46  47
ATOM     47  S   UNL A   1      47.178  26.018  37.718  1.00  0.00     0.124 S 
ATOM     48  O   UNL A   1      48.365  26.592  37.090  1.00  0.00    -0.237 OA
ATOM     49  O   UNL A   1      46.996  26.331  39.132  1.00  0.00    -0.237 OA
ATOM     50  O   UNL A   1      46.871  24.642  37.339  1.00  0.00    -0.744 OA
ENDBRANCH  46  47
ENDBRANCH  25  39
BRANCH  26  51
ATOM     51  C   UNL A   1      36.427  33.287  31.025  1.00  0.00     0.058 A 
ATOM     52  C   UNL A   1      35.111  33.229  31.503  1.00  0.00     0.135 A 
ATOM     53  C   UNL A   1      36.677  34.059  29.880  1.00  0.00     0.135 A 
ATOM     54  F   UNL A   1      34.824  32.501  32.593  1.00  0.00    -0.206 F 
ATOM     55  C   UNL A   1      34.075  33.898  30.860  1.00  0.00     0.059 A 
ATOM     56  C   UNL A   1      35.663  34.757  29.235  1.00  0.00     0.059 A 
ATOM     57  F   UNL A   1      37.924  34.161  29.396  1.00  0.00    -0.206 F 
ATOM     58  C   UNL A   1      34.362  34.660  29.726  1.00  0.00     0.060 A 
BRANCH  58  59
ATOM     59  S   UNL A   1      33.022  35.565  28.921  1.00  0.00     0.124 S 
ATOM     60  O   UNL A   1      32.251  36.026  30.069  1.00  0.00    -0.237 OA
ATOM     61  O   UNL A   1      33.744  36.596  28.181  1.00  0.00    -0.237 OA
ATOM     62  O   UNL A   1      32.381  34.546  28.095  1.00  0.00    -0.744 OA
ENDBRANCH  58  59
ENDBRANCH  26  51
BRANCH  38  63
ATOM     63  C   UNL A   1      39.821  34.347  37.014  1.00  0.00     0.058 A 
ATOM     64  C   UNL A   1      39.031  34.164  38.158  1.00  0.00     0.135 A 
ATOM     65  C   UNL A   1      40.528  35.554  36.887  1.00  0.00     0.135 A 
ATOM     66  F   UNL A   1      38.330  33.031  38.320  1.00  0.00    -0.206 F 
ATOM     67  C   UNL A   1      38.922  35.153  39.131  1.00  0.00     0.059 A 
ATOM     68  C   UNL A   1      40.451  36.547  37.858  1.00  0.00     0.059 A 
ATOM     69  F   UNL A   1      41.304  35.774  35.814  1.00  0.00    -0.206 F 
ATOM     70  C   UNL A   1      39.634  36.342  38.969  1.00  0.00     0.060 A 
BRANCH  70  71
ATOM     71  S   UNL A   1      39.503  37.612  40.246  1.00  0.00     0.124 S 
ATOM     72  O   UNL A   1      40.892  38.038  40.379  1.00  0.00    -0.237 OA
ATOM     73  O   UNL A   1      38.598  38.582  39.636  1.00  0.00    -0.237 OA
ATOM     74  O   UNL A   1      38.954  36.888  41.389  1.00  0.00    -0.744 OA
ENDBRANCH  70  71
ENDBRANCH  38  63
ENDBRANCH  12  13
ENDBRANCH   5   7
ENDBRANCH   2   3
ENDBRANCH   1   2
BRANCH   1  75
ATOM     75  C   UNL A   1      36.085  22.906  26.002  1.00  0.00     0.023 C 
BRANCH  75  76
ATOM     76  C   UNL A   1      34.857  22.941  25.089  1.00  0.00     0.116 C 
BRANCH  76  77
ATOM     77  N   UNL A   1      33.975  21.809  25.321  1.00  0.00    -0.354 N 
ATOM     78  C   UNL A   1      32.667  21.648  24.946  1.00  0.00     0.249 C 
ATOM     79  H   UNL A   1      34.372  21.056  25.815  1.00  0.00     0.163 HD
ATOM     80  O   UNL A   1      32.078  20.619  25.279  1.00  0.00    -0.272 OA
BRANCH  78  81
ATOM     81  C   UNL A   1      31.993  22.760  24.132  1.00  0.00     0.207 C 
ATOM     82  C   UNL A   1      32.734  23.161  22.868  1.00  0.00     0.045 C 
ATOM     83  O   UNL A   1      31.865  23.960  24.914  1.00  0.00    -0.363 OA
ATOM     84  C   UNL A   1      32.268  24.585  22.671  1.00  0.00     0.037 C 
ATOM     85  C   UNL A   1      32.220  25.101  24.104  1.00  0.00     0.139 C 
BRANCH  85  86
ATOM     86  C   UNL A   1      31.235  26.268  24.361  1.00  0.00     0.160 C 
BRANCH  86  87
ATOM     87  N   UNL A   1      31.893  27.314  25.146  1.00  0.00    -0.280 N 
ATOM     88  C   UNL A   1      31.669  27.382  26.505  1.00  0.00     0.229 C 
ATOM     89  C   UNL A   1      32.619  28.270  24.455  1.00  0.00     0.229 C 
ATOM     90  O   UNL A   1      30.739  26.799  27.065  1.00  0.00    -0.274 OA
ATOM     91  C   UNL A   1      32.706  28.109  27.333  1.00  0.00     0.108 C 
ATOM     92  C   UNL A   1      33.845  28.746  25.184  1.00  0.00     0.108 C 
ATOM     93  O   UNL A   1      32.356  28.660  23.321  1.00  0.00    -0.274 OA
ATOM     94  C   UNL A   1      33.557  29.166  26.619  1.00  0.00    -0.012 C 
ATOM     95  C   UNL A   1      34.900  29.334  27.385  1.00  0.00     0.008 C 
ATOM     96  C   UNL A   1      32.899  30.566  26.662  1.00  0.00     0.008 C 
ATOM     97  C   UNL A   1      35.077  30.828  27.595  1.00  0.00     0.001 C 
ATOM     98  C   UNL A   1      33.653  31.324  27.748  1.00  0.00     0.001 C 
ENDBRANCH  86  87
ENDBRANCH  85  86
ENDBRANCH  78  81
ENDBRANCH  76  77
ENDBRANCH  75  76
ENDBRANCH   1  75
TORSDOF 16
ENDMDL
