MODEL 1
REMARK VINA RESULT:     -11.7      0.000      0.000
REMARK SMILES CC(C)n1c([C@H](O)CC(=O)NCCCCNC(=O)c2ccc(-c3c4nc(c(-c5c(F)cc(S(=O)(=O)[O-])cc5F)c5ccc([nH]5)c(-c5c(F)cc(S(=O)(=O)[O-])cc5F)c5nc(c(-c6c(F)cc(S(=O)(=O)[O-])cc6F)c6ccc3[nH]6)C=C5)C=C4)cc2)nc2cc(Cl)ccc21
REMARK SMILES IDX 13 1 12 2 11 3 9 4 10 5 8 7 6 8 5 9 4 10 92 11 85 12 86 13
REMARK SMILES IDX 91 14 87 15 90 16 88 17 89 18 2 19 1 20 3 21 7 22 14 24
REMARK SMILES IDX 15 25 16 26 17 27 18 29 19 30 20 31 84 32 21 33 83 34 22 35
REMARK SMILES IDX 23 36 24 37 77 38 25 39 82 40 76 41 78 42 26 43 81 44 75 45
REMARK SMILES IDX 74 46 27 48 61 49 40 50 60 51 41 52 44 53 59 54 79 55 42 56
REMARK SMILES IDX 43 57 58 59 80 60 45 61 28 62 29 63 38 64 30 65 31 66 37 67
REMARK SMILES IDX 39 68 32 69 33 70 34 71 35 72 36 73 62 74 63 75 72 76 64 77
REMARK SMILES IDX 65 78 71 79 73 80 66 81 67 82 68 83 69 84 70 85 46 86 47 87
REMARK SMILES IDX 56 88 48 89 49 90 55 91 57 92 50 93 51 94 52 95 53 96 54 97
REMARK H PARENT 11 6 7 23 16 28 78 47 44 58
REMARK Flexibility Score: inf
ROOT
ATOM      1  C   UNL A   1      40.469  21.423  27.261  1.00  0.00     0.023 C 
ENDROOT
BRANCH   1   2
ATOM      2  C   UNL A   1      39.662  22.484  26.534  1.00  0.00     0.116 C 
BRANCH   2   3
ATOM      3  N   UNL A   1      38.856  21.931  25.464  1.00  0.00    -0.356 N 
ATOM      4  C   UNL A   1      37.526  22.107  25.212  1.00  0.00     0.223 C 
ATOM      5  O   UNL A   1      37.023  21.504  24.262  1.00  0.00    -0.275 OA
ATOM      6  H   UNL A   1      39.333  21.347  24.831  1.00  0.00     0.163 HD
BRANCH   4   7
ATOM      7  C   UNL A   1      36.730  23.140  25.981  1.00  0.00     0.140 C 
BRANCH   7   8
ATOM      8  C   UNL A   1      35.245  22.880  26.168  1.00  0.00     0.190 C 
BRANCH   8   9
ATOM      9  C   UNL A   1      34.299  23.852  25.488  1.00  0.00     0.139 A 
ATOM     10  N   UNL A   1      33.132  23.611  24.761  1.00  0.00    -0.323 N 
ATOM     11  C   UNL A   1      32.786  24.804  24.129  1.00  0.00     0.069 A 
ATOM     12  N   UNL A   1      34.649  25.125  25.367  1.00  0.00    -0.230 NA
ATOM     13  C   UNL A   1      33.752  25.713  24.527  1.00  0.00     0.090 A 
ATOM     14  C   UNL A   1      31.743  25.160  23.257  1.00  0.00     0.030 A 
ATOM     15  C   UNL A   1      33.716  27.032  24.050  1.00  0.00     0.051 A 
ATOM     16  C   UNL A   1      31.715  26.476  22.788  1.00  0.00     0.023 A 
ATOM     17  C   UNL A   1      32.687  27.394  23.180  1.00  0.00     0.043 A 
ATOM     18  Cl  UNL A   1      32.613  29.004  22.574  1.00  0.00    -0.084 Cl
BRANCH  10  19
ATOM     19  C   UNL A   1      32.304  22.416  24.615  1.00  0.00     0.083 C 
ATOM     20  C   UNL A   1      32.980  21.185  24.022  1.00  0.00     0.031 C 
ATOM     21  C   UNL A   1      31.443  22.136  25.851  1.00  0.00     0.031 C 
ENDBRANCH  10  19
ENDBRANCH   8   9
BRANCH   8  22
ATOM     22  O   UNL A   1      34.803  22.844  27.517  1.00  0.00    -0.385 OA
ATOM     23  H   UNL A   1      35.397  22.280  28.037  1.00  0.00     0.211 HD
ENDBRANCH   8  22
ENDBRANCH   7   8
ENDBRANCH   4   7
ENDBRANCH   2   3
ENDBRANCH   1   2
BRANCH   1  24
ATOM     24  C   UNL A   1      40.669  20.151  26.445  1.00  0.00     0.023 C 
BRANCH  24  25
ATOM     25  C   UNL A   1      42.060  19.514  26.571  1.00  0.00     0.116 C 
BRANCH  25  26
ATOM     26  N   UNL A   1      42.936  19.699  25.428  1.00  0.00    -0.352 N 
ATOM     27  C   UNL A   1      43.818  20.682  25.063  1.00  0.00     0.251 C 
ATOM     28  H   UNL A   1      42.885  18.961  24.777  1.00  0.00     0.163 HD
ATOM     29  O   UNL A   1      44.582  20.415  24.132  1.00  0.00    -0.269 OA
BRANCH  27  30
ATOM     30  C   UNL A   1      43.839  22.047  25.650  1.00  0.00     0.039 A 
ATOM     31  C   UNL A   1      44.504  22.395  26.824  1.00  0.00     0.014 A 
ATOM     32  C   UNL A   1      43.049  23.020  25.013  1.00  0.00     0.014 A 
ATOM     33  C   UNL A   1      44.242  23.599  27.452  1.00  0.00     0.010 A 
ATOM     34  C   UNL A   1      42.840  24.262  25.602  1.00  0.00     0.010 A 
ATOM     35  C   UNL A   1      43.381  24.518  26.858  1.00  0.00    -0.014 A 
BRANCH  35  36
ATOM     36  C   UNL A   1      43.193  25.783  27.561  1.00  0.00     0.031 A 
ATOM     37  C   UNL A   1      44.269  26.788  27.313  1.00  0.00     0.074 A 
ATOM     38  C   UNL A   1      42.093  26.053  28.292  1.00  0.00     0.049 A 
ATOM     39  N   UNL A   1      45.048  27.372  28.168  1.00  0.00    -0.248 NA
ATOM     40  C   UNL A   1      44.614  27.070  25.907  1.00  0.00     0.031 C 
ATOM     41  C   UNL A   1      40.868  25.257  28.400  1.00  0.00     0.029 A 
ATOM     42  N   UNL A   1      41.793  27.170  29.009  1.00  0.00    -0.354 N 
ATOM     43  C   UNL A   1      45.838  28.249  27.424  1.00  0.00     0.074 A 
ATOM     44  C   UNL A   1      45.640  27.907  26.041  1.00  0.00     0.031 C 
ATOM     45  C   UNL A   1      39.884  26.027  28.913  1.00  0.00     0.029 A 
ATOM     46  C   UNL A   1      40.439  27.317  29.286  1.00  0.00     0.049 A 
ATOM     47  H   UNL A   1      42.474  27.817  29.303  1.00  0.00     0.167 HD
ATOM     48  C   UNL A   1      46.434  29.340  27.978  1.00  0.00     0.037 A 
ATOM     49  C   UNL A   1      39.817  28.452  29.692  1.00  0.00     0.037 A 
ATOM     50  C   UNL A   1      46.558  29.217  29.404  1.00  0.00     0.049 A 
ATOM     51  C   UNL A   1      40.863  29.345  30.260  1.00  0.00     0.074 A 
ATOM     52  C   UNL A   1      47.214  28.345  30.251  1.00  0.00     0.029 A 
ATOM     53  N   UNL A   1      45.659  29.894  30.190  1.00  0.00    -0.354 N 
ATOM     54  N   UNL A   1      41.534  29.089  31.350  1.00  0.00    -0.248 NA
ATOM     55  C   UNL A   1      41.468  30.327  29.373  1.00  0.00     0.031 C 
ATOM     56  C   UNL A   1      46.352  28.202  31.376  1.00  0.00     0.029 A 
ATOM     57  C   UNL A   1      45.247  29.028  31.171  1.00  0.00     0.049 A 
ATOM     58  H   UNL A   1      45.365  30.827  30.073  1.00  0.00     0.167 HD
ATOM     59  C   UNL A   1      42.817  29.548  31.094  1.00  0.00     0.074 A 
ATOM     60  C   UNL A   1      42.693  30.380  29.901  1.00  0.00     0.031 C 
ATOM     61  C   UNL A   1      43.905  28.995  31.710  1.00  0.00     0.037 A 
BRANCH  48  62
ATOM     62  C   UNL A   1      46.576  30.661  27.260  1.00  0.00     0.058 A 
ATOM     63  C   UNL A   1      47.838  31.280  27.167  1.00  0.00     0.135 A 
ATOM     64  C   UNL A   1      45.472  31.472  26.912  1.00  0.00     0.135 A 
ATOM     65  F   UNL A   1      48.954  30.608  27.492  1.00  0.00    -0.206 F 
ATOM     66  C   UNL A   1      47.986  32.623  26.816  1.00  0.00     0.059 A 
ATOM     67  C   UNL A   1      45.600  32.794  26.507  1.00  0.00     0.059 A 
ATOM     68  F   UNL A   1      44.207  31.051  27.046  1.00  0.00    -0.206 F 
ATOM     69  C   UNL A   1      46.856  33.375  26.501  1.00  0.00     0.060 A 
BRANCH  69  70
ATOM     70  S   UNL A   1      47.027  35.135  26.159  1.00  0.00     0.124 S 
ATOM     71  O   UNL A   1      48.401  35.203  25.673  1.00  0.00    -0.237 OA
ATOM     72  O   UNL A   1      45.985  35.351  25.162  1.00  0.00    -0.237 OA
ATOM     73  O   UNL A   1      46.784  35.756  27.457  1.00  0.00    -0.744 OA
ENDBRANCH  69  70
ENDBRANCH  48  62
BRANCH  49  74
ATOM     74  C   UNL A   1      38.488  28.962  29.250  1.00  0.00     0.058 A 
ATOM     75  C   UNL A   1      37.450  29.168  30.177  1.00  0.00     0.135 A 
ATOM     76  C   UNL A   1      38.295  29.528  27.972  1.00  0.00     0.135 A 
ATOM     77  F   UNL A   1      37.552  28.681  31.423  1.00  0.00    -0.206 F 
ATOM     78  C   UNL A   1      36.322  29.942  29.877  1.00  0.00     0.059 A 
ATOM     79  C   UNL A   1      37.173  30.288  27.647  1.00  0.00     0.059 A 
ATOM     80  F   UNL A   1      39.238  29.446  27.023  1.00  0.00    -0.206 F 
ATOM     81  C   UNL A   1      36.205  30.518  28.614  1.00  0.00     0.060 A 
BRANCH  81  82
ATOM     82  S   UNL A   1      34.852  31.671  28.281  1.00  0.00     0.124 S 
ATOM     83  O   UNL A   1      33.884  30.815  27.604  1.00  0.00    -0.237 OA
ATOM     84  O   UNL A   1      34.487  32.109  29.624  1.00  0.00    -0.237 OA
ATOM     85  O   UNL A   1      35.474  32.693  27.443  1.00  0.00    -0.744 OA
ENDBRANCH  81  82
ENDBRANCH  49  74
BRANCH  61  86
ATOM     86  C   UNL A   1      43.676  28.088  32.890  1.00  0.00     0.058 A 
ATOM     87  C   UNL A   1      43.657  26.684  32.820  1.00  0.00     0.135 A 
ATOM     88  C   UNL A   1      43.644  28.666  34.168  1.00  0.00     0.135 A 
ATOM     89  F   UNL A   1      43.787  26.050  31.646  1.00  0.00    -0.206 F 
ATOM     90  C   UNL A   1      43.577  25.892  33.967  1.00  0.00     0.059 A 
ATOM     91  C   UNL A   1      43.596  27.896  35.327  1.00  0.00     0.059 A 
ATOM     92  F   UNL A   1      43.720  30.000  34.305  1.00  0.00    -0.206 F 
ATOM     93  C   UNL A   1      43.555  26.507  35.219  1.00  0.00     0.060 A 
BRANCH  93  94
ATOM     94  S   UNL A   1      43.550  25.485  36.707  1.00  0.00     0.124 S 
ATOM     95  O   UNL A   1      44.971  25.446  37.057  1.00  0.00    -0.237 OA
ATOM     96  O   UNL A   1      42.701  26.257  37.615  1.00  0.00    -0.237 OA
ATOM     97  O   UNL A   1      42.984  24.224  36.259  1.00  0.00    -0.744 OA
ENDBRANCH  93  94
ENDBRANCH  61  86
ENDBRANCH  35  36
ENDBRANCH  27  30
ENDBRANCH  25  26
ENDBRANCH  24  25
ENDBRANCH   1  24
TORSDOF 18
ENDMDL
MODEL 2
REMARK VINA RESULT:     -11.6      2.975      9.318
REMARK SMILES CC(C)n1c([C@H](O)CC(=O)NCCCCNC(=O)c2ccc(-c3c4nc(c(-c5c(F)cc(S(=O)(=O)[O-])cc5F)c5ccc([nH]5)c(-c5c(F)cc(S(=O)(=O)[O-])cc5F)c5nc(c(-c6c(F)cc(S(=O)(=O)[O-])cc6F)c6ccc3[nH]6)C=C5)C=C4)cc2)nc2cc(Cl)ccc21
REMARK SMILES IDX 13 1 12 2 11 3 9 4 10 5 8 7 6 8 5 9 4 10 92 11 85 12 86 13
REMARK SMILES IDX 91 14 87 15 90 16 88 17 89 18 2 19 1 20 3 21 7 22 14 24
REMARK SMILES IDX 15 25 16 26 17 27 18 29 19 30 20 31 84 32 21 33 83 34 22 35
REMARK SMILES IDX 23 36 24 37 77 38 25 39 82 40 76 41 78 42 26 43 81 44 75 45
REMARK SMILES IDX 74 46 27 48 61 49 40 50 60 51 41 52 44 53 59 54 79 55 42 56
REMARK SMILES IDX 43 57 58 59 80 60 45 61 28 62 29 63 38 64 30 65 31 66 37 67
REMARK SMILES IDX 39 68 32 69 33 70 34 71 35 72 36 73 62 74 63 75 72 76 64 77
REMARK SMILES IDX 65 78 71 79 73 80 66 81 67 82 68 83 69 84 70 85 46 86 47 87
REMARK SMILES IDX 56 88 48 89 49 90 55 91 57 92 50 93 51 94 52 95 53 96 54 97
REMARK H PARENT 11 6 7 23 16 28 78 47 44 58
REMARK Flexibility Score: inf
ROOT
ATOM      1  C   UNL A   1      31.439  29.697  25.146  1.00  0.00     0.023 C 
ENDROOT
BRANCH   1   2
ATOM      2  C   UNL A   1      31.260  28.977  23.821  1.00  0.00     0.116 C 
BRANCH   2   3
ATOM      3  N   UNL A   1      32.421  29.098  22.963  1.00  0.00    -0.356 N 
ATOM      4  C   UNL A   1      33.497  28.265  22.852  1.00  0.00     0.223 C 
ATOM      5  O   UNL A   1      34.407  28.579  22.082  1.00  0.00    -0.275 OA
ATOM      6  H   UNL A   1      32.437  29.890  22.379  1.00  0.00     0.163 HD
BRANCH   4   7
ATOM      7  C   UNL A   1      33.496  26.914  23.536  1.00  0.00     0.140 C 
BRANCH   7   8
ATOM      8  C   UNL A   1      33.162  25.701  22.685  1.00  0.00     0.190 C 
BRANCH   8   9
ATOM      9  C   UNL A   1      33.669  24.363  23.189  1.00  0.00     0.139 A 
ATOM     10  N   UNL A   1      33.068  23.437  24.042  1.00  0.00    -0.323 N 
ATOM     11  C   UNL A   1      34.045  22.510  24.401  1.00  0.00     0.069 A 
ATOM     12  N   UNL A   1      34.934  24.025  22.979  1.00  0.00    -0.230 NA
ATOM     13  C   UNL A   1      35.185  22.913  23.725  1.00  0.00     0.090 A 
ATOM     14  C   UNL A   1      34.037  21.385  25.243  1.00  0.00     0.030 A 
ATOM     15  C   UNL A   1      36.383  22.199  23.879  1.00  0.00     0.051 A 
ATOM     16  C   UNL A   1      35.235  20.681  25.390  1.00  0.00     0.023 A 
ATOM     17  C   UNL A   1      36.386  21.084  24.718  1.00  0.00     0.043 A 
ATOM     18  Cl  UNL A   1      37.841  20.186  24.931  1.00  0.00    -0.084 Cl
BRANCH  10  19
ATOM     19  C   UNL A   1      31.696  23.308  24.530  1.00  0.00     0.083 C 
ATOM     20  C   UNL A   1      31.418  23.840  25.931  1.00  0.00     0.031 C 
ATOM     21  C   UNL A   1      30.653  23.704  23.481  1.00  0.00     0.031 C 
ENDBRANCH  10  19
ENDBRANCH   8   9
BRANCH   8  22
ATOM     22  O   UNL A   1      33.612  25.764  21.340  1.00  0.00    -0.385 OA
ATOM     23  H   UNL A   1      34.471  25.320  21.265  1.00  0.00     0.211 HD
ENDBRANCH   8  22
ENDBRANCH   7   8
ENDBRANCH   4   7
ENDBRANCH   2   3
ENDBRANCH   1   2
BRANCH   1  24
ATOM     24  C   UNL A   1      31.796  28.764  26.298  1.00  0.00     0.023 C 
BRANCH  24  25
ATOM     25  C   UNL A   1      33.109  29.101  27.020  1.00  0.00     0.116 C 
BRANCH  25  26
ATOM     26  N   UNL A   1      33.163  30.415  27.634  1.00  0.00    -0.352 N 
ATOM     27  C   UNL A   1      34.185  31.276  27.936  1.00  0.00     0.251 C 
ATOM     28  H   UNL A   1      32.275  30.760  27.888  1.00  0.00     0.163 HD
ATOM     29  O   UNL A   1      33.860  32.424  28.248  1.00  0.00    -0.269 OA
BRANCH  27  30
ATOM     30  C   UNL A   1      35.617  30.884  27.997  1.00  0.00     0.039 A 
ATOM     31  C   UNL A   1      36.109  29.624  27.665  1.00  0.00     0.014 A 
ATOM     32  C   UNL A   1      36.510  31.837  28.518  1.00  0.00     0.014 A 
ATOM     33  C   UNL A   1      37.394  29.253  28.018  1.00  0.00     0.010 A 
ATOM     34  C   UNL A   1      37.826  31.494  28.806  1.00  0.00     0.010 A 
ATOM     35  C   UNL A   1      38.241  30.179  28.622  1.00  0.00    -0.014 A 
BRANCH  35  36
ATOM     36  C   UNL A   1      39.595  29.724  28.921  1.00  0.00     0.031 A 
ATOM     37  C   UNL A   1      39.893  29.607  30.381  1.00  0.00     0.074 A 
ATOM     38  C   UNL A   1      40.467  29.351  27.964  1.00  0.00     0.049 A 
ATOM     39  N   UNL A   1      40.818  30.195  31.071  1.00  0.00    -0.248 NA
ATOM     40  C   UNL A   1      38.939  28.838  31.201  1.00  0.00     0.031 C 
ATOM     41  C   UNL A   1      40.210  29.180  26.533  1.00  0.00     0.029 A 
ATOM     42  N   UNL A   1      41.754  28.928  28.094  1.00  0.00    -0.354 N 
ATOM     43  C   UNL A   1      40.689  29.708  32.371  1.00  0.00     0.074 A 
ATOM     44  C   UNL A   1      39.433  29.009  32.425  1.00  0.00     0.031 C 
ATOM     45  C   UNL A   1      41.210  28.454  25.987  1.00  0.00     0.029 A 
ATOM     46  C   UNL A   1      42.230  28.223  26.995  1.00  0.00     0.049 A 
ATOM     47  H   UNL A   1      42.298  29.104  28.895  1.00  0.00     0.167 HD
ATOM     48  C   UNL A   1      41.721  29.720  33.259  1.00  0.00     0.037 A 
ATOM     49  C   UNL A   1      43.329  27.428  26.961  1.00  0.00     0.037 A 
ATOM     50  C   UNL A   1      42.731  30.675  32.894  1.00  0.00     0.049 A 
ATOM     51  C   UNL A   1      44.191  27.824  28.107  1.00  0.00     0.074 A 
ATOM     52  C   UNL A   1      42.759  32.047  32.738  1.00  0.00     0.029 A 
ATOM     53  N   UNL A   1      43.873  30.208  32.293  1.00  0.00    -0.354 N 
ATOM     54  N   UNL A   1      44.789  28.979  28.211  1.00  0.00    -0.248 NA
ATOM     55  C   UNL A   1      44.041  27.087  29.352  1.00  0.00     0.031 C 
ATOM     56  C   UNL A   1      43.648  32.278  31.649  1.00  0.00     0.029 A 
ATOM     57  C   UNL A   1      44.143  31.040  31.237  1.00  0.00     0.049 A 
ATOM     58  H   UNL A   1      44.400  29.423  32.568  1.00  0.00     0.167 HD
ATOM     59  C   UNL A   1      44.715  29.298  29.559  1.00  0.00     0.074 A 
ATOM     60  C   UNL A   1      44.327  28.057  30.223  1.00  0.00     0.031 C 
ATOM     61  C   UNL A   1      44.709  30.598  29.982  1.00  0.00     0.037 A 
BRANCH  48  62
ATOM     62  C   UNL A   1      41.970  28.614  34.257  1.00  0.00     0.058 A 
ATOM     63  C   UNL A   1      41.903  28.882  35.638  1.00  0.00     0.135 A 
ATOM     64  C   UNL A   1      42.551  27.375  33.903  1.00  0.00     0.135 A 
ATOM     65  F   UNL A   1      41.388  30.039  36.085  1.00  0.00    -0.206 F 
ATOM     66  C   UNL A   1      42.431  28.012  36.593  1.00  0.00     0.059 A 
ATOM     67  C   UNL A   1      43.033  26.469  34.840  1.00  0.00     0.059 A 
ATOM     68  F   UNL A   1      42.772  27.027  32.629  1.00  0.00    -0.206 F 
ATOM     69  C   UNL A   1      43.008  26.813  36.180  1.00  0.00     0.060 A 
BRANCH  69  70
ATOM     70  S   UNL A   1      43.791  25.739  37.395  1.00  0.00     0.124 S 
ATOM     71  O   UNL A   1      43.183  24.452  37.080  1.00  0.00    -0.237 OA
ATOM     72  O   UNL A   1      45.203  25.880  37.057  1.00  0.00    -0.237 OA
ATOM     73  O   UNL A   1      43.397  26.330  38.670  1.00  0.00    -0.744 OA
ENDBRANCH  69  70
ENDBRANCH  48  62
BRANCH  49  74
ATOM     74  C   UNL A   1      43.473  26.114  26.272  1.00  0.00     0.058 A 
ATOM     75  C   UNL A   1      44.555  25.868  25.407  1.00  0.00     0.135 A 
ATOM     76  C   UNL A   1      42.726  24.983  26.662  1.00  0.00     0.135 A 
ATOM     77  F   UNL A   1      45.334  26.881  24.995  1.00  0.00    -0.206 F 
ATOM     78  C   UNL A   1      44.914  24.575  25.007  1.00  0.00     0.059 A 
ATOM     79  C   UNL A   1      43.055  23.689  26.263  1.00  0.00     0.059 A 
ATOM     80  F   UNL A   1      41.706  25.084  27.526  1.00  0.00    -0.206 F 
ATOM     81  C   UNL A   1      44.170  23.488  25.461  1.00  0.00     0.060 A 
BRANCH  81  82
ATOM     82  S   UNL A   1      44.737  21.808  25.107  1.00  0.00     0.124 S 
ATOM     83  O   UNL A   1      43.710  20.999  25.754  1.00  0.00    -0.237 OA
ATOM     84  O   UNL A   1      44.741  21.788  23.648  1.00  0.00    -0.237 OA
ATOM     85  O   UNL A   1      46.057  21.756  25.732  1.00  0.00    -0.744 OA
ENDBRANCH  81  82
ENDBRANCH  49  74
BRANCH  61  86
ATOM     86  C   UNL A   1      45.085  31.673  28.996  1.00  0.00     0.058 A 
ATOM     87  C   UNL A   1      46.406  32.026  28.672  1.00  0.00     0.135 A 
ATOM     88  C   UNL A   1      44.061  32.249  28.228  1.00  0.00     0.135 A 
ATOM     89  F   UNL A   1      47.446  31.446  29.287  1.00  0.00    -0.206 F 
ATOM     90  C   UNL A   1      46.695  32.934  27.651  1.00  0.00     0.059 A 
ATOM     91  C   UNL A   1      44.327  33.133  27.185  1.00  0.00     0.059 A 
ATOM     92  F   UNL A   1      42.781  31.907  28.449  1.00  0.00    -0.206 F 
ATOM     93  C   UNL A   1      45.647  33.478  26.907  1.00  0.00     0.060 A 
BRANCH  93  94
ATOM     94  S   UNL A   1      46.022  34.577  25.525  1.00  0.00     0.124 S 
ATOM     95  O   UNL A   1      45.707  35.892  26.085  1.00  0.00    -0.237 OA
ATOM     96  O   UNL A   1      47.444  34.317  25.294  1.00  0.00    -0.237 OA
ATOM     97  O   UNL A   1      45.135  34.121  24.469  1.00  0.00    -0.744 OA
ENDBRANCH  93  94
ENDBRANCH  61  86
ENDBRANCH  35  36
ENDBRANCH  27  30
ENDBRANCH  25  26
ENDBRANCH  24  25
ENDBRANCH   1  24
TORSDOF 18
ENDMDL
MODEL 3
REMARK VINA RESULT:     -11.5      1.276      2.169
REMARK SMILES CC(C)n1c([C@H](O)CC(=O)NCCCCNC(=O)c2ccc(-c3c4nc(c(-c5c(F)cc(S(=O)(=O)[O-])cc5F)c5ccc([nH]5)c(-c5c(F)cc(S(=O)(=O)[O-])cc5F)c5nc(c(-c6c(F)cc(S(=O)(=O)[O-])cc6F)c6ccc3[nH]6)C=C5)C=C4)cc2)nc2cc(Cl)ccc21
REMARK SMILES IDX 13 1 12 2 11 3 9 4 10 5 8 7 6 8 5 9 4 10 92 11 85 12 86 13
REMARK SMILES IDX 91 14 87 15 90 16 88 17 89 18 2 19 1 20 3 21 7 22 14 24
REMARK SMILES IDX 15 25 16 26 17 27 18 29 19 30 20 31 84 32 21 33 83 34 22 35
REMARK SMILES IDX 23 36 24 37 77 38 25 39 82 40 76 41 78 42 26 43 81 44 75 45
REMARK SMILES IDX 74 46 27 48 61 49 40 50 60 51 41 52 44 53 59 54 79 55 42 56
REMARK SMILES IDX 43 57 58 59 80 60 45 61 28 62 29 63 38 64 30 65 31 66 37 67
REMARK SMILES IDX 39 68 32 69 33 70 34 71 35 72 36 73 62 74 63 75 72 76 64 77
REMARK SMILES IDX 65 78 71 79 73 80 66 81 67 82 68 83 69 84 70 85 46 86 47 87
REMARK SMILES IDX 56 88 48 89 49 90 55 91 57 92 50 93 51 94 52 95 53 96 54 97
REMARK H PARENT 11 6 7 23 16 28 78 47 44 58
REMARK Flexibility Score: inf
ROOT
ATOM      1  C   UNL A   1      40.602  21.019  26.325  1.00  0.00     0.023 C 
ENDROOT
BRANCH   1   2
ATOM      2  C   UNL A   1      39.113  21.192  26.080  1.00  0.00     0.116 C 
BRANCH   2   3
ATOM      3  N   UNL A   1      38.646  22.521  26.421  1.00  0.00    -0.356 N 
ATOM      4  C   UNL A   1      37.648  23.254  25.846  1.00  0.00     0.223 C 
ATOM      5  O   UNL A   1      37.439  24.394  26.266  1.00  0.00    -0.275 OA
ATOM      6  H   UNL A   1      39.114  22.956  27.169  1.00  0.00     0.163 HD
BRANCH   4   7
ATOM      7  C   UNL A   1      36.720  22.622  24.830  1.00  0.00     0.140 C 
BRANCH   7   8
ATOM      8  C   UNL A   1      35.891  23.556  23.965  1.00  0.00     0.190 C 
BRANCH   8   9
ATOM      9  C   UNL A   1      34.440  23.740  24.369  1.00  0.00     0.139 A 
ATOM     10  N   UNL A   1      33.655  24.893  24.397  1.00  0.00    -0.323 N 
ATOM     11  C   UNL A   1      32.486  24.580  25.089  1.00  0.00     0.069 A 
ATOM     12  N   UNL A   1      33.798  22.744  24.962  1.00  0.00    -0.230 NA
ATOM     13  C   UNL A   1      32.617  23.243  25.424  1.00  0.00     0.090 A 
ATOM     14  C   UNL A   1      31.356  25.331  25.451  1.00  0.00     0.030 A 
ATOM     15  C   UNL A   1      31.609  22.600  26.157  1.00  0.00     0.051 A 
ATOM     16  C   UNL A   1      30.356  24.682  26.181  1.00  0.00     0.023 A 
ATOM     17  C   UNL A   1      30.484  23.339  26.527  1.00  0.00     0.043 A 
ATOM     18  Cl  UNL A   1      29.228  22.581  27.429  1.00  0.00    -0.084 Cl
BRANCH  10  19
ATOM     19  C   UNL A   1      33.860  26.226  23.834  1.00  0.00     0.083 C 
ATOM     20  C   UNL A   1      33.139  26.532  22.525  1.00  0.00     0.031 C 
ATOM     21  C   UNL A   1      33.767  27.336  24.885  1.00  0.00     0.031 C 
ENDBRANCH  10  19
ENDBRANCH   8   9
BRANCH   8  22
ATOM     22  O   UNL A   1      35.833  23.211  22.589  1.00  0.00    -0.385 OA
ATOM     23  H   UNL A   1      36.518  22.552  22.391  1.00  0.00     0.211 HD
ENDBRANCH   8  22
ENDBRANCH   7   8
ENDBRANCH   4   7
ENDBRANCH   2   3
ENDBRANCH   1   2
BRANCH   1  24
ATOM     24  C   UNL A   1      41.083  19.585  26.132  1.00  0.00     0.023 C 
BRANCH  24  25
ATOM     25  C   UNL A   1      42.601  19.391  26.253  1.00  0.00     0.116 C 
BRANCH  25  26
ATOM     26  N   UNL A   1      43.361  19.656  25.046  1.00  0.00    -0.352 N 
ATOM     27  C   UNL A   1      44.154  20.697  24.637  1.00  0.00     0.251 C 
ATOM     28  H   UNL A   1      43.293  18.934  24.379  1.00  0.00     0.163 HD
ATOM     29  O   UNL A   1      44.846  20.498  23.635  1.00  0.00    -0.269 OA
BRANCH  27  30
ATOM     30  C   UNL A   1      44.153  22.044  25.263  1.00  0.00     0.039 A 
ATOM     31  C   UNL A   1      44.867  22.386  26.409  1.00  0.00     0.014 A 
ATOM     32  C   UNL A   1      43.291  23.002  24.699  1.00  0.00     0.014 A 
ATOM     33  C   UNL A   1      44.593  23.560  27.087  1.00  0.00     0.010 A 
ATOM     34  C   UNL A   1      43.066  24.217  25.336  1.00  0.00     0.010 A 
ATOM     35  C   UNL A   1      43.665  24.459  26.568  1.00  0.00    -0.014 A 
BRANCH  35  36
ATOM     36  C   UNL A   1      43.466  25.695  27.318  1.00  0.00     0.031 A 
ATOM     37  C   UNL A   1      44.525  26.725  27.096  1.00  0.00     0.074 A 
ATOM     38  C   UNL A   1      42.370  25.922  28.070  1.00  0.00     0.049 A 
ATOM     39  N   UNL A   1      45.304  27.289  27.963  1.00  0.00    -0.248 NA
ATOM     40  C   UNL A   1      44.850  27.062  25.697  1.00  0.00     0.031 C 
ATOM     41  C   UNL A   1      41.159  25.105  28.161  1.00  0.00     0.029 A 
ATOM     42  N   UNL A   1      42.062  27.009  28.829  1.00  0.00    -0.354 N 
ATOM     43  C   UNL A   1      46.073  28.204  27.243  1.00  0.00     0.074 A 
ATOM     44  C   UNL A   1      45.865  27.909  25.851  1.00  0.00     0.031 C 
ATOM     45  C   UNL A   1      40.169  25.841  28.712  1.00  0.00     0.029 A 
ATOM     46  C   UNL A   1      40.709  27.124  29.125  1.00  0.00     0.049 A 
ATOM     47  H   UNL A   1      42.736  27.654  29.140  1.00  0.00     0.167 HD
ATOM     48  C   UNL A   1      46.659  29.283  27.830  1.00  0.00     0.037 A 
ATOM     49  C   UNL A   1      40.075  28.235  29.579  1.00  0.00     0.037 A 
ATOM     50  C   UNL A   1      46.800  29.111  29.250  1.00  0.00     0.049 A 
ATOM     51  C   UNL A   1      41.113  29.122  30.168  1.00  0.00     0.074 A 
ATOM     52  C   UNL A   1      47.478  28.219  30.057  1.00  0.00     0.029 A 
ATOM     53  N   UNL A   1      45.900  29.746  30.069  1.00  0.00    -0.354 N 
ATOM     54  N   UNL A   1      41.800  28.838  31.241  1.00  0.00    -0.248 NA
ATOM     55  C   UNL A   1      41.695  30.145  29.311  1.00  0.00     0.031 C 
ATOM     56  C   UNL A   1      46.630  28.022  31.185  1.00  0.00     0.029 A 
ATOM     57  C   UNL A   1      45.511  28.839  31.021  1.00  0.00     0.049 A 
ATOM     58  H   UNL A   1      45.591  30.678  29.988  1.00  0.00     0.167 HD
ATOM     59  C   UNL A   1      43.074  29.325  30.989  1.00  0.00     0.074 A 
ATOM     60  C   UNL A   1      42.924  30.197  29.828  1.00  0.00     0.031 C 
ATOM     61  C   UNL A   1      44.176  28.767  31.572  1.00  0.00     0.037 A 
BRANCH  48  62
ATOM     62  C   UNL A   1      46.774  30.631  27.158  1.00  0.00     0.058 A 
ATOM     63  C   UNL A   1      48.023  31.278  27.088  1.00  0.00     0.135 A 
ATOM     64  C   UNL A   1      45.653  31.431  26.839  1.00  0.00     0.135 A 
ATOM     65  F   UNL A   1      49.153  30.618  27.389  1.00  0.00    -0.206 F 
ATOM     66  C   UNL A   1      48.144  32.636  26.784  1.00  0.00     0.059 A 
ATOM     67  C   UNL A   1      45.755  32.769  26.480  1.00  0.00     0.059 A 
ATOM     68  F   UNL A   1      44.397  30.981  26.958  1.00  0.00    -0.206 F 
ATOM     69  C   UNL A   1      46.999  33.375  26.496  1.00  0.00     0.060 A 
BRANCH  69  70
ATOM     70  S   UNL A   1      47.134  35.149  26.215  1.00  0.00     0.124 S 
ATOM     71  O   UNL A   1      47.394  35.637  27.564  1.00  0.00    -0.237 OA
ATOM     72  O   UNL A   1      48.252  35.222  25.281  1.00  0.00    -0.237 OA
ATOM     73  O   UNL A   1      45.833  35.501  25.655  1.00  0.00    -0.744 OA
ENDBRANCH  69  70
ENDBRANCH  48  62
BRANCH  49  74
ATOM     74  C   UNL A   1      38.733  28.741  29.169  1.00  0.00     0.058 A 
ATOM     75  C   UNL A   1      37.701  28.893  30.113  1.00  0.00     0.135 A 
ATOM     76  C   UNL A   1      38.520  29.353  27.916  1.00  0.00     0.135 A 
ATOM     77  F   UNL A   1      37.823  28.359  31.338  1.00  0.00    -0.206 F 
ATOM     78  C   UNL A   1      36.558  29.660  29.854  1.00  0.00     0.059 A 
ATOM     79  C   UNL A   1      37.382  30.107  27.631  1.00  0.00     0.059 A 
ATOM     80  F   UNL A   1      39.454  29.324  26.956  1.00  0.00    -0.206 F 
ATOM     81  C   UNL A   1      36.420  30.284  28.615  1.00  0.00     0.060 A 
BRANCH  81  82
ATOM     82  S   UNL A   1      35.046  31.427  28.340  1.00  0.00     0.124 S 
ATOM     83  O   UNL A   1      35.648  32.415  27.452  1.00  0.00    -0.237 OA
ATOM     84  O   UNL A   1      34.040  30.557  27.741  1.00  0.00    -0.237 OA
ATOM     85  O   UNL A   1      34.730  31.907  29.683  1.00  0.00    -0.744 OA
ENDBRANCH  81  82
ENDBRANCH  49  74
BRANCH  61  86
ATOM     86  C   UNL A   1      43.973  27.814  32.721  1.00  0.00     0.058 A 
ATOM     87  C   UNL A   1      43.731  28.210  34.048  1.00  0.00     0.135 A 
ATOM     88  C   UNL A   1      43.851  26.447  32.429  1.00  0.00     0.135 A 
ATOM     89  F   UNL A   1      43.726  29.506  34.391  1.00  0.00    -0.206 F 
ATOM     90  C   UNL A   1      43.414  27.285  35.045  1.00  0.00     0.059 A 
ATOM     91  C   UNL A   1      43.505  25.511  33.400  1.00  0.00     0.059 A 
ATOM     92  F   UNL A   1      44.010  26.012  31.168  1.00  0.00    -0.206 F 
ATOM     93  C   UNL A   1      43.295  25.937  34.710  1.00  0.00     0.060 A 
BRANCH  93  94
ATOM     94  S   UNL A   1      42.791  24.752  35.976  1.00  0.00     0.124 S 
ATOM     95  O   UNL A   1      43.494  25.250  37.159  1.00  0.00    -0.237 OA
ATOM     96  O   UNL A   1      41.336  24.914  35.995  1.00  0.00    -0.237 OA
ATOM     97  O   UNL A   1      43.260  23.476  35.463  1.00  0.00    -0.744 OA
ENDBRANCH  93  94
ENDBRANCH  61  86
ENDBRANCH  35  36
ENDBRANCH  27  30
ENDBRANCH  25  26
ENDBRANCH  24  25
ENDBRANCH   1  24
TORSDOF 18
ENDMDL
