MODEL 1
REMARK VINA RESULT:      -9.3      0.000      0.000
REMARK SMILES CC(C)Cc1ccc([C@@H](C)C(=O)NCCCCNC(=O)c2ccc(-c3c4nc(c(-c5c(F)cc(S(=O)(=O)[O-])cc5F)c5ccc([nH]5)c(-c5c(F)cc(S(=O)(=O)[O-])cc5F)c5nc(c(-c6c(F)cc(S(=O)(=O)[O-])cc6F)c6ccc3[nH]6)C=C5)C=C4)cc2)cc1
REMARK SMILES IDX 15 1 14 2 13 3 11 4 12 5 9 7 10 8 8 9 5 10 6 11 88 12 7 13
REMARK SMILES IDX 87 14 4 15 2 16 1 17 3 18 16 19 17 20 18 21 19 22 20 24
REMARK SMILES IDX 21 25 22 26 86 27 23 28 85 29 24 30 25 31 26 32 79 33 27 34
REMARK SMILES IDX 84 35 78 36 80 37 28 38 83 39 77 40 76 41 29 43 63 44 42 45
REMARK SMILES IDX 62 46 43 47 46 48 61 49 81 50 44 51 45 52 60 54 82 55 47 56
REMARK SMILES IDX 30 57 31 58 40 59 32 60 33 61 39 62 41 63 34 64 35 65 36 66
REMARK SMILES IDX 37 67 38 68 64 69 65 70 74 71 66 72 67 73 73 74 75 75 68 76
REMARK SMILES IDX 69 77 70 78 71 79 72 80 48 81 49 82 58 83 50 84 51 85 57 86
REMARK SMILES IDX 59 87 52 88 53 89 54 90 55 91 56 92
REMARK H PARENT 13 6 18 23 80 42 46 53
REMARK Flexibility Score: inf
ROOT
ATOM      1  C   UNL A   1      34.193  35.035  28.577  1.00  0.00     0.023 C 
ENDROOT
BRANCH   1   2
ATOM      2  C   UNL A   1      33.284  34.902  29.798  1.00  0.00     0.116 C 
BRANCH   2   3
ATOM      3  N   UNL A   1      33.838  35.536  30.977  1.00  0.00    -0.356 N 
ATOM      4  C   UNL A   1      34.756  35.089  31.881  1.00  0.00     0.227 C 
ATOM      5  O   UNL A   1      35.022  35.837  32.830  1.00  0.00    -0.274 OA
ATOM      6  H   UNL A   1      33.496  36.441  31.156  1.00  0.00     0.163 HD
BRANCH   4   7
ATOM      7  C   UNL A   1      35.463  33.730  31.758  1.00  0.00     0.105 C 
ATOM      8  C   UNL A   1      35.206  32.818  32.960  1.00  0.00     0.023 C 
BRANCH   7   9
ATOM      9  C   UNL A   1      36.899  33.860  31.273  1.00  0.00    -0.036 A 
ATOM     10  C   UNL A   1      39.460  34.300  30.152  1.00  0.00    -0.048 A 
ATOM     11  C   UNL A   1      39.178  34.686  31.468  1.00  0.00     0.004 A 
ATOM     12  C   UNL A   1      38.473  33.633  29.421  1.00  0.00     0.004 A 
ATOM     13  C   UNL A   1      37.917  34.457  32.027  1.00  0.00     0.005 A 
ATOM     14  C   UNL A   1      37.209  33.419  29.975  1.00  0.00     0.005 A 
BRANCH  10  15
ATOM     15  C   UNL A   1      40.785  34.646  29.517  1.00  0.00     0.038 C 
BRANCH  15  16
ATOM     16  C   UNL A   1      42.006  34.122  30.304  1.00  0.00    -0.013 C 
ATOM     17  C   UNL A   1      42.305  32.646  30.017  1.00  0.00     0.008 C 
ATOM     18  C   UNL A   1      43.239  34.963  29.964  1.00  0.00     0.008 C 
ENDBRANCH  15  16
ENDBRANCH  10  15
ENDBRANCH   7   9
ENDBRANCH   4   7
ENDBRANCH   2   3
ENDBRANCH   1   2
BRANCH   1  19
ATOM     19  C   UNL A   1      34.497  33.727  27.847  1.00  0.00     0.023 C 
BRANCH  19  20
ATOM     20  C   UNL A   1      34.027  32.457  28.550  1.00  0.00     0.116 C 
BRANCH  20  21
ATOM     21  N   UNL A   1      33.775  31.339  27.652  1.00  0.00    -0.352 N 
ATOM     22  C   UNL A   1      34.574  30.242  27.417  1.00  0.00     0.251 C 
ATOM     23  H   UNL A   1      32.929  31.371  27.149  1.00  0.00     0.163 HD
ATOM     24  O   UNL A   1      34.260  29.416  26.566  1.00  0.00    -0.269 OA
BRANCH  22  25
ATOM     25  C   UNL A   1      35.841  30.101  28.168  1.00  0.00     0.039 A 
ATOM     26  C   UNL A   1      35.805  29.572  29.461  1.00  0.00     0.014 A 
ATOM     27  C   UNL A   1      37.060  30.428  27.571  1.00  0.00     0.014 A 
ATOM     28  C   UNL A   1      37.003  29.292  30.123  1.00  0.00     0.010 A 
ATOM     29  C   UNL A   1      38.250  30.082  28.203  1.00  0.00     0.010 A 
ATOM     30  C   UNL A   1      38.234  29.503  29.481  1.00  0.00    -0.014 A 
BRANCH  30  31
ATOM     31  C   UNL A   1      39.520  29.119  30.118  1.00  0.00     0.031 A 
ATOM     32  C   UNL A   1      40.020  29.881  31.314  1.00  0.00     0.074 A 
ATOM     33  C   UNL A   1      40.276  28.149  29.568  1.00  0.00     0.049 A 
ATOM     34  N   UNL A   1      41.160  29.773  31.944  1.00  0.00    -0.248 NA
ATOM     35  C   UNL A   1      39.132  30.926  31.850  1.00  0.00     0.031 C 
ATOM     36  C   UNL A   1      39.921  27.367  28.380  1.00  0.00     0.029 A 
ATOM     37  N   UNL A   1      41.507  27.661  29.928  1.00  0.00    -0.354 N 
ATOM     38  C   UNL A   1      41.139  30.749  32.934  1.00  0.00     0.074 A 
ATOM     39  C   UNL A   1      39.892  31.469  32.789  1.00  0.00     0.031 C 
ATOM     40  C   UNL A   1      40.900  26.483  28.126  1.00  0.00     0.029 A 
ATOM     41  C   UNL A   1      41.966  26.658  29.107  1.00  0.00     0.049 A 
ATOM     42  H   UNL A   1      42.014  27.998  30.702  1.00  0.00     0.167 HD
ATOM     43  C   UNL A   1      42.063  31.008  33.889  1.00  0.00     0.037 A 
ATOM     44  C   UNL A   1      43.119  25.961  29.140  1.00  0.00     0.037 A 
ATOM     45  C   UNL A   1      43.284  30.264  34.051  1.00  0.00     0.049 A 
ATOM     46  C   UNL A   1      44.127  26.260  30.216  1.00  0.00     0.074 A 
ATOM     47  C   UNL A   1      44.255  30.403  35.028  1.00  0.00     0.029 A 
ATOM     48  N   UNL A   1      43.702  29.239  33.215  1.00  0.00    -0.354 N 
ATOM     49  N   UNL A   1      44.065  27.147  31.180  1.00  0.00    -0.248 NA
ATOM     50  C   UNL A   1      45.362  25.464  30.209  1.00  0.00     0.031 C 
ATOM     51  C   UNL A   1      45.274  29.482  34.764  1.00  0.00     0.029 A 
ATOM     52  C   UNL A   1      44.923  28.746  33.644  1.00  0.00     0.049 A 
ATOM     53  H   UNL A   1      43.204  28.911  32.432  1.00  0.00     0.167 HD
ATOM     54  C   UNL A   1      45.236  26.995  31.912  1.00  0.00     0.074 A 
ATOM     55  C   UNL A   1      45.989  25.928  31.281  1.00  0.00     0.031 C 
ATOM     56  C   UNL A   1      45.650  27.673  33.011  1.00  0.00     0.037 A 
BRANCH  43  57
ATOM     57  C   UNL A   1      41.780  32.144  34.831  1.00  0.00     0.058 A 
ATOM     58  C   UNL A   1      41.044  31.956  36.012  1.00  0.00     0.135 A 
ATOM     59  C   UNL A   1      42.244  33.439  34.549  1.00  0.00     0.135 A 
ATOM     60  F   UNL A   1      40.563  30.741  36.322  1.00  0.00    -0.206 F 
ATOM     61  C   UNL A   1      40.738  33.019  36.856  1.00  0.00     0.059 A 
ATOM     62  C   UNL A   1      41.974  34.512  35.394  1.00  0.00     0.059 A 
ATOM     63  F   UNL A   1      42.955  33.675  33.435  1.00  0.00    -0.206 F 
ATOM     64  C   UNL A   1      41.200  34.295  36.533  1.00  0.00     0.060 A 
BRANCH  64  65
ATOM     65  S   UNL A   1      40.771  35.670  37.620  1.00  0.00     0.124 S 
ATOM     66  O   UNL A   1      40.075  36.562  36.697  1.00  0.00    -0.237 OA
ATOM     67  O   UNL A   1      39.936  35.028  38.629  1.00  0.00    -0.237 OA
ATOM     68  O   UNL A   1      42.068  36.144  38.094  1.00  0.00    -0.744 OA
ENDBRANCH  64  65
ENDBRANCH  43  57
BRANCH  44  69
ATOM     69  C   UNL A   1      43.363  24.882  28.148  1.00  0.00     0.058 A 
ATOM     70  C   UNL A   1      43.993  25.164  26.927  1.00  0.00     0.135 A 
ATOM     71  C   UNL A   1      42.992  23.552  28.402  1.00  0.00     0.135 A 
ATOM     72  F   UNL A   1      44.360  26.422  26.638  1.00  0.00    -0.206 F 
ATOM     73  C   UNL A   1      44.238  24.170  25.986  1.00  0.00     0.059 A 
ATOM     74  C   UNL A   1      43.245  22.536  27.484  1.00  0.00     0.059 A 
ATOM     75  F   UNL A   1      42.400  23.228  29.562  1.00  0.00    -0.206 F 
ATOM     76  C   UNL A   1      43.862  22.857  26.275  1.00  0.00     0.060 A 
BRANCH  76  77
ATOM     77  S   UNL A   1      44.235  21.566  25.069  1.00  0.00     0.124 S 
ATOM     78  O   UNL A   1      43.185  20.593  25.346  1.00  0.00    -0.237 OA
ATOM     79  O   UNL A   1      44.123  22.284  23.803  1.00  0.00    -0.237 OA
ATOM     80  O   UNL A   1      45.589  21.154  25.428  1.00  0.00    -0.744 OA
ENDBRANCH  76  77
ENDBRANCH  44  69
BRANCH  56  81
ATOM     81  C   UNL A   1      46.955  27.260  33.629  1.00  0.00     0.058 A 
ATOM     82  C   UNL A   1      48.166  27.867  33.265  1.00  0.00     0.135 A 
ATOM     83  C   UNL A   1      46.984  26.288  34.641  1.00  0.00     0.135 A 
ATOM     84  F   UNL A   1      48.194  28.795  32.296  1.00  0.00    -0.206 F 
ATOM     85  C   UNL A   1      49.365  27.515  33.877  1.00  0.00     0.059 A 
ATOM     86  C   UNL A   1      48.167  25.937  35.282  1.00  0.00     0.059 A 
ATOM     87  F   UNL A   1      45.849  25.684  35.030  1.00  0.00    -0.206 F 
ATOM     88  C   UNL A   1      49.355  26.551  34.886  1.00  0.00     0.060 A 
BRANCH  88  89
ATOM     89  S   UNL A   1      50.908  26.138  35.709  1.00  0.00     0.124 S 
ATOM     90  O   UNL A   1      50.554  26.314  37.113  1.00  0.00    -0.237 OA
ATOM     91  O   UNL A   1      51.135  24.761  35.281  1.00  0.00    -0.237 OA
ATOM     92  O   UNL A   1      51.847  27.117  35.169  1.00  0.00    -0.744 OA
ENDBRANCH  88  89
ENDBRANCH  56  81
ENDBRANCH  30  31
ENDBRANCH  22  25
ENDBRANCH  20  21
ENDBRANCH  19  20
ENDBRANCH   1  19
TORSDOF 17
ENDMDL
MODEL 2
REMARK VINA RESULT:      -9.3      2.512      3.798
REMARK SMILES CC(C)Cc1ccc([C@@H](C)C(=O)NCCCCNC(=O)c2ccc(-c3c4nc(c(-c5c(F)cc(S(=O)(=O)[O-])cc5F)c5ccc([nH]5)c(-c5c(F)cc(S(=O)(=O)[O-])cc5F)c5nc(c(-c6c(F)cc(S(=O)(=O)[O-])cc6F)c6ccc3[nH]6)C=C5)C=C4)cc2)cc1
REMARK SMILES IDX 15 1 14 2 13 3 11 4 12 5 9 7 10 8 8 9 5 10 6 11 88 12 7 13
REMARK SMILES IDX 87 14 4 15 2 16 1 17 3 18 16 19 17 20 18 21 19 22 20 24
REMARK SMILES IDX 21 25 22 26 86 27 23 28 85 29 24 30 25 31 26 32 79 33 27 34
REMARK SMILES IDX 84 35 78 36 80 37 28 38 83 39 77 40 76 41 29 43 63 44 42 45
REMARK SMILES IDX 62 46 43 47 46 48 61 49 81 50 44 51 45 52 60 54 82 55 47 56
REMARK SMILES IDX 30 57 31 58 40 59 32 60 33 61 39 62 41 63 34 64 35 65 36 66
REMARK SMILES IDX 37 67 38 68 64 69 65 70 74 71 66 72 67 73 73 74 75 75 68 76
REMARK SMILES IDX 69 77 70 78 71 79 72 80 48 81 49 82 58 83 50 84 51 85 57 86
REMARK SMILES IDX 59 87 52 88 53 89 54 90 55 91 56 92
REMARK H PARENT 13 6 18 23 80 42 46 53
REMARK Flexibility Score: inf
ROOT
ATOM      1  C   UNL A   1      35.757  33.048  30.426  1.00  0.00     0.023 C 
ENDROOT
BRANCH   1   2
ATOM      2  C   UNL A   1      35.644  34.083  31.544  1.00  0.00     0.116 C 
BRANCH   2   3
ATOM      3  N   UNL A   1      36.930  34.614  31.945  1.00  0.00    -0.356 N 
ATOM      4  C   UNL A   1      37.755  34.270  32.975  1.00  0.00     0.227 C 
ATOM      5  O   UNL A   1      38.794  34.928  33.107  1.00  0.00    -0.274 OA
ATOM      6  H   UNL A   1      37.266  35.346  31.379  1.00  0.00     0.163 HD
BRANCH   4   7
ATOM      7  C   UNL A   1      37.454  33.114  33.942  1.00  0.00     0.105 C 
ATOM      8  C   UNL A   1      37.411  33.563  35.404  1.00  0.00     0.023 C 
BRANCH   7   9
ATOM      9  C   UNL A   1      38.249  31.858  33.618  1.00  0.00    -0.036 A 
ATOM     10  C   UNL A   1      39.775  29.494  33.325  1.00  0.00    -0.048 A 
ATOM     11  C   UNL A   1      38.429  29.529  32.943  1.00  0.00     0.004 A 
ATOM     12  C   UNL A   1      40.373  30.667  33.792  1.00  0.00     0.004 A 
ATOM     13  C   UNL A   1      37.677  30.701  33.076  1.00  0.00     0.005 A 
ATOM     14  C   UNL A   1      39.617  31.832  33.939  1.00  0.00     0.005 A 
BRANCH  10  15
ATOM     15  C   UNL A   1      40.551  28.199  33.282  1.00  0.00     0.038 C 
BRANCH  15  16
ATOM     16  C   UNL A   1      42.041  28.355  33.656  1.00  0.00    -0.013 C 
ATOM     17  C   UNL A   1      42.360  27.810  35.053  1.00  0.00     0.008 C 
ATOM     18  C   UNL A   1      42.911  27.637  32.622  1.00  0.00     0.008 C 
ENDBRANCH  15  16
ENDBRANCH  10  15
ENDBRANCH   7   9
ENDBRANCH   4   7
ENDBRANCH   2   3
ENDBRANCH   1   2
BRANCH   1  19
ATOM     19  C   UNL A   1      34.427  32.582  29.834  1.00  0.00     0.023 C 
BRANCH  19  20
ATOM     20  C   UNL A   1      34.420  32.360  28.325  1.00  0.00     0.116 C 
BRANCH  20  21
ATOM     21  N   UNL A   1      33.850  31.085  27.914  1.00  0.00    -0.352 N 
ATOM     22  C   UNL A   1      34.482  29.866  27.814  1.00  0.00     0.251 C 
ATOM     23  H   UNL A   1      32.894  31.096  27.677  1.00  0.00     0.163 HD
ATOM     24  O   UNL A   1      33.881  28.890  27.375  1.00  0.00    -0.269 OA
BRANCH  22  25
ATOM     25  C   UNL A   1      35.907  29.760  28.195  1.00  0.00     0.039 A 
ATOM     26  C   UNL A   1      36.233  29.330  29.484  1.00  0.00     0.014 A 
ATOM     27  C   UNL A   1      36.912  30.022  27.261  1.00  0.00     0.014 A 
ATOM     28  C   UNL A   1      37.569  29.081  29.809  1.00  0.00     0.010 A 
ATOM     29  C   UNL A   1      38.232  29.705  27.565  1.00  0.00     0.010 A 
ATOM     30  C   UNL A   1      38.573  29.224  28.838  1.00  0.00    -0.014 A 
BRANCH  30  31
ATOM     31  C   UNL A   1      39.987  28.868  29.123  1.00  0.00     0.031 A 
ATOM     32  C   UNL A   1      40.906  29.887  29.738  1.00  0.00     0.074 A 
ATOM     33  C   UNL A   1      40.463  27.665  28.747  1.00  0.00     0.049 A 
ATOM     34  N   UNL A   1      42.191  29.809  29.964  1.00  0.00    -0.248 NA
ATOM     35  C   UNL A   1      40.305  31.176  30.117  1.00  0.00     0.031 C 
ATOM     36  C   UNL A   1      39.682  26.607  28.100  1.00  0.00     0.029 A 
ATOM     37  N   UNL A   1      41.723  27.131  28.844  1.00  0.00    -0.354 N 
ATOM     38  C   UNL A   1      42.558  31.044  30.488  1.00  0.00     0.074 A 
ATOM     39  C   UNL A   1      41.368  31.866  30.501  1.00  0.00     0.031 C 
ATOM     40  C   UNL A   1      40.474  25.545  27.882  1.00  0.00     0.029 A 
ATOM     41  C   UNL A   1      41.825  25.857  28.338  1.00  0.00     0.049 A 
ATOM     42  H   UNL A   1      42.484  27.616  29.239  1.00  0.00     0.167 HD
ATOM     43  C   UNL A   1      43.770  31.448  30.937  1.00  0.00     0.037 A 
ATOM     44  C   UNL A   1      42.889  25.034  28.248  1.00  0.00     0.037 A 
ATOM     45  C   UNL A   1      44.942  30.613  30.955  1.00  0.00     0.049 A 
ATOM     46  C   UNL A   1      44.224  25.502  28.761  1.00  0.00     0.074 A 
ATOM     47  C   UNL A   1      46.201  30.905  31.451  1.00  0.00     0.029 A 
ATOM     48  N   UNL A   1      44.998  29.319  30.457  1.00  0.00    -0.354 N 
ATOM     49  N   UNL A   1      44.539  26.651  29.308  1.00  0.00    -0.248 NA
ATOM     50  C   UNL A   1      45.346  24.561  28.647  1.00  0.00     0.031 C 
ATOM     51  C   UNL A   1      47.026  29.798  31.224  1.00  0.00     0.029 A 
ATOM     52  C   UNL A   1      46.273  28.804  30.619  1.00  0.00     0.049 A 
ATOM     53  H   UNL A   1      44.243  28.839  30.048  1.00  0.00     0.167 HD
ATOM     54  C   UNL A   1      45.889  26.560  29.629  1.00  0.00     0.074 A 
ATOM     55  C   UNL A   1      46.329  25.242  29.219  1.00  0.00     0.031 C 
ATOM     56  C   UNL A   1      46.690  27.484  30.217  1.00  0.00     0.037 A 
BRANCH  43  57
ATOM     57  C   UNL A   1      43.881  32.858  31.445  1.00  0.00     0.058 A 
ATOM     58  C   UNL A   1      43.628  33.179  32.788  1.00  0.00     0.135 A 
ATOM     59  C   UNL A   1      44.238  33.904  30.579  1.00  0.00     0.135 A 
ATOM     60  F   UNL A   1      43.268  32.219  33.656  1.00  0.00    -0.206 F 
ATOM     61  C   UNL A   1      43.680  34.491  33.246  1.00  0.00     0.059 A 
ATOM     62  C   UNL A   1      44.323  35.221  31.021  1.00  0.00     0.059 A 
ATOM     63  F   UNL A   1      44.492  33.653  29.285  1.00  0.00    -0.206 F 
ATOM     64  C   UNL A   1      44.020  35.507  32.351  1.00  0.00     0.060 A 
BRANCH  64  65
ATOM     65  S   UNL A   1      44.054  37.210  32.949  1.00  0.00     0.124 S 
ATOM     66  O   UNL A   1      45.411  37.303  33.477  1.00  0.00    -0.237 OA
ATOM     67  O   UNL A   1      43.793  37.977  31.735  1.00  0.00    -0.237 OA
ATOM     68  O   UNL A   1      42.988  37.239  33.946  1.00  0.00    -0.744 OA
ENDBRANCH  64  65
ENDBRANCH  43  57
BRANCH  44  69
ATOM     69  C   UNL A   1      42.725  23.667  27.688  1.00  0.00     0.058 A 
ATOM     70  C   UNL A   1      42.510  22.570  28.534  1.00  0.00     0.135 A 
ATOM     71  C   UNL A   1      42.762  23.430  26.305  1.00  0.00     0.135 A 
ATOM     72  F   UNL A   1      42.474  22.748  29.864  1.00  0.00    -0.206 F 
ATOM     73  C   UNL A   1      42.347  21.284  28.034  1.00  0.00     0.059 A 
ATOM     74  C   UNL A   1      42.581  22.155  25.779  1.00  0.00     0.059 A 
ATOM     75  F   UNL A   1      42.949  24.449  25.452  1.00  0.00    -0.206 F 
ATOM     76  C   UNL A   1      42.382  21.086  26.653  1.00  0.00     0.060 A 
BRANCH  76  77
ATOM     77  S   UNL A   1      42.115  19.419  26.011  1.00  0.00     0.124 S 
ATOM     78  O   UNL A   1      42.984  19.412  24.839  1.00  0.00    -0.237 OA
ATOM     79  O   UNL A   1      42.544  18.585  27.129  1.00  0.00    -0.237 OA
ATOM     80  O   UNL A   1      40.681  19.393  25.735  1.00  0.00    -0.744 OA
ENDBRANCH  76  77
ENDBRANCH  44  69
BRANCH  56  81
ATOM     81  C   UNL A   1      48.113  27.091  30.489  1.00  0.00     0.058 A 
ATOM     82  C   UNL A   1      49.140  27.363  29.573  1.00  0.00     0.135 A 
ATOM     83  C   UNL A   1      48.462  26.492  31.710  1.00  0.00     0.135 A 
ATOM     84  F   UNL A   1      48.857  27.927  28.388  1.00  0.00    -0.206 F 
ATOM     85  C   UNL A   1      50.465  27.042  29.853  1.00  0.00     0.059 A 
ATOM     86  C   UNL A   1      49.783  26.183  32.020  1.00  0.00     0.059 A 
ATOM     87  F   UNL A   1      47.516  26.219  32.623  1.00  0.00    -0.206 F 
ATOM     88  C   UNL A   1      50.776  26.455  31.081  1.00  0.00     0.060 A 
BRANCH  88  89
ATOM     89  S   UNL A   1      52.504  26.089  31.454  1.00  0.00     0.124 S 
ATOM     90  O   UNL A   1      52.820  27.125  32.431  1.00  0.00    -0.237 OA
ATOM     91  O   UNL A   1      52.432  24.727  31.976  1.00  0.00    -0.237 OA
ATOM     92  O   UNL A   1      53.166  26.223  30.159  1.00  0.00    -0.744 OA
ENDBRANCH  88  89
ENDBRANCH  56  81
ENDBRANCH  30  31
ENDBRANCH  22  25
ENDBRANCH  20  21
ENDBRANCH  19  20
ENDBRANCH   1  19
TORSDOF 17
ENDMDL
MODEL 3
REMARK VINA RESULT:      -8.8      3.189     10.524
REMARK SMILES CC(C)Cc1ccc([C@@H](C)C(=O)NCCCCNC(=O)c2ccc(-c3c4nc(c(-c5c(F)cc(S(=O)(=O)[O-])cc5F)c5ccc([nH]5)c(-c5c(F)cc(S(=O)(=O)[O-])cc5F)c5nc(c(-c6c(F)cc(S(=O)(=O)[O-])cc6F)c6ccc3[nH]6)C=C5)C=C4)cc2)cc1
REMARK SMILES IDX 15 1 14 2 13 3 11 4 12 5 9 7 10 8 8 9 5 10 6 11 88 12 7 13
REMARK SMILES IDX 87 14 4 15 2 16 1 17 3 18 16 19 17 20 18 21 19 22 20 24
REMARK SMILES IDX 21 25 22 26 86 27 23 28 85 29 24 30 25 31 26 32 79 33 27 34
REMARK SMILES IDX 84 35 78 36 80 37 28 38 83 39 77 40 76 41 29 43 63 44 42 45
REMARK SMILES IDX 62 46 43 47 46 48 61 49 81 50 44 51 45 52 60 54 82 55 47 56
REMARK SMILES IDX 30 57 31 58 40 59 32 60 33 61 39 62 41 63 34 64 35 65 36 66
REMARK SMILES IDX 37 67 38 68 64 69 65 70 74 71 66 72 67 73 73 74 75 75 68 76
REMARK SMILES IDX 69 77 70 78 71 79 72 80 48 81 49 82 58 83 50 84 51 85 57 86
REMARK SMILES IDX 59 87 52 88 53 89 54 90 55 91 56 92
REMARK H PARENT 13 6 18 23 80 42 46 53
REMARK Flexibility Score: inf
ROOT
ATOM      1  C   UNL A   1      42.802  22.111  26.401  1.00  0.00     0.023 C 
ENDROOT
BRANCH   1   2
ATOM      2  C   UNL A   1      43.111  23.543  25.966  1.00  0.00     0.116 C 
BRANCH   2   3
ATOM      3  N   UNL A   1      44.220  23.617  25.038  1.00  0.00    -0.356 N 
ATOM      4  C   UNL A   1      45.438  24.219  25.152  1.00  0.00     0.227 C 
ATOM      5  O   UNL A   1      46.191  24.155  24.172  1.00  0.00    -0.274 OA
ATOM      6  H   UNL A   1      44.070  23.155  24.182  1.00  0.00     0.163 HD
BRANCH   4   7
ATOM      7  C   UNL A   1      45.903  24.941  26.427  1.00  0.00     0.105 C 
ATOM      8  C   UNL A   1      45.746  24.082  27.683  1.00  0.00     0.023 C 
BRANCH   7   9
ATOM      9  C   UNL A   1      45.411  26.379  26.497  1.00  0.00    -0.036 A 
ATOM     10  C   UNL A   1      44.247  28.942  26.782  1.00  0.00    -0.048 A 
ATOM     11  C   UNL A   1      45.478  28.644  27.378  1.00  0.00     0.004 A 
ATOM     12  C   UNL A   1      43.633  27.972  25.986  1.00  0.00     0.004 A 
ATOM     13  C   UNL A   1      46.060  27.382  27.227  1.00  0.00     0.005 A 
ATOM     14  C   UNL A   1      44.207  26.706  25.849  1.00  0.00     0.005 A 
BRANCH  10  15
ATOM     15  C   UNL A   1      43.571  30.268  27.037  1.00  0.00     0.038 C 
BRANCH  15  16
ATOM     16  C   UNL A   1      44.557  31.441  27.228  1.00  0.00    -0.013 C 
ATOM     17  C   UNL A   1      44.313  32.584  26.237  1.00  0.00     0.008 C 
ATOM     18  C   UNL A   1      44.449  31.979  28.657  1.00  0.00     0.008 C 
ENDBRANCH  15  16
ENDBRANCH  10  15
ENDBRANCH   7   9
ENDBRANCH   4   7
ENDBRANCH   2   3
ENDBRANCH   1   2
BRANCH   1  19
ATOM     19  C   UNL A   1      41.518  21.518  25.822  1.00  0.00     0.023 C 
BRANCH  19  20
ATOM     20  C   UNL A   1      40.269  21.689  26.682  1.00  0.00     0.116 C 
BRANCH  20  21
ATOM     21  N   UNL A   1      39.106  22.173  25.950  1.00  0.00    -0.352 N 
ATOM     22  C   UNL A   1      38.560  23.437  25.965  1.00  0.00     0.251 C 
ATOM     23  H   UNL A   1      38.654  21.514  25.375  1.00  0.00     0.163 HD
ATOM     24  O   UNL A   1      37.524  23.672  25.350  1.00  0.00    -0.269 OA
BRANCH  22  25
ATOM     25  C   UNL A   1      39.211  24.493  26.771  1.00  0.00     0.039 A 
ATOM     26  C   UNL A   1      40.058  25.404  26.135  1.00  0.00     0.014 A 
ATOM     27  C   UNL A   1      38.931  24.618  28.133  1.00  0.00     0.014 A 
ATOM     28  C   UNL A   1      40.558  26.494  26.852  1.00  0.00     0.010 A 
ATOM     29  C   UNL A   1      39.372  25.742  28.825  1.00  0.00     0.010 A 
ATOM     30  C   UNL A   1      40.182  26.695  28.190  1.00  0.00    -0.014 A 
BRANCH  30  31
ATOM     31  C   UNL A   1      40.614  27.898  28.948  1.00  0.00     0.031 A 
ATOM     32  C   UNL A   1      41.966  27.924  29.606  1.00  0.00     0.074 A 
ATOM     33  C   UNL A   1      39.758  28.924  29.118  1.00  0.00     0.049 A 
ATOM     34  N   UNL A   1      42.483  28.828  30.395  1.00  0.00    -0.248 NA
ATOM     35  C   UNL A   1      42.837  26.761  29.370  1.00  0.00     0.031 C 
ATOM     36  C   UNL A   1      38.402  28.999  28.568  1.00  0.00     0.029 A 
ATOM     37  N   UNL A   1      39.896  30.100  29.812  1.00  0.00    -0.354 N 
ATOM     38  C   UNL A   1      43.727  28.336  30.770  1.00  0.00     0.074 A 
ATOM     39  C   UNL A   1      43.866  27.031  30.160  1.00  0.00     0.031 C 
ATOM     40  C   UNL A   1      37.844  30.167  28.925  1.00  0.00     0.029 A 
ATOM     41  C   UNL A   1      38.786  30.909  29.759  1.00  0.00     0.049 A 
ATOM     42  H   UNL A   1      40.715  30.341  30.303  1.00  0.00     0.167 HD
ATOM     43  C   UNL A   1      44.676  28.924  31.536  1.00  0.00     0.037 A 
ATOM     44  C   UNL A   1      38.552  32.110  30.321  1.00  0.00     0.037 A 
ATOM     45  C   UNL A   1      44.547  30.237  32.112  1.00  0.00     0.049 A 
ATOM     46  C   UNL A   1      39.624  32.749  31.161  1.00  0.00     0.074 A 
ATOM     47  C   UNL A   1      45.478  30.952  32.847  1.00  0.00     0.029 A 
ATOM     48  N   UNL A   1      43.417  31.035  32.013  1.00  0.00    -0.354 N 
ATOM     49  N   UNL A   1      40.818  32.295  31.457  1.00  0.00    -0.248 NA
ATOM     50  C   UNL A   1      39.318  34.063  31.742  1.00  0.00     0.031 C 
ATOM     51  C   UNL A   1      44.897  32.168  33.219  1.00  0.00     0.029 A 
ATOM     52  C   UNL A   1      43.619  32.228  32.687  1.00  0.00     0.049 A 
ATOM     53  H   UNL A   1      42.592  30.790  31.536  1.00  0.00     0.167 HD
ATOM     54  C   UNL A   1      41.416  33.280  32.234  1.00  0.00     0.074 A 
ATOM     55  C   UNL A   1      40.454  34.357  32.359  1.00  0.00     0.031 C 
ATOM     56  C   UNL A   1      42.654  33.295  32.789  1.00  0.00     0.037 A 
BRANCH  43  57
ATOM     57  C   UNL A   1      45.936  28.145  31.791  1.00  0.00     0.058 A 
ATOM     58  C   UNL A   1      47.082  28.319  30.998  1.00  0.00     0.135 A 
ATOM     59  C   UNL A   1      45.999  27.210  32.836  1.00  0.00     0.135 A 
ATOM     60  F   UNL A   1      47.071  29.190  29.976  1.00  0.00    -0.206 F 
ATOM     61  C   UNL A   1      48.230  27.560  31.202  1.00  0.00     0.059 A 
ATOM     62  C   UNL A   1      47.146  26.460  33.076  1.00  0.00     0.059 A 
ATOM     63  F   UNL A   1      44.934  27.006  33.626  1.00  0.00    -0.206 F 
ATOM     64  C   UNL A   1      48.249  26.626  32.239  1.00  0.00     0.060 A 
BRANCH  64  65
ATOM     65  S   UNL A   1      49.733  25.626  32.474  1.00  0.00     0.124 S 
ATOM     66  O   UNL A   1      49.201  24.493  33.225  1.00  0.00    -0.237 OA
ATOM     67  O   UNL A   1      50.142  25.340  31.103  1.00  0.00    -0.237 OA
ATOM     68  O   UNL A   1      50.623  26.512  33.218  1.00  0.00    -0.744 OA
ENDBRANCH  64  65
ENDBRANCH  43  57
BRANCH  44  69
ATOM     69  C   UNL A   1      37.263  32.809  30.073  1.00  0.00     0.058 A 
ATOM     70  C   UNL A   1      36.143  32.546  30.875  1.00  0.00     0.135 A 
ATOM     71  C   UNL A   1      37.127  33.760  29.049  1.00  0.00     0.135 A 
ATOM     72  F   UNL A   1      36.224  31.640  31.861  1.00  0.00    -0.206 F 
ATOM     73  C   UNL A   1      34.929  33.191  30.667  1.00  0.00     0.059 A 
ATOM     74  C   UNL A   1      35.929  34.434  28.834  1.00  0.00     0.059 A 
ATOM     75  F   UNL A   1      38.174  34.057  28.264  1.00  0.00    -0.206 F 
ATOM     76  C   UNL A   1      34.832  34.136  29.643  1.00  0.00     0.060 A 
BRANCH  76  77
ATOM     77  S   UNL A   1      33.267  35.008  29.417  1.00  0.00     0.124 S 
ATOM     78  O   UNL A   1      33.722  36.312  28.948  1.00  0.00    -0.237 OA
ATOM     79  O   UNL A   1      32.589  34.174  28.429  1.00  0.00    -0.237 OA
ATOM     80  O   UNL A   1      32.677  34.987  30.753  1.00  0.00    -0.744 OA
ENDBRANCH  76  77
ENDBRANCH  44  69
BRANCH  56  81
ATOM     81  C   UNL A   1      43.057  34.526  33.548  1.00  0.00     0.058 A 
ATOM     82  C   UNL A   1      42.756  34.683  34.909  1.00  0.00     0.135 A 
ATOM     83  C   UNL A   1      43.808  35.532  32.920  1.00  0.00     0.135 A 
ATOM     84  F   UNL A   1      42.033  33.753  35.554  1.00  0.00    -0.206 F 
ATOM     85  C   UNL A   1      43.176  35.803  35.620  1.00  0.00     0.059 A 
ATOM     86  C   UNL A   1      44.258  36.649  33.616  1.00  0.00     0.059 A 
ATOM     87  F   UNL A   1      44.128  35.424  31.621  1.00  0.00    -0.206 F 
ATOM     88  C   UNL A   1      43.929  36.779  34.965  1.00  0.00     0.060 A 
BRANCH  88  89
ATOM     89  S   UNL A   1      44.512  38.204  35.909  1.00  0.00     0.124 S 
ATOM     90  O   UNL A   1      43.921  39.311  35.165  1.00  0.00    -0.237 OA
ATOM     91  O   UNL A   1      43.947  37.957  37.232  1.00  0.00    -0.237 OA
ATOM     92  O   UNL A   1      45.965  38.093  35.824  1.00  0.00    -0.744 OA
ENDBRANCH  88  89
ENDBRANCH  56  81
ENDBRANCH  30  31
ENDBRANCH  22  25
ENDBRANCH  20  21
ENDBRANCH  19  20
ENDBRANCH   1  19
TORSDOF 17
ENDMDL
