MODEL 1
REMARK VINA RESULT:     -13.3      0.000      0.000
REMARK SMILES O=C(NCCCCNC(=O)[C@H]1Cc2c([nH]c3ccccc23)[C@H](c2c[nH]c3ccccc23)[NH2+]1)c1ccc(-c2c3nc(c(-c4c(F)cc(S(=O)(=O)[O-])cc4F)c4ccc([nH]4)c(-c4c(F)cc(S(=O)(=O)[O-])cc4F)c4nc(c(-c5c(F)cc(S(=O)(=O)[O-])cc5F)c5ccc2[nH]5)C=C4)C=C3)cc1
REMARK SMILES IDX 4 1 3 2 1 3 2 4 33 6 34 7 98 8 35 9 97 10 36 11 37 12 38 13
REMARK SMILES IDX 91 14 39 15 96 16 90 17 92 18 40 19 95 20 89 21 88 22 41 24
REMARK SMILES IDX 75 25 54 26 74 27 55 28 58 29 73 30 93 31 56 32 57 33 72 35
REMARK SMILES IDX 94 36 59 37 42 38 43 39 52 40 44 41 45 42 51 43 53 44 46 45
REMARK SMILES IDX 47 46 48 47 49 48 50 49 76 50 77 51 86 52 78 53 79 54 85 55
REMARK SMILES IDX 87 56 80 57 81 58 82 59 83 60 84 61 60 62 61 63 70 64 62 65
REMARK SMILES IDX 63 66 69 67 71 68 64 69 65 70 66 71 67 72 68 73 5 74 6 75
REMARK SMILES IDX 7 76 8 77 9 78 10 80 11 81 12 82 32 83 13 84 22 85 14 88
REMARK SMILES IDX 21 89 15 90 16 91 20 92 17 94 19 95 18 96 23 97 24 98 31 99
REMARK SMILES IDX 25 100 26 101 30 102 27 104 29 105 28 106
REMARK H PARENT 3 5 92 23 58 34 8 79 32 86 32 87 15 93 25 103
REMARK Flexibility Score: inf
ROOT
ATOM      1  C   UNL A   1      35.245  29.259  27.455  1.00  0.00     0.116 C 
ENDROOT
BRANCH   1   2
ATOM      2  N   UNL A   1      35.171  30.017  28.695  1.00  0.00    -0.352 N 
ATOM      3  O   UNL A   1      35.879  30.782  30.697  1.00  0.00    -0.269 OA
ATOM      4  C   UNL A   1      36.155  30.256  29.623  1.00  0.00     0.251 C 
ATOM      5  H   UNL A   1      34.293  30.414  28.897  1.00  0.00     0.163 HD
BRANCH   4   6
ATOM      6  C   UNL A   1      37.544  29.851  29.324  1.00  0.00     0.039 A 
ATOM      7  C   UNL A   1      38.377  29.387  30.345  1.00  0.00     0.014 A 
ATOM      8  C   UNL A   1      38.019  29.951  28.014  1.00  0.00     0.014 A 
ATOM      9  C   UNL A   1      39.721  29.155  30.085  1.00  0.00     0.010 A 
ATOM     10  C   UNL A   1      39.351  29.634  27.738  1.00  0.00     0.010 A 
ATOM     11  C   UNL A   1      40.218  29.257  28.776  1.00  0.00    -0.014 A 
BRANCH  11  12
ATOM     12  C   UNL A   1      41.624  28.876  28.500  1.00  0.00     0.031 A 
ATOM     13  C   UNL A   1      42.732  29.891  28.547  1.00  0.00     0.074 A 
ATOM     14  C   UNL A   1      41.888  27.589  28.205  1.00  0.00     0.049 A 
ATOM     15  N   UNL A   1      44.006  29.724  28.304  1.00  0.00    -0.248 NA
ATOM     16  C   UNL A   1      42.366  31.271  28.904  1.00  0.00     0.031 C 
ATOM     17  C   UNL A   1      40.882  26.525  28.115  1.00  0.00     0.029 A 
ATOM     18  N   UNL A   1      43.069  26.951  27.929  1.00  0.00    -0.354 N 
ATOM     19  C   UNL A   1      44.591  30.976  28.450  1.00  0.00     0.074 A 
ATOM     20  C   UNL A   1      43.530  31.898  28.795  1.00  0.00     0.031 C 
ATOM     21  C   UNL A   1      41.491  25.364  27.832  1.00  0.00     0.029 A 
ATOM     22  C   UNL A   1      42.917  25.612  27.658  1.00  0.00     0.049 A 
ATOM     23  H   UNL A   1      43.940  27.407  27.926  1.00  0.00     0.167 HD
ATOM     24  C   UNL A   1      45.896  31.317  28.311  1.00  0.00     0.037 A 
ATOM     25  C   UNL A   1      43.819  24.688  27.279  1.00  0.00     0.037 A 
ATOM     26  C   UNL A   1      46.945  30.380  27.996  1.00  0.00     0.049 A 
ATOM     27  C   UNL A   1      45.253  25.098  27.117  1.00  0.00     0.074 A 
ATOM     28  C   UNL A   1      48.306  30.613  27.904  1.00  0.00     0.029 A 
ATOM     29  N   UNL A   1      46.750  29.036  27.710  1.00  0.00    -0.354 N 
ATOM     30  N   UNL A   1      45.795  26.276  27.312  1.00  0.00    -0.248 NA
ATOM     31  C   UNL A   1      46.194  24.062  26.678  1.00  0.00     0.031 C 
ATOM     32  C   UNL A   1      48.929  29.420  27.519  1.00  0.00     0.029 A 
ATOM     33  C   UNL A   1      47.962  28.435  27.410  1.00  0.00     0.049 A 
ATOM     34  H   UNL A   1      45.879  28.577  27.719  1.00  0.00     0.167 HD
ATOM     35  C   UNL A   1      47.144  26.122  27.021  1.00  0.00     0.074 A 
ATOM     36  C   UNL A   1      47.339  24.732  26.660  1.00  0.00     0.031 C 
ATOM     37  C   UNL A   1      48.132  27.051  27.046  1.00  0.00     0.037 A 
BRANCH  24  38
ATOM     38  C   UNL A   1      46.272  32.762  28.480  1.00  0.00     0.058 A 
ATOM     39  C   UNL A   1      46.712  33.275  29.710  1.00  0.00     0.135 A 
ATOM     40  C   UNL A   1      46.260  33.630  27.376  1.00  0.00     0.135 A 
ATOM     41  F   UNL A   1      46.732  32.492  30.800  1.00  0.00    -0.206 F 
ATOM     42  C   UNL A   1      47.114  34.602  29.843  1.00  0.00     0.059 A 
ATOM     43  C   UNL A   1      46.675  34.956  27.480  1.00  0.00     0.059 A 
ATOM     44  F   UNL A   1      45.847  33.192  26.176  1.00  0.00    -0.206 F 
ATOM     45  C   UNL A   1      47.092  35.435  28.722  1.00  0.00     0.060 A 
BRANCH  45  46
ATOM     46  S   UNL A   1      47.634  37.147  28.906  1.00  0.00     0.124 S 
ATOM     47  O   UNL A   1      47.251  37.712  27.617  1.00  0.00    -0.237 OA
ATOM     48  O   UNL A   1      46.854  37.602  30.052  1.00  0.00    -0.237 OA
ATOM     49  O   UNL A   1      49.070  37.027  29.137  1.00  0.00    -0.744 OA
ENDBRANCH  45  46
ENDBRANCH  24  38
BRANCH  25  50
ATOM     50  C   UNL A   1      43.373  23.300  26.996  1.00  0.00     0.058 A 
ATOM     51  C   UNL A   1      43.295  22.817  25.683  1.00  0.00     0.135 A 
ATOM     52  C   UNL A   1      43.053  22.418  28.041  1.00  0.00     0.135 A 
ATOM     53  F   UNL A   1      43.590  23.624  24.652  1.00  0.00    -0.206 F 
ATOM     54  C   UNL A   1      42.904  21.510  25.413  1.00  0.00     0.059 A 
ATOM     55  C   UNL A   1      42.686  21.101  27.797  1.00  0.00     0.059 A 
ATOM     56  F   UNL A   1      43.133  22.830  29.316  1.00  0.00    -0.206 F 
ATOM     57  C   UNL A   1      42.604  20.659  26.478  1.00  0.00     0.060 A 
BRANCH  57  58
ATOM     58  S   UNL A   1      42.148  18.947  26.123  1.00  0.00     0.124 S 
ATOM     59  O   UNL A   1      43.041  18.632  25.014  1.00  0.00    -0.237 OA
ATOM     60  O   UNL A   1      42.440  18.281  27.389  1.00  0.00    -0.237 OA
ATOM     61  O   UNL A   1      40.730  19.042  25.788  1.00  0.00    -0.744 OA
ENDBRANCH  57  58
ENDBRANCH  25  50
BRANCH  37  62
ATOM     62  C   UNL A   1      49.512  26.589  26.677  1.00  0.00     0.058 A 
ATOM     63  C   UNL A   1      50.354  25.980  27.620  1.00  0.00     0.135 A 
ATOM     64  C   UNL A   1      49.976  26.712  25.358  1.00  0.00     0.135 A 
ATOM     65  F   UNL A   1      49.958  25.852  28.896  1.00  0.00    -0.206 F 
ATOM     66  C   UNL A   1      51.618  25.519  27.271  1.00  0.00     0.059 A 
ATOM     67  C   UNL A   1      51.228  26.237  24.982  1.00  0.00     0.059 A 
ATOM     68  F   UNL A   1      49.206  27.284  24.419  1.00  0.00    -0.206 F 
ATOM     69  C   UNL A   1      52.045  25.649  25.947  1.00  0.00     0.060 A 
BRANCH  69  70
ATOM     70  S   UNL A   1      53.670  25.006  25.495  1.00  0.00     0.124 S 
ATOM     71  O   UNL A   1      54.011  25.847  24.353  1.00  0.00    -0.237 OA
ATOM     72  O   UNL A   1      54.448  25.236  26.708  1.00  0.00    -0.237 OA
ATOM     73  O   UNL A   1      53.404  23.603  25.185  1.00  0.00    -0.744 OA
ENDBRANCH  69  70
ENDBRANCH  37  62
ENDBRANCH  11  12
ENDBRANCH   4   6
ENDBRANCH   1   2
BRANCH   1  74
ATOM     74  C   UNL A   1      33.882  28.766  26.986  1.00  0.00     0.023 C 
BRANCH  74  75
ATOM     75  C   UNL A   1      33.723  28.655  25.474  1.00  0.00     0.023 C 
BRANCH  75  76
ATOM     76  C   UNL A   1      33.246  27.298  24.973  1.00  0.00     0.116 C 
BRANCH  76  77
ATOM     77  N   UNL A   1      32.147  26.764  25.760  1.00  0.00    -0.351 N 
ATOM     78  C   UNL A   1      31.949  25.479  26.184  1.00  0.00     0.278 C 
ATOM     79  H   UNL A   1      31.454  27.412  26.023  1.00  0.00     0.163 HD
ATOM     80  O   UNL A   1      31.007  25.252  26.946  1.00  0.00    -0.268 OA
BRANCH  78  81
ATOM     81  C   UNL A   1      32.863  24.346  25.697  1.00  0.00     0.277 C 
ATOM     82  C   UNL A   1      34.307  24.638  26.160  1.00  0.00     0.114 C 
ATOM     83  N   UNL A   1      32.295  23.033  26.118  1.00  0.00    -0.324 N 
ATOM     84  C   UNL A   1      35.135  23.416  26.005  1.00  0.00    -0.006 A 
ATOM     85  C   UNL A   1      33.086  21.868  25.722  1.00  0.00     0.264 C 
ATOM     86  H   UNL A   1      31.368  22.941  25.704  1.00  0.00     0.347 HD
ATOM     87  H   UNL A   1      32.282  23.039  27.138  1.00  0.00     0.347 HD
ATOM     88  C   UNL A   1      34.554  22.177  25.819  1.00  0.00     0.083 A 
ATOM     89  C   UNL A   1      36.543  23.249  26.028  1.00  0.00     0.003 A 
ATOM     90  N   UNL A   1      35.565  21.254  25.790  1.00  0.00    -0.353 N 
ATOM     91  C   UNL A   1      36.788  21.882  25.896  1.00  0.00     0.046 A 
ATOM     92  C   UNL A   1      37.636  24.128  26.156  1.00  0.00     0.010 A 
ATOM     93  H   UNL A   1      35.437  20.281  25.705  1.00  0.00     0.166 HD
ATOM     94  C   UNL A   1      38.082  21.347  25.889  1.00  0.00     0.026 A 
ATOM     95  C   UNL A   1      38.936  23.611  26.139  1.00  0.00     0.001 A 
ATOM     96  C   UNL A   1      39.152  22.240  26.009  1.00  0.00     0.002 A 
BRANCH  85  97
ATOM     97  C   UNL A   1      32.666  21.277  24.387  1.00  0.00     0.041 A 
ATOM     98  C   UNL A   1      32.144  22.055  23.358  1.00  0.00     0.093 A 
ATOM     99  C   UNL A   1      32.751  19.931  23.847  1.00  0.00     0.009 A 
ATOM    100  N   UNL A   1      31.853  21.258  22.292  1.00  0.00    -0.361 N 
ATOM    101  C   UNL A   1      32.215  19.963  22.555  1.00  0.00     0.046 A 
ATOM    102  C   UNL A   1      33.233  18.678  24.299  1.00  0.00     0.011 A 
ATOM    103  H   UNL A   1      31.442  21.568  21.452  1.00  0.00     0.166 HD
ATOM    104  C   UNL A   1      32.113  18.832  21.731  1.00  0.00     0.026 A 
ATOM    105  C   UNL A   1      33.141  17.538  23.489  1.00  0.00     0.001 A 
ATOM    106  C   UNL A   1      32.582  17.615  22.223  1.00  0.00     0.002 A 
ENDBRANCH  85  97
ENDBRANCH  78  81
ENDBRANCH  76  77
ENDBRANCH  75  76
ENDBRANCH  74  75
ENDBRANCH   1  74
TORSDOF 15
ENDMDL
MODEL 2
REMARK VINA RESULT:     -13.0      2.522      3.315
REMARK SMILES O=C(NCCCCNC(=O)[C@H]1Cc2c([nH]c3ccccc23)[C@H](c2c[nH]c3ccccc23)[NH2+]1)c1ccc(-c2c3nc(c(-c4c(F)cc(S(=O)(=O)[O-])cc4F)c4ccc([nH]4)c(-c4c(F)cc(S(=O)(=O)[O-])cc4F)c4nc(c(-c5c(F)cc(S(=O)(=O)[O-])cc5F)c5ccc2[nH]5)C=C4)C=C3)cc1
REMARK SMILES IDX 4 1 3 2 1 3 2 4 33 6 34 7 98 8 35 9 97 10 36 11 37 12 38 13
REMARK SMILES IDX 91 14 39 15 96 16 90 17 92 18 40 19 95 20 89 21 88 22 41 24
REMARK SMILES IDX 75 25 54 26 74 27 55 28 58 29 73 30 93 31 56 32 57 33 72 35
REMARK SMILES IDX 94 36 59 37 42 38 43 39 52 40 44 41 45 42 51 43 53 44 46 45
REMARK SMILES IDX 47 46 48 47 49 48 50 49 76 50 77 51 86 52 78 53 79 54 85 55
REMARK SMILES IDX 87 56 80 57 81 58 82 59 83 60 84 61 60 62 61 63 70 64 62 65
REMARK SMILES IDX 63 66 69 67 71 68 64 69 65 70 66 71 67 72 68 73 5 74 6 75
REMARK SMILES IDX 7 76 8 77 9 78 10 80 11 81 12 82 32 83 13 84 22 85 14 88
REMARK SMILES IDX 21 89 15 90 16 91 20 92 17 94 19 95 18 96 23 97 24 98 31 99
REMARK SMILES IDX 25 100 26 101 30 102 27 104 29 105 28 106
REMARK H PARENT 3 5 92 23 58 34 8 79 32 86 32 87 15 93 25 103
REMARK Flexibility Score: inf
ROOT
ATOM      1  C   UNL A   1      34.251  28.198  26.643  1.00  0.00     0.116 C 
ENDROOT
BRANCH   1   2
ATOM      2  N   UNL A   1      33.850  29.509  27.130  1.00  0.00    -0.352 N 
ATOM      3  O   UNL A   1      33.991  31.384  28.378  1.00  0.00    -0.269 OA
ATOM      4  C   UNL A   1      34.544  30.385  27.928  1.00  0.00     0.251 C 
ATOM      5  H   UNL A   1      32.957  29.811  26.847  1.00  0.00     0.163 HD
BRANCH   4   6
ATOM      6  C   UNL A   1      35.956  30.099  28.258  1.00  0.00     0.039 A 
ATOM      7  C   UNL A   1      36.952  30.269  27.293  1.00  0.00     0.014 A 
ATOM      8  C   UNL A   1      36.281  29.645  29.538  1.00  0.00     0.014 A 
ATOM      9  C   UNL A   1      38.249  29.854  27.564  1.00  0.00     0.010 A 
ATOM     10  C   UNL A   1      37.603  29.309  29.836  1.00  0.00     0.010 A 
ATOM     11  C   UNL A   1      38.592  29.388  28.843  1.00  0.00    -0.014 A 
BRANCH  11  12
ATOM     12  C   UNL A   1      40.010  29.076  29.146  1.00  0.00     0.031 A 
ATOM     13  C   UNL A   1      40.911  30.088  29.794  1.00  0.00     0.074 A 
ATOM     14  C   UNL A   1      40.475  27.853  28.824  1.00  0.00     0.049 A 
ATOM     15  N   UNL A   1      42.180  29.982  30.098  1.00  0.00    -0.248 NA
ATOM     16  C   UNL A   1      40.322  31.392  30.139  1.00  0.00     0.031 C 
ATOM     17  C   UNL A   1      39.687  26.800  28.174  1.00  0.00     0.029 A 
ATOM     18  N   UNL A   1      41.709  27.284  28.997  1.00  0.00    -0.354 N 
ATOM     19  C   UNL A   1      42.548  31.205  30.644  1.00  0.00     0.074 A 
ATOM     20  C   UNL A   1      41.370  32.047  30.621  1.00  0.00     0.031 C 
ATOM     21  C   UNL A   1      40.449  25.707  28.028  1.00  0.00     0.029 A 
ATOM     22  C   UNL A   1      41.792  26.000  28.513  1.00  0.00     0.049 A 
ATOM     23  H   UNL A   1      42.462  27.749  29.426  1.00  0.00     0.167 HD
ATOM     24  C   UNL A   1      43.759  31.584  31.121  1.00  0.00     0.037 A 
ATOM     25  C   UNL A   1      42.839  25.160  28.436  1.00  0.00     0.037 A 
ATOM     26  C   UNL A   1      44.914  30.723  31.162  1.00  0.00     0.049 A 
ATOM     27  C   UNL A   1      44.171  25.612  28.957  1.00  0.00     0.074 A 
ATOM     28  C   UNL A   1      46.165  30.988  31.691  1.00  0.00     0.029 A 
ATOM     29  N   UNL A   1      44.964  29.435  30.646  1.00  0.00    -0.354 N 
ATOM     30  N   UNL A   1      44.487  26.754  29.518  1.00  0.00    -0.248 NA
ATOM     31  C   UNL A   1      45.289  24.670  28.829  1.00  0.00     0.031 C 
ATOM     32  C   UNL A   1      46.984  29.879  31.456  1.00  0.00     0.029 A 
ATOM     33  C   UNL A   1      46.234  28.906  30.815  1.00  0.00     0.049 A 
ATOM     34  H   UNL A   1      44.210  28.967  30.223  1.00  0.00     0.167 HD
ATOM     35  C   UNL A   1      45.841  26.668  29.813  1.00  0.00     0.074 A 
ATOM     36  C   UNL A   1      46.279  25.353  29.389  1.00  0.00     0.031 C 
ATOM     37  C   UNL A   1      46.650  27.597  30.380  1.00  0.00     0.037 A 
BRANCH  24  38
ATOM     38  C   UNL A   1      43.914  32.992  31.623  1.00  0.00     0.058 A 
ATOM     39  C   UNL A   1      44.309  34.041  30.780  1.00  0.00     0.135 A 
ATOM     40  C   UNL A   1      43.593  33.307  32.954  1.00  0.00     0.135 A 
ATOM     41  F   UNL A   1      44.639  33.793  29.503  1.00  0.00    -0.206 F 
ATOM     42  C   UNL A   1      44.394  35.352  31.241  1.00  0.00     0.059 A 
ATOM     43  C   UNL A   1      43.652  34.614  33.432  1.00  0.00     0.059 A 
ATOM     44  F   UNL A   1      43.209  32.341  33.804  1.00  0.00    -0.206 F 
ATOM     45  C   UNL A   1      44.064  35.628  32.569  1.00  0.00     0.060 A 
BRANCH  45  46
ATOM     46  S   UNL A   1      44.161  37.337  33.148  1.00  0.00     0.124 S 
ATOM     47  O   UNL A   1      43.133  37.351  34.182  1.00  0.00    -0.237 OA
ATOM     48  O   UNL A   1      45.537  37.429  33.623  1.00  0.00    -0.237 OA
ATOM     49  O   UNL A   1      43.859  38.118  31.953  1.00  0.00    -0.744 OA
ENDBRANCH  45  46
ENDBRANCH  24  38
BRANCH  25  50
ATOM     50  C   UNL A   1      42.666  23.825  27.810  1.00  0.00     0.058 A 
ATOM     51  C   UNL A   1      42.805  23.648  26.427  1.00  0.00     0.135 A 
ATOM     52  C   UNL A   1      42.393  22.690  28.592  1.00  0.00     0.135 A 
ATOM     53  F   UNL A   1      43.063  24.703  25.639  1.00  0.00    -0.206 F 
ATOM     54  C   UNL A   1      42.669  22.396  25.837  1.00  0.00     0.059 A 
ATOM     55  C   UNL A   1      42.280  21.426  28.030  1.00  0.00     0.059 A 
ATOM     56  F   UNL A   1      42.272  22.806  29.924  1.00  0.00    -0.206 F 
ATOM     57  C   UNL A   1      42.409  21.290  26.648  1.00  0.00     0.060 A 
BRANCH  57  58
ATOM     58  S   UNL A   1      42.287  19.658  25.883  1.00  0.00     0.124 S 
ATOM     59  O   UNL A   1      40.891  19.638  25.463  1.00  0.00    -0.237 OA
ATOM     60  O   UNL A   1      43.276  19.743  24.814  1.00  0.00    -0.237 OA
ATOM     61  O   UNL A   1      42.633  18.752  26.975  1.00  0.00    -0.744 OA
ENDBRANCH  57  58
ENDBRANCH  25  50
BRANCH  37  62
ATOM     62  C   UNL A   1      48.089  27.219  30.577  1.00  0.00     0.058 A 
ATOM     63  C   UNL A   1      49.069  27.562  29.632  1.00  0.00     0.135 A 
ATOM     64  C   UNL A   1      48.499  26.554  31.742  1.00  0.00     0.135 A 
ATOM     65  F   UNL A   1      48.723  28.188  28.496  1.00  0.00    -0.206 F 
ATOM     66  C   UNL A   1      50.408  27.245  29.830  1.00  0.00     0.059 A 
ATOM     67  C   UNL A   1      49.837  26.248  31.972  1.00  0.00     0.059 A 
ATOM     68  F   UNL A   1      47.600  26.209  32.677  1.00  0.00    -0.206 F 
ATOM     69  C   UNL A   1      50.783  26.591  31.006  1.00  0.00     0.060 A 
BRANCH  69  70
ATOM     70  S   UNL A   1      52.530  26.226  31.274  1.00  0.00     0.124 S 
ATOM     71  O   UNL A   1      52.946  27.363  32.089  1.00  0.00    -0.237 OA
ATOM     72  O   UNL A   1      52.481  24.939  31.960  1.00  0.00    -0.237 OA
ATOM     73  O   UNL A   1      53.079  26.189  29.921  1.00  0.00    -0.744 OA
ENDBRANCH  69  70
ENDBRANCH  37  62
ENDBRANCH  11  12
ENDBRANCH   4   6
ENDBRANCH   1   2
BRANCH   1  74
ATOM     74  C   UNL A   1      33.062  27.319  26.277  1.00  0.00     0.023 C 
BRANCH  74  75
ATOM     75  C   UNL A   1      32.796  27.187  24.781  1.00  0.00     0.023 C 
BRANCH  75  76
ATOM     76  C   UNL A   1      31.855  26.054  24.390  1.00  0.00     0.116 C 
BRANCH  76  77
ATOM     77  N   UNL A   1      31.130  25.510  25.525  1.00  0.00    -0.351 N 
ATOM     78  C   UNL A   1      31.413  24.390  26.258  1.00  0.00     0.278 C 
ATOM     79  H   UNL A   1      30.331  26.013  25.805  1.00  0.00     0.163 HD
ATOM     80  O   UNL A   1      30.736  24.162  27.263  1.00  0.00    -0.268 OA
BRANCH  78  81
ATOM     81  C   UNL A   1      32.526  23.430  25.820  1.00  0.00     0.277 C 
ATOM     82  C   UNL A   1      33.893  24.060  26.168  1.00  0.00     0.114 C 
ATOM     83  N   UNL A   1      32.267  22.075  26.387  1.00  0.00    -0.324 N 
ATOM     84  C   UNL A   1      34.954  23.027  26.072  1.00  0.00    -0.006 A 
ATOM     85  C   UNL A   1      33.272  21.066  26.049  1.00  0.00     0.264 C 
ATOM     86  H   UNL A   1      31.365  21.752  26.039  1.00  0.00     0.347 HD
ATOM     87  H   UNL A   1      32.293  22.178  27.401  1.00  0.00     0.347 HD
ATOM     88  C   UNL A   1      34.643  21.682  26.031  1.00  0.00     0.083 A 
ATOM     89  C   UNL A   1      36.365  23.159  26.026  1.00  0.00     0.003 A 
ATOM     90  N   UNL A   1      35.825  20.991  26.023  1.00  0.00    -0.353 N 
ATOM     91  C   UNL A   1      36.889  21.866  26.000  1.00  0.00     0.046 A 
ATOM     92  C   UNL A   1      37.251  24.254  26.011  1.00  0.00     0.010 A 
ATOM     93  H   UNL A   1      35.903  20.009  26.032  1.00  0.00     0.166 HD
ATOM     94  C   UNL A   1      38.267  21.614  25.964  1.00  0.00     0.026 A 
ATOM     95  C   UNL A   1      38.629  24.019  25.962  1.00  0.00     0.001 A 
ATOM     96  C   UNL A   1      39.126  22.717  25.940  1.00  0.00     0.002 A 
BRANCH  85  97
ATOM     97  C   UNL A   1      32.933  20.273  24.799  1.00  0.00     0.041 A 
ATOM     98  C   UNL A   1      32.123  20.781  23.788  1.00  0.00     0.093 A 
ATOM     99  C   UNL A   1      33.364  18.968  24.327  1.00  0.00     0.009 A 
ATOM    100  N   UNL A   1      31.991  19.850  22.803  1.00  0.00    -0.361 N 
ATOM    101  C   UNL A   1      32.738  18.739  23.097  1.00  0.00     0.046 A 
ATOM    102  C   UNL A   1      34.229  17.947  24.794  1.00  0.00     0.011 A 
ATOM    103  H   UNL A   1      31.439  19.958  21.994  1.00  0.00     0.166 HD
ATOM    104  C   UNL A   1      32.904  17.563  22.350  1.00  0.00     0.026 A 
ATOM    105  C   UNL A   1      34.408  16.767  24.061  1.00  0.00     0.001 A 
ATOM    106  C   UNL A   1      33.748  16.576  22.857  1.00  0.00     0.002 A 
ENDBRANCH  85  97
ENDBRANCH  78  81
ENDBRANCH  76  77
ENDBRANCH  75  76
ENDBRANCH  74  75
ENDBRANCH   1  74
TORSDOF 15
ENDMDL
MODEL 3
REMARK VINA RESULT:     -12.9      2.582      8.362
REMARK SMILES O=C(NCCCCNC(=O)[C@H]1Cc2c([nH]c3ccccc23)[C@H](c2c[nH]c3ccccc23)[NH2+]1)c1ccc(-c2c3nc(c(-c4c(F)cc(S(=O)(=O)[O-])cc4F)c4ccc([nH]4)c(-c4c(F)cc(S(=O)(=O)[O-])cc4F)c4nc(c(-c5c(F)cc(S(=O)(=O)[O-])cc5F)c5ccc2[nH]5)C=C4)C=C3)cc1
REMARK SMILES IDX 4 1 3 2 1 3 2 4 33 6 34 7 98 8 35 9 97 10 36 11 37 12 38 13
REMARK SMILES IDX 91 14 39 15 96 16 90 17 92 18 40 19 95 20 89 21 88 22 41 24
REMARK SMILES IDX 75 25 54 26 74 27 55 28 58 29 73 30 93 31 56 32 57 33 72 35
REMARK SMILES IDX 94 36 59 37 42 38 43 39 52 40 44 41 45 42 51 43 53 44 46 45
REMARK SMILES IDX 47 46 48 47 49 48 50 49 76 50 77 51 86 52 78 53 79 54 85 55
REMARK SMILES IDX 87 56 80 57 81 58 82 59 83 60 84 61 60 62 61 63 70 64 62 65
REMARK SMILES IDX 63 66 69 67 71 68 64 69 65 70 66 71 67 72 68 73 5 74 6 75
REMARK SMILES IDX 7 76 8 77 9 78 10 80 11 81 12 82 32 83 13 84 22 85 14 88
REMARK SMILES IDX 21 89 15 90 16 91 20 92 17 94 19 95 18 96 23 97 24 98 31 99
REMARK SMILES IDX 25 100 26 101 30 102 27 104 29 105 28 106
REMARK H PARENT 3 5 92 23 58 34 8 79 32 86 32 87 15 93 25 103
REMARK Flexibility Score: inf
ROOT
ATOM      1  C   UNL A   1      34.298  28.356  26.564  1.00  0.00     0.116 C 
ENDROOT
BRANCH   1   2
ATOM      2  N   UNL A   1      33.913  29.632  27.148  1.00  0.00    -0.352 N 
ATOM      3  O   UNL A   1      34.088  31.417  28.517  1.00  0.00    -0.269 OA
ATOM      4  C   UNL A   1      34.627  30.450  27.988  1.00  0.00     0.251 C 
ATOM      5  H   UNL A   1      33.014  29.954  26.906  1.00  0.00     0.163 HD
BRANCH   4   6
ATOM      6  C   UNL A   1      36.045  30.140  28.266  1.00  0.00     0.039 A 
ATOM      7  C   UNL A   1      37.018  30.357  27.287  1.00  0.00     0.014 A 
ATOM      8  C   UNL A   1      36.400  29.615  29.511  1.00  0.00     0.014 A 
ATOM      9  C   UNL A   1      38.319  29.922  27.501  1.00  0.00     0.010 A 
ATOM     10  C   UNL A   1      37.727  29.256  29.756  1.00  0.00     0.010 A 
ATOM     11  C   UNL A   1      38.691  29.385  28.744  1.00  0.00    -0.014 A 
BRANCH  11  12
ATOM     12  C   UNL A   1      40.114  29.050  28.993  1.00  0.00     0.031 A 
ATOM     13  C   UNL A   1      40.683  27.715  28.604  1.00  0.00     0.074 A 
ATOM     14  C   UNL A   1      40.892  29.979  29.583  1.00  0.00     0.049 A 
ATOM     15  N   UNL A   1      41.896  27.258  28.779  1.00  0.00    -0.248 NA
ATOM     16  C   UNL A   1      39.776  26.765  27.941  1.00  0.00     0.031 C 
ATOM     17  C   UNL A   1      40.435  31.303  30.018  1.00  0.00     0.029 A 
ATOM     18  N   UNL A   1      42.221  29.962  29.915  1.00  0.00    -0.354 N 
ATOM     19  C   UNL A   1      41.895  25.963  28.275  1.00  0.00     0.074 A 
ATOM     20  C   UNL A   1      40.555  25.701  27.795  1.00  0.00     0.031 C 
ATOM     21  C   UNL A   1      41.471  31.979  30.536  1.00  0.00     0.029 A 
ATOM     22  C   UNL A   1      42.646  31.117  30.528  1.00  0.00     0.049 A 
ATOM     23  H   UNL A   1      42.813  29.198  29.734  1.00  0.00     0.167 HD
ATOM     24  C   UNL A   1      42.922  25.081  28.219  1.00  0.00     0.037 A 
ATOM     25  C   UNL A   1      43.841  31.440  31.055  1.00  0.00     0.037 A 
ATOM     26  C   UNL A   1      44.258  25.369  28.677  1.00  0.00     0.049 A 
ATOM     27  C   UNL A   1      44.955  30.437  30.993  1.00  0.00     0.074 A 
ATOM     28  C   UNL A   1      45.385  24.569  28.598  1.00  0.00     0.029 A 
ATOM     29  N   UNL A   1      44.647  26.543  29.307  1.00  0.00    -0.354 N 
ATOM     30  N   UNL A   1      44.949  29.237  30.464  1.00  0.00    -0.248 NA
ATOM     31  C   UNL A   1      46.232  30.824  31.604  1.00  0.00     0.031 C 
ATOM     32  C   UNL A   1      46.443  25.240  29.221  1.00  0.00     0.029 A 
ATOM     33  C   UNL A   1      45.986  26.475  29.652  1.00  0.00     0.049 A 
ATOM     34  H   UNL A   1      44.057  27.311  29.483  1.00  0.00     0.167 HD
ATOM     35  C   UNL A   1      46.222  28.725  30.676  1.00  0.00     0.074 A 
ATOM     36  C   UNL A   1      46.979  29.755  31.361  1.00  0.00     0.031 C 
ATOM     37  C   UNL A   1      46.718  27.509  30.339  1.00  0.00     0.037 A 
BRANCH  24  38
ATOM     38  C   UNL A   1      42.651  23.712  27.661  1.00  0.00     0.058 A 
ATOM     39  C   UNL A   1      42.708  23.447  26.284  1.00  0.00     0.135 A 
ATOM     40  C   UNL A   1      42.399  22.633  28.525  1.00  0.00     0.135 A 
ATOM     41  F   UNL A   1      42.933  24.444  25.414  1.00  0.00    -0.206 F 
ATOM     42  C   UNL A   1      42.512  22.164  25.782  1.00  0.00     0.059 A 
ATOM     43  C   UNL A   1      42.219  21.337  28.046  1.00  0.00     0.059 A 
ATOM     44  F   UNL A   1      42.332  22.830  29.851  1.00  0.00    -0.206 F 
ATOM     45  C   UNL A   1      42.268  21.115  26.671  1.00  0.00     0.060 A 
BRANCH  45  46
ATOM     46  S   UNL A   1      42.035  19.452  26.005  1.00  0.00     0.124 S 
ATOM     47  O   UNL A   1      42.940  19.469  24.861  1.00  0.00    -0.237 OA
ATOM     48  O   UNL A   1      42.444  18.607  27.122  1.00  0.00    -0.237 OA
ATOM     49  O   UNL A   1      40.613  19.412  25.680  1.00  0.00    -0.744 OA
ENDBRANCH  45  46
ENDBRANCH  24  38
BRANCH  25  50
ATOM     50  C   UNL A   1      44.022  32.758  31.714  1.00  0.00     0.058 A 
ATOM     51  C   UNL A   1      44.455  33.877  30.991  1.00  0.00     0.135 A 
ATOM     52  C   UNL A   1      43.726  32.930  33.076  1.00  0.00     0.135 A 
ATOM     53  F   UNL A   1      44.751  33.760  29.687  1.00  0.00    -0.206 F 
ATOM     54  C   UNL A   1      44.601  35.121  31.596  1.00  0.00     0.059 A 
ATOM     55  C   UNL A   1      43.838  34.168  33.696  1.00  0.00     0.059 A 
ATOM     56  F   UNL A   1      43.288  31.892  33.805  1.00  0.00    -0.206 F 
ATOM     57  C   UNL A   1      44.287  35.256  32.949  1.00  0.00     0.060 A 
BRANCH  57  58
ATOM     58  S   UNL A   1      44.427  36.885  33.718  1.00  0.00     0.124 S 
ATOM     59  O   UNL A   1      44.252  37.765  32.568  1.00  0.00    -0.237 OA
ATOM     60  O   UNL A   1      43.333  36.867  34.683  1.00  0.00    -0.237 OA
ATOM     61  O   UNL A   1      45.766  36.864  34.301  1.00  0.00    -0.744 OA
ENDBRANCH  57  58
ENDBRANCH  25  50
BRANCH  37  62
ATOM     62  C   UNL A   1      48.148  27.231  30.702  1.00  0.00     0.058 A 
ATOM     63  C   UNL A   1      48.491  26.688  31.950  1.00  0.00     0.135 A 
ATOM     64  C   UNL A   1      49.177  27.462  29.776  1.00  0.00     0.135 A 
ATOM     65  F   UNL A   1      47.542  26.462  32.872  1.00  0.00    -0.206 F 
ATOM     66  C   UNL A   1      49.811  26.396  32.274  1.00  0.00     0.059 A 
ATOM     67  C   UNL A   1      50.502  27.155  30.071  1.00  0.00     0.059 A 
ATOM     68  F   UNL A   1      48.899  27.975  28.568  1.00  0.00    -0.206 F 
ATOM     69  C   UNL A   1      50.810  26.630  31.325  1.00  0.00     0.060 A 
BRANCH  69  70
ATOM     70  S   UNL A   1      52.514  26.203  31.740  1.00  0.00     0.124 S 
ATOM     71  O   UNL A   1      53.214  26.562  30.511  1.00  0.00    -0.237 OA
ATOM     72  O   UNL A   1      52.780  27.055  32.894  1.00  0.00    -0.237 OA
ATOM     73  O   UNL A   1      52.444  24.773  32.028  1.00  0.00    -0.744 OA
ENDBRANCH  69  70
ENDBRANCH  37  62
ENDBRANCH  11  12
ENDBRANCH   4   6
ENDBRANCH   1   2
BRANCH   1  74
ATOM     74  C   UNL A   1      33.109  27.432  26.336  1.00  0.00     0.023 C 
BRANCH  74  75
ATOM     75  C   UNL A   1      32.556  27.435  24.915  1.00  0.00     0.023 C 
BRANCH  75  76
ATOM     76  C   UNL A   1      31.846  26.153  24.496  1.00  0.00     0.116 C 
BRANCH  76  77
ATOM     77  N   UNL A   1      31.074  25.561  25.575  1.00  0.00    -0.351 N 
ATOM     78  C   UNL A   1      31.315  24.401  26.257  1.00  0.00     0.278 C 
ATOM     79  H   UNL A   1      30.272  26.061  25.852  1.00  0.00     0.163 HD
ATOM     80  O   UNL A   1      30.600  24.131  27.225  1.00  0.00    -0.268 OA
BRANCH  78  81
ATOM     81  C   UNL A   1      32.432  23.449  25.809  1.00  0.00     0.277 C 
ATOM     82  C   UNL A   1      33.796  24.073  26.176  1.00  0.00     0.114 C 
ATOM     83  N   UNL A   1      32.171  22.084  26.352  1.00  0.00    -0.324 N 
ATOM     84  C   UNL A   1      34.859  23.042  26.068  1.00  0.00    -0.006 A 
ATOM     85  C   UNL A   1      33.177  21.082  26.002  1.00  0.00     0.264 C 
ATOM     86  H   UNL A   1      31.270  21.767  25.993  1.00  0.00     0.347 HD
ATOM     87  H   UNL A   1      32.191  22.170  27.368  1.00  0.00     0.347 HD
ATOM     88  C   UNL A   1      34.549  21.698  26.002  1.00  0.00     0.083 A 
ATOM     89  C   UNL A   1      36.270  23.177  26.032  1.00  0.00     0.003 A 
ATOM     90  N   UNL A   1      35.731  21.008  25.989  1.00  0.00    -0.353 N 
ATOM     91  C   UNL A   1      36.795  21.884  25.987  1.00  0.00     0.046 A 
ATOM     92  C   UNL A   1      37.155  24.272  26.040  1.00  0.00     0.010 A 
ATOM     93  H   UNL A   1      35.810  20.026  25.982  1.00  0.00     0.166 HD
ATOM     94  C   UNL A   1      38.173  21.634  25.954  1.00  0.00     0.026 A 
ATOM     95  C   UNL A   1      38.534  24.039  25.995  1.00  0.00     0.001 A 
ATOM     96  C   UNL A   1      39.032  22.738  25.954  1.00  0.00     0.002 A 
BRANCH  85  97
ATOM     97  C   UNL A   1      32.846  20.310  24.737  1.00  0.00     0.041 A 
ATOM     98  C   UNL A   1      32.073  20.849  23.713  1.00  0.00     0.093 A 
ATOM     99  C   UNL A   1      33.253  18.998  24.262  1.00  0.00     0.009 A 
ATOM    100  N   UNL A   1      31.939  19.931  22.716  1.00  0.00    -0.361 N 
ATOM    101  C   UNL A   1      32.649  18.798  23.016  1.00  0.00     0.046 A 
ATOM    102  C   UNL A   1      34.079  17.950  24.738  1.00  0.00     0.011 A 
ATOM    103  H   UNL A   1      31.409  20.062  21.896  1.00  0.00     0.166 HD
ATOM    104  C   UNL A   1      32.800  17.625  22.261  1.00  0.00     0.026 A 
ATOM    105  C   UNL A   1      34.243  16.772  23.997  1.00  0.00     0.001 A 
ATOM    106  C   UNL A   1      33.606  16.611  22.777  1.00  0.00     0.002 A 
ENDBRANCH  85  97
ENDBRANCH  78  81
ENDBRANCH  76  77
ENDBRANCH  75  76
ENDBRANCH  74  75
ENDBRANCH   1  74
TORSDOF 15
ENDMDL
