MODEL 1
REMARK VINA RESULT:     -12.6      0.000      0.000
REMARK SMILES O=C(NCCCCNC(=O)[C@H]1C[C@](O)(c2ccccc2Cl)[C@@H](c2ccccc2Cl)O1)c1ccc(-c2c3nc(c(-c4c(F)cc(S(=O)(=O)[O-])cc4F)c4ccc([nH]4)c(-c4c(F)cc(S(=O)(=O)[O-])cc4F)c4nc(c(-c5c(F)cc(S(=O)(=O)[O-])cc5F)c5ccc2[nH]5)C=C4)C=C3)cc1
REMARK SMILES IDX 4 1 3 2 1 3 2 4 31 6 32 7 96 8 33 9 95 10 34 11 35 12 36 13
REMARK SMILES IDX 89 14 37 15 94 16 88 17 90 18 38 19 93 20 87 21 86 22 39 24
REMARK SMILES IDX 73 25 52 26 72 27 53 28 56 29 71 30 91 31 54 32 55 33 70 35
REMARK SMILES IDX 92 36 57 37 40 38 41 39 50 40 42 41 43 42 49 43 51 44 44 45
REMARK SMILES IDX 45 46 46 47 47 48 48 49 74 50 75 51 84 52 76 53 77 54 83 55
REMARK SMILES IDX 85 56 78 57 79 58 80 59 81 60 82 61 58 62 59 63 68 64 60 65
REMARK SMILES IDX 61 66 67 67 69 68 62 69 63 70 64 71 65 72 66 73 5 74 6 75
REMARK SMILES IDX 7 76 8 77 9 78 10 80 11 81 12 82 30 83 13 84 22 85 15 86
REMARK SMILES IDX 16 87 20 88 17 89 19 90 21 91 18 92 14 93 23 95 24 96 28 97
REMARK SMILES IDX 25 98 27 99 29 100 26 101
REMARK H PARENT 3 5 90 23 56 34 8 79 14 94
REMARK Flexibility Score: inf
ROOT
ATOM      1  C   UNL A   1      41.062  23.123  27.413  1.00  0.00     0.116 C 
ENDROOT
BRANCH   1   2
ATOM      2  N   UNL A   1      41.458  23.901  26.251  1.00  0.00    -0.352 N 
ATOM      3  O   UNL A   1      41.688  25.745  24.982  1.00  0.00    -0.269 OA
ATOM      4  C   UNL A   1      41.517  25.265  26.100  1.00  0.00     0.251 C 
ATOM      5  H   UNL A   1      41.722  23.377  25.461  1.00  0.00     0.163 HD
BRANCH   4   6
ATOM      6  C   UNL A   1      41.358  26.152  27.274  1.00  0.00     0.039 A 
ATOM      7  C   UNL A   1      42.327  27.112  27.580  1.00  0.00     0.014 A 
ATOM      8  C   UNL A   1      40.208  26.044  28.061  1.00  0.00     0.014 A 
ATOM      9  C   UNL A   1      42.201  27.883  28.732  1.00  0.00     0.010 A 
ATOM     10  C   UNL A   1      40.047  26.872  29.177  1.00  0.00     0.010 A 
ATOM     11  C   UNL A   1      41.050  27.786  29.532  1.00  0.00    -0.014 A 
BRANCH  11  12
ATOM     12  C   UNL A   1      40.874  28.713  30.681  1.00  0.00     0.031 A 
ATOM     13  C   UNL A   1      41.721  28.594  31.917  1.00  0.00     0.074 A 
ATOM     14  C   UNL A   1      39.929  29.670  30.595  1.00  0.00     0.049 A 
ATOM     15  N   UNL A   1      41.680  29.308  33.012  1.00  0.00    -0.248 NA
ATOM     16  C   UNL A   1      42.740  27.533  31.931  1.00  0.00     0.031 C 
ATOM     17  C   UNL A   1      39.035  29.868  29.450  1.00  0.00     0.029 A 
ATOM     18  N   UNL A   1      39.560  30.653  31.476  1.00  0.00    -0.354 N 
ATOM     19  C   UNL A   1      42.650  28.776  33.854  1.00  0.00     0.074 A 
ATOM     20  C   UNL A   1      43.252  27.664  33.150  1.00  0.00     0.031 C 
ATOM     21  C   UNL A   1      38.241  30.921  29.688  1.00  0.00     0.029 A 
ATOM     22  C   UNL A   1      38.523  31.435  31.023  1.00  0.00     0.049 A 
ATOM     23  H   UNL A   1      39.995  30.787  32.348  1.00  0.00     0.167 HD
ATOM     24  C   UNL A   1      43.005  29.184  35.097  1.00  0.00     0.037 A 
ATOM     25  C   UNL A   1      37.850  32.435  31.624  1.00  0.00     0.037 A 
ATOM     26  C   UNL A   1      42.406  30.304  35.781  1.00  0.00     0.049 A 
ATOM     27  C   UNL A   1      38.246  32.848  33.012  1.00  0.00     0.074 A 
ATOM     28  C   UNL A   1      42.737  30.831  37.018  1.00  0.00     0.029 A 
ATOM     29  N   UNL A   1      41.348  31.059  35.298  1.00  0.00    -0.354 N 
ATOM     30  N   UNL A   1      39.204  32.369  33.770  1.00  0.00    -0.248 NA
ATOM     31  C   UNL A   1      37.470  33.930  33.631  1.00  0.00     0.031 C 
ATOM     32  C   UNL A   1      41.846  31.870  37.304  1.00  0.00     0.029 A 
ATOM     33  C   UNL A   1      40.992  32.026  36.225  1.00  0.00     0.049 A 
ATOM     34  H   UNL A   1      40.913  30.927  34.424  1.00  0.00     0.167 HD
ATOM     35  C   UNL A   1      39.155  33.101  34.950  1.00  0.00     0.074 A 
ATOM     36  C   UNL A   1      38.086  34.067  34.797  1.00  0.00     0.031 C 
ATOM     37  C   UNL A   1      39.924  32.981  36.059  1.00  0.00     0.037 A 
BRANCH  24  38
ATOM     38  C   UNL A   1      44.077  28.412  35.816  1.00  0.00     0.058 A 
ATOM     39  C   UNL A   1      45.436  28.737  35.692  1.00  0.00     0.135 A 
ATOM     40  C   UNL A   1      43.732  27.371  36.696  1.00  0.00     0.135 A 
ATOM     41  F   UNL A   1      45.824  29.715  34.858  1.00  0.00    -0.206 F 
ATOM     42  C   UNL A   1      46.418  28.047  36.398  1.00  0.00     0.059 A 
ATOM     43  C   UNL A   1      44.695  26.683  37.431  1.00  0.00     0.059 A 
ATOM     44  F   UNL A   1      42.448  27.018  36.855  1.00  0.00    -0.206 F 
ATOM     45  C   UNL A   1      46.037  27.022  37.266  1.00  0.00     0.060 A 
BRANCH  45  46
ATOM     46  S   UNL A   1      47.321  26.145  38.184  1.00  0.00     0.124 S 
ATOM     47  O   UNL A   1      48.032  27.251  38.819  1.00  0.00    -0.237 OA
ATOM     48  O   UNL A   1      46.541  25.297  39.080  1.00  0.00    -0.237 OA
ATOM     49  O   UNL A   1      48.063  25.438  37.145  1.00  0.00    -0.744 OA
ENDBRANCH  45  46
ENDBRANCH  24  38
BRANCH  25  50
ATOM     50  C   UNL A   1      36.720  33.091  30.917  1.00  0.00     0.058 A 
ATOM     51  C   UNL A   1      35.390  32.817  31.265  1.00  0.00     0.135 A 
ATOM     52  C   UNL A   1      36.949  34.026  29.895  1.00  0.00     0.135 A 
ATOM     53  F   UNL A   1      35.118  31.928  32.232  1.00  0.00    -0.206 F 
ATOM     54  C   UNL A   1      34.326  33.436  30.615  1.00  0.00     0.059 A 
ATOM     55  C   UNL A   1      35.905  34.679  29.251  1.00  0.00     0.059 A 
ATOM     56  F   UNL A   1      38.205  34.338  29.538  1.00  0.00    -0.206 F 
ATOM     57  C   UNL A   1      34.595  34.368  29.610  1.00  0.00     0.060 A 
BRANCH  57  58
ATOM     58  S   UNL A   1      33.209  35.199  28.805  1.00  0.00     0.124 S 
ATOM     59  O   UNL A   1      32.437  35.660  29.953  1.00  0.00    -0.237 OA
ATOM     60  O   UNL A   1      33.882  36.236  28.029  1.00  0.00    -0.237 OA
ATOM     61  O   UNL A   1      32.594  34.137  28.015  1.00  0.00    -0.744 OA
ENDBRANCH  57  58
ENDBRANCH  25  50
BRANCH  37  62
ATOM     62  C   UNL A   1      39.652  33.930  37.192  1.00  0.00     0.058 A 
ATOM     63  C   UNL A   1      38.844  33.563  38.281  1.00  0.00     0.135 A 
ATOM     64  C   UNL A   1      40.248  35.200  37.216  1.00  0.00     0.135 A 
ATOM     65  F   UNL A   1      38.240  32.364  38.300  1.00  0.00    -0.206 F 
ATOM     66  C   UNL A   1      38.625  34.429  39.346  1.00  0.00     0.059 A 
ATOM     67  C   UNL A   1      40.065  36.072  38.284  1.00  0.00     0.059 A 
ATOM     68  F   UNL A   1      41.035  35.597  36.203  1.00  0.00    -0.206 F 
ATOM     69  C   UNL A   1      39.245  35.681  39.341  1.00  0.00     0.060 A 
BRANCH  69  70
ATOM     70  S   UNL A   1      38.991  36.777  40.753  1.00  0.00     0.124 S 
ATOM     71  O   UNL A   1      38.357  37.929  40.120  1.00  0.00    -0.237 OA
ATOM     72  O   UNL A   1      38.131  35.977  41.620  1.00  0.00    -0.237 OA
ATOM     73  O   UNL A   1      40.342  37.003  41.256  1.00  0.00    -0.744 OA
ENDBRANCH  69  70
ENDBRANCH  37  62
ENDBRANCH  11  12
ENDBRANCH   4   6
ENDBRANCH   1   2
BRANCH   1  74
ATOM     74  C   UNL A   1      39.744  22.389  27.190  1.00  0.00     0.023 C 
BRANCH  74  75
ATOM     75  C   UNL A   1      38.832  22.995  26.115  1.00  0.00     0.023 C 
BRANCH  75  76
ATOM     76  C   UNL A   1      37.777  22.041  25.547  1.00  0.00     0.116 C 
BRANCH  76  77
ATOM     77  N   UNL A   1      37.325  22.502  24.251  1.00  0.00    -0.354 N 
ATOM     78  C   UNL A   1      36.220  23.224  23.922  1.00  0.00     0.249 C 
ATOM     79  H   UNL A   1      37.904  22.256  23.495  1.00  0.00     0.163 HD
ATOM     80  O   UNL A   1      35.818  23.103  22.762  1.00  0.00    -0.272 OA
BRANCH  78  81
ATOM     81  C   UNL A   1      35.536  24.154  24.951  1.00  0.00     0.211 C 
ATOM     82  C   UNL A   1      34.678  25.254  24.325  1.00  0.00     0.085 C 
ATOM     83  O   UNL A   1      34.673  23.382  25.802  1.00  0.00    -0.357 OA
ATOM     84  C   UNL A   1      33.252  25.019  24.829  1.00  0.00     0.124 C 
ATOM     85  C   UNL A   1      33.306  23.573  25.387  1.00  0.00     0.187 C 
BRANCH  84  86
ATOM     86  C   UNL A   1      32.808  26.170  25.761  1.00  0.00     0.005 A 
ATOM     87  C   UNL A   1      33.817  27.103  26.124  1.00  0.00     0.008 A 
ATOM     88  C   UNL A   1      31.524  26.418  26.289  1.00  0.00     0.047 A 
ATOM     89  C   UNL A   1      33.552  28.254  26.870  1.00  0.00     0.001 A 
ATOM     90  C   UNL A   1      31.255  27.600  27.007  1.00  0.00     0.021 A 
ATOM     91  Cl  UNL A   1      30.184  25.332  26.216  1.00  0.00    -0.084 Cl
ATOM     92  C   UNL A   1      32.259  28.520  27.288  1.00  0.00     0.002 A 
ENDBRANCH  84  86
BRANCH  84  93
ATOM     93  O   UNL A   1      32.360  25.082  23.697  1.00  0.00    -0.382 OA
ATOM     94  H   UNL A   1      31.445  24.966  24.000  1.00  0.00     0.212 HD
ENDBRANCH  84  93
BRANCH  85  95
ATOM     95  C   UNL A   1      32.865  22.389  24.523  1.00  0.00     0.003 A 
ATOM     96  C   UNL A   1      32.415  22.569  23.201  1.00  0.00     0.008 A 
ATOM     97  C   UNL A   1      32.961  21.061  24.989  1.00  0.00     0.046 A 
ATOM     98  C   UNL A   1      32.138  21.485  22.362  1.00  0.00     0.000 A 
ATOM     99  C   UNL A   1      32.657  19.976  24.155  1.00  0.00     0.021 A 
ATOM    100  Cl  UNL A   1      33.428  20.662  26.610  1.00  0.00    -0.084 Cl
ATOM    101  C   UNL A   1      32.264  20.187  22.837  1.00  0.00     0.002 A 
ENDBRANCH  85  95
ENDBRANCH  78  81
ENDBRANCH  76  77
ENDBRANCH  75  76
ENDBRANCH  74  75
ENDBRANCH   1  74
TORSDOF 17
ENDMDL
MODEL 2
REMARK VINA RESULT:     -12.5      2.669      8.749
REMARK SMILES O=C(NCCCCNC(=O)[C@H]1C[C@](O)(c2ccccc2Cl)[C@@H](c2ccccc2Cl)O1)c1ccc(-c2c3nc(c(-c4c(F)cc(S(=O)(=O)[O-])cc4F)c4ccc([nH]4)c(-c4c(F)cc(S(=O)(=O)[O-])cc4F)c4nc(c(-c5c(F)cc(S(=O)(=O)[O-])cc5F)c5ccc2[nH]5)C=C4)C=C3)cc1
REMARK SMILES IDX 4 1 3 2 1 3 2 4 31 6 32 7 96 8 33 9 95 10 34 11 35 12 36 13
REMARK SMILES IDX 89 14 37 15 94 16 88 17 90 18 38 19 93 20 87 21 86 22 39 24
REMARK SMILES IDX 73 25 52 26 72 27 53 28 56 29 71 30 91 31 54 32 55 33 70 35
REMARK SMILES IDX 92 36 57 37 40 38 41 39 50 40 42 41 43 42 49 43 51 44 44 45
REMARK SMILES IDX 45 46 46 47 47 48 48 49 74 50 75 51 84 52 76 53 77 54 83 55
REMARK SMILES IDX 85 56 78 57 79 58 80 59 81 60 82 61 58 62 59 63 68 64 60 65
REMARK SMILES IDX 61 66 67 67 69 68 62 69 63 70 64 71 65 72 66 73 5 74 6 75
REMARK SMILES IDX 7 76 8 77 9 78 10 80 11 81 12 82 30 83 13 84 22 85 15 86
REMARK SMILES IDX 16 87 20 88 17 89 19 90 21 91 18 92 14 93 23 95 24 96 28 97
REMARK SMILES IDX 25 98 27 99 29 100 26 101
REMARK H PARENT 3 5 90 23 56 34 8 79 14 94
REMARK Flexibility Score: inf
ROOT
ATOM      1  C   UNL A   1      32.861  33.080  27.410  1.00  0.00     0.116 C 
ENDROOT
BRANCH   1   2
ATOM      2  N   UNL A   1      32.702  34.462  27.832  1.00  0.00    -0.352 N 
ATOM      3  O   UNL A   1      32.888  36.236  29.203  1.00  0.00    -0.269 OA
ATOM      4  C   UNL A   1      33.292  35.120  28.882  1.00  0.00     0.251 C 
ATOM      5  H   UNL A   1      32.085  35.001  27.287  1.00  0.00     0.163 HD
BRANCH   4   6
ATOM      6  C   UNL A   1      34.397  34.485  29.634  1.00  0.00     0.039 A 
ATOM      7  C   UNL A   1      34.146  33.790  30.822  1.00  0.00     0.014 A 
ATOM      8  C   UNL A   1      35.698  34.555  29.126  1.00  0.00     0.014 A 
ATOM      9  C   UNL A   1      35.206  33.267  31.557  1.00  0.00     0.010 A 
ATOM     10  C   UNL A   1      36.752  33.963  29.829  1.00  0.00     0.010 A 
ATOM     11  C   UNL A   1      36.518  33.329  31.059  1.00  0.00    -0.014 A 
BRANCH  11  12
ATOM     12  C   UNL A   1      37.615  32.647  31.793  1.00  0.00     0.031 A 
ATOM     13  C   UNL A   1      38.100  33.156  33.122  1.00  0.00     0.074 A 
ATOM     14  C   UNL A   1      38.176  31.554  31.239  1.00  0.00     0.049 A 
ATOM     15  N   UNL A   1      39.059  32.689  33.880  1.00  0.00    -0.248 NA
ATOM     16  C   UNL A   1      37.431  34.346  33.668  1.00  0.00     0.031 C 
ATOM     17  C   UNL A   1      37.799  30.980  29.943  1.00  0.00     0.029 A 
ATOM     18  N   UNL A   1      39.177  30.730  31.685  1.00  0.00    -0.354 N 
ATOM     19  C   UNL A   1      39.124  33.534  34.982  1.00  0.00     0.074 A 
ATOM     20  C   UNL A   1      38.118  34.556  34.785  1.00  0.00     0.031 C 
ATOM     21  C   UNL A   1      38.538  29.886  29.713  1.00  0.00     0.029 A 
ATOM     22  C   UNL A   1      39.483  29.714  30.810  1.00  0.00     0.049 A 
ATOM     23  H   UNL A   1      39.632  30.852  32.549  1.00  0.00     0.167 HD
ATOM     24  C   UNL A   1      39.944  33.456  36.058  1.00  0.00     0.037 A 
ATOM     25  C   UNL A   1      40.439  28.766  30.865  1.00  0.00     0.037 A 
ATOM     26  C   UNL A   1      40.932  32.422  36.248  1.00  0.00     0.049 A 
ATOM     27  C   UNL A   1      41.352  28.722  32.055  1.00  0.00     0.074 A 
ATOM     28  C   UNL A   1      41.771  32.225  37.332  1.00  0.00     0.029 A 
ATOM     29  N   UNL A   1      41.225  31.422  35.332  1.00  0.00    -0.354 N 
ATOM     30  N   UNL A   1      41.360  29.496  33.115  1.00  0.00    -0.248 NA
ATOM     31  C   UNL A   1      42.390  27.682  32.059  1.00  0.00     0.031 C 
ATOM     32  C   UNL A   1      42.605  31.139  37.048  1.00  0.00     0.029 A 
ATOM     33  C   UNL A   1      42.254  30.627  35.810  1.00  0.00     0.049 A 
ATOM     34  H   UNL A   1      40.769  31.298  34.468  1.00  0.00     0.167 HD
ATOM     35  C   UNL A   1      42.394  29.028  33.918  1.00  0.00     0.074 A 
ATOM     36  C   UNL A   1      42.974  27.892  33.230  1.00  0.00     0.031 C 
ATOM     37  C   UNL A   1      42.822  29.499  35.114  1.00  0.00     0.037 A 
BRANCH  24  38
ATOM     38  C   UNL A   1      39.831  34.524  37.112  1.00  0.00     0.058 A 
ATOM     39  C   UNL A   1      40.511  35.747  37.007  1.00  0.00     0.135 A 
ATOM     40  C   UNL A   1      38.974  34.345  38.212  1.00  0.00     0.135 A 
ATOM     41  F   UNL A   1      41.350  35.967  35.983  1.00  0.00    -0.206 F 
ATOM     42  C   UNL A   1      40.363  36.747  37.964  1.00  0.00     0.059 A 
ATOM     43  C   UNL A   1      38.792  35.341  39.168  1.00  0.00     0.059 A 
ATOM     44  F   UNL A   1      38.298  33.196  38.362  1.00  0.00    -0.206 F 
ATOM     45  C   UNL A   1      39.500  36.535  39.041  1.00  0.00     0.060 A 
BRANCH  45  46
ATOM     46  S   UNL A   1      39.309  37.847  40.267  1.00  0.00     0.124 S 
ATOM     47  O   UNL A   1      38.227  38.636  39.683  1.00  0.00    -0.237 OA
ATOM     48  O   UNL A   1      38.967  37.100  41.473  1.00  0.00    -0.237 OA
ATOM     49  O   UNL A   1      40.617  38.493  40.283  1.00  0.00    -0.744 OA
ENDBRANCH  45  46
ENDBRANCH  24  38
BRANCH  25  50
ATOM     50  C   UNL A   1      40.587  27.804  29.742  1.00  0.00     0.058 A 
ATOM     51  C   UNL A   1      39.710  26.721  29.594  1.00  0.00     0.135 A 
ATOM     52  C   UNL A   1      41.597  27.965  28.780  1.00  0.00     0.135 A 
ATOM     53  F   UNL A   1      38.731  26.523  30.489  1.00  0.00    -0.206 F 
ATOM     54  C   UNL A   1      39.835  25.823  28.538  1.00  0.00     0.059 A 
ATOM     55  C   UNL A   1      41.725  27.098  27.701  1.00  0.00     0.059 A 
ATOM     56  F   UNL A   1      42.451  28.997  28.866  1.00  0.00    -0.206 F 
ATOM     57  C   UNL A   1      40.846  26.022  27.595  1.00  0.00     0.060 A 
BRANCH  57  58
ATOM     58  S   UNL A   1      40.972  24.878  26.205  1.00  0.00     0.124 S 
ATOM     59  O   UNL A   1      41.431  25.761  25.139  1.00  0.00    -0.237 OA
ATOM     60  O   UNL A   1      41.945  23.905  26.694  1.00  0.00    -0.237 OA
ATOM     61  O   UNL A   1      39.610  24.371  26.063  1.00  0.00    -0.744 OA
ENDBRANCH  57  58
ENDBRANCH  25  50
BRANCH  37  62
ATOM     62  C   UNL A   1      43.965  28.776  35.769  1.00  0.00     0.058 A 
ATOM     63  C   UNL A   1      43.752  27.677  36.615  1.00  0.00     0.135 A 
ATOM     64  C   UNL A   1      45.291  29.154  35.505  1.00  0.00     0.135 A 
ATOM     65  F   UNL A   1      42.503  27.283  36.909  1.00  0.00    -0.206 F 
ATOM     66  C   UNL A   1      44.813  26.986  37.189  1.00  0.00     0.059 A 
ATOM     67  C   UNL A   1      46.369  28.462  36.047  1.00  0.00     0.059 A 
ATOM     68  F   UNL A   1      45.550  30.195  34.698  1.00  0.00    -0.206 F 
ATOM     69  C   UNL A   1      46.119  27.383  36.895  1.00  0.00     0.060 A 
BRANCH  69  70
ATOM     70  S   UNL A   1      47.489  26.448  37.609  1.00  0.00     0.124 S 
ATOM     71  O   UNL A   1      46.816  25.231  38.050  1.00  0.00    -0.237 OA
ATOM     72  O   UNL A   1      48.391  26.297  36.471  1.00  0.00    -0.237 OA
ATOM     73  O   UNL A   1      47.975  27.318  38.676  1.00  0.00    -0.744 OA
ENDBRANCH  69  70
ENDBRANCH  37  62
ENDBRANCH  11  12
ENDBRANCH   4   6
ENDBRANCH   1   2
BRANCH   1  74
ATOM     74  C   UNL A   1      31.558  32.486  26.886  1.00  0.00     0.023 C 
BRANCH  74  75
ATOM     75  C   UNL A   1      31.695  31.131  26.179  1.00  0.00     0.023 C 
BRANCH  75  76
ATOM     76  C   UNL A   1      32.638  30.135  26.860  1.00  0.00     0.116 C 
BRANCH  76  77
ATOM     77  N   UNL A   1      31.885  29.051  27.452  1.00  0.00    -0.354 N 
ATOM     78  C   UNL A   1      31.834  27.735  27.106  1.00  0.00     0.249 C 
ATOM     79  H   UNL A   1      31.326  29.302  28.222  1.00  0.00     0.163 HD
ATOM     80  O   UNL A   1      30.817  27.125  27.442  1.00  0.00    -0.272 OA
BRANCH  78  81
ATOM     81  C   UNL A   1      33.005  27.061  26.354  1.00  0.00     0.211 C 
ATOM     82  C   UNL A   1      32.909  25.536  26.289  1.00  0.00     0.085 C 
ATOM     83  O   UNL A   1      33.047  27.537  24.999  1.00  0.00    -0.357 OA
ATOM     84  C   UNL A   1      32.837  25.178  24.803  1.00  0.00     0.124 C 
ATOM     85  C   UNL A   1      32.493  26.531  24.128  1.00  0.00     0.187 C 
BRANCH  84  86
ATOM     86  C   UNL A   1      34.111  24.418  24.364  1.00  0.00     0.005 A 
ATOM     87  C   UNL A   1      35.217  24.490  25.254  1.00  0.00     0.008 A 
ATOM     88  C   UNL A   1      34.310  23.653  23.197  1.00  0.00     0.047 A 
ATOM     89  C   UNL A   1      36.399  23.773  25.052  1.00  0.00     0.001 A 
ATOM     90  C   UNL A   1      35.489  22.902  23.019  1.00  0.00     0.021 A 
ATOM     91  Cl  UNL A   1      33.240  23.594  21.843  1.00  0.00    -0.084 Cl
ATOM     92  C   UNL A   1      36.524  22.951  23.946  1.00  0.00     0.002 A 
ENDBRANCH  84  86
BRANCH  84  93
ATOM     93  O   UNL A   1      31.755  24.242  24.619  1.00  0.00    -0.382 OA
ATOM     94  H   UNL A   1      31.417  24.312  23.712  1.00  0.00     0.212 HD
ENDBRANCH  84  93
BRANCH  85  95
ATOM     95  C   UNL A   1      31.043  26.888  23.794  1.00  0.00     0.003 A 
ATOM     96  C   UNL A   1      29.968  26.091  24.234  1.00  0.00     0.008 A 
ATOM     97  C   UNL A   1      30.716  28.069  23.096  1.00  0.00     0.046 A 
ATOM     98  C   UNL A   1      28.638  26.480  24.050  1.00  0.00     0.000 A 
ATOM     99  C   UNL A   1      29.382  28.443  22.888  1.00  0.00     0.021 A 
ATOM    100  Cl  UNL A   1      31.913  29.127  22.422  1.00  0.00    -0.084 Cl
ATOM    101  C   UNL A   1      28.343  27.660  23.382  1.00  0.00     0.002 A 
ENDBRANCH  85  95
ENDBRANCH  78  81
ENDBRANCH  76  77
ENDBRANCH  75  76
ENDBRANCH  74  75
ENDBRANCH   1  74
TORSDOF 17
ENDMDL
MODEL 3
REMARK VINA RESULT:     -12.5      6.526     11.970
REMARK SMILES O=C(NCCCCNC(=O)[C@H]1C[C@](O)(c2ccccc2Cl)[C@@H](c2ccccc2Cl)O1)c1ccc(-c2c3nc(c(-c4c(F)cc(S(=O)(=O)[O-])cc4F)c4ccc([nH]4)c(-c4c(F)cc(S(=O)(=O)[O-])cc4F)c4nc(c(-c5c(F)cc(S(=O)(=O)[O-])cc5F)c5ccc2[nH]5)C=C4)C=C3)cc1
REMARK SMILES IDX 4 1 3 2 1 3 2 4 31 6 32 7 96 8 33 9 95 10 34 11 35 12 36 13
REMARK SMILES IDX 89 14 37 15 94 16 88 17 90 18 38 19 93 20 87 21 86 22 39 24
REMARK SMILES IDX 73 25 52 26 72 27 53 28 56 29 71 30 91 31 54 32 55 33 70 35
REMARK SMILES IDX 92 36 57 37 40 38 41 39 50 40 42 41 43 42 49 43 51 44 44 45
REMARK SMILES IDX 45 46 46 47 47 48 48 49 74 50 75 51 84 52 76 53 77 54 83 55
REMARK SMILES IDX 85 56 78 57 79 58 80 59 81 60 82 61 58 62 59 63 68 64 60 65
REMARK SMILES IDX 61 66 67 67 69 68 62 69 63 70 64 71 65 72 66 73 5 74 6 75
REMARK SMILES IDX 7 76 8 77 9 78 10 80 11 81 12 82 30 83 13 84 22 85 15 86
REMARK SMILES IDX 16 87 20 88 17 89 19 90 21 91 18 92 14 93 23 95 24 96 28 97
REMARK SMILES IDX 25 98 27 99 29 100 26 101
REMARK H PARENT 3 5 90 23 56 34 8 79 14 94
REMARK Flexibility Score: inf
ROOT
ATOM      1  C   UNL A   1      36.025  32.110  28.716  1.00  0.00     0.116 C 
ENDROOT
BRANCH   1   2
ATOM      2  N   UNL A   1      35.765  31.458  29.989  1.00  0.00    -0.352 N 
ATOM      3  O   UNL A   1      36.038  29.935  31.622  1.00  0.00    -0.269 OA
ATOM      4  C   UNL A   1      36.514  30.515  30.649  1.00  0.00     0.251 C 
ATOM      5  H   UNL A   1      34.935  31.732  30.441  1.00  0.00     0.163 HD
BRANCH   4   6
ATOM      6  C   UNL A   1      37.879  30.188  30.182  1.00  0.00     0.039 A 
ATOM      7  C   UNL A   1      38.932  30.051  31.092  1.00  0.00     0.014 A 
ATOM      8  C   UNL A   1      38.103  29.981  28.817  1.00  0.00     0.014 A 
ATOM      9  C   UNL A   1      40.224  29.821  30.629  1.00  0.00     0.010 A 
ATOM     10  C   UNL A   1      39.389  29.675  28.361  1.00  0.00     0.010 A 
ATOM     11  C   UNL A   1      40.464  29.610  29.261  1.00  0.00    -0.014 A 
BRANCH  11  12
ATOM     12  C   UNL A   1      41.827  29.233  28.804  1.00  0.00     0.031 A 
ATOM     13  C   UNL A   1      42.930  30.250  28.716  1.00  0.00     0.074 A 
ATOM     14  C   UNL A   1      42.058  27.950  28.463  1.00  0.00     0.049 A 
ATOM     15  N   UNL A   1      44.166  30.089  28.318  1.00  0.00    -0.248 NA
ATOM     16  C   UNL A   1      42.605  31.628  29.117  1.00  0.00     0.031 C 
ATOM     17  C   UNL A   1      41.056  26.879  28.491  1.00  0.00     0.029 A 
ATOM     18  N   UNL A   1      43.197  27.324  28.028  1.00  0.00    -0.354 N 
ATOM     19  C   UNL A   1      44.763  31.342  28.402  1.00  0.00     0.074 A 
ATOM     20  C   UNL A   1      43.747  32.260  28.871  1.00  0.00     0.031 C 
ATOM     21  C   UNL A   1      41.631  25.728  28.117  1.00  0.00     0.029 A 
ATOM     22  C   UNL A   1      43.022  25.986  27.762  1.00  0.00     0.049 A 
ATOM     23  H   UNL A   1      44.059  27.787  27.917  1.00  0.00     0.167 HD
ATOM     24  C   UNL A   1      46.043  31.688  28.117  1.00  0.00     0.037 A 
ATOM     25  C   UNL A   1      43.873  25.072  27.259  1.00  0.00     0.037 A 
ATOM     26  C   UNL A   1      47.049  30.758  27.665  1.00  0.00     0.049 A 
ATOM     27  C   UNL A   1      45.276  25.489  26.927  1.00  0.00     0.074 A 
ATOM     28  C   UNL A   1      48.387  31.002  27.407  1.00  0.00     0.029 A 
ATOM     29  N   UNL A   1      46.829  29.416  27.391  1.00  0.00    -0.354 N 
ATOM     30  N   UNL A   1      45.839  26.667  27.066  1.00  0.00    -0.248 NA
ATOM     31  C   UNL A   1      46.161  24.461  26.363  1.00  0.00     0.031 C 
ATOM     32  C   UNL A   1      48.963  29.820  26.927  1.00  0.00     0.029 A 
ATOM     33  C   UNL A   1      47.997  28.827  26.934  1.00  0.00     0.049 A 
ATOM     34  H   UNL A   1      45.968  28.952  27.504  1.00  0.00     0.167 HD
ATOM     35  C   UNL A   1      47.147  26.517  26.621  1.00  0.00     0.074 A 
ATOM     36  C   UNL A   1      47.297  25.131  26.227  1.00  0.00     0.031 C 
ATOM     37  C   UNL A   1      48.131  27.445  26.544  1.00  0.00     0.037 A 
BRANCH  24  38
ATOM     38  C   UNL A   1      46.434  33.132  28.265  1.00  0.00     0.058 A 
ATOM     39  C   UNL A   1      46.256  34.060  27.228  1.00  0.00     0.135 A 
ATOM     40  C   UNL A   1      46.934  33.610  29.490  1.00  0.00     0.135 A 
ATOM     41  F   UNL A   1      45.794  33.658  26.033  1.00  0.00    -0.206 F 
ATOM     42  C   UNL A   1      46.578  35.406  27.390  1.00  0.00     0.059 A 
ATOM     43  C   UNL A   1      47.239  34.955  29.683  1.00  0.00     0.059 A 
ATOM     44  F   UNL A   1      47.122  32.767  30.517  1.00  0.00    -0.206 F 
ATOM     45  C   UNL A   1      47.068  35.843  28.622  1.00  0.00     0.060 A 
BRANCH  45  46
ATOM     46  S   UNL A   1      47.468  37.593  28.821  1.00  0.00     0.124 S 
ATOM     47  O   UNL A   1      48.488  37.776  27.792  1.00  0.00    -0.237 OA
ATOM     48  O   UNL A   1      46.185  38.238  28.562  1.00  0.00    -0.237 OA
ATOM     49  O   UNL A   1      47.944  37.681  30.197  1.00  0.00    -0.744 OA
ENDBRANCH  45  46
ENDBRANCH  24  38
BRANCH  25  50
ATOM     50  C   UNL A   1      43.405  23.682  27.021  1.00  0.00     0.058 A 
ATOM     51  C   UNL A   1      43.209  22.790  28.085  1.00  0.00     0.135 A 
ATOM     52  C   UNL A   1      43.121  23.226  25.724  1.00  0.00     0.135 A 
ATOM     53  F   UNL A   1      43.470  23.177  29.342  1.00  0.00    -0.206 F 
ATOM     54  C   UNL A   1      42.759  21.490  27.871  1.00  0.00     0.059 A 
ATOM     55  C   UNL A   1      42.644  21.942  25.487  1.00  0.00     0.059 A 
ATOM     56  F   UNL A   1      43.275  24.047  24.673  1.00  0.00    -0.206 F 
ATOM     57  C   UNL A   1      42.478  21.077  26.567  1.00  0.00     0.060 A 
BRANCH  57  58
ATOM     58  S   UNL A   1      41.851  19.404  26.303  1.00  0.00     0.124 S 
ATOM     59  O   UNL A   1      42.285  18.734  27.523  1.00  0.00    -0.237 OA
ATOM     60  O   UNL A   1      40.415  19.631  26.173  1.00  0.00    -0.237 OA
ATOM     61  O   UNL A   1      42.524  18.984  25.078  1.00  0.00    -0.744 OA
ENDBRANCH  57  58
ENDBRANCH  25  50
BRANCH  37  62
ATOM     62  C   UNL A   1      49.468  26.990  26.031  1.00  0.00     0.058 A 
ATOM     63  C   UNL A   1      49.815  27.109  24.676  1.00  0.00     0.135 A 
ATOM     64  C   UNL A   1      50.433  26.478  26.913  1.00  0.00     0.135 A 
ATOM     65  F   UNL A   1      48.924  27.580  23.789  1.00  0.00    -0.206 F 
ATOM     66  C   UNL A   1      51.067  26.722  24.210  1.00  0.00     0.059 A 
ATOM     67  C   UNL A   1      51.701  26.111  26.474  1.00  0.00     0.059 A 
ATOM     68  F   UNL A   1      50.154  26.350  28.220  1.00  0.00    -0.206 F 
ATOM     69  C   UNL A   1      52.006  26.229  25.118  1.00  0.00     0.060 A 
BRANCH  69  70
ATOM     70  S   UNL A   1      53.643  25.775  24.509  1.00  0.00     0.124 S 
ATOM     71  O   UNL A   1      54.505  26.635  25.313  1.00  0.00    -0.237 OA
ATOM     72  O   UNL A   1      53.707  24.350  24.816  1.00  0.00    -0.237 OA
ATOM     73  O   UNL A   1      53.580  26.103  23.088  1.00  0.00    -0.744 OA
ENDBRANCH  69  70
ENDBRANCH  37  62
ENDBRANCH  11  12
ENDBRANCH   4   6
ENDBRANCH   1   2
BRANCH   1  74
ATOM     74  C   UNL A   1      34.887  31.903  27.721  1.00  0.00     0.023 C 
BRANCH  74  75
ATOM     75  C   UNL A   1      34.380  30.460  27.598  1.00  0.00     0.023 C 
BRANCH  75  76
ATOM     76  C   UNL A   1      33.101  30.290  26.774  1.00  0.00     0.116 C 
BRANCH  76  77
ATOM     77  N   UNL A   1      32.267  29.254  27.343  1.00  0.00    -0.354 N 
ATOM     78  C   UNL A   1      32.129  27.949  26.980  1.00  0.00     0.249 C 
ATOM     79  H   UNL A   1      31.717  29.534  28.109  1.00  0.00     0.163 HD
ATOM     80  O   UNL A   1      31.067  27.407  27.296  1.00  0.00    -0.272 OA
BRANCH  78  81
ATOM     81  C   UNL A   1      33.259  27.203  26.233  1.00  0.00     0.211 C 
ATOM     82  C   UNL A   1      33.167  25.680  26.324  1.00  0.00     0.085 C 
ATOM     83  O   UNL A   1      33.223  27.544  24.837  1.00  0.00    -0.357 OA
ATOM     84  C   UNL A   1      33.014  25.177  24.886  1.00  0.00     0.124 C 
ATOM     85  C   UNL A   1      32.627  26.458  24.102  1.00  0.00     0.187 C 
BRANCH  84  86
ATOM     86  C   UNL A   1      34.265  24.378  24.453  1.00  0.00     0.005 A 
ATOM     87  C   UNL A   1      35.382  24.445  25.330  1.00  0.00     0.008 A 
ATOM     88  C   UNL A   1      34.435  23.580  23.303  1.00  0.00     0.047 A 
ATOM     89  C   UNL A   1      36.545  23.696  25.134  1.00  0.00     0.001 A 
ATOM     90  C   UNL A   1      35.593  22.797  23.132  1.00  0.00     0.021 A 
ATOM     91  Cl  UNL A   1      33.348  23.512  21.962  1.00  0.00    -0.084 Cl
ATOM     92  C   UNL A   1      36.639  22.844  24.047  1.00  0.00     0.002 A 
ENDBRANCH  84  86
BRANCH  84  93
ATOM     93  O   UNL A   1      31.928  24.228  24.856  1.00  0.00    -0.382 OA
ATOM     94  H   UNL A   1      31.732  23.990  23.936  1.00  0.00     0.212 HD
ENDBRANCH  84  93
BRANCH  85  95
ATOM     95  C   UNL A   1      31.158  26.781  23.817  1.00  0.00     0.003 A 
ATOM     96  C   UNL A   1      30.117  25.967  24.304  1.00  0.00     0.008 A 
ATOM     97  C   UNL A   1      30.782  27.947  23.118  1.00  0.00     0.046 A 
ATOM     98  C   UNL A   1      28.773  26.327  24.163  1.00  0.00     0.000 A 
ATOM     99  C   UNL A   1      29.433  28.292  22.955  1.00  0.00     0.021 A 
ATOM    100  Cl  UNL A   1      31.932  29.022  22.391  1.00  0.00    -0.084 Cl
ATOM    101  C   UNL A   1      28.430  27.492  23.493  1.00  0.00     0.002 A 
ENDBRANCH  85  95
ENDBRANCH  78  81
ENDBRANCH  76  77
ENDBRANCH  75  76
ENDBRANCH  74  75
ENDBRANCH   1  74
TORSDOF 17
ENDMDL
