MODEL 1
REMARK VINA RESULT:     -11.4      0.000      0.000
REMARK SMILES Cn1ccc(C(=O)NCc2ccc(C(=O)NCCCCNC(=O)c3ccc(-c4c5nc(c(-c6c(F)cc(S(=O)(=O)[O-])cc6F)c6ccc([nH]6)c(-c6c(F)cc(S(=O)(=O)[O-])cc6F)c6nc(c(-c7c(F)cc(S(=O)(=O)[O-])cc7F)c7ccc4[nH]7)C=C6)C=C5)cc3)cc2)cc1=O
REMARK SMILES IDX 18 1 17 2 16 3 14 4 15 5 13 7 10 8 11 9 91 10 12 11 90 12
REMARK SMILES IDX 9 13 8 14 6 15 7 16 5 18 1 19 2 20 3 21 93 22 4 23 92 24
REMARK SMILES IDX 94 25 19 26 20 27 21 28 22 29 23 31 24 32 25 33 89 34 26 35
REMARK SMILES IDX 88 36 27 37 28 38 29 39 82 40 30 41 87 42 81 43 83 44 31 45
REMARK SMILES IDX 86 46 80 47 79 48 32 50 66 51 45 52 65 53 46 54 49 55 64 56
REMARK SMILES IDX 84 57 47 58 48 59 63 61 85 62 50 63 33 64 34 65 43 66 35 67
REMARK SMILES IDX 36 68 42 69 44 70 37 71 38 72 39 73 40 74 41 75 67 76 68 77
REMARK SMILES IDX 77 78 69 79 70 80 76 81 78 82 71 83 72 84 73 85 74 86 75 87
REMARK SMILES IDX 51 88 52 89 61 90 53 91 54 92 60 93 62 94 55 95 56 96 57 97
REMARK SMILES IDX 58 98 59 99
REMARK H PARENT 16 6 8 17 21 30 83 49 49 60
REMARK Flexibility Score: inf
ROOT
ATOM      1  C   UNL A   1      35.558  21.643  26.041  1.00  0.00     0.023 C 
ENDROOT
BRANCH   1   2
ATOM      2  C   UNL A   1      35.530  20.435  25.099  1.00  0.00     0.116 C 
BRANCH   2   3
ATOM      3  N   UNL A   1      34.413  19.558  25.398  1.00  0.00    -0.352 N 
ATOM      4  C   UNL A   1      33.056  19.723  25.261  1.00  0.00     0.251 C 
ATOM      5  O   UNL A   1      32.334  18.756  25.506  1.00  0.00    -0.269 OA
ATOM      6  H   UNL A   1      34.676  18.684  25.765  1.00  0.00     0.163 HD
BRANCH   4   7
ATOM      7  C   UNL A   1      32.420  20.996  24.811  1.00  0.00     0.039 A 
ATOM      8  C   UNL A   1      31.198  23.352  23.796  1.00  0.00    -0.029 A 
ATOM      9  C   UNL A   1      31.816  22.440  22.933  1.00  0.00     0.006 A 
ATOM     10  C   UNL A   1      31.164  23.043  25.163  1.00  0.00     0.006 A 
ATOM     11  C   UNL A   1      32.424  21.280  23.437  1.00  0.00     0.014 A 
ATOM     12  C   UNL A   1      31.754  21.878  25.658  1.00  0.00     0.014 A 
BRANCH   8  13
ATOM     13  C   UNL A   1      30.501  24.584  23.259  1.00  0.00     0.152 C 
BRANCH  13  14
ATOM     14  N   UNL A   1      31.302  25.248  22.247  1.00  0.00    -0.348 N 
ATOM     15  C   UNL A   1      32.064  26.367  22.225  1.00  0.00     0.251 C 
ATOM     16  O   UNL A   1      32.475  26.730  21.119  1.00  0.00    -0.269 OA
ATOM     17  H   UNL A   1      31.289  24.778  21.383  1.00  0.00     0.164 HD
BRANCH  15  18
ATOM     18  C   UNL A   1      32.521  27.092  23.453  1.00  0.00     0.046 A 
ATOM     19  C   UNL A   1      33.860  28.655  27.171  1.00  0.00     0.153 C 
ATOM     20  N   UNL A   1      33.428  28.155  25.876  1.00  0.00    -0.319 N 
ATOM     21  C   UNL A   1      33.882  26.920  25.462  1.00  0.00     0.089 A 
ATOM     22  C   UNL A   1      32.590  28.934  25.085  1.00  0.00     0.251 A 
ATOM     23  C   UNL A   1      33.464  26.387  24.311  1.00  0.00     0.032 A 
ATOM     24  C   UNL A   1      32.176  28.346  23.780  1.00  0.00     0.085 A 
ATOM     25  O   UNL A   1      32.158  30.040  25.398  1.00  0.00    -0.269 OA
ENDBRANCH  15  18
ENDBRANCH  13  14
ENDBRANCH   8  13
ENDBRANCH   4   7
ENDBRANCH   2   3
ENDBRANCH   1   2
BRANCH   1  26
ATOM     26  C   UNL A   1      35.594  23.003  25.342  1.00  0.00     0.023 C 
BRANCH  26  27
ATOM     27  C   UNL A   1      36.965  23.665  25.289  1.00  0.00     0.116 C 
BRANCH  27  28
ATOM     28  N   UNL A   1      38.067  22.729  25.458  1.00  0.00    -0.352 N 
ATOM     29  C   UNL A   1      39.270  22.938  26.091  1.00  0.00     0.251 C 
ATOM     30  H   UNL A   1      37.934  21.834  25.071  1.00  0.00     0.163 HD
ATOM     31  O   UNL A   1      40.142  22.076  26.061  1.00  0.00    -0.269 OA
BRANCH  29  32
ATOM     32  C   UNL A   1      39.513  24.228  26.767  1.00  0.00     0.039 A 
ATOM     33  C   UNL A   1      39.007  24.421  28.054  1.00  0.00     0.014 A 
ATOM     34  C   UNL A   1      40.277  25.223  26.151  1.00  0.00     0.014 A 
ATOM     35  C   UNL A   1      39.326  25.586  28.752  1.00  0.00     0.010 A 
ATOM     36  C   UNL A   1      40.653  26.350  26.873  1.00  0.00     0.010 A 
ATOM     37  C   UNL A   1      40.181  26.543  28.181  1.00  0.00    -0.014 A 
BRANCH  37  38
ATOM     38  C   UNL A   1      40.602  27.748  28.938  1.00  0.00     0.031 A 
ATOM     39  C   UNL A   1      41.925  27.768  29.651  1.00  0.00     0.074 A 
ATOM     40  C   UNL A   1      39.755  28.788  29.053  1.00  0.00     0.049 A 
ATOM     41  N   UNL A   1      42.440  28.700  30.409  1.00  0.00    -0.248 NA
ATOM     42  C   UNL A   1      42.764  26.566  29.523  1.00  0.00     0.031 C 
ATOM     43  C   UNL A   1      38.412  28.853  28.473  1.00  0.00     0.029 A 
ATOM     44  N   UNL A   1      39.888  29.982  29.717  1.00  0.00    -0.354 N 
ATOM     45  C   UNL A   1      43.649  28.191  30.867  1.00  0.00     0.074 A 
ATOM     46  C   UNL A   1      43.765  26.847  30.343  1.00  0.00     0.031 C 
ATOM     47  C   UNL A   1      37.849  30.027  28.799  1.00  0.00     0.029 A 
ATOM     48  C   UNL A   1      38.777  30.786  29.632  1.00  0.00     0.049 A 
ATOM     49  H   UNL A   1      40.702  30.237  30.206  1.00  0.00     0.167 HD
ATOM     50  C   UNL A   1      44.586  28.795  31.635  1.00  0.00     0.037 A 
ATOM     51  C   UNL A   1      38.529  31.996  30.170  1.00  0.00     0.037 A 
ATOM     52  C   UNL A   1      44.474  30.142  32.130  1.00  0.00     0.049 A 
ATOM     53  C   UNL A   1      39.598  32.670  30.982  1.00  0.00     0.074 A 
ATOM     54  C   UNL A   1      45.405  30.881  32.837  1.00  0.00     0.029 A 
ATOM     55  N   UNL A   1      43.355  30.949  31.978  1.00  0.00    -0.354 N 
ATOM     56  N   UNL A   1      40.781  32.216  31.322  1.00  0.00    -0.248 NA
ATOM     57  C   UNL A   1      39.308  34.024  31.472  1.00  0.00     0.031 C 
ATOM     58  C   UNL A   1      44.833  32.119  33.151  1.00  0.00     0.029 A 
ATOM     59  C   UNL A   1      43.562  32.170  32.600  1.00  0.00     0.049 A 
ATOM     60  H   UNL A   1      42.535  30.692  31.498  1.00  0.00     0.167 HD
ATOM     61  C   UNL A   1      41.384  33.232  32.055  1.00  0.00     0.074 A 
ATOM     62  C   UNL A   1      40.439  34.332  32.094  1.00  0.00     0.031 C 
ATOM     63  C   UNL A   1      42.607  33.252  32.639  1.00  0.00     0.037 A 
BRANCH  50  64
ATOM     64  C   UNL A   1      45.808  27.991  31.988  1.00  0.00     0.058 A 
ATOM     65  C   UNL A   1      46.959  28.000  31.182  1.00  0.00     0.135 A 
ATOM     66  C   UNL A   1      45.824  27.186  33.138  1.00  0.00     0.135 A 
ATOM     67  F   UNL A   1      46.995  28.743  30.063  1.00  0.00    -0.206 F 
ATOM     68  C   UNL A   1      48.058  27.197  31.471  1.00  0.00     0.059 A 
ATOM     69  C   UNL A   1      46.925  26.399  33.465  1.00  0.00     0.059 A 
ATOM     70  F   UNL A   1      44.755  27.142  33.948  1.00  0.00    -0.206 F 
ATOM     71  C   UNL A   1      48.026  26.391  32.610  1.00  0.00     0.060 A 
BRANCH  71  72
ATOM     72  S   UNL A   1      49.441  25.322  32.951  1.00  0.00     0.124 S 
ATOM     73  O   UNL A   1      49.828  24.918  31.603  1.00  0.00    -0.237 OA
ATOM     74  O   UNL A   1      50.362  26.226  33.631  1.00  0.00    -0.237 OA
ATOM     75  O   UNL A   1      48.874  24.266  33.785  1.00  0.00    -0.744 OA
ENDBRANCH  71  72
ENDBRANCH  50  64
BRANCH  51  76
ATOM     76  C   UNL A   1      37.214  32.644  29.922  1.00  0.00     0.058 A 
ATOM     77  C   UNL A   1      36.120  32.404  30.764  1.00  0.00     0.135 A 
ATOM     78  C   UNL A   1      37.051  33.574  28.884  1.00  0.00     0.135 A 
ATOM     79  F   UNL A   1      36.226  31.517  31.767  1.00  0.00    -0.206 F 
ATOM     80  C   UNL A   1      34.909  33.067  30.592  1.00  0.00     0.059 A 
ATOM     81  C   UNL A   1      35.858  34.266  28.704  1.00  0.00     0.059 A 
ATOM     82  F   UNL A   1      38.076  33.851  28.063  1.00  0.00    -0.206 F 
ATOM     83  C   UNL A   1      34.793  34.005  29.565  1.00  0.00     0.060 A 
BRANCH  83  84
ATOM     84  S   UNL A   1      33.252  34.937  29.414  1.00  0.00     0.124 S 
ATOM     85  O   UNL A   1      32.721  34.852  30.770  1.00  0.00    -0.237 OA
ATOM     86  O   UNL A   1      33.728  36.252  28.996  1.00  0.00    -0.237 OA
ATOM     87  O   UNL A   1      32.511  34.197  28.397  1.00  0.00    -0.744 OA
ENDBRANCH  83  84
ENDBRANCH  51  76
BRANCH  63  88
ATOM     88  C   UNL A   1      43.005  34.507  33.366  1.00  0.00     0.058 A 
ATOM     89  C   UNL A   1      42.740  34.680  34.733  1.00  0.00     0.135 A 
ATOM     90  C   UNL A   1      43.707  35.524  32.700  1.00  0.00     0.135 A 
ATOM     91  F   UNL A   1      42.067  33.740  35.415  1.00  0.00    -0.206 F 
ATOM     92  C   UNL A   1      43.142  35.826  35.411  1.00  0.00     0.059 A 
ATOM     93  C   UNL A   1      44.140  36.667  33.364  1.00  0.00     0.059 A 
ATOM     94  F   UNL A   1      43.994  35.403  31.394  1.00  0.00    -0.206 F 
ATOM     95  C   UNL A   1      43.843  36.814  34.718  1.00  0.00     0.060 A 
BRANCH  95  96
ATOM     96  S   UNL A   1      44.390  38.282  35.615  1.00  0.00     0.124 S 
ATOM     97  O   UNL A   1      43.820  38.047  36.938  1.00  0.00    -0.237 OA
ATOM     98  O   UNL A   1      45.843  38.181  35.524  1.00  0.00    -0.237 OA
ATOM     99  O   UNL A   1      43.796  39.382  34.862  1.00  0.00    -0.744 OA
ENDBRANCH  95  96
ENDBRANCH  63  88
ENDBRANCH  37  38
ENDBRANCH  29  32
ENDBRANCH  27  28
ENDBRANCH  26  27
ENDBRANCH   1  26
TORSDOF 17
ENDMDL
MODEL 2
REMARK VINA RESULT:     -11.4      3.270      4.296
REMARK SMILES Cn1ccc(C(=O)NCc2ccc(C(=O)NCCCCNC(=O)c3ccc(-c4c5nc(c(-c6c(F)cc(S(=O)(=O)[O-])cc6F)c6ccc([nH]6)c(-c6c(F)cc(S(=O)(=O)[O-])cc6F)c6nc(c(-c7c(F)cc(S(=O)(=O)[O-])cc7F)c7ccc4[nH]7)C=C6)C=C5)cc3)cc2)cc1=O
REMARK SMILES IDX 18 1 17 2 16 3 14 4 15 5 13 7 10 8 11 9 91 10 12 11 90 12
REMARK SMILES IDX 9 13 8 14 6 15 7 16 5 18 1 19 2 20 3 21 93 22 4 23 92 24
REMARK SMILES IDX 94 25 19 26 20 27 21 28 22 29 23 31 24 32 25 33 89 34 26 35
REMARK SMILES IDX 88 36 27 37 28 38 29 39 82 40 30 41 87 42 81 43 83 44 31 45
REMARK SMILES IDX 86 46 80 47 79 48 32 50 66 51 45 52 65 53 46 54 49 55 64 56
REMARK SMILES IDX 84 57 47 58 48 59 63 61 85 62 50 63 33 64 34 65 43 66 35 67
REMARK SMILES IDX 36 68 42 69 44 70 37 71 38 72 39 73 40 74 41 75 67 76 68 77
REMARK SMILES IDX 77 78 69 79 70 80 76 81 78 82 71 83 72 84 73 85 74 86 75 87
REMARK SMILES IDX 51 88 52 89 61 90 53 91 54 92 60 93 62 94 55 95 56 96 57 97
REMARK SMILES IDX 58 98 59 99
REMARK H PARENT 16 6 8 17 21 30 83 49 49 60
REMARK Flexibility Score: inf
ROOT
ATOM      1  C   UNL A   1      40.455  22.370  27.677  1.00  0.00     0.023 C 
ENDROOT
BRANCH   1   2
ATOM      2  C   UNL A   1      39.487  22.657  26.525  1.00  0.00     0.116 C 
BRANCH   2   3
ATOM      3  N   UNL A   1      38.991  21.428  25.934  1.00  0.00    -0.352 N 
ATOM      4  C   UNL A   1      37.844  21.147  25.232  1.00  0.00     0.251 C 
ATOM      5  O   UNL A   1      37.727  20.017  24.754  1.00  0.00    -0.269 OA
ATOM      6  H   UNL A   1      39.586  20.654  26.058  1.00  0.00     0.163 HD
BRANCH   4   7
ATOM      7  C   UNL A   1      36.753  22.139  25.000  1.00  0.00     0.039 A 
ATOM      8  C   UNL A   1      34.668  23.972  24.394  1.00  0.00    -0.029 A 
ATOM      9  C   UNL A   1      35.437  23.403  23.372  1.00  0.00     0.006 A 
ATOM     10  C   UNL A   1      34.931  23.575  25.713  1.00  0.00     0.006 A 
ATOM     11  C   UNL A   1      36.470  22.503  23.674  1.00  0.00     0.014 A 
ATOM     12  C   UNL A   1      35.948  22.664  26.006  1.00  0.00     0.014 A 
BRANCH   8  13
ATOM     13  C   UNL A   1      33.523  24.910  24.077  1.00  0.00     0.152 C 
BRANCH  13  14
ATOM     14  N   UNL A   1      32.735  25.205  25.261  1.00  0.00    -0.348 N 
ATOM     15  C   UNL A   1      31.838  26.164  25.588  1.00  0.00     0.251 C 
ATOM     16  O   UNL A   1      31.485  26.205  26.770  1.00  0.00    -0.269 OA
ATOM     17  H   UNL A   1      32.889  24.561  25.989  1.00  0.00     0.164 HD
BRANCH  15  18
ATOM     18  C   UNL A   1      31.181  27.069  24.592  1.00  0.00     0.046 A 
ATOM     19  C   UNL A   1      29.676  30.016  21.925  1.00  0.00     0.153 C 
ATOM     20  N   UNL A   1      30.183  28.973  22.804  1.00  0.00    -0.319 N 
ATOM     21  C   UNL A   1      31.527  28.969  23.114  1.00  0.00     0.089 A 
ATOM     22  C   UNL A   1      29.312  28.003  23.289  1.00  0.00     0.251 A 
ATOM     23  C   UNL A   1      32.030  28.073  23.967  1.00  0.00     0.032 A 
ATOM     24  C   UNL A   1      29.902  26.979  24.198  1.00  0.00     0.085 A 
ATOM     25  O   UNL A   1      28.110  27.953  23.045  1.00  0.00    -0.269 OA
ENDBRANCH  15  18
ENDBRANCH  13  14
ENDBRANCH   8  13
ENDBRANCH   4   7
ENDBRANCH   2   3
ENDBRANCH   1   2
BRANCH   1  26
ATOM     26  C   UNL A   1      41.908  22.147  27.256  1.00  0.00     0.023 C 
BRANCH  26  27
ATOM     27  C   UNL A   1      42.766  23.405  27.207  1.00  0.00     0.116 C 
BRANCH  27  28
ATOM     28  N   UNL A   1      42.531  24.220  26.024  1.00  0.00    -0.352 N 
ATOM     29  C   UNL A   1      42.133  25.536  25.964  1.00  0.00     0.251 C 
ATOM     30  H   UNL A   1      42.674  23.774  25.159  1.00  0.00     0.163 HD
ATOM     31  O   UNL A   1      41.879  26.056  24.883  1.00  0.00    -0.269 OA
BRANCH  29  32
ATOM     32  C   UNL A   1      41.974  26.297  27.219  1.00  0.00     0.039 A 
ATOM     33  C   UNL A   1      42.910  27.287  27.530  1.00  0.00     0.014 A 
ATOM     34  C   UNL A   1      40.881  26.068  28.059  1.00  0.00     0.014 A 
ATOM     35  C   UNL A   1      42.710  28.095  28.650  1.00  0.00     0.010 A 
ATOM     36  C   UNL A   1      40.647  26.920  29.133  1.00  0.00     0.010 A 
ATOM     37  C   UNL A   1      41.558  27.941  29.440  1.00  0.00    -0.014 A 
BRANCH  37  38
ATOM     38  C   UNL A   1      41.284  28.845  30.584  1.00  0.00     0.031 A 
ATOM     39  C   UNL A   1      42.067  28.708  31.860  1.00  0.00     0.074 A 
ATOM     40  C   UNL A   1      40.272  29.729  30.502  1.00  0.00     0.049 A 
ATOM     41  N   UNL A   1      41.933  29.361  32.984  1.00  0.00    -0.248 NA
ATOM     42  C   UNL A   1      43.114  27.675  31.886  1.00  0.00     0.031 C 
ATOM     43  C   UNL A   1      39.389  29.900  29.346  1.00  0.00     0.029 A 
ATOM     44  N   UNL A   1      39.798  30.636  31.417  1.00  0.00    -0.354 N 
ATOM     45  C   UNL A   1      42.860  28.806  33.858  1.00  0.00     0.074 A 
ATOM     46  C   UNL A   1      43.512  27.727  33.148  1.00  0.00     0.031 C 
ATOM     47  C   UNL A   1      38.489  30.857  29.618  1.00  0.00     0.029 A 
ATOM     48  C   UNL A   1      38.710  31.349  30.974  1.00  0.00     0.049 A 
ATOM     49  H   UNL A   1      40.201  30.763  32.306  1.00  0.00     0.167 HD
ATOM     50  C   UNL A   1      43.156  29.175  35.127  1.00  0.00     0.037 A 
ATOM     51  C   UNL A   1      37.969  32.288  31.592  1.00  0.00     0.037 A 
ATOM     52  C   UNL A   1      42.519  30.267  35.815  1.00  0.00     0.049 A 
ATOM     53  C   UNL A   1      38.340  32.717  32.983  1.00  0.00     0.074 A 
ATOM     54  C   UNL A   1      42.807  30.782  37.066  1.00  0.00     0.029 A 
ATOM     55  N   UNL A   1      41.456  31.005  35.314  1.00  0.00    -0.354 N 
ATOM     56  N   UNL A   1      39.289  32.251  33.761  1.00  0.00    -0.248 NA
ATOM     57  C   UNL A   1      37.553  33.806  33.577  1.00  0.00     0.031 C 
ATOM     58  C   UNL A   1      41.890  31.803  37.340  1.00  0.00     0.029 A 
ATOM     59  C   UNL A   1      41.059  31.955  36.241  1.00  0.00     0.049 A 
ATOM     60  H   UNL A   1      41.044  30.873  34.430  1.00  0.00     0.167 HD
ATOM     61  C   UNL A   1      39.223  32.998  34.932  1.00  0.00     0.074 A 
ATOM     62  C   UNL A   1      38.151  33.958  34.753  1.00  0.00     0.031 C 
ATOM     63  C   UNL A   1      39.982  32.898  36.052  1.00  0.00     0.037 A 
BRANCH  50  64
ATOM     64  C   UNL A   1      44.211  28.378  35.845  1.00  0.00     0.058 A 
ATOM     65  C   UNL A   1      45.580  28.661  35.700  1.00  0.00     0.135 A 
ATOM     66  C   UNL A   1      43.852  27.307  36.678  1.00  0.00     0.135 A 
ATOM     67  F   UNL A   1      45.981  29.668  34.907  1.00  0.00    -0.206 F 
ATOM     68  C   UNL A   1      46.554  27.875  36.307  1.00  0.00     0.059 A 
ATOM     69  C   UNL A   1      44.808  26.526  37.320  1.00  0.00     0.059 A 
ATOM     70  F   UNL A   1      42.559  26.995  36.858  1.00  0.00    -0.206 F 
ATOM     71  C   UNL A   1      46.158  26.803  37.107  1.00  0.00     0.060 A 
BRANCH  71  72
ATOM     72  S   UNL A   1      47.433  25.765  37.853  1.00  0.00     0.124 S 
ATOM     73  O   UNL A   1      46.962  25.676  39.232  1.00  0.00    -0.237 OA
ATOM     74  O   UNL A   1      47.338  24.537  37.070  1.00  0.00    -0.237 OA
ATOM     75  O   UNL A   1      48.657  26.537  37.656  1.00  0.00    -0.744 OA
ENDBRANCH  71  72
ENDBRANCH  50  64
BRANCH  51  76
ATOM     76  C   UNL A   1      36.821  32.897  30.870  1.00  0.00     0.058 A 
ATOM     77  C   UNL A   1      35.502  32.538  31.179  1.00  0.00     0.135 A 
ATOM     78  C   UNL A   1      37.020  33.904  29.913  1.00  0.00     0.135 A 
ATOM     79  F   UNL A   1      35.261  31.576  32.083  1.00  0.00    -0.206 F 
ATOM     80  C   UNL A   1      34.417  33.160  30.569  1.00  0.00     0.059 A 
ATOM     81  C   UNL A   1      35.952  34.555  29.305  1.00  0.00     0.059 A 
ATOM     82  F   UNL A   1      38.266  34.294  29.598  1.00  0.00    -0.206 F 
ATOM     83  C   UNL A   1      34.654  34.176  29.641  1.00  0.00     0.060 A 
BRANCH  83  84
ATOM     84  S   UNL A   1      33.239  35.049  28.933  1.00  0.00     0.124 S 
ATOM     85  O   UNL A   1      33.888  36.161  28.250  1.00  0.00    -0.237 OA
ATOM     86  O   UNL A   1      32.649  34.028  28.072  1.00  0.00    -0.237 OA
ATOM     87  O   UNL A   1      32.443  35.403  30.104  1.00  0.00    -0.744 OA
ENDBRANCH  83  84
ENDBRANCH  51  76
BRANCH  63  88
ATOM     88  C   UNL A   1      39.690  33.858  37.172  1.00  0.00     0.058 A 
ATOM     89  C   UNL A   1      38.840  33.512  38.233  1.00  0.00     0.135 A 
ATOM     90  C   UNL A   1      40.311  35.116  37.212  1.00  0.00     0.135 A 
ATOM     91  F   UNL A   1      38.216  32.324  38.240  1.00  0.00    -0.206 F 
ATOM     92  C   UNL A   1      38.601  34.388  39.286  1.00  0.00     0.059 A 
ATOM     93  C   UNL A   1      40.106  35.998  38.268  1.00  0.00     0.059 A 
ATOM     94  F   UNL A   1      41.142  35.492  36.225  1.00  0.00    -0.206 F 
ATOM     95  C   UNL A   1      39.240  35.629  39.296  1.00  0.00     0.060 A 
BRANCH  95  96
ATOM     96  S   UNL A   1      38.950  36.745  40.686  1.00  0.00     0.124 S 
ATOM     97  O   UNL A   1      40.309  36.985  41.158  1.00  0.00    -0.237 OA
ATOM     98  O   UNL A   1      38.290  37.878  40.045  1.00  0.00    -0.237 OA
ATOM     99  O   UNL A   1      38.104  35.960  41.580  1.00  0.00    -0.744 OA
ENDBRANCH  95  96
ENDBRANCH  63  88
ENDBRANCH  37  38
ENDBRANCH  29  32
ENDBRANCH  27  28
ENDBRANCH  26  27
ENDBRANCH   1  26
TORSDOF 17
ENDMDL
MODEL 3
REMARK VINA RESULT:     -11.4      4.585     11.405
REMARK SMILES Cn1ccc(C(=O)NCc2ccc(C(=O)NCCCCNC(=O)c3ccc(-c4c5nc(c(-c6c(F)cc(S(=O)(=O)[O-])cc6F)c6ccc([nH]6)c(-c6c(F)cc(S(=O)(=O)[O-])cc6F)c6nc(c(-c7c(F)cc(S(=O)(=O)[O-])cc7F)c7ccc4[nH]7)C=C6)C=C5)cc3)cc2)cc1=O
REMARK SMILES IDX 18 1 17 2 16 3 14 4 15 5 13 7 10 8 11 9 91 10 12 11 90 12
REMARK SMILES IDX 9 13 8 14 6 15 7 16 5 18 1 19 2 20 3 21 93 22 4 23 92 24
REMARK SMILES IDX 94 25 19 26 20 27 21 28 22 29 23 31 24 32 25 33 89 34 26 35
REMARK SMILES IDX 88 36 27 37 28 38 29 39 82 40 30 41 87 42 81 43 83 44 31 45
REMARK SMILES IDX 86 46 80 47 79 48 32 50 66 51 45 52 65 53 46 54 49 55 64 56
REMARK SMILES IDX 84 57 47 58 48 59 63 61 85 62 50 63 33 64 34 65 43 66 35 67
REMARK SMILES IDX 36 68 42 69 44 70 37 71 38 72 39 73 40 74 41 75 67 76 68 77
REMARK SMILES IDX 77 78 69 79 70 80 76 81 78 82 71 83 72 84 73 85 74 86 75 87
REMARK SMILES IDX 51 88 52 89 61 90 53 91 54 92 60 93 62 94 55 95 56 96 57 97
REMARK SMILES IDX 58 98 59 99
REMARK H PARENT 16 6 8 17 21 30 83 49 49 60
REMARK Flexibility Score: inf
ROOT
ATOM      1  C   UNL A   1      33.510  34.989  28.750  1.00  0.00     0.023 C 
ENDROOT
BRANCH   1   2
ATOM      2  C   UNL A   1      33.764  35.534  30.158  1.00  0.00     0.116 C 
BRANCH   2   3
ATOM      3  N   UNL A   1      33.362  34.580  31.175  1.00  0.00    -0.352 N 
ATOM      4  C   UNL A   1      34.076  33.915  32.142  1.00  0.00     0.251 C 
ATOM      5  O   UNL A   1      33.448  33.227  32.947  1.00  0.00    -0.269 OA
ATOM      6  H   UNL A   1      32.400  34.371  31.171  1.00  0.00     0.163 HD
BRANCH   4   7
ATOM      7  C   UNL A   1      35.560  34.004  32.280  1.00  0.00     0.039 A 
ATOM      8  C   UNL A   1      38.362  34.186  32.714  1.00  0.00    -0.029 A 
ATOM      9  C   UNL A   1      37.459  34.641  33.682  1.00  0.00     0.006 A 
ATOM     10  C   UNL A   1      37.840  33.602  31.552  1.00  0.00     0.006 A 
ATOM     11  C   UNL A   1      36.076  34.555  33.463  1.00  0.00     0.014 A 
ATOM     12  C   UNL A   1      36.462  33.501  31.347  1.00  0.00     0.014 A 
BRANCH   8  13
ATOM     13  C   UNL A   1      39.855  34.234  32.958  1.00  0.00     0.152 C 
BRANCH  13  14
ATOM     14  N   UNL A   1      40.193  33.739  34.281  1.00  0.00    -0.348 N 
ATOM     15  C   UNL A   1      40.095  32.537  34.897  1.00  0.00     0.251 C 
ATOM     16  O   UNL A   1      40.327  32.522  36.109  1.00  0.00    -0.269 OA
ATOM     17  H   UNL A   1      40.580  34.434  34.859  1.00  0.00     0.164 HD
BRANCH  15  18
ATOM     18  C   UNL A   1      39.849  31.247  34.179  1.00  0.00     0.046 A 
ATOM     19  C   UNL A   1      38.672  27.566  32.411  1.00  0.00     0.153 C 
ATOM     20  N   UNL A   1      39.096  28.838  32.973  1.00  0.00    -0.319 N 
ATOM     21  C   UNL A   1      38.129  29.765  33.306  1.00  0.00     0.089 A 
ATOM     22  C   UNL A   1      40.452  29.096  33.143  1.00  0.00     0.251 A 
ATOM     23  C   UNL A   1      38.459  30.922  33.885  1.00  0.00     0.032 A 
ATOM     24  C   UNL A   1      40.805  30.415  33.741  1.00  0.00     0.085 A 
ATOM     25  O   UNL A   1      41.356  28.314  32.861  1.00  0.00    -0.269 OA
ENDBRANCH  15  18
ENDBRANCH  13  14
ENDBRANCH   8  13
ENDBRANCH   4   7
ENDBRANCH   2   3
ENDBRANCH   1   2
BRANCH   1  26
ATOM     26  C   UNL A   1      34.757  34.494  28.017  1.00  0.00     0.023 C 
BRANCH  26  27
ATOM     27  C   UNL A   1      35.210  33.089  28.392  1.00  0.00     0.116 C 
BRANCH  27  28
ATOM     28  N   UNL A   1      34.232  32.060  28.070  1.00  0.00    -0.352 N 
ATOM     29  C   UNL A   1      34.434  30.706  27.939  1.00  0.00     0.251 C 
ATOM     30  H   UNL A   1      33.309  32.373  27.928  1.00  0.00     0.163 HD
ATOM     31  O   UNL A   1      33.521  29.978  27.563  1.00  0.00    -0.269 OA
BRANCH  29  32
ATOM     32  C   UNL A   1      35.774  30.149  28.215  1.00  0.00     0.039 A 
ATOM     33  C   UNL A   1      36.714  30.114  27.183  1.00  0.00     0.014 A 
ATOM     34  C   UNL A   1      36.113  29.708  29.496  1.00  0.00     0.014 A 
ATOM     35  C   UNL A   1      38.019  29.701  27.454  1.00  0.00     0.010 A 
ATOM     36  C   UNL A   1      37.430  29.365  29.781  1.00  0.00     0.010 A 
ATOM     37  C   UNL A   1      38.396  29.357  28.763  1.00  0.00    -0.014 A 
BRANCH  37  38
ATOM     38  C   UNL A   1      39.798  28.998  29.090  1.00  0.00     0.031 A 
ATOM     39  C   UNL A   1      40.721  30.022  29.690  1.00  0.00     0.074 A 
ATOM     40  C   UNL A   1      40.262  27.775  28.768  1.00  0.00     0.049 A 
ATOM     41  N   UNL A   1      41.989  29.916  29.988  1.00  0.00    -0.248 NA
ATOM     42  C   UNL A   1      40.150  31.352  29.954  1.00  0.00     0.031 C 
ATOM     43  C   UNL A   1      39.484  26.723  28.110  1.00  0.00     0.029 A 
ATOM     44  N   UNL A   1      41.505  27.218  28.927  1.00  0.00    -0.354 N 
ATOM     45  C   UNL A   1      42.375  31.168  30.453  1.00  0.00     0.074 A 
ATOM     46  C   UNL A   1      41.218  32.030  30.346  1.00  0.00     0.031 C 
ATOM     47  C   UNL A   1      40.266  25.646  27.931  1.00  0.00     0.029 A 
ATOM     48  C   UNL A   1      41.604  25.939  28.434  1.00  0.00     0.049 A 
ATOM     49  H   UNL A   1      42.255  27.690  29.356  1.00  0.00     0.167 HD
ATOM     50  C   UNL A   1      43.576  31.556  30.943  1.00  0.00     0.037 A 
ATOM     51  C   UNL A   1      42.656  25.099  28.384  1.00  0.00     0.037 A 
ATOM     52  C   UNL A   1      44.713  30.683  31.069  1.00  0.00     0.049 A 
ATOM     53  C   UNL A   1      43.968  25.531  28.975  1.00  0.00     0.074 A 
ATOM     54  C   UNL A   1      45.946  30.950  31.636  1.00  0.00     0.029 A 
ATOM     55  N   UNL A   1      44.761  29.375  30.608  1.00  0.00    -0.354 N 
ATOM     56  N   UNL A   1      44.289  26.687  29.505  1.00  0.00    -0.248 NA
ATOM     57  C   UNL A   1      45.056  24.545  28.973  1.00  0.00     0.031 C 
ATOM     58  C   UNL A   1      46.754  29.818  31.480  1.00  0.00     0.029 A 
ATOM     59  C   UNL A   1      46.009  28.829  30.855  1.00  0.00     0.049 A 
ATOM     60  H   UNL A   1      44.016  28.904  30.169  1.00  0.00     0.167 HD
ATOM     61  C   UNL A   1      45.612  26.565  29.914  1.00  0.00     0.074 A 
ATOM     62  C   UNL A   1      46.026  25.215  29.583  1.00  0.00     0.031 C 
ATOM     63  C   UNL A   1      46.410  27.486  30.510  1.00  0.00     0.037 A 
BRANCH  50  64
ATOM     64  C   UNL A   1      43.711  32.993  31.370  1.00  0.00     0.058 A 
ATOM     65  C   UNL A   1      43.491  33.394  32.698  1.00  0.00     0.135 A 
ATOM     66  C   UNL A   1      44.048  33.985  30.436  1.00  0.00     0.135 A 
ATOM     67  F   UNL A   1      43.155  32.489  33.631  1.00  0.00    -0.206 F 
ATOM     68  C   UNL A   1      43.544  34.733  33.072  1.00  0.00     0.059 A 
ATOM     69  C   UNL A   1      44.138  35.327  30.794  1.00  0.00     0.059 A 
ATOM     70  F   UNL A   1      44.275  33.658  29.154  1.00  0.00    -0.206 F 
ATOM     71  C   UNL A   1      43.858  35.694  32.110  1.00  0.00     0.060 A 
BRANCH  71  72
ATOM     72  S   UNL A   1      43.880  37.432  32.599  1.00  0.00     0.124 S 
ATOM     73  O   UNL A   1      45.267  37.594  33.023  1.00  0.00    -0.237 OA
ATOM     74  O   UNL A   1      43.512  38.112  31.362  1.00  0.00    -0.237 OA
ATOM     75  O   UNL A   1      42.885  37.496  33.666  1.00  0.00    -0.744 OA
ENDBRANCH  71  72
ENDBRANCH  50  64
BRANCH  51  76
ATOM     76  C   UNL A   1      42.482  23.755  27.773  1.00  0.00     0.058 A 
ATOM     77  C   UNL A   1      42.540  23.580  26.384  1.00  0.00     0.135 A 
ATOM     78  C   UNL A   1      42.330  22.611  28.573  1.00  0.00     0.135 A 
ATOM     79  F   UNL A   1      42.677  24.645  25.578  1.00  0.00    -0.206 F 
ATOM     80  C   UNL A   1      42.461  22.317  25.806  1.00  0.00     0.059 A 
ATOM     81  C   UNL A   1      42.271  21.337  28.020  1.00  0.00     0.059 A 
ATOM     82  F   UNL A   1      42.288  22.727  29.910  1.00  0.00    -0.206 F 
ATOM     83  C   UNL A   1      42.338  21.200  26.635  1.00  0.00     0.060 A 
BRANCH  83  84
ATOM     84  S   UNL A   1      42.342  19.558  25.880  1.00  0.00     0.124 S 
ATOM     85  O   UNL A   1      43.349  19.715  24.837  1.00  0.00    -0.237 OA
ATOM     86  O   UNL A   1      42.715  18.705  27.005  1.00  0.00    -0.237 OA
ATOM     87  O   UNL A   1      40.968  19.400  25.415  1.00  0.00    -0.744 OA
ENDBRANCH  83  84
ENDBRANCH  51  76
BRANCH  63  88
ATOM     88  C   UNL A   1      47.812  27.065  30.855  1.00  0.00     0.058 A 
ATOM     89  C   UNL A   1      48.135  26.550  32.120  1.00  0.00     0.135 A 
ATOM     90  C   UNL A   1      48.831  27.124  29.891  1.00  0.00     0.135 A 
ATOM     91  F   UNL A   1      47.199  26.478  33.079  1.00  0.00    -0.206 F 
ATOM     92  C   UNL A   1      49.425  26.127  32.423  1.00  0.00     0.059 A 
ATOM     93  C   UNL A   1      50.121  26.683  30.165  1.00  0.00     0.059 A 
ATOM     94  F   UNL A   1      48.571  27.599  28.662  1.00  0.00    -0.206 F 
ATOM     95  C   UNL A   1      50.411  26.196  31.438  1.00  0.00     0.060 A 
BRANCH  95  96
ATOM     96  S   UNL A   1      52.073  25.611  31.833  1.00  0.00     0.124 S 
ATOM     97  O   UNL A   1      52.372  26.370  33.043  1.00  0.00    -0.237 OA
ATOM     98  O   UNL A   1      51.866  24.178  32.016  1.00  0.00    -0.237 OA
ATOM     99  O   UNL A   1      52.851  25.979  30.653  1.00  0.00    -0.744 OA
ENDBRANCH  95  96
ENDBRANCH  63  88
ENDBRANCH  37  38
ENDBRANCH  29  32
ENDBRANCH  27  28
ENDBRANCH  26  27
ENDBRANCH   1  26
TORSDOF 17
ENDMDL
