MODEL 1
REMARK VINA RESULT:     -11.5      0.000      0.000
REMARK SMILES CCC[C@H](NC(=O)c1cc2ccccc2[nH]1)C(=O)NCCCCNC(=O)c1ccc(-c2c3nc(c(-c4c(F)cc(S(=O)(=O)[O-])cc4F)c4ccc([nH]4)c(-c4c(F)cc(S(=O)(=O)[O-])cc4F)c4nc(c(-c5c(F)cc(S(=O)(=O)[O-])cc5F)c5ccc2[nH]5)C=C4)C=C3)cc1
REMARK SMILES IDX 22 1 21 2 20 3 19 4 17 5 18 6 4 8 3 9 2 10 1 11 5 12 6 13
REMARK SMILES IDX 7 15 8 16 9 17 16 18 10 19 15 20 11 22 14 23 12 24 13 25
REMARK SMILES IDX 23 26 24 27 25 28 26 30 27 31 28 32 92 33 29 34 91 35 30 36
REMARK SMILES IDX 31 37 32 38 85 39 33 40 90 41 84 42 86 43 34 44 89 45 83 46
REMARK SMILES IDX 82 47 35 49 69 50 48 51 68 52 49 53 52 54 67 55 87 56 50 57
REMARK SMILES IDX 51 58 66 60 88 61 53 62 36 63 37 64 46 65 38 66 39 67 45 68
REMARK SMILES IDX 47 69 40 70 41 71 42 72 43 73 44 74 70 75 71 76 80 77 72 78
REMARK SMILES IDX 73 79 79 80 81 81 74 82 75 83 76 84 77 85 78 86 54 87 55 88
REMARK SMILES IDX 64 89 56 90 57 91 63 92 65 93 58 94 59 95 60 96 61 97 62 98
REMARK H PARENT 19 7 5 14 16 21 24 29 86 48 52 59
REMARK Flexibility Score: inf
ROOT
ATOM      1  C   UNL A   1      33.185  28.801  25.840  1.00  0.00     0.023 C 
ENDROOT
BRANCH   1   2
ATOM      2  C   UNL A   1      31.682  28.652  25.622  1.00  0.00     0.023 C 
BRANCH   2   3
ATOM      3  C   UNL A   1      31.265  28.508  24.165  1.00  0.00     0.116 C 
BRANCH   3   4
ATOM      4  N   UNL A   1      29.947  27.946  24.001  1.00  0.00    -0.354 N 
ATOM      5  C   UNL A   1      29.562  26.642  24.103  1.00  0.00     0.242 C 
ATOM      6  O   UNL A   1      28.372  26.378  23.902  1.00  0.00    -0.273 OA
ATOM      7  H   UNL A   1      29.231  28.588  23.788  1.00  0.00     0.163 HD
BRANCH   5   8
ATOM      8  C   UNL A   1      30.582  25.507  24.378  1.00  0.00     0.171 C 
BRANCH   8   9
ATOM      9  C   UNL A   1      30.785  24.577  23.159  1.00  0.00     0.035 C 
BRANCH   9  10
ATOM     10  C   UNL A   1      32.136  24.599  22.425  1.00  0.00    -0.001 C 
ATOM     11  C   UNL A   1      32.382  25.849  21.588  1.00  0.00     0.004 C 
ENDBRANCH   9  10
ENDBRANCH   8   9
BRANCH   8  12
ATOM     12  N   UNL A   1      30.242  24.859  25.641  1.00  0.00    -0.339 N 
ATOM     13  C   UNL A   1      30.987  23.977  26.388  1.00  0.00     0.268 C 
ATOM     14  H   UNL A   1      29.357  25.085  26.009  1.00  0.00     0.164 HD
ATOM     15  O   UNL A   1      30.429  23.445  27.346  1.00  0.00    -0.268 OA
BRANCH  13  16
ATOM     16  C   UNL A   1      32.346  23.664  26.004  1.00  0.00     0.105 A 
ATOM     17  C   UNL A   1      33.463  24.481  26.107  1.00  0.00     0.042 A 
ATOM     18  N   UNL A   1      32.779  22.515  25.380  1.00  0.00    -0.351 N 
ATOM     19  C   UNL A   1      34.602  23.759  25.655  1.00  0.00     0.000 A 
ATOM     20  C   UNL A   1      34.142  22.525  25.209  1.00  0.00     0.046 A 
ATOM     21  H   UNL A   1      32.188  21.782  25.093  1.00  0.00     0.167 HD
ATOM     22  C   UNL A   1      35.982  24.029  25.584  1.00  0.00     0.010 A 
ATOM     23  C   UNL A   1      34.988  21.536  24.693  1.00  0.00     0.026 A 
ATOM     24  C   UNL A   1      36.846  23.048  25.082  1.00  0.00     0.001 A 
ATOM     25  C   UNL A   1      36.354  21.820  24.643  1.00  0.00     0.002 A 
ENDBRANCH  13  16
ENDBRANCH   8  12
ENDBRANCH   5   8
ENDBRANCH   3   4
ENDBRANCH   2   3
ENDBRANCH   1   2
BRANCH   1  26
ATOM     26  C   UNL A   1      33.631  28.854  27.298  1.00  0.00     0.116 C 
BRANCH  26  27
ATOM     27  N   UNL A   1      33.665  30.196  27.867  1.00  0.00    -0.352 N 
ATOM     28  C   UNL A   1      34.745  30.822  28.454  1.00  0.00     0.251 C 
ATOM     29  H   UNL A   1      32.827  30.712  27.829  1.00  0.00     0.163 HD
ATOM     30  O   UNL A   1      34.648  31.940  28.942  1.00  0.00    -0.269 OA
BRANCH  28  31
ATOM     31  C   UNL A   1      36.015  30.072  28.514  1.00  0.00     0.039 A 
ATOM     32  C   UNL A   1      36.880  30.117  27.419  1.00  0.00     0.014 A 
ATOM     33  C   UNL A   1      36.407  29.484  29.719  1.00  0.00     0.014 A 
ATOM     34  C   UNL A   1      38.190  29.656  27.566  1.00  0.00     0.010 A 
ATOM     35  C   UNL A   1      37.728  29.088  29.879  1.00  0.00     0.010 A 
ATOM     36  C   UNL A   1      38.638  29.192  28.813  1.00  0.00    -0.014 A 
BRANCH  36  37
ATOM     37  C   UNL A   1      40.057  28.828  29.056  1.00  0.00     0.031 A 
ATOM     38  C   UNL A   1      41.014  29.879  29.538  1.00  0.00     0.074 A 
ATOM     39  C   UNL A   1      40.505  27.600  28.727  1.00  0.00     0.049 A 
ATOM     40  N   UNL A   1      42.318  29.839  29.608  1.00  0.00    -0.248 NA
ATOM     41  C   UNL A   1      40.424  31.161  29.957  1.00  0.00     0.031 C 
ATOM     42  C   UNL A   1      39.681  26.502  28.212  1.00  0.00     0.029 A 
ATOM     43  N   UNL A   1      41.774  27.075  28.750  1.00  0.00    -0.354 N 
ATOM     44  C   UNL A   1      42.709  31.101  30.041  1.00  0.00     0.074 A 
ATOM     45  C   UNL A   1      41.506  31.891  30.185  1.00  0.00     0.031 C 
ATOM     46  C   UNL A   1      40.465  25.435  27.978  1.00  0.00     0.029 A 
ATOM     47  C   UNL A   1      41.849  25.784  28.281  1.00  0.00     0.049 A 
ATOM     48  H   UNL A   1      42.557  27.577  29.072  1.00  0.00     0.167 HD
ATOM     49  C   UNL A   1      43.957  31.552  30.305  1.00  0.00     0.037 A 
ATOM     50  C   UNL A   1      42.915  24.980  28.097  1.00  0.00     0.037 A 
ATOM     51  C   UNL A   1      45.143  30.746  30.209  1.00  0.00     0.049 A 
ATOM     52  C   UNL A   1      44.290  25.495  28.430  1.00  0.00     0.074 A 
ATOM     53  C   UNL A   1      46.447  31.095  30.510  1.00  0.00     0.029 A 
ATOM     54  N   UNL A   1      45.167  29.424  29.791  1.00  0.00    -0.354 N 
ATOM     55  N   UNL A   1      44.640  26.681  28.866  1.00  0.00    -0.248 NA
ATOM     56  C   UNL A   1      45.414  24.567  28.243  1.00  0.00     0.031 C 
ATOM     57  C   UNL A   1      47.264  29.988  30.255  1.00  0.00     0.029 A 
ATOM     58  C   UNL A   1      46.464  28.942  29.824  1.00  0.00     0.049 A 
ATOM     59  H   UNL A   1      44.378  28.905  29.512  1.00  0.00     0.167 HD
ATOM     60  C   UNL A   1      46.018  26.631  29.035  1.00  0.00     0.074 A 
ATOM     61  C   UNL A   1      46.441  25.300  28.653  1.00  0.00     0.031 C 
ATOM     62  C   UNL A   1      46.858  27.603  29.469  1.00  0.00     0.037 A 
BRANCH  49  63
ATOM     63  C   UNL A   1      44.096  32.986  30.730  1.00  0.00     0.058 A 
ATOM     64  C   UNL A   1      44.353  34.005  29.800  1.00  0.00     0.135 A 
ATOM     65  C   UNL A   1      43.959  33.346  32.079  1.00  0.00     0.135 A 
ATOM     66  F   UNL A   1      44.511  33.711  28.500  1.00  0.00    -0.206 F 
ATOM     67  C   UNL A   1      44.504  35.329  30.198  1.00  0.00     0.059 A 
ATOM     68  C   UNL A   1      44.080  34.667  32.497  1.00  0.00     0.059 A 
ATOM     69  F   UNL A   1      43.714  32.408  33.009  1.00  0.00    -0.206 F 
ATOM     70  C   UNL A   1      44.372  35.649  31.550  1.00  0.00     0.060 A 
BRANCH  70  71
ATOM     71  S   UNL A   1      44.583  37.368  32.056  1.00  0.00     0.124 S 
ATOM     72  O   UNL A   1      44.075  37.331  33.424  1.00  0.00    -0.237 OA
ATOM     73  O   UNL A   1      46.022  37.563  31.920  1.00  0.00    -0.237 OA
ATOM     74  O   UNL A   1      43.761  38.106  31.101  1.00  0.00    -0.744 OA
ENDBRANCH  70  71
ENDBRANCH  49  63
BRANCH  50  75
ATOM     75  C   UNL A   1      42.725  23.597  27.587  1.00  0.00     0.058 A 
ATOM     76  C   UNL A   1      42.816  23.323  26.214  1.00  0.00     0.135 A 
ATOM     77  C   UNL A   1      42.462  22.527  28.453  1.00  0.00     0.135 A 
ATOM     78  F   UNL A   1      43.059  24.317  25.347  1.00  0.00    -0.206 F 
ATOM     79  C   UNL A   1      42.638  22.037  25.715  1.00  0.00     0.059 A 
ATOM     80  C   UNL A   1      42.301  21.227  27.980  1.00  0.00     0.059 A 
ATOM     81  F   UNL A   1      42.384  22.735  29.777  1.00  0.00    -0.206 F 
ATOM     82  C   UNL A   1      42.381  20.994  26.607  1.00  0.00     0.060 A 
BRANCH  82  83
ATOM     83  S   UNL A   1      42.202  19.318  25.956  1.00  0.00     0.124 S 
ATOM     84  O   UNL A   1      42.701  18.519  27.068  1.00  0.00    -0.237 OA
ATOM     85  O   UNL A   1      40.766  19.237  25.706  1.00  0.00    -0.237 OA
ATOM     86  O   UNL A   1      43.039  19.335  24.761  1.00  0.00    -0.744 OA
ENDBRANCH  82  83
ENDBRANCH  50  75
BRANCH  62  87
ATOM     87  C   UNL A   1      48.313  27.260  29.605  1.00  0.00     0.058 A 
ATOM     88  C   UNL A   1      49.232  27.540  28.584  1.00  0.00     0.135 A 
ATOM     89  C   UNL A   1      48.805  26.743  30.815  1.00  0.00     0.135 A 
ATOM     90  F   UNL A   1      48.808  28.029  27.408  1.00  0.00    -0.206 F 
ATOM     91  C   UNL A   1      50.595  27.323  28.759  1.00  0.00     0.059 A 
ATOM     92  C   UNL A   1      50.164  26.535  31.017  1.00  0.00     0.059 A 
ATOM     93  F   UNL A   1      47.962  26.465  31.823  1.00  0.00    -0.206 F 
ATOM     94  C   UNL A   1      51.053  26.828  29.983  1.00  0.00     0.060 A 
BRANCH  94  95
ATOM     95  S   UNL A   1      52.830  26.630  30.230  1.00  0.00     0.124 S 
ATOM     96  O   UNL A   1      53.220  27.975  30.642  1.00  0.00    -0.237 OA
ATOM     97  O   UNL A   1      52.892  25.607  31.270  1.00  0.00    -0.237 OA
ATOM     98  O   UNL A   1      53.310  26.210  28.918  1.00  0.00    -0.744 OA
ENDBRANCH  94  95
ENDBRANCH  62  87
ENDBRANCH  36  37
ENDBRANCH  28  31
ENDBRANCH  26  27
ENDBRANCH   1  26
TORSDOF 18
ENDMDL
MODEL 2
REMARK VINA RESULT:     -11.4      0.997      1.935
REMARK SMILES CCC[C@H](NC(=O)c1cc2ccccc2[nH]1)C(=O)NCCCCNC(=O)c1ccc(-c2c3nc(c(-c4c(F)cc(S(=O)(=O)[O-])cc4F)c4ccc([nH]4)c(-c4c(F)cc(S(=O)(=O)[O-])cc4F)c4nc(c(-c5c(F)cc(S(=O)(=O)[O-])cc5F)c5ccc2[nH]5)C=C4)C=C3)cc1
REMARK SMILES IDX 22 1 21 2 20 3 19 4 17 5 18 6 4 8 3 9 2 10 1 11 5 12 6 13
REMARK SMILES IDX 7 15 8 16 9 17 16 18 10 19 15 20 11 22 14 23 12 24 13 25
REMARK SMILES IDX 23 26 24 27 25 28 26 30 27 31 28 32 92 33 29 34 91 35 30 36
REMARK SMILES IDX 31 37 32 38 85 39 33 40 90 41 84 42 86 43 34 44 89 45 83 46
REMARK SMILES IDX 82 47 35 49 69 50 48 51 68 52 49 53 52 54 67 55 87 56 50 57
REMARK SMILES IDX 51 58 66 60 88 61 53 62 36 63 37 64 46 65 38 66 39 67 45 68
REMARK SMILES IDX 47 69 40 70 41 71 42 72 43 73 44 74 70 75 71 76 80 77 72 78
REMARK SMILES IDX 73 79 79 80 81 81 74 82 75 83 76 84 77 85 78 86 54 87 55 88
REMARK SMILES IDX 64 89 56 90 57 91 63 92 65 93 58 94 59 95 60 96 61 97 62 98
REMARK H PARENT 19 7 5 14 16 21 24 29 86 48 52 59
REMARK Flexibility Score: inf
ROOT
ATOM      1  C   UNL A   1      32.885  28.179  27.501  1.00  0.00     0.023 C 
ENDROOT
BRANCH   1   2
ATOM      2  C   UNL A   1      31.897  27.525  26.540  1.00  0.00     0.023 C 
BRANCH   2   3
ATOM      3  C   UNL A   1      32.175  26.057  26.249  1.00  0.00     0.116 C 
BRANCH   3   4
ATOM      4  N   UNL A   1      31.220  25.163  26.855  1.00  0.00    -0.354 N 
ATOM      5  C   UNL A   1      30.862  23.908  26.460  1.00  0.00     0.242 C 
ATOM      6  O   UNL A   1      30.000  23.321  27.122  1.00  0.00    -0.273 OA
ATOM      7  H   UNL A   1      30.767  25.503  27.661  1.00  0.00     0.163 HD
BRANCH   5   8
ATOM      8  C   UNL A   1      31.446  23.257  25.179  1.00  0.00     0.171 C 
BRANCH   8   9
ATOM      9  C   UNL A   1      30.809  23.810  23.882  1.00  0.00     0.035 C 
BRANCH   9  10
ATOM     10  C   UNL A   1      31.715  24.487  22.841  1.00  0.00    -0.001 C 
ATOM     11  C   UNL A   1      32.914  23.653  22.406  1.00  0.00     0.004 C 
ENDBRANCH   9  10
ENDBRANCH   8   9
BRANCH   8  12
ATOM     12  N   UNL A   1      31.440  21.806  25.338  1.00  0.00    -0.339 N 
ATOM     13  C   UNL A   1      32.505  20.941  25.437  1.00  0.00     0.268 C 
ATOM     14  H   UNL A   1      30.549  21.388  25.381  1.00  0.00     0.164 HD
ATOM     15  O   UNL A   1      32.252  19.739  25.415  1.00  0.00    -0.268 OA
BRANCH  13  16
ATOM     16  C   UNL A   1      33.855  21.455  25.503  1.00  0.00     0.105 A 
ATOM     17  C   UNL A   1      34.256  22.740  25.841  1.00  0.00     0.042 A 
ATOM     18  N   UNL A   1      35.007  20.783  25.158  1.00  0.00    -0.351 N 
ATOM     19  C   UNL A   1      35.677  22.796  25.822  1.00  0.00     0.000 A 
ATOM     20  C   UNL A   1      36.122  21.551  25.393  1.00  0.00     0.046 A 
ATOM     21  H   UNL A   1      35.029  19.869  24.789  1.00  0.00     0.167 HD
ATOM     22  C   UNL A   1      36.633  23.783  26.130  1.00  0.00     0.010 A 
ATOM     23  C   UNL A   1      37.477  21.230  25.254  1.00  0.00     0.026 A 
ATOM     24  C   UNL A   1      37.995  23.478  26.008  1.00  0.00     0.001 A 
ATOM     25  C   UNL A   1      38.408  22.219  25.577  1.00  0.00     0.002 A 
ENDBRANCH  13  16
ENDBRANCH   8  12
ENDBRANCH   5   8
ENDBRANCH   3   4
ENDBRANCH   2   3
ENDBRANCH   1   2
BRANCH   1  26
ATOM     26  C   UNL A   1      33.676  29.351  26.926  1.00  0.00     0.116 C 
BRANCH  26  27
ATOM     27  N   UNL A   1      33.633  30.561  27.738  1.00  0.00    -0.352 N 
ATOM     28  C   UNL A   1      34.634  31.054  28.548  1.00  0.00     0.251 C 
ATOM     29  H   UNL A   1      32.798  31.083  27.705  1.00  0.00     0.163 HD
ATOM     30  O   UNL A   1      34.471  32.060  29.225  1.00  0.00    -0.269 OA
BRANCH  28  31
ATOM     31  C   UNL A   1      35.897  30.292  28.606  1.00  0.00     0.039 A 
ATOM     32  C   UNL A   1      36.756  30.323  27.506  1.00  0.00     0.014 A 
ATOM     33  C   UNL A   1      36.290  29.708  29.812  1.00  0.00     0.014 A 
ATOM     34  C   UNL A   1      38.063  29.850  27.648  1.00  0.00     0.010 A 
ATOM     35  C   UNL A   1      37.609  29.302  29.967  1.00  0.00     0.010 A 
ATOM     36  C   UNL A   1      38.514  29.391  28.895  1.00  0.00    -0.014 A 
BRANCH  36  37
ATOM     37  C   UNL A   1      39.931  29.014  29.133  1.00  0.00     0.031 A 
ATOM     38  C   UNL A   1      40.898  30.057  29.613  1.00  0.00     0.074 A 
ATOM     39  C   UNL A   1      40.368  27.784  28.800  1.00  0.00     0.049 A 
ATOM     40  N   UNL A   1      42.201  30.007  29.679  1.00  0.00    -0.248 NA
ATOM     41  C   UNL A   1      40.320  31.343  30.038  1.00  0.00     0.031 C 
ATOM     42  C   UNL A   1      39.534  26.694  28.286  1.00  0.00     0.029 A 
ATOM     43  N   UNL A   1      41.633  27.249  28.817  1.00  0.00    -0.354 N 
ATOM     44  C   UNL A   1      42.604  31.265  30.113  1.00  0.00     0.074 A 
ATOM     45  C   UNL A   1      41.408  32.065  30.264  1.00  0.00     0.031 C 
ATOM     46  C   UNL A   1      40.308  25.621  28.047  1.00  0.00     0.029 A 
ATOM     47  C   UNL A   1      41.696  25.959  28.346  1.00  0.00     0.049 A 
ATOM     48  H   UNL A   1      42.421  27.745  29.138  1.00  0.00     0.167 HD
ATOM     49  C   UNL A   1      43.856  31.706  30.374  1.00  0.00     0.037 A 
ATOM     50  C   UNL A   1      42.756  25.147  28.156  1.00  0.00     0.037 A 
ATOM     51  C   UNL A   1      45.036  30.891  30.272  1.00  0.00     0.049 A 
ATOM     52  C   UNL A   1      44.136  25.650  28.485  1.00  0.00     0.074 A 
ATOM     53  C   UNL A   1      46.344  31.229  30.569  1.00  0.00     0.029 A 
ATOM     54  N   UNL A   1      45.047  29.569  29.851  1.00  0.00    -0.354 N 
ATOM     55  N   UNL A   1      44.496  26.833  28.922  1.00  0.00    -0.248 NA
ATOM     56  C   UNL A   1      45.252  24.714  28.292  1.00  0.00     0.031 C 
ATOM     57  C   UNL A   1      47.151  30.117  30.309  1.00  0.00     0.029 A 
ATOM     58  C   UNL A   1      46.341  29.078  29.879  1.00  0.00     0.049 A 
ATOM     59  H   UNL A   1      44.254  29.057  29.574  1.00  0.00     0.167 HD
ATOM     60  C   UNL A   1      45.875  26.772  29.086  1.00  0.00     0.074 A 
ATOM     61  C   UNL A   1      46.286  25.438  28.700  1.00  0.00     0.031 C 
ATOM     62  C   UNL A   1      46.724  27.736  29.519  1.00  0.00     0.037 A 
BRANCH  49  63
ATOM     63  C   UNL A   1      44.008  33.138  30.801  1.00  0.00     0.058 A 
ATOM     64  C   UNL A   1      43.906  33.517  32.148  1.00  0.00     0.135 A 
ATOM     65  C   UNL A   1      44.267  34.140  29.853  1.00  0.00     0.135 A 
ATOM     66  F   UNL A   1      43.640  32.599  33.091  1.00  0.00    -0.206 F 
ATOM     67  C   UNL A   1      44.024  34.846  32.539  1.00  0.00     0.059 A 
ATOM     68  C   UNL A   1      44.414  35.473  30.224  1.00  0.00     0.059 A 
ATOM     69  F   UNL A   1      44.372  33.830  28.551  1.00  0.00    -0.206 F 
ATOM     70  C   UNL A   1      44.271  35.818  31.568  1.00  0.00     0.060 A 
BRANCH  70  71
ATOM     71  S   UNL A   1      44.408  37.541  32.085  1.00  0.00     0.124 S 
ATOM     72  O   UNL A   1      45.848  37.669  32.287  1.00  0.00    -0.237 OA
ATOM     73  O   UNL A   1      43.864  38.259  30.937  1.00  0.00    -0.237 OA
ATOM     74  O   UNL A   1      43.596  37.597  33.297  1.00  0.00    -0.744 OA
ENDBRANCH  70  71
ENDBRANCH  49  63
BRANCH  50  75
ATOM     75  C   UNL A   1      42.553  23.767  27.644  1.00  0.00     0.058 A 
ATOM     76  C   UNL A   1      42.532  22.674  28.523  1.00  0.00     0.135 A 
ATOM     77  C   UNL A   1      42.367  23.512  26.277  1.00  0.00     0.135 A 
ATOM     78  F   UNL A   1      42.712  22.868  29.838  1.00  0.00    -0.206 F 
ATOM     79  C   UNL A   1      42.346  21.374  28.065  1.00  0.00     0.059 A 
ATOM     80  C   UNL A   1      42.159  22.222  25.797  1.00  0.00     0.059 A 
ATOM     81  F   UNL A   1      42.361  24.527  25.398  1.00  0.00    -0.206 F 
ATOM     82  C   UNL A   1      42.160  21.158  26.698  1.00  0.00     0.060 A 
BRANCH  82  83
ATOM     83  S   UNL A   1      41.870  19.472  26.117  1.00  0.00     0.124 S 
ATOM     84  O   UNL A   1      42.728  19.418  24.940  1.00  0.00    -0.237 OA
ATOM     85  O   UNL A   1      42.302  18.673  27.260  1.00  0.00    -0.237 OA
ATOM     86  O   UNL A   1      40.434  19.453  25.855  1.00  0.00    -0.744 OA
ENDBRANCH  82  83
ENDBRANCH  50  75
BRANCH  62  87
ATOM     87  C   UNL A   1      48.176  27.381  29.650  1.00  0.00     0.058 A 
ATOM     88  C   UNL A   1      49.090  27.637  28.618  1.00  0.00     0.135 A 
ATOM     89  C   UNL A   1      48.673  26.879  30.864  1.00  0.00     0.135 A 
ATOM     90  F   UNL A   1      48.661  28.111  27.438  1.00  0.00    -0.206 F 
ATOM     91  C   UNL A   1      50.452  27.410  28.786  1.00  0.00     0.059 A 
ATOM     92  C   UNL A   1      50.032  26.661  31.059  1.00  0.00     0.059 A 
ATOM     93  F   UNL A   1      47.835  26.625  31.883  1.00  0.00    -0.206 F 
ATOM     94  C   UNL A   1      50.915  26.930  30.014  1.00  0.00     0.060 A 
BRANCH  94  95
ATOM     95  S   UNL A   1      52.692  26.719  30.250  1.00  0.00     0.124 S 
ATOM     96  O   UNL A   1      53.094  28.061  30.659  1.00  0.00    -0.237 OA
ATOM     97  O   UNL A   1      52.752  25.696  31.289  1.00  0.00    -0.237 OA
ATOM     98  O   UNL A   1      53.161  26.295  28.935  1.00  0.00    -0.744 OA
ENDBRANCH  94  95
ENDBRANCH  62  87
ENDBRANCH  36  37
ENDBRANCH  28  31
ENDBRANCH  26  27
ENDBRANCH   1  26
TORSDOF 18
ENDMDL
MODEL 3
REMARK VINA RESULT:     -11.2      1.123      1.986
REMARK SMILES CCC[C@H](NC(=O)c1cc2ccccc2[nH]1)C(=O)NCCCCNC(=O)c1ccc(-c2c3nc(c(-c4c(F)cc(S(=O)(=O)[O-])cc4F)c4ccc([nH]4)c(-c4c(F)cc(S(=O)(=O)[O-])cc4F)c4nc(c(-c5c(F)cc(S(=O)(=O)[O-])cc5F)c5ccc2[nH]5)C=C4)C=C3)cc1
REMARK SMILES IDX 22 1 21 2 20 3 19 4 17 5 18 6 4 8 3 9 2 10 1 11 5 12 6 13
REMARK SMILES IDX 7 15 8 16 9 17 16 18 10 19 15 20 11 22 14 23 12 24 13 25
REMARK SMILES IDX 23 26 24 27 25 28 26 30 27 31 28 32 92 33 29 34 91 35 30 36
REMARK SMILES IDX 31 37 32 38 85 39 33 40 90 41 84 42 86 43 34 44 89 45 83 46
REMARK SMILES IDX 82 47 35 49 69 50 48 51 68 52 49 53 52 54 67 55 87 56 50 57
REMARK SMILES IDX 51 58 66 60 88 61 53 62 36 63 37 64 46 65 38 66 39 67 45 68
REMARK SMILES IDX 47 69 40 70 41 71 42 72 43 73 44 74 70 75 71 76 80 77 72 78
REMARK SMILES IDX 73 79 79 80 81 81 74 82 75 83 76 84 77 85 78 86 54 87 55 88
REMARK SMILES IDX 64 89 56 90 57 91 63 92 65 93 58 94 59 95 60 96 61 97 62 98
REMARK H PARENT 19 7 5 14 16 21 24 29 86 48 52 59
REMARK Flexibility Score: inf
ROOT
ATOM      1  C   UNL A   1      32.218  28.105  27.701  1.00  0.00     0.023 C 
ENDROOT
BRANCH   1   2
ATOM      2  C   UNL A   1      31.410  27.560  26.527  1.00  0.00     0.023 C 
BRANCH   2   3
ATOM      3  C   UNL A   1      31.923  26.243  25.962  1.00  0.00     0.116 C 
BRANCH   3   4
ATOM      4  N   UNL A   1      30.977  25.584  25.097  1.00  0.00    -0.354 N 
ATOM      5  C   UNL A   1      30.717  25.828  23.781  1.00  0.00     0.242 C 
ATOM      6  O   UNL A   1      29.842  25.150  23.232  1.00  0.00    -0.273 OA
ATOM      7  H   UNL A   1      30.449  24.863  25.510  1.00  0.00     0.163 HD
BRANCH   5   8
ATOM      8  C   UNL A   1      31.427  26.968  23.005  1.00  0.00     0.171 C 
BRANCH   8   9
ATOM      9  C   UNL A   1      30.647  28.303  23.056  1.00  0.00     0.035 C 
BRANCH   9  10
ATOM     10  C   UNL A   1      29.116  28.274  22.920  1.00  0.00    -0.001 C 
ATOM     11  C   UNL A   1      28.510  29.533  22.312  1.00  0.00     0.004 C 
ENDBRANCH   9  10
ENDBRANCH   8   9
BRANCH   8  12
ATOM     12  N   UNL A   1      31.797  26.482  21.679  1.00  0.00    -0.339 N 
ATOM     13  C   UNL A   1      32.700  25.503  21.338  1.00  0.00     0.268 C 
ATOM     14  H   UNL A   1      31.337  26.916  20.925  1.00  0.00     0.164 HD
ATOM     15  O   UNL A   1      32.955  25.370  20.143  1.00  0.00    -0.268 OA
BRANCH  13  16
ATOM     16  C   UNL A   1      33.348  24.720  22.367  1.00  0.00     0.105 A 
ATOM     17  C   UNL A   1      33.169  23.373  22.644  1.00  0.00     0.042 A 
ATOM     18  N   UNL A   1      34.214  25.188  23.331  1.00  0.00    -0.351 N 
ATOM     19  C   UNL A   1      34.038  23.003  23.707  1.00  0.00     0.000 A 
ATOM     20  C   UNL A   1      34.686  24.164  24.116  1.00  0.00     0.046 A 
ATOM     21  H   UNL A   1      34.462  26.134  23.444  1.00  0.00     0.167 HD
ATOM     22  C   UNL A   1      34.343  21.795  24.364  1.00  0.00     0.010 A 
ATOM     23  C   UNL A   1      35.629  24.188  25.149  1.00  0.00     0.026 A 
ATOM     24  C   UNL A   1      35.293  21.797  25.393  1.00  0.00     0.001 A 
ATOM     25  C   UNL A   1      35.926  22.977  25.778  1.00  0.00     0.002 A 
ENDBRANCH  13  16
ENDBRANCH   8  12
ENDBRANCH   5   8
ENDBRANCH   3   4
ENDBRANCH   2   3
ENDBRANCH   1   2
BRANCH   1  26
ATOM     26  C   UNL A   1      33.484  28.868  27.322  1.00  0.00     0.116 C 
BRANCH  26  27
ATOM     27  N   UNL A   1      33.531  30.238  27.819  1.00  0.00    -0.352 N 
ATOM     28  C   UNL A   1      34.617  30.883  28.373  1.00  0.00     0.251 C 
ATOM     29  H   UNL A   1      32.698  30.759  27.752  1.00  0.00     0.163 HD
ATOM     30  O   UNL A   1      34.530  32.027  28.801  1.00  0.00    -0.269 OA
BRANCH  28  31
ATOM     31  C   UNL A   1      35.879  30.124  28.476  1.00  0.00     0.039 A 
ATOM     32  C   UNL A   1      36.759  30.128  27.392  1.00  0.00     0.014 A 
ATOM     33  C   UNL A   1      36.248  29.572  29.704  1.00  0.00     0.014 A 
ATOM     34  C   UNL A   1      38.063  29.660  27.573  1.00  0.00     0.010 A 
ATOM     35  C   UNL A   1      37.563  29.171  29.896  1.00  0.00     0.010 A 
ATOM     36  C   UNL A   1      38.490  29.233  28.840  1.00  0.00    -0.014 A 
BRANCH  36  37
ATOM     37  C   UNL A   1      39.901  28.864  29.115  1.00  0.00     0.031 A 
ATOM     38  C   UNL A   1      40.848  29.910  29.628  1.00  0.00     0.074 A 
ATOM     39  C   UNL A   1      40.355  27.638  28.789  1.00  0.00     0.049 A 
ATOM     40  N   UNL A   1      42.149  29.868  29.730  1.00  0.00    -0.248 NA
ATOM     41  C   UNL A   1      40.250  31.190  30.042  1.00  0.00     0.031 C 
ATOM     42  C   UNL A   1      39.543  26.545  28.246  1.00  0.00     0.029 A 
ATOM     43  N   UNL A   1      41.622  27.111  28.839  1.00  0.00    -0.354 N 
ATOM     44  C   UNL A   1      42.532  31.126  30.181  1.00  0.00     0.074 A 
ATOM     45  C   UNL A   1      41.327  31.917  30.301  1.00  0.00     0.031 C 
ATOM     46  C   UNL A   1      40.330  25.478  28.024  1.00  0.00     0.029 A 
ATOM     47  C   UNL A   1      41.707  25.823  28.363  1.00  0.00     0.049 A 
ATOM     48  H   UNL A   1      42.398  27.609  29.184  1.00  0.00     0.167 HD
ATOM     49  C   UNL A   1      43.774  31.573  30.479  1.00  0.00     0.037 A 
ATOM     50  C   UNL A   1      42.776  25.018  28.200  1.00  0.00     0.037 A 
ATOM     51  C   UNL A   1      44.961  30.766  30.406  1.00  0.00     0.049 A 
ATOM     52  C   UNL A   1      44.143  25.528  28.570  1.00  0.00     0.074 A 
ATOM     53  C   UNL A   1      46.258  31.110  30.741  1.00  0.00     0.029 A 
ATOM     54  N   UNL A   1      44.992  29.446  29.979  1.00  0.00    -0.354 N 
ATOM     55  N   UNL A   1      44.484  26.711  29.022  1.00  0.00    -0.248 NA
ATOM     56  C   UNL A   1      45.270  24.599  28.403  1.00  0.00     0.031 C 
ATOM     57  C   UNL A   1      47.079  30.004  30.498  1.00  0.00     0.029 A 
ATOM     58  C   UNL A   1      46.287  28.962  30.041  1.00  0.00     0.049 A 
ATOM     59  H   UNL A   1      44.210  28.930  29.677  1.00  0.00     0.167 HD
ATOM     60  C   UNL A   1      45.858  26.658  29.224  1.00  0.00     0.074 A 
ATOM     61  C   UNL A   1      46.288  25.328  28.844  1.00  0.00     0.031 C 
ATOM     62  C   UNL A   1      46.689  27.624  29.685  1.00  0.00     0.037 A 
BRANCH  49  63
ATOM     63  C   UNL A   1      43.904  33.004  30.916  1.00  0.00     0.058 A 
ATOM     64  C   UNL A   1      43.924  33.357  32.274  1.00  0.00     0.135 A 
ATOM     65  C   UNL A   1      44.022  34.031  29.967  1.00  0.00     0.135 A 
ATOM     66  F   UNL A   1      43.796  32.413  33.221  1.00  0.00    -0.206 F 
ATOM     67  C   UNL A   1      44.022  34.684  32.677  1.00  0.00     0.059 A 
ATOM     68  C   UNL A   1      44.147  35.363  30.348  1.00  0.00     0.059 A 
ATOM     69  F   UNL A   1      44.007  33.746  28.655  1.00  0.00    -0.206 F 
ATOM     70  C   UNL A   1      44.126  35.681  31.706  1.00  0.00     0.060 A 
BRANCH  70  71
ATOM     71  S   UNL A   1      44.239  37.401  32.240  1.00  0.00     0.124 S 
ATOM     72  O   UNL A   1      43.219  37.446  33.283  1.00  0.00    -0.237 OA
ATOM     73  O   UNL A   1      45.620  37.499  32.700  1.00  0.00    -0.237 OA
ATOM     74  O   UNL A   1      43.931  38.153  31.028  1.00  0.00    -0.744 OA
ENDBRANCH  70  71
ENDBRANCH  49  63
BRANCH  50  75
ATOM     75  C   UNL A   1      42.596  23.639  27.675  1.00  0.00     0.058 A 
ATOM     76  C   UNL A   1      42.624  23.390  26.295  1.00  0.00     0.135 A 
ATOM     77  C   UNL A   1      42.405  22.548  28.535  1.00  0.00     0.135 A 
ATOM     78  F   UNL A   1      42.797  24.404  25.434  1.00  0.00    -0.206 F 
ATOM     79  C   UNL A   1      42.455  22.108  25.783  1.00  0.00     0.059 A 
ATOM     80  C   UNL A   1      42.254  21.252  28.047  1.00  0.00     0.059 A 
ATOM     81  F   UNL A   1      42.389  22.733  29.864  1.00  0.00    -0.206 F 
ATOM     82  C   UNL A   1      42.271  21.045  26.668  1.00  0.00     0.060 A 
BRANCH  82  83
ATOM     83  S   UNL A   1      42.102  19.375  25.998  1.00  0.00     0.124 S 
ATOM     84  O   UNL A   1      42.634  18.568  27.088  1.00  0.00    -0.237 OA
ATOM     85  O   UNL A   1      40.663  19.277  25.773  1.00  0.00    -0.237 OA
ATOM     86  O   UNL A   1      42.916  19.419  24.787  1.00  0.00    -0.744 OA
ENDBRANCH  82  83
ENDBRANCH  50  75
BRANCH  62  87
ATOM     87  C   UNL A   1      48.139  27.278  29.855  1.00  0.00     0.058 A 
ATOM     88  C   UNL A   1      49.072  27.505  28.834  1.00  0.00     0.135 A 
ATOM     89  C   UNL A   1      48.612  26.814  31.093  1.00  0.00     0.135 A 
ATOM     90  F   UNL A   1      48.665  27.942  27.632  1.00  0.00    -0.206 F 
ATOM     91  C   UNL A   1      50.431  27.287  29.035  1.00  0.00     0.059 A 
ATOM     92  C   UNL A   1      49.968  26.606  31.321  1.00  0.00     0.059 A 
ATOM     93  F   UNL A   1      47.756  26.588  32.102  1.00  0.00    -0.206 F 
ATOM     94  C   UNL A   1      50.871  26.845  30.285  1.00  0.00     0.060 A 
BRANCH  94  95
ATOM     95  S   UNL A   1      52.644  26.647  30.562  1.00  0.00     0.124 S 
ATOM     96  O   UNL A   1      52.986  27.919  31.191  1.00  0.00    -0.237 OA
ATOM     97  O   UNL A   1      52.697  25.476  31.433  1.00  0.00    -0.237 OA
ATOM     98  O   UNL A   1      53.176  26.445  29.219  1.00  0.00    -0.744 OA
ENDBRANCH  94  95
ENDBRANCH  62  87
ENDBRANCH  36  37
ENDBRANCH  28  31
ENDBRANCH  26  27
ENDBRANCH   1  26
TORSDOF 18
ENDMDL
