MODEL 1
REMARK VINA RESULT:     -11.0      0.000      0.000
REMARK SMILES C[C@@H](CS(=O)(=O)[C@@H]1CCC[C@H](S(C)(=O)=O)C1)C(=O)NCCCCNC(=O)c1ccc(-c2c3nc(c(-c4c(F)cc(S(=O)(=O)[O-])cc4F)c4ccc([nH]4)c(-c4c(F)cc(S(=O)(=O)[O-])cc4F)c4nc(c(-c5c(F)cc(S(=O)(=O)[O-])cc5F)c5ccc2[nH]5)C=C4)C=C3)cc1
REMARK SMILES IDX 21 1 20 2 19 3 17 4 18 5 2 7 1 8 3 9 4 10 5 11 6 12 7 13
REMARK SMILES IDX 8 14 16 15 9 16 11 17 10 18 12 19 13 20 14 21 15 22 22 23
REMARK SMILES IDX 23 24 24 25 25 26 26 28 27 29 28 30 92 31 29 32 91 33 30 34
REMARK SMILES IDX 31 35 32 36 85 37 33 38 90 39 84 40 86 41 34 42 89 43 83 44
REMARK SMILES IDX 82 45 35 47 69 48 48 49 68 50 49 51 52 52 67 53 87 54 50 55
REMARK SMILES IDX 51 56 66 58 88 59 53 60 36 61 37 62 46 63 38 64 39 65 45 66
REMARK SMILES IDX 47 67 40 68 41 69 42 70 43 71 44 72 70 73 71 74 80 75 72 76
REMARK SMILES IDX 73 77 79 78 81 79 74 80 75 81 76 82 77 83 78 84 54 85 55 86
REMARK SMILES IDX 64 87 56 88 57 89 63 90 65 91 58 92 59 93 60 94 61 95 62 96
REMARK H PARENT 19 6 24 27 86 46 52 57
REMARK Flexibility Score: inf
ROOT
ATOM      1  C   UNL A   1      35.434  22.136  26.474  1.00  0.00     0.023 C 
ENDROOT
BRANCH   1   2
ATOM      2  C   UNL A   1      35.185  21.114  25.381  1.00  0.00     0.116 C 
BRANCH   2   3
ATOM      3  N   UNL A   1      34.128  20.166  25.595  1.00  0.00    -0.356 N 
ATOM      4  C   UNL A   1      32.876  20.197  25.056  1.00  0.00     0.223 C 
ATOM      5  O   UNL A   1      32.234  19.144  25.030  1.00  0.00    -0.275 OA
ATOM      6  H   UNL A   1      34.328  19.413  26.198  1.00  0.00     0.163 HD
BRANCH   4   7
ATOM      7  C   UNL A   1      32.206  21.503  24.623  1.00  0.00     0.090 C 
ATOM      8  C   UNL A   1      32.042  21.594  23.102  1.00  0.00     0.019 C 
BRANCH   7   9
ATOM      9  C   UNL A   1      31.132  22.182  25.482  1.00  0.00     0.150 C 
BRANCH   9  10
ATOM     10  S   UNL A   1      31.355  23.544  26.606  1.00  0.00     0.153 S 
ATOM     11  O   UNL A   1      30.061  24.164  26.810  1.00  0.00    -0.229 OA
ATOM     12  O   UNL A   1      32.034  22.955  27.749  1.00  0.00    -0.229 OA
BRANCH  10  13
ATOM     13  C   UNL A   1      32.487  24.821  25.947  1.00  0.00     0.110 C 
ATOM     14  C   UNL A   1      32.500  26.095  26.777  1.00  0.00     0.020 C 
ATOM     15  C   UNL A   1      32.191  25.139  24.467  1.00  0.00     0.039 C 
ATOM     16  C   UNL A   1      33.470  27.127  26.227  1.00  0.00     0.003 C 
ATOM     17  C   UNL A   1      33.120  26.233  23.900  1.00  0.00     0.109 C 
ATOM     18  C   UNL A   1      33.128  27.478  24.791  1.00  0.00     0.020 C 
BRANCH  17  19
ATOM     19  S   UNL A   1      32.636  26.656  22.211  1.00  0.00     0.150 S 
ATOM     20  C   UNL A   1      31.892  28.267  22.342  1.00  0.00     0.158 C 
ATOM     21  O   UNL A   1      33.846  26.811  21.431  1.00  0.00    -0.229 OA
ATOM     22  O   UNL A   1      31.594  25.738  21.792  1.00  0.00    -0.229 OA
ENDBRANCH  17  19
ENDBRANCH  10  13
ENDBRANCH   9  10
ENDBRANCH   7   9
ENDBRANCH   4   7
ENDBRANCH   2   3
ENDBRANCH   1   2
BRANCH   1  23
ATOM     23  C   UNL A   1      35.891  23.509  26.001  1.00  0.00     0.023 C 
BRANCH  23  24
ATOM     24  C   UNL A   1      37.071  23.536  25.033  1.00  0.00     0.116 C 
BRANCH  24  25
ATOM     25  N   UNL A   1      38.167  22.646  25.397  1.00  0.00    -0.352 N 
ATOM     26  C   UNL A   1      39.263  22.912  26.189  1.00  0.00     0.251 C 
ATOM     27  H   UNL A   1      38.117  21.734  25.029  1.00  0.00     0.163 HD
ATOM     28  O   UNL A   1      40.144  22.070  26.331  1.00  0.00    -0.269 OA
BRANCH  26  29
ATOM     29  C   UNL A   1      39.390  24.246  26.816  1.00  0.00     0.039 A 
ATOM     30  C   UNL A   1      38.864  24.449  28.093  1.00  0.00     0.014 A 
ATOM     31  C   UNL A   1      40.118  25.257  26.183  1.00  0.00     0.014 A 
ATOM     32  C   UNL A   1      39.167  25.626  28.782  1.00  0.00     0.010 A 
ATOM     33  C   UNL A   1      40.491  26.386  26.904  1.00  0.00     0.010 A 
ATOM     34  C   UNL A   1      40.034  26.576  28.217  1.00  0.00    -0.014 A 
BRANCH  34  35
ATOM     35  C   UNL A   1      40.500  27.758  28.991  1.00  0.00     0.031 A 
ATOM     36  C   UNL A   1      41.851  27.743  29.653  1.00  0.00     0.074 A 
ATOM     37  C   UNL A   1      39.672  28.808  29.172  1.00  0.00     0.049 A 
ATOM     38  N   UNL A   1      42.396  28.637  30.436  1.00  0.00    -0.248 NA
ATOM     39  C   UNL A   1      42.685  26.551  29.431  1.00  0.00     0.031 C 
ATOM     40  C   UNL A   1      38.312  28.920  28.638  1.00  0.00     0.029 A 
ATOM     41  N   UNL A   1      39.847  29.980  29.867  1.00  0.00    -0.354 N 
ATOM     42  C   UNL A   1      43.624  28.109  30.817  1.00  0.00     0.074 A 
ATOM     43  C   UNL A   1      43.720  26.794  30.222  1.00  0.00     0.031 C 
ATOM     44  C   UNL A   1      37.790  30.103  28.999  1.00  0.00     0.029 A 
ATOM     45  C   UNL A   1      38.757  30.820  29.823  1.00  0.00     0.049 A 
ATOM     46  H   UNL A   1      40.675  30.199  30.352  1.00  0.00     0.167 HD
ATOM     47  C   UNL A   1      44.594  28.676  31.574  1.00  0.00     0.037 A 
ATOM     48  C   UNL A   1      38.558  32.029  30.385  1.00  0.00     0.037 A 
ATOM     49  C   UNL A   1      44.509  30.000  32.132  1.00  0.00     0.049 A 
ATOM     50  C   UNL A   1      39.658  32.646  31.206  1.00  0.00     0.074 A 
ATOM     51  C   UNL A   1      45.470  30.694  32.847  1.00  0.00     0.029 A 
ATOM     52  N   UNL A   1      43.402  30.831  32.039  1.00  0.00    -0.354 N 
ATOM     53  N   UNL A   1      40.842  32.161  31.494  1.00  0.00    -0.248 NA
ATOM     54  C   UNL A   1      39.398  33.976  31.776  1.00  0.00     0.031 C 
ATOM     55  C   UNL A   1      44.929  31.928  33.222  1.00  0.00     0.029 A 
ATOM     56  C   UNL A   1      43.649  32.022  32.700  1.00  0.00     0.049 A 
ATOM     57  H   UNL A   1      42.566  30.606  31.572  1.00  0.00     0.167 HD
ATOM     58  C   UNL A   1      41.478  33.137  32.254  1.00  0.00     0.074 A 
ATOM     59  C   UNL A   1      40.551  34.243  32.372  1.00  0.00     0.031 C 
ATOM     60  C   UNL A   1      42.718  33.119  32.801  1.00  0.00     0.037 A 
BRANCH  47  61
ATOM     61  C   UNL A   1      45.835  27.869  31.832  1.00  0.00     0.058 A 
ATOM     62  C   UNL A   1      45.905  26.942  32.886  1.00  0.00     0.135 A 
ATOM     63  C   UNL A   1      46.958  27.998  31.001  1.00  0.00     0.135 A 
ATOM     64  F   UNL A   1      44.865  26.788  33.721  1.00  0.00    -0.206 F 
ATOM     65  C   UNL A   1      47.054  26.197  33.125  1.00  0.00     0.059 A 
ATOM     66  C   UNL A   1      48.110  27.243  31.203  1.00  0.00     0.059 A 
ATOM     67  F   UNL A   1      46.946  28.869  29.979  1.00  0.00    -0.206 F 
ATOM     68  C   UNL A   1      48.153  26.355  32.277  1.00  0.00     0.060 A 
BRANCH  68  69
ATOM     69  S   UNL A   1      49.635  25.377  32.597  1.00  0.00     0.124 S 
ATOM     70  O   UNL A   1      50.534  26.383  33.152  1.00  0.00    -0.237 OA
ATOM     71  O   UNL A   1      49.150  24.373  33.540  1.00  0.00    -0.237 OA
ATOM     72  O   UNL A   1      49.999  24.868  31.278  1.00  0.00    -0.744 OA
ENDBRANCH  68  69
ENDBRANCH  47  61
BRANCH  48  73
ATOM     73  C   UNL A   1      37.278  32.753  30.163  1.00  0.00     0.058 A 
ATOM     74  C   UNL A   1      36.214  32.623  31.067  1.00  0.00     0.135 A 
ATOM     75  C   UNL A   1      37.094  33.592  29.053  1.00  0.00     0.135 A 
ATOM     76  F   UNL A   1      36.339  31.827  32.140  1.00  0.00    -0.206 F 
ATOM     77  C   UNL A   1      35.006  33.287  30.874  1.00  0.00     0.059 A 
ATOM     78  C   UNL A   1      35.904  34.284  28.850  1.00  0.00     0.059 A 
ATOM     79  F   UNL A   1      38.086  33.763  28.167  1.00  0.00    -0.206 F 
ATOM     80  C   UNL A   1      34.861  34.117  29.761  1.00  0.00     0.060 A 
BRANCH  80  81
ATOM     81  S   UNL A   1      33.309  35.016  29.546  1.00  0.00     0.124 S 
ATOM     82  O   UNL A   1      32.675  34.254  28.476  1.00  0.00    -0.237 OA
ATOM     83  O   UNL A   1      32.698  34.893  30.866  1.00  0.00    -0.237 OA
ATOM     84  O   UNL A   1      33.748  36.361  29.191  1.00  0.00    -0.744 OA
ENDBRANCH  80  81
ENDBRANCH  48  73
BRANCH  60  85
ATOM     85  C   UNL A   1      43.165  34.346  33.548  1.00  0.00     0.058 A 
ATOM     86  C   UNL A   1      43.643  35.483  32.879  1.00  0.00     0.135 A 
ATOM     87  C   UNL A   1      43.061  34.402  34.947  1.00  0.00     0.135 A 
ATOM     88  F   UNL A   1      43.769  35.478  31.542  1.00  0.00    -0.206 F 
ATOM     89  C   UNL A   1      44.022  36.627  33.573  1.00  0.00     0.059 A 
ATOM     90  C   UNL A   1      43.409  35.544  35.660  1.00  0.00     0.059 A 
ATOM     91  F   UNL A   1      42.601  33.344  35.634  1.00  0.00    -0.206 F 
ATOM     92  C   UNL A   1      43.899  36.649  34.964  1.00  0.00     0.060 A 
BRANCH  92  93
ATOM     93  S   UNL A   1      44.360  38.153  35.851  1.00  0.00     0.124 S 
ATOM     94  O   UNL A   1      43.589  38.015  37.083  1.00  0.00    -0.237 OA
ATOM     95  O   UNL A   1      45.805  38.006  35.988  1.00  0.00    -0.237 OA
ATOM     96  O   UNL A   1      43.927  39.222  34.955  1.00  0.00    -0.744 OA
ENDBRANCH  92  93
ENDBRANCH  60  85
ENDBRANCH  34  35
ENDBRANCH  26  29
ENDBRANCH  24  25
ENDBRANCH  23  24
ENDBRANCH   1  23
TORSDOF 18
ENDMDL
MODEL 2
REMARK VINA RESULT:     -10.8      4.598     10.418
REMARK SMILES C[C@@H](CS(=O)(=O)[C@@H]1CCC[C@H](S(C)(=O)=O)C1)C(=O)NCCCCNC(=O)c1ccc(-c2c3nc(c(-c4c(F)cc(S(=O)(=O)[O-])cc4F)c4ccc([nH]4)c(-c4c(F)cc(S(=O)(=O)[O-])cc4F)c4nc(c(-c5c(F)cc(S(=O)(=O)[O-])cc5F)c5ccc2[nH]5)C=C4)C=C3)cc1
REMARK SMILES IDX 21 1 20 2 19 3 17 4 18 5 2 7 1 8 3 9 4 10 5 11 6 12 7 13
REMARK SMILES IDX 8 14 16 15 9 16 11 17 10 18 12 19 13 20 14 21 15 22 22 23
REMARK SMILES IDX 23 24 24 25 25 26 26 28 27 29 28 30 92 31 29 32 91 33 30 34
REMARK SMILES IDX 31 35 32 36 85 37 33 38 90 39 84 40 86 41 34 42 89 43 83 44
REMARK SMILES IDX 82 45 35 47 69 48 48 49 68 50 49 51 52 52 67 53 87 54 50 55
REMARK SMILES IDX 51 56 66 58 88 59 53 60 36 61 37 62 46 63 38 64 39 65 45 66
REMARK SMILES IDX 47 67 40 68 41 69 42 70 43 71 44 72 70 73 71 74 80 75 72 76
REMARK SMILES IDX 73 77 79 78 81 79 74 80 75 81 76 82 77 83 78 84 54 85 55 86
REMARK SMILES IDX 64 87 56 88 57 89 63 90 65 91 58 92 59 93 60 94 61 95 62 96
REMARK H PARENT 19 6 24 27 86 46 52 57
REMARK Flexibility Score: inf
ROOT
ATOM      1  C   UNL A   1      33.141  28.442  26.476  1.00  0.00     0.023 C 
ENDROOT
BRANCH   1   2
ATOM      2  C   UNL A   1      31.696  28.643  26.060  1.00  0.00     0.116 C 
BRANCH   2   3
ATOM      3  N   UNL A   1      31.455  29.386  24.856  1.00  0.00    -0.356 N 
ATOM      4  C   UNL A   1      30.708  28.994  23.785  1.00  0.00     0.223 C 
ATOM      5  O   UNL A   1      30.293  29.869  23.020  1.00  0.00    -0.275 OA
ATOM      6  H   UNL A   1      31.875  30.275  24.796  1.00  0.00     0.163 HD
BRANCH   4   7
ATOM      7  C   UNL A   1      30.495  27.519  23.434  1.00  0.00     0.090 C 
ATOM      8  C   UNL A   1      29.018  27.116  23.493  1.00  0.00     0.019 C 
BRANCH   7   9
ATOM      9  C   UNL A   1      31.374  26.801  22.402  1.00  0.00     0.150 C 
BRANCH   9  10
ATOM     10  S   UNL A   1      33.133  26.541  22.480  1.00  0.00     0.153 S 
ATOM     11  O   UNL A   1      33.493  25.632  21.411  1.00  0.00    -0.229 OA
ATOM     12  O   UNL A   1      33.692  27.884  22.471  1.00  0.00    -0.229 OA
BRANCH  10  13
ATOM     13  C   UNL A   1      33.662  25.784  24.058  1.00  0.00     0.110 C 
ATOM     14  C   UNL A   1      34.843  24.839  23.902  1.00  0.00     0.020 C 
ATOM     15  C   UNL A   1      32.492  25.077  24.773  1.00  0.00     0.039 C 
ATOM     16  C   UNL A   1      35.283  24.247  25.231  1.00  0.00     0.003 C 
ATOM     17  C   UNL A   1      32.924  24.408  26.096  1.00  0.00     0.109 C 
ATOM     18  C   UNL A   1      34.140  23.500  25.893  1.00  0.00     0.020 C 
BRANCH  17  19
ATOM     19  S   UNL A   1      31.546  23.486  26.814  1.00  0.00     0.150 S 
ATOM     20  C   UNL A   1      31.196  22.201  25.633  1.00  0.00     0.158 C 
ATOM     21  O   UNL A   1      32.029  22.836  28.015  1.00  0.00    -0.229 OA
ATOM     22  O   UNL A   1      30.386  24.356  26.855  1.00  0.00    -0.229 OA
ENDBRANCH  17  19
ENDBRANCH  10  13
ENDBRANCH   9  10
ENDBRANCH   7   9
ENDBRANCH   4   7
ENDBRANCH   2   3
ENDBRANCH   1   2
BRANCH   1  23
ATOM     23  C   UNL A   1      33.856  29.683  26.995  1.00  0.00     0.023 C 
BRANCH  23  24
ATOM     24  C   UNL A   1      35.097  29.444  27.849  1.00  0.00     0.116 C 
BRANCH  24  25
ATOM     25  N   UNL A   1      35.304  30.434  28.898  1.00  0.00    -0.352 N 
ATOM     26  C   UNL A   1      36.456  30.712  29.604  1.00  0.00     0.251 C 
ATOM     27  H   UNL A   1      34.517  30.977  29.135  1.00  0.00     0.163 HD
ATOM     28  O   UNL A   1      36.439  31.528  30.519  1.00  0.00    -0.269 OA
BRANCH  26  29
ATOM     29  C   UNL A   1      37.693  29.970  29.278  1.00  0.00     0.039 A 
ATOM     30  C   UNL A   1      38.083  29.852  27.943  1.00  0.00     0.014 A 
ATOM     31  C   UNL A   1      38.515  29.486  30.299  1.00  0.00     0.014 A 
ATOM     32  C   UNL A   1      39.351  29.352  27.638  1.00  0.00     0.010 A 
ATOM     33  C   UNL A   1      39.809  29.074  29.999  1.00  0.00     0.010 A 
ATOM     34  C   UNL A   1      40.248  29.017  28.667  1.00  0.00    -0.014 A 
BRANCH  34  35
ATOM     35  C   UNL A   1      41.655  28.635  28.376  1.00  0.00     0.031 A 
ATOM     36  C   UNL A   1      42.737  29.682  28.371  1.00  0.00     0.074 A 
ATOM     37  C   UNL A   1      41.946  27.365  28.027  1.00  0.00     0.049 A 
ATOM     38  N   UNL A   1      44.001  29.562  28.059  1.00  0.00    -0.248 NA
ATOM     39  C   UNL A   1      42.336  31.051  28.734  1.00  0.00     0.031 C 
ATOM     40  C   UNL A   1      40.979  26.268  27.930  1.00  0.00     0.029 A 
ATOM     41  N   UNL A   1      43.139  26.780  27.677  1.00  0.00    -0.354 N 
ATOM     42  C   UNL A   1      44.541  30.838  28.166  1.00  0.00     0.074 A 
ATOM     43  C   UNL A   1      43.456  31.726  28.521  1.00  0.00     0.031 C 
ATOM     44  C   UNL A   1      41.619  25.142  27.577  1.00  0.00     0.029 A 
ATOM     45  C   UNL A   1      43.035  25.440  27.382  1.00  0.00     0.049 A 
ATOM     46  H   UNL A   1      43.990  27.273  27.642  1.00  0.00     0.167 HD
ATOM     47  C   UNL A   1      45.828  31.230  28.008  1.00  0.00     0.037 A 
ATOM     48  C   UNL A   1      43.972  24.551  26.995  1.00  0.00     0.037 A 
ATOM     49  C   UNL A   1      46.910  30.336  27.692  1.00  0.00     0.049 A 
ATOM     50  C   UNL A   1      45.398  25.009  26.843  1.00  0.00     0.074 A 
ATOM     51  C   UNL A   1      48.260  30.624  27.587  1.00  0.00     0.029 A 
ATOM     52  N   UNL A   1      46.769  28.981  27.431  1.00  0.00    -0.354 N 
ATOM     53  N   UNL A   1      45.902  26.206  27.021  1.00  0.00    -0.248 NA
ATOM     54  C   UNL A   1      46.383  23.994  26.442  1.00  0.00     0.031 C 
ATOM     55  C   UNL A   1      48.929  29.452  27.222  1.00  0.00     0.029 A 
ATOM     56  C   UNL A   1      48.004  28.423  27.145  1.00  0.00     0.049 A 
ATOM     57  H   UNL A   1      45.917  28.489  27.446  1.00  0.00     0.167 HD
ATOM     58  C   UNL A   1      47.267  26.083  26.783  1.00  0.00     0.074 A 
ATOM     59  C   UNL A   1      47.510  24.693  26.456  1.00  0.00     0.031 C 
ATOM     60  C   UNL A   1      48.231  27.035  26.831  1.00  0.00     0.037 A 
BRANCH  47  61
ATOM     61  C   UNL A   1      46.135  32.691  28.184  1.00  0.00     0.058 A 
ATOM     62  C   UNL A   1      46.059  33.595  27.112  1.00  0.00     0.135 A 
ATOM     63  C   UNL A   1      46.480  33.202  29.446  1.00  0.00     0.135 A 
ATOM     64  F   UNL A   1      45.749  33.159  25.881  1.00  0.00    -0.206 F 
ATOM     65  C   UNL A   1      46.345  34.946  27.277  1.00  0.00     0.059 A 
ATOM     66  C   UNL A   1      46.743  34.555  29.641  1.00  0.00     0.059 A 
ATOM     67  F   UNL A   1      46.567  32.382  30.506  1.00  0.00    -0.206 F 
ATOM     68  C   UNL A   1      46.687  35.416  28.546  1.00  0.00     0.060 A 
BRANCH  68  69
ATOM     69  S   UNL A   1      47.050  37.173  28.745  1.00  0.00     0.124 S 
ATOM     70  O   UNL A   1      47.256  37.267  30.186  1.00  0.00    -0.237 OA
ATOM     71  O   UNL A   1      48.245  37.340  27.923  1.00  0.00    -0.237 OA
ATOM     72  O   UNL A   1      45.849  37.828  28.237  1.00  0.00    -0.744 OA
ENDBRANCH  68  69
ENDBRANCH  47  61
BRANCH  48  73
ATOM     73  C   UNL A   1      43.600  23.131  26.755  1.00  0.00     0.058 A 
ATOM     74  C   UNL A   1      43.234  22.295  27.821  1.00  0.00     0.135 A 
ATOM     75  C   UNL A   1      43.592  22.584  25.463  1.00  0.00     0.135 A 
ATOM     76  F   UNL A   1      43.232  22.770  29.075  1.00  0.00    -0.206 F 
ATOM     77  C   UNL A   1      42.890  20.963  27.618  1.00  0.00     0.059 A 
ATOM     78  C   UNL A   1      43.229  21.260  25.232  1.00  0.00     0.059 A 
ATOM     79  F   UNL A   1      43.918  23.345  24.407  1.00  0.00    -0.206 F 
ATOM     80  C   UNL A   1      42.889  20.454  26.317  1.00  0.00     0.060 A 
BRANCH  80  81
ATOM     81  S   UNL A   1      42.388  18.738  26.059  1.00  0.00     0.124 S 
ATOM     82  O   UNL A   1      43.264  18.339  24.963  1.00  0.00    -0.237 OA
ATOM     83  O   UNL A   1      42.675  18.135  27.356  1.00  0.00    -0.237 OA
ATOM     84  O   UNL A   1      40.971  18.850  25.728  1.00  0.00    -0.744 OA
ENDBRANCH  80  81
ENDBRANCH  48  73
BRANCH  60  85
ATOM     85  C   UNL A   1      49.646  26.603  26.563  1.00  0.00     0.058 A 
ATOM     86  C   UNL A   1      50.182  26.596  25.266  1.00  0.00     0.135 A 
ATOM     87  C   UNL A   1      50.493  26.246  27.625  1.00  0.00     0.135 A 
ATOM     88  F   UNL A   1      49.411  26.922  24.215  1.00  0.00    -0.206 F 
ATOM     89  C   UNL A   1      51.502  26.229  25.028  1.00  0.00     0.059 A 
ATOM     90  C   UNL A   1      51.824  25.901  27.413  1.00  0.00     0.059 A 
ATOM     91  F   UNL A   1      50.032  26.246  28.886  1.00  0.00    -0.206 F 
ATOM     92  C   UNL A   1      52.316  25.885  26.109  1.00  0.00     0.060 A 
BRANCH  92  93
ATOM     93  S   UNL A   1      54.039  25.447  25.791  1.00  0.00     0.124 S 
ATOM     94  O   UNL A   1      54.547  25.253  27.146  1.00  0.00    -0.237 OA
ATOM     95  O   UNL A   1      53.910  24.238  24.984  1.00  0.00    -0.237 OA
ATOM     96  O   UNL A   1      54.561  26.613  25.084  1.00  0.00    -0.744 OA
ENDBRANCH  92  93
ENDBRANCH  60  85
ENDBRANCH  34  35
ENDBRANCH  26  29
ENDBRANCH  24  25
ENDBRANCH  23  24
ENDBRANCH   1  23
TORSDOF 18
ENDMDL
MODEL 3
REMARK VINA RESULT:     -10.7      1.113      3.145
REMARK SMILES C[C@@H](CS(=O)(=O)[C@@H]1CCC[C@H](S(C)(=O)=O)C1)C(=O)NCCCCNC(=O)c1ccc(-c2c3nc(c(-c4c(F)cc(S(=O)(=O)[O-])cc4F)c4ccc([nH]4)c(-c4c(F)cc(S(=O)(=O)[O-])cc4F)c4nc(c(-c5c(F)cc(S(=O)(=O)[O-])cc5F)c5ccc2[nH]5)C=C4)C=C3)cc1
REMARK SMILES IDX 21 1 20 2 19 3 17 4 18 5 2 7 1 8 3 9 4 10 5 11 6 12 7 13
REMARK SMILES IDX 8 14 16 15 9 16 11 17 10 18 12 19 13 20 14 21 15 22 22 23
REMARK SMILES IDX 23 24 24 25 25 26 26 28 27 29 28 30 92 31 29 32 91 33 30 34
REMARK SMILES IDX 31 35 32 36 85 37 33 38 90 39 84 40 86 41 34 42 89 43 83 44
REMARK SMILES IDX 82 45 35 47 69 48 48 49 68 50 49 51 52 52 67 53 87 54 50 55
REMARK SMILES IDX 51 56 66 58 88 59 53 60 36 61 37 62 46 63 38 64 39 65 45 66
REMARK SMILES IDX 47 67 40 68 41 69 42 70 43 71 44 72 70 73 71 74 80 75 72 76
REMARK SMILES IDX 73 77 79 78 81 79 74 80 75 81 76 82 77 83 78 84 54 85 55 86
REMARK SMILES IDX 64 87 56 88 57 89 63 90 65 91 58 92 59 93 60 94 61 95 62 96
REMARK H PARENT 19 6 24 27 86 46 52 57
REMARK Flexibility Score: inf
ROOT
ATOM      1  C   UNL A   1      34.751  23.394  23.784  1.00  0.00     0.023 C 
ENDROOT
BRANCH   1   2
ATOM      2  C   UNL A   1      34.421  24.849  23.509  1.00  0.00     0.116 C 
BRANCH   2   3
ATOM      3  N   UNL A   1      33.229  25.122  22.757  1.00  0.00    -0.356 N 
ATOM      4  C   UNL A   1      32.337  26.131  22.970  1.00  0.00     0.223 C 
ATOM      5  O   UNL A   1      31.599  26.454  22.036  1.00  0.00    -0.275 OA
ATOM      6  H   UNL A   1      33.034  24.515  22.007  1.00  0.00     0.163 HD
BRANCH   4   7
ATOM      7  C   UNL A   1      32.134  26.763  24.349  1.00  0.00     0.090 C 
ATOM      8  C   UNL A   1      31.333  28.068  24.277  1.00  0.00     0.019 C 
BRANCH   7   9
ATOM      9  C   UNL A   1      31.962  25.907  25.610  1.00  0.00     0.150 C 
BRANCH   9  10
ATOM     10  S   UNL A   1      30.983  24.430  25.784  1.00  0.00     0.153 S 
ATOM     11  O   UNL A   1      29.899  24.724  26.699  1.00  0.00    -0.229 OA
ATOM     12  O   UNL A   1      30.660  24.054  24.417  1.00  0.00    -0.229 OA
BRANCH  10  13
ATOM     13  C   UNL A   1      31.938  23.034  26.480  1.00  0.00     0.110 C 
ATOM     14  C   UNL A   1      33.326  23.435  26.954  1.00  0.00     0.020 C 
ATOM     15  C   UNL A   1      32.021  21.850  25.495  1.00  0.00     0.039 C 
ATOM     16  C   UNL A   1      34.086  22.266  27.556  1.00  0.00     0.003 C 
ATOM     17  C   UNL A   1      32.845  20.671  26.055  1.00  0.00     0.109 C 
ATOM     18  C   UNL A   1      34.217  21.133  26.554  1.00  0.00     0.020 C 
BRANCH  17  19
ATOM     19  S   UNL A   1      33.020  19.376  24.806  1.00  0.00     0.150 S 
ATOM     20  C   UNL A   1      32.365  20.093  23.315  1.00  0.00     0.158 C 
ATOM     21  O   UNL A   1      34.436  19.163  24.587  1.00  0.00    -0.229 OA
ATOM     22  O   UNL A   1      32.149  18.274  25.168  1.00  0.00    -0.229 OA
ENDBRANCH  17  19
ENDBRANCH  10  13
ENDBRANCH   9  10
ENDBRANCH   7   9
ENDBRANCH   4   7
ENDBRANCH   2   3
ENDBRANCH   1   2
BRANCH   1  23
ATOM     23  C   UNL A   1      36.233  23.042  23.777  1.00  0.00     0.023 C 
BRANCH  23  24
ATOM     24  C   UNL A   1      37.044  23.494  24.988  1.00  0.00     0.116 C 
BRANCH  24  25
ATOM     25  N   UNL A   1      38.175  22.633  25.309  1.00  0.00    -0.352 N 
ATOM     26  C   UNL A   1      39.280  22.917  26.082  1.00  0.00     0.251 C 
ATOM     27  H   UNL A   1      38.145  21.727  24.923  1.00  0.00     0.163 HD
ATOM     28  O   UNL A   1      40.189  22.100  26.187  1.00  0.00    -0.269 OA
BRANCH  26  29
ATOM     29  C   UNL A   1      39.379  24.242  26.733  1.00  0.00     0.039 A 
ATOM     30  C   UNL A   1      38.828  24.416  28.004  1.00  0.00     0.014 A 
ATOM     31  C   UNL A   1      40.106  25.272  26.130  1.00  0.00     0.014 A 
ATOM     32  C   UNL A   1      39.104  25.585  28.718  1.00  0.00     0.010 A 
ATOM     33  C   UNL A   1      40.452  26.392  26.877  1.00  0.00     0.010 A 
ATOM     34  C   UNL A   1      39.969  26.555  28.185  1.00  0.00    -0.014 A 
BRANCH  34  35
ATOM     35  C   UNL A   1      40.407  27.729  28.986  1.00  0.00     0.031 A 
ATOM     36  C   UNL A   1      41.732  27.705  29.700  1.00  0.00     0.074 A 
ATOM     37  C   UNL A   1      39.574  28.778  29.146  1.00  0.00     0.049 A 
ATOM     38  N   UNL A   1      42.248  28.591  30.511  1.00  0.00    -0.248 NA
ATOM     39  C   UNL A   1      42.572  26.514  29.500  1.00  0.00     0.031 C 
ATOM     40  C   UNL A   1      38.236  28.897  28.561  1.00  0.00     0.029 A 
ATOM     41  N   UNL A   1      39.724  29.944  29.858  1.00  0.00    -0.354 N 
ATOM     42  C   UNL A   1      43.460  28.058  30.935  1.00  0.00     0.074 A 
ATOM     43  C   UNL A   1      43.577  26.748  30.332  1.00  0.00     0.031 C 
ATOM     44  C   UNL A   1      37.702  30.078  28.912  1.00  0.00     0.029 A 
ATOM     45  C   UNL A   1      38.638  30.786  29.779  1.00  0.00     0.049 A 
ATOM     46  H   UNL A   1      40.533  30.157  30.376  1.00  0.00     0.167 HD
ATOM     47  C   UNL A   1      44.400  28.616  31.733  1.00  0.00     0.037 A 
ATOM     48  C   UNL A   1      38.420  31.990  30.344  1.00  0.00     0.037 A 
ATOM     49  C   UNL A   1      44.296  29.935  32.300  1.00  0.00     0.049 A 
ATOM     50  C   UNL A   1      39.488  32.597  31.213  1.00  0.00     0.074 A 
ATOM     51  C   UNL A   1      45.230  30.621  33.057  1.00  0.00     0.029 A 
ATOM     52  N   UNL A   1      43.195  30.769  32.171  1.00  0.00    -0.354 N 
ATOM     53  N   UNL A   1      40.659  32.108  31.542  1.00  0.00    -0.248 NA
ATOM     54  C   UNL A   1      39.208  33.923  31.785  1.00  0.00     0.031 C 
ATOM     55  C   UNL A   1      44.677  31.852  33.422  1.00  0.00     0.029 A 
ATOM     56  C   UNL A   1      43.417  31.953  32.853  1.00  0.00     0.049 A 
ATOM     57  H   UNL A   1      42.377  30.550  31.671  1.00  0.00     0.167 HD
ATOM     58  C   UNL A   1      41.267  33.076  32.334  1.00  0.00     0.074 A 
ATOM     59  C   UNL A   1      40.338  34.183  32.427  1.00  0.00     0.031 C 
ATOM     60  C   UNL A   1      42.486  33.051  32.928  1.00  0.00     0.037 A 
BRANCH  47  61
ATOM     61  C   UNL A   1      45.629  27.804  32.031  1.00  0.00     0.058 A 
ATOM     62  C   UNL A   1      46.769  27.862  31.212  1.00  0.00     0.135 A 
ATOM     63  C   UNL A   1      45.683  26.979  33.166  1.00  0.00     0.135 A 
ATOM     64  F   UNL A   1      46.767  28.623  30.105  1.00  0.00    -0.206 F 
ATOM     65  C   UNL A   1      47.904  27.109  31.488  1.00  0.00     0.059 A 
ATOM     66  C   UNL A   1      46.818  26.238  33.479  1.00  0.00     0.059 A 
ATOM     67  F   UNL A   1      44.622  26.886  33.984  1.00  0.00    -0.206 F 
ATOM     68  C   UNL A   1      47.919  26.298  32.625  1.00  0.00     0.060 A 
BRANCH  68  69
ATOM     69  S   UNL A   1      49.402  25.330  32.973  1.00  0.00     0.124 S 
ATOM     70  O   UNL A   1      49.816  24.939  31.630  1.00  0.00    -0.237 OA
ATOM     71  O   UNL A   1      50.261  26.303  33.642  1.00  0.00    -0.237 OA
ATOM     72  O   UNL A   1      48.911  24.247  33.820  1.00  0.00    -0.744 OA
ENDBRANCH  68  69
ENDBRANCH  47  61
BRANCH  48  73
ATOM     73  C   UNL A   1      37.150  32.719  30.080  1.00  0.00     0.058 A 
ATOM     74  C   UNL A   1      37.069  33.672  29.054  1.00  0.00     0.135 A 
ATOM     75  C   UNL A   1      35.994  32.473  30.837  1.00  0.00     0.135 A 
ATOM     76  F   UNL A   1      38.150  33.946  28.307  1.00  0.00    -0.206 F 
ATOM     77  C   UNL A   1      35.893  34.368  28.796  1.00  0.00     0.059 A 
ATOM     78  C   UNL A   1      34.799  33.141  30.583  1.00  0.00     0.059 A 
ATOM     79  F   UNL A   1      36.013  31.560  31.819  1.00  0.00    -0.206 F 
ATOM     80  C   UNL A   1      34.761  34.094  29.566  1.00  0.00     0.060 A 
BRANCH  80  81
ATOM     81  S   UNL A   1      33.224  34.965  29.188  1.00  0.00     0.124 S 
ATOM     82  O   UNL A   1      32.625  34.084  28.192  1.00  0.00    -0.237 OA
ATOM     83  O   UNL A   1      32.563  35.001  30.489  1.00  0.00    -0.237 OA
ATOM     84  O   UNL A   1      33.686  36.258  28.694  1.00  0.00    -0.744 OA
ENDBRANCH  80  81
ENDBRANCH  48  73
BRANCH  60  85
ATOM     85  C   UNL A   1      42.905  34.270  33.703  1.00  0.00     0.058 A 
ATOM     86  C   UNL A   1      42.651  34.394  35.077  1.00  0.00     0.135 A 
ATOM     87  C   UNL A   1      43.620  35.301  33.071  1.00  0.00     0.135 A 
ATOM     88  F   UNL A   1      41.964  33.440  35.726  1.00  0.00    -0.206 F 
ATOM     89  C   UNL A   1      43.072  35.508  35.795  1.00  0.00     0.059 A 
ATOM     90  C   UNL A   1      44.074  36.411  33.775  1.00  0.00     0.059 A 
ATOM     91  F   UNL A   1      43.898  35.226  31.760  1.00  0.00    -0.206 F 
ATOM     92  C   UNL A   1      43.785  36.511  35.135  1.00  0.00     0.060 A 
BRANCH  92  93
ATOM     93  S   UNL A   1      44.359  37.935  36.085  1.00  0.00     0.124 S 
ATOM     94  O   UNL A   1      43.951  39.044  35.228  1.00  0.00    -0.237 OA
ATOM     95  O   UNL A   1      43.620  37.796  37.336  1.00  0.00    -0.237 OA
ATOM     96  O   UNL A   1      45.799  37.717  36.187  1.00  0.00    -0.744 OA
ENDBRANCH  92  93
ENDBRANCH  60  85
ENDBRANCH  34  35
ENDBRANCH  26  29
ENDBRANCH  24  25
ENDBRANCH  23  24
ENDBRANCH   1  23
TORSDOF 18
ENDMDL
