MODEL 1
REMARK VINA RESULT:     -12.5      0.000      0.000
REMARK SMILES CN(C)S(=O)(=O)Nc1ccc(-n2nnc(C(=O)NCCCCNC(=O)c3ccc(-c4c5nc(c(-c6c(F)cc(S(=O)(=O)[O-])cc6F)c6ccc([nH]6)c(-c6c(F)cc(S(=O)(=O)[O-])cc6F)c6nc(c(-c7c(F)cc(S(=O)(=O)[O-])cc7F)c7ccc4[nH]7)C=C6)C=C5)cc3)c2N)cc1
REMARK SMILES IDX 20 1 19 2 18 3 16 4 17 5 15 7 12 8 13 9 92 10 14 11 11 12
REMARK SMILES IDX 8 13 9 14 95 15 10 16 94 17 7 18 4 20 5 21 6 22 2 23 1 24
REMARK SMILES IDX 3 25 93 26 21 29 22 30 23 31 24 32 25 34 26 35 27 36 91 37
REMARK SMILES IDX 28 38 90 39 29 40 30 41 31 42 84 43 32 44 89 45 83 46 85 47
REMARK SMILES IDX 33 48 88 49 82 50 81 51 34 53 68 54 47 55 67 56 48 57 51 58
REMARK SMILES IDX 66 59 86 60 49 61 50 62 65 64 87 65 52 66 35 67 36 68 45 69
REMARK SMILES IDX 37 70 38 71 44 72 46 73 39 74 40 75 41 76 42 77 43 78 69 79
REMARK SMILES IDX 70 80 79 81 71 82 72 83 78 84 80 85 73 86 74 87 75 88 76 89
REMARK SMILES IDX 77 90 53 91 54 92 63 93 55 94 56 95 62 96 64 97 57 98 58 99
REMARK SMILES IDX 59 100 60 101 61 102
REMARK H PARENT 18 6 7 19 93 27 93 28 23 33 85 52 51 63
REMARK Flexibility Score: inf
ROOT
ATOM      1  C   UNL A   1      37.465  23.205  25.694  1.00  0.00     0.023 C 
ENDROOT
BRANCH   1   2
ATOM      2  C   UNL A   1      36.683  22.978  24.402  1.00  0.00     0.116 C 
BRANCH   2   3
ATOM      3  N   UNL A   1      35.569  22.046  24.414  1.00  0.00    -0.351 N 
ATOM      4  C   UNL A   1      34.281  22.243  23.914  1.00  0.00     0.275 C 
ATOM      5  O   UNL A   1      33.475  21.319  24.015  1.00  0.00    -0.267 OA
ATOM      6  H   UNL A   1      35.744  21.169  24.826  1.00  0.00     0.163 HD
BRANCH   4   7
ATOM      7  C   UNL A   1      33.900  23.546  23.364  1.00  0.00     0.194 A 
ATOM      8  N   UNL A   1      32.914  25.473  22.990  1.00  0.00    -0.197 N 
ATOM      9  N   UNL A   1      33.221  24.918  21.792  1.00  0.00    -0.059 NA
ATOM     10  C   UNL A   1      33.428  24.674  24.021  1.00  0.00     0.161 A 
ATOM     11  N   UNL A   1      33.848  23.769  22.007  1.00  0.00    -0.122 NA
BRANCH   8  12
ATOM     12  C   UNL A   1      32.112  26.644  23.083  1.00  0.00     0.069 A 
ATOM     13  C   UNL A   1      30.485  28.913  23.323  1.00  0.00     0.050 A 
ATOM     14  C   UNL A   1      31.748  29.013  22.730  1.00  0.00     0.029 A 
ATOM     15  C   UNL A   1      29.975  27.664  23.597  1.00  0.00     0.029 A 
ATOM     16  C   UNL A   1      32.564  27.877  22.598  1.00  0.00     0.031 A 
ATOM     17  C   UNL A   1      30.824  26.571  23.616  1.00  0.00     0.031 A 
BRANCH  13  18
ATOM     18  N   UNL A   1      29.752  30.104  23.570  1.00  0.00    -0.271 N 
ATOM     19  H   UNL A   1      30.034  30.678  24.319  1.00  0.00     0.181 HD
BRANCH  18  20
ATOM     20  S   UNL A   1      28.425  30.590  22.653  1.00  0.00     0.301 S 
ATOM     21  O   UNL A   1      27.290  30.721  23.547  1.00  0.00    -0.189 OA
ATOM     22  O   UNL A   1      28.377  29.642  21.569  1.00  0.00    -0.189 OA
BRANCH  20  23
ATOM     23  N   UNL A   1      28.816  32.123  22.017  1.00  0.00    -0.191 NA
ATOM     24  C   UNL A   1      28.043  32.473  20.802  1.00  0.00     0.125 C 
ATOM     25  C   UNL A   1      28.830  33.289  22.942  1.00  0.00     0.125 C 
ENDBRANCH  20  23
ENDBRANCH  18  20
ENDBRANCH  13  18
ENDBRANCH   8  12
BRANCH  10  26
ATOM     26  N   UNL A   1      33.301  24.933  25.354  1.00  0.00    -0.382 N 
ATOM     27  H   UNL A   1      34.098  25.149  25.892  1.00  0.00     0.158 HD
ATOM     28  H   UNL A   1      32.414  24.905  25.779  1.00  0.00     0.158 HD
ENDBRANCH  10  26
ENDBRANCH   4   7
ENDBRANCH   2   3
ENDBRANCH   1   2
BRANCH   1  29
ATOM     29  C   UNL A   1      38.622  22.269  26.031  1.00  0.00     0.023 C 
BRANCH  29  30
ATOM     30  C   UNL A   1      39.572  22.760  27.110  1.00  0.00     0.116 C 
BRANCH  30  31
ATOM     31  N   UNL A   1      40.937  22.205  27.077  1.00  0.00    -0.352 N 
ATOM     32  C   UNL A   1      42.113  22.910  26.791  1.00  0.00     0.251 C 
ATOM     33  H   UNL A   1      41.032  21.245  27.275  1.00  0.00     0.163 HD
ATOM     34  O   UNL A   1      43.152  22.343  26.482  1.00  0.00    -0.269 OA
BRANCH  32  35
ATOM     35  C   UNL A   1      42.057  24.378  26.936  1.00  0.00     0.039 A 
ATOM     36  C   UNL A   1      41.336  25.248  26.113  1.00  0.00     0.014 A 
ATOM     37  C   UNL A   1      42.659  24.833  28.095  1.00  0.00     0.014 A 
ATOM     38  C   UNL A   1      41.182  26.571  26.538  1.00  0.00     0.010 A 
ATOM     39  C   UNL A   1      42.167  25.962  28.661  1.00  0.00     0.010 A 
ATOM     40  C   UNL A   1      41.601  26.909  27.833  1.00  0.00    -0.014 A 
BRANCH  40  41
ATOM     41  C   UNL A   1      41.488  28.225  28.434  1.00  0.00     0.031 A 
ATOM     42  C   UNL A   1      42.550  29.182  28.060  1.00  0.00     0.074 A 
ATOM     43  C   UNL A   1      40.363  28.606  29.086  1.00  0.00     0.049 A 
ATOM     44  N   UNL A   1      43.547  29.547  28.790  1.00  0.00    -0.248 NA
ATOM     45  C   UNL A   1      42.617  29.665  26.674  1.00  0.00     0.031 C 
ATOM     46  C   UNL A   1      39.103  27.873  29.306  1.00  0.00     0.029 A 
ATOM     47  N   UNL A   1      40.094  29.808  29.652  1.00  0.00    -0.354 N 
ATOM     48  C   UNL A   1      44.239  30.496  28.046  1.00  0.00     0.074 A 
ATOM     49  C   UNL A   1      43.750  30.373  26.696  1.00  0.00     0.031 C 
ATOM     50  C   UNL A   1      38.150  28.714  29.766  1.00  0.00     0.029 A 
ATOM     51  C   UNL A   1      38.774  29.991  30.048  1.00  0.00     0.049 A 
ATOM     52  H   UNL A   1      40.783  30.500  29.775  1.00  0.00     0.167 HD
ATOM     53  C   UNL A   1      44.986  31.456  28.659  1.00  0.00     0.037 A 
ATOM     54  C   UNL A   1      38.242  31.114  30.594  1.00  0.00     0.037 A 
ATOM     55  C   UNL A   1      45.132  31.175  30.069  1.00  0.00     0.049 A 
ATOM     56  C   UNL A   1      39.388  31.856  31.195  1.00  0.00     0.074 A 
ATOM     57  C   UNL A   1      45.700  30.144  30.794  1.00  0.00     0.029 A 
ATOM     58  N   UNL A   1      44.270  31.808  30.935  1.00  0.00    -0.354 N 
ATOM     59  N   UNL A   1      40.084  31.389  32.200  1.00  0.00    -0.248 NA
ATOM     60  C   UNL A   1      40.085  32.820  30.355  1.00  0.00     0.031 C 
ATOM     61  C   UNL A   1      44.792  29.909  31.870  1.00  0.00     0.029 A 
ATOM     62  C   UNL A   1      43.770  30.856  31.792  1.00  0.00     0.049 A 
ATOM     63  H   UNL A   1      44.050  32.768  30.940  1.00  0.00     0.167 HD
ATOM     64  C   UNL A   1      41.409  31.667  31.888  1.00  0.00     0.074 A 
ATOM     65  C   UNL A   1      41.341  32.609  30.768  1.00  0.00     0.031 C 
ATOM     66  C   UNL A   1      42.435  30.892  32.357  1.00  0.00     0.037 A 
BRANCH  53  67
ATOM     67  C   UNL A   1      45.291  32.815  28.089  1.00  0.00     0.058 A 
ATOM     68  C   UNL A   1      46.619  33.128  27.732  1.00  0.00     0.135 A 
ATOM     69  C   UNL A   1      44.396  33.905  28.133  1.00  0.00     0.135 A 
ATOM     70  F   UNL A   1      47.550  32.163  27.653  1.00  0.00    -0.206 F 
ATOM     71  C   UNL A   1      47.043  34.437  27.515  1.00  0.00     0.059 A 
ATOM     72  C   UNL A   1      44.786  35.212  27.870  1.00  0.00     0.059 A 
ATOM     73  F   UNL A   1      43.124  33.767  28.531  1.00  0.00    -0.206 F 
ATOM     74  C   UNL A   1      46.121  35.475  27.605  1.00  0.00     0.060 A 
BRANCH  74  75
ATOM     75  S   UNL A   1      46.693  37.176  27.447  1.00  0.00     0.124 S 
ATOM     76  O   UNL A   1      45.478  37.921  27.757  1.00  0.00    -0.237 OA
ATOM     77  O   UNL A   1      47.751  37.231  28.450  1.00  0.00    -0.237 OA
ATOM     78  O   UNL A   1      47.143  37.251  26.061  1.00  0.00    -0.744 OA
ENDBRANCH  74  75
ENDBRANCH  53  67
BRANCH  54  79
ATOM     79  C   UNL A   1      36.924  31.727  30.273  1.00  0.00     0.058 A 
ATOM     80  C   UNL A   1      36.152  32.383  31.248  1.00  0.00     0.135 A 
ATOM     81  C   UNL A   1      36.516  31.913  28.935  1.00  0.00     0.135 A 
ATOM     82  F   UNL A   1      36.475  32.276  32.546  1.00  0.00    -0.206 F 
ATOM     83  C   UNL A   1      35.071  33.212  30.913  1.00  0.00     0.059 A 
ATOM     84  C   UNL A   1      35.443  32.731  28.578  1.00  0.00     0.059 A 
ATOM     85  F   UNL A   1      37.209  31.374  27.921  1.00  0.00    -0.206 F 
ATOM     86  C   UNL A   1      34.737  33.398  29.572  1.00  0.00     0.060 A 
BRANCH  86  87
ATOM     87  S   UNL A   1      33.462  34.601  29.121  1.00  0.00     0.124 S 
ATOM     88  O   UNL A   1      32.835  34.873  30.409  1.00  0.00    -0.237 OA
ATOM     89  O   UNL A   1      34.251  35.689  28.554  1.00  0.00    -0.237 OA
ATOM     90  O   UNL A   1      32.633  33.873  28.164  1.00  0.00    -0.744 OA
ENDBRANCH  86  87
ENDBRANCH  54  79
BRANCH  66  91
ATOM     91  C   UNL A   1      42.108  29.834  33.389  1.00  0.00     0.058 A 
ATOM     92  C   UNL A   1      41.835  28.489  33.075  1.00  0.00     0.135 A 
ATOM     93  C   UNL A   1      42.235  30.147  34.747  1.00  0.00     0.135 A 
ATOM     94  F   UNL A   1      41.811  28.073  31.805  1.00  0.00    -0.206 F 
ATOM     95  C   UNL A   1      41.650  27.514  34.056  1.00  0.00     0.059 A 
ATOM     96  C   UNL A   1      42.083  29.185  35.747  1.00  0.00     0.059 A 
ATOM     97  F   UNL A   1      42.569  31.393  35.118  1.00  0.00    -0.206 F 
ATOM     98  C   UNL A   1      41.774  27.873  35.395  1.00  0.00     0.060 A 
BRANCH  98  99
ATOM     99  S   UNL A   1      41.598  26.598  36.663  1.00  0.00     0.124 S 
ATOM    100  O   UNL A   1      42.890  26.659  37.338  1.00  0.00    -0.237 OA
ATOM    101  O   UNL A   1      40.456  27.075  37.439  1.00  0.00    -0.237 OA
ATOM    102  O   UNL A   1      41.351  25.382  35.891  1.00  0.00    -0.744 OA
ENDBRANCH  98  99
ENDBRANCH  66  91
ENDBRANCH  40  41
ENDBRANCH  32  35
ENDBRANCH  30  31
ENDBRANCH  29  30
ENDBRANCH   1  29
TORSDOF 19
ENDMDL
MODEL 2
REMARK VINA RESULT:     -12.0      3.389      9.965
REMARK SMILES CN(C)S(=O)(=O)Nc1ccc(-n2nnc(C(=O)NCCCCNC(=O)c3ccc(-c4c5nc(c(-c6c(F)cc(S(=O)(=O)[O-])cc6F)c6ccc([nH]6)c(-c6c(F)cc(S(=O)(=O)[O-])cc6F)c6nc(c(-c7c(F)cc(S(=O)(=O)[O-])cc7F)c7ccc4[nH]7)C=C6)C=C5)cc3)c2N)cc1
REMARK SMILES IDX 20 1 19 2 18 3 16 4 17 5 15 7 12 8 13 9 92 10 14 11 11 12
REMARK SMILES IDX 8 13 9 14 95 15 10 16 94 17 7 18 4 20 5 21 6 22 2 23 1 24
REMARK SMILES IDX 3 25 93 26 21 29 22 30 23 31 24 32 25 34 26 35 27 36 91 37
REMARK SMILES IDX 28 38 90 39 29 40 30 41 31 42 84 43 32 44 89 45 83 46 85 47
REMARK SMILES IDX 33 48 88 49 82 50 81 51 34 53 68 54 47 55 67 56 48 57 51 58
REMARK SMILES IDX 66 59 86 60 49 61 50 62 65 64 87 65 52 66 35 67 36 68 45 69
REMARK SMILES IDX 37 70 38 71 44 72 46 73 39 74 40 75 41 76 42 77 43 78 69 79
REMARK SMILES IDX 70 80 79 81 71 82 72 83 78 84 80 85 73 86 74 87 75 88 76 89
REMARK SMILES IDX 77 90 53 91 54 92 63 93 55 94 56 95 62 96 64 97 57 98 58 99
REMARK SMILES IDX 59 100 60 101 61 102
REMARK H PARENT 18 6 7 19 93 27 93 28 23 33 85 52 51 63
REMARK Flexibility Score: inf
ROOT
ATOM      1  C   UNL A   1      32.391  29.937  26.587  1.00  0.00     0.023 C 
ENDROOT
BRANCH   1   2
ATOM      2  C   UNL A   1      32.078  29.414  25.187  1.00  0.00     0.116 C 
BRANCH   2   3
ATOM      3  N   UNL A   1      33.090  29.534  24.153  1.00  0.00    -0.351 N 
ATOM      4  C   UNL A   1      33.584  28.533  23.315  1.00  0.00     0.275 C 
ATOM      5  O   UNL A   1      34.443  28.842  22.491  1.00  0.00    -0.267 OA
ATOM      6  H   UNL A   1      33.475  30.432  24.027  1.00  0.00     0.163 HD
BRANCH   4   7
ATOM      7  C   UNL A   1      33.136  27.148  23.486  1.00  0.00     0.194 A 
ATOM      8  N   UNL A   1      33.051  24.995  23.910  1.00  0.00    -0.197 N 
ATOM      9  N   UNL A   1      32.280  25.240  22.822  1.00  0.00    -0.059 NA
ATOM     10  C   UNL A   1      33.531  26.207  24.427  1.00  0.00     0.161 A 
ATOM     11  N   UNL A   1      32.297  26.544  22.579  1.00  0.00    -0.122 NA
BRANCH   8  12
ATOM     12  C   UNL A   1      33.340  23.668  24.332  1.00  0.00     0.069 A 
ATOM     13  C   UNL A   1      33.832  21.043  25.183  1.00  0.00     0.050 A 
ATOM     14  C   UNL A   1      34.754  21.701  24.361  1.00  0.00     0.029 A 
ATOM     15  C   UNL A   1      32.793  21.764  25.727  1.00  0.00     0.029 A 
ATOM     16  C   UNL A   1      34.518  23.019  23.940  1.00  0.00     0.031 A 
ATOM     17  C   UNL A   1      32.472  23.002  25.197  1.00  0.00     0.031 A 
BRANCH  13  18
ATOM     18  N   UNL A   1      34.033  19.666  25.467  1.00  0.00    -0.271 N 
ATOM     19  H   UNL A   1      34.787  19.416  26.051  1.00  0.00     0.181 HD
BRANCH  18  20
ATOM     20  S   UNL A   1      33.056  18.436  24.861  1.00  0.00     0.301 S 
ATOM     21  O   UNL A   1      32.406  18.934  23.662  1.00  0.00    -0.189 OA
ATOM     22  O   UNL A   1      32.259  18.027  25.989  1.00  0.00    -0.189 OA
BRANCH  20  23
ATOM     23  N   UNL A   1      34.099  17.156  24.440  1.00  0.00    -0.191 NA
ATOM     24  C   UNL A   1      33.909  15.941  25.267  1.00  0.00     0.125 C 
ATOM     25  C   UNL A   1      34.195  16.763  23.007  1.00  0.00     0.125 C 
ENDBRANCH  20  23
ENDBRANCH  18  20
ENDBRANCH  13  18
ENDBRANCH   8  12
BRANCH  10  26
ATOM     26  N   UNL A   1      34.340  26.331  25.518  1.00  0.00    -0.382 N 
ATOM     27  H   UNL A   1      35.315  26.414  25.401  1.00  0.00     0.158 HD
ATOM     28  H   UNL A   1      33.951  26.338  26.421  1.00  0.00     0.158 HD
ENDBRANCH  10  26
ENDBRANCH   4   7
ENDBRANCH   2   3
ENDBRANCH   1   2
BRANCH   1  29
ATOM     29  C   UNL A   1      33.630  29.415  27.309  1.00  0.00     0.023 C 
BRANCH  29  30
ATOM     30  C   UNL A   1      34.865  30.295  27.216  1.00  0.00     0.116 C 
BRANCH  30  31
ATOM     31  N   UNL A   1      34.778  31.610  27.876  1.00  0.00    -0.352 N 
ATOM     32  C   UNL A   1      35.352  31.961  29.104  1.00  0.00     0.251 C 
ATOM     33  H   UNL A   1      34.267  32.310  27.409  1.00  0.00     0.163 HD
ATOM     34  O   UNL A   1      34.993  32.948  29.731  1.00  0.00    -0.269 OA
BRANCH  32  35
ATOM     35  C   UNL A   1      36.460  31.111  29.585  1.00  0.00     0.039 A 
ATOM     36  C   UNL A   1      36.370  29.745  29.866  1.00  0.00     0.014 A 
ATOM     37  C   UNL A   1      37.683  31.755  29.576  1.00  0.00     0.014 A 
ATOM     38  C   UNL A   1      37.561  29.040  30.064  1.00  0.00     0.010 A 
ATOM     39  C   UNL A   1      38.792  31.004  29.369  1.00  0.00     0.010 A 
ATOM     40  C   UNL A   1      38.774  29.692  29.798  1.00  0.00    -0.014 A 
BRANCH  40  41
ATOM     41  C   UNL A   1      40.092  29.098  29.926  1.00  0.00     0.031 A 
ATOM     42  C   UNL A   1      40.536  28.841  31.311  1.00  0.00     0.074 A 
ATOM     43  C   UNL A   1      40.744  28.596  28.849  1.00  0.00     0.049 A 
ATOM     44  N   UNL A   1      41.395  29.529  31.982  1.00  0.00    -0.248 NA
ATOM     45  C   UNL A   1      39.842  27.817  32.104  1.00  0.00     0.031 C 
ATOM     46  C   UNL A   1      40.321  28.518  27.438  1.00  0.00     0.029 A 
ATOM     47  N   UNL A   1      41.948  27.973  28.818  1.00  0.00    -0.354 N 
ATOM     48  C   UNL A   1      41.533  28.882  33.204  1.00  0.00     0.074 A 
ATOM     49  C   UNL A   1      40.418  27.974  33.299  1.00  0.00     0.031 C 
ATOM     50  C   UNL A   1      41.153  27.706  26.748  1.00  0.00     0.029 A 
ATOM     51  C   UNL A   1      42.264  27.359  27.611  1.00  0.00     0.049 A 
ATOM     52  H   UNL A   1      42.553  27.957  29.594  1.00  0.00     0.167 HD
ATOM     53  C   UNL A   1      42.685  28.985  33.924  1.00  0.00     0.037 A 
ATOM     54  C   UNL A   1      43.380  26.637  27.341  1.00  0.00     0.037 A 
ATOM     55  C   UNL A   1      43.548  30.004  33.372  1.00  0.00     0.049 A 
ATOM     56  C   UNL A   1      44.406  27.089  28.323  1.00  0.00     0.074 A 
ATOM     57  C   UNL A   1      43.436  31.369  33.188  1.00  0.00     0.029 A 
ATOM     58  N   UNL A   1      44.549  29.595  32.519  1.00  0.00    -0.354 N 
ATOM     59  N   UNL A   1      44.888  28.306  28.333  1.00  0.00    -0.248 NA
ATOM     60  C   UNL A   1      44.484  26.383  29.594  1.00  0.00     0.031 C 
ATOM     61  C   UNL A   1      44.005  31.614  31.902  1.00  0.00     0.029 A 
ATOM     62  C   UNL A   1      44.505  30.408  31.411  1.00  0.00     0.049 A 
ATOM     63  H   UNL A   1      45.179  28.854  32.673  1.00  0.00     0.167 HD
ATOM     64  C   UNL A   1      44.943  28.667  29.673  1.00  0.00     0.074 A 
ATOM     65  C   UNL A   1      44.742  27.415  30.407  1.00  0.00     0.031 C 
ATOM     66  C   UNL A   1      44.847  29.974  30.070  1.00  0.00     0.037 A 
BRANCH  53  67
ATOM     67  C   UNL A   1      43.198  27.956  34.895  1.00  0.00     0.058 A 
ATOM     68  C   UNL A   1      43.470  28.342  36.224  1.00  0.00     0.135 A 
ATOM     69  C   UNL A   1      43.687  26.689  34.513  1.00  0.00     0.135 A 
ATOM     70  F   UNL A   1      43.044  29.527  36.692  1.00  0.00    -0.206 F 
ATOM     71  C   UNL A   1      44.242  27.562  37.083  1.00  0.00     0.059 A 
ATOM     72  C   UNL A   1      44.415  25.872  35.370  1.00  0.00     0.059 A 
ATOM     73  F   UNL A   1      43.568  26.227  33.261  1.00  0.00    -0.206 F 
ATOM     74  C   UNL A   1      44.726  26.336  36.638  1.00  0.00     0.060 A 
BRANCH  74  75
ATOM     75  S   UNL A   1      45.824  25.385  37.704  1.00  0.00     0.124 S 
ATOM     76  O   UNL A   1      46.507  26.446  38.436  1.00  0.00    -0.237 OA
ATOM     77  O   UNL A   1      44.878  24.584  38.472  1.00  0.00    -0.237 OA
ATOM     78  O   UNL A   1      46.648  24.640  36.757  1.00  0.00    -0.744 OA
ENDBRANCH  74  75
ENDBRANCH  53  67
BRANCH  54  79
ATOM     79  C   UNL A   1      43.455  25.359  26.579  1.00  0.00     0.058 A 
ATOM     80  C   UNL A   1      44.267  25.219  25.441  1.00  0.00     0.135 A 
ATOM     81  C   UNL A   1      42.931  24.163  27.116  1.00  0.00     0.135 A 
ATOM     82  F   UNL A   1      44.822  26.300  24.872  1.00  0.00    -0.206 F 
ATOM     83  C   UNL A   1      44.580  23.965  24.895  1.00  0.00     0.059 A 
ATOM     84  C   UNL A   1      43.227  22.905  26.588  1.00  0.00     0.059 A 
ATOM     85  F   UNL A   1      42.184  24.175  28.230  1.00  0.00    -0.206 F 
ATOM     86  C   UNL A   1      44.072  22.810  25.490  1.00  0.00     0.060 A 
BRANCH  86  87
ATOM     87  S   UNL A   1      44.612  21.185  24.903  1.00  0.00     0.124 S 
ATOM     88  O   UNL A   1      43.576  20.310  25.439  1.00  0.00    -0.237 OA
ATOM     89  O   UNL A   1      44.610  21.364  23.455  1.00  0.00    -0.237 OA
ATOM     90  O   UNL A   1      45.934  21.030  25.505  1.00  0.00    -0.744 OA
ENDBRANCH  86  87
ENDBRANCH  54  79
BRANCH  66  91
ATOM     91  C   UNL A   1      44.875  31.042  28.999  1.00  0.00     0.058 A 
ATOM     92  C   UNL A   1      46.051  31.492  28.369  1.00  0.00     0.135 A 
ATOM     93  C   UNL A   1      43.665  31.511  28.475  1.00  0.00     0.135 A 
ATOM     94  F   UNL A   1      47.246  31.010  28.724  1.00  0.00    -0.206 F 
ATOM     95  C   UNL A   1      46.031  32.396  27.305  1.00  0.00     0.059 A 
ATOM     96  C   UNL A   1      43.616  32.394  27.395  1.00  0.00     0.059 A 
ATOM     97  F   UNL A   1      42.501  31.066  28.976  1.00  0.00    -0.206 F 
ATOM     98  C   UNL A   1      44.805  32.845  26.825  1.00  0.00     0.060 A 
BRANCH  98  99
ATOM     99  S   UNL A   1      44.777  33.966  25.408  1.00  0.00     0.124 S 
ATOM    100  O   UNL A   1      44.239  33.111  24.354  1.00  0.00    -0.237 OA
ATOM    101  O   UNL A   1      43.896  35.037  25.865  1.00  0.00    -0.237 OA
ATOM    102  O   UNL A   1      46.178  34.348  25.249  1.00  0.00    -0.744 OA
ENDBRANCH  98  99
ENDBRANCH  66  91
ENDBRANCH  40  41
ENDBRANCH  32  35
ENDBRANCH  30  31
ENDBRANCH  29  30
ENDBRANCH   1  29
TORSDOF 19
ENDMDL
MODEL 3
REMARK VINA RESULT:     -11.7      4.891      9.040
REMARK SMILES CN(C)S(=O)(=O)Nc1ccc(-n2nnc(C(=O)NCCCCNC(=O)c3ccc(-c4c5nc(c(-c6c(F)cc(S(=O)(=O)[O-])cc6F)c6ccc([nH]6)c(-c6c(F)cc(S(=O)(=O)[O-])cc6F)c6nc(c(-c7c(F)cc(S(=O)(=O)[O-])cc7F)c7ccc4[nH]7)C=C6)C=C5)cc3)c2N)cc1
REMARK SMILES IDX 20 1 19 2 18 3 16 4 17 5 15 7 12 8 13 9 92 10 14 11 11 12
REMARK SMILES IDX 8 13 9 14 95 15 10 16 94 17 7 18 4 20 5 21 6 22 2 23 1 24
REMARK SMILES IDX 3 25 93 26 21 29 22 30 23 31 24 32 25 34 26 35 27 36 91 37
REMARK SMILES IDX 28 38 90 39 29 40 30 41 31 42 84 43 32 44 89 45 83 46 85 47
REMARK SMILES IDX 33 48 88 49 82 50 81 51 34 53 68 54 47 55 67 56 48 57 51 58
REMARK SMILES IDX 66 59 86 60 49 61 50 62 65 64 87 65 52 66 35 67 36 68 45 69
REMARK SMILES IDX 37 70 38 71 44 72 46 73 39 74 40 75 41 76 42 77 43 78 69 79
REMARK SMILES IDX 70 80 79 81 71 82 72 83 78 84 80 85 73 86 74 87 75 88 76 89
REMARK SMILES IDX 77 90 53 91 54 92 63 93 55 94 56 95 62 96 64 97 57 98 58 99
REMARK SMILES IDX 59 100 60 101 61 102
REMARK H PARENT 18 6 7 19 93 27 93 28 23 33 85 52 51 63
REMARK Flexibility Score: inf
ROOT
ATOM      1  C   UNL A   1      43.211  25.387  25.366  1.00  0.00     0.023 C 
ENDROOT
BRANCH   1   2
ATOM      2  C   UNL A   1      44.441  26.252  25.629  1.00  0.00     0.116 C 
BRANCH   2   3
ATOM      3  N   UNL A   1      45.680  25.933  24.941  1.00  0.00    -0.351 N 
ATOM      4  C   UNL A   1      46.930  25.671  25.503  1.00  0.00     0.275 C 
ATOM      5  O   UNL A   1      47.862  25.411  24.742  1.00  0.00    -0.267 OA
ATOM      6  H   UNL A   1      45.631  25.896  23.958  1.00  0.00     0.163 HD
BRANCH   4   7
ATOM      7  C   UNL A   1      47.121  25.788  26.951  1.00  0.00     0.194 A 
ATOM      8  N   UNL A   1      46.832  25.748  29.127  1.00  0.00    -0.197 N 
ATOM      9  N   UNL A   1      47.546  26.858  28.819  1.00  0.00    -0.059 NA
ATOM     10  C   UNL A   1      46.632  24.982  27.970  1.00  0.00     0.161 A 
ATOM     11  N   UNL A   1      47.756  26.873  27.509  1.00  0.00    -0.122 NA
BRANCH   8  12
ATOM     12  C   UNL A   1      46.331  25.527  30.441  1.00  0.00     0.069 A 
ATOM     13  C   UNL A   1      45.288  25.044  32.997  1.00  0.00     0.050 A 
ATOM     14  C   UNL A   1      46.574  25.576  32.851  1.00  0.00     0.029 A 
ATOM     15  C   UNL A   1      44.475  24.955  31.889  1.00  0.00     0.029 A 
ATOM     16  C   UNL A   1      47.099  25.829  31.573  1.00  0.00     0.031 A 
ATOM     17  C   UNL A   1      45.033  25.053  30.626  1.00  0.00     0.031 A 
BRANCH  13  18
ATOM     18  N   UNL A   1      44.850  24.667  34.294  1.00  0.00    -0.271 N 
ATOM     19  H   UNL A   1      44.213  25.256  34.761  1.00  0.00     0.181 HD
BRANCH  18  20
ATOM     20  S   UNL A   1      45.360  23.267  35.079  1.00  0.00     0.301 S 
ATOM     21  O   UNL A   1      46.498  22.738  34.351  1.00  0.00    -0.189 OA
ATOM     22  O   UNL A   1      44.162  22.476  35.208  1.00  0.00    -0.189 OA
BRANCH  20  23
ATOM     23  N   UNL A   1      45.866  23.745  36.635  1.00  0.00    -0.191 NA
ATOM     24  C   UNL A   1      45.823  22.651  37.633  1.00  0.00     0.125 C 
ATOM     25  C   UNL A   1      47.155  24.478  36.766  1.00  0.00     0.125 C 
ENDBRANCH  20  23
ENDBRANCH  18  20
ENDBRANCH  13  18
ENDBRANCH   8  12
BRANCH  10  26
ATOM     26  N   UNL A   1      45.949  23.803  27.915  1.00  0.00    -0.382 N 
ATOM     27  H   UNL A   1      46.122  23.167  27.182  1.00  0.00     0.158 HD
ATOM     28  H   UNL A   1      45.286  23.585  28.608  1.00  0.00     0.158 HD
ENDBRANCH  10  26
ENDBRANCH   4   7
ENDBRANCH   2   3
ENDBRANCH   1   2
BRANCH   1  29
ATOM     29  C   UNL A   1      43.407  23.952  24.883  1.00  0.00     0.023 C 
BRANCH  29  30
ATOM     30  C   UNL A   1      42.852  22.870  25.794  1.00  0.00     0.116 C 
BRANCH  30  31
ATOM     31  N   UNL A   1      41.435  22.515  25.593  1.00  0.00    -0.352 N 
ATOM     32  C   UNL A   1      40.376  22.805  26.461  1.00  0.00     0.251 C 
ATOM     33  H   UNL A   1      41.212  22.027  24.767  1.00  0.00     0.163 HD
ATOM     34  O   UNL A   1      39.300  22.227  26.389  1.00  0.00    -0.269 OA
BRANCH  32  35
ATOM     35  C   UNL A   1      40.598  23.888  27.439  1.00  0.00     0.039 A 
ATOM     36  C   UNL A   1      41.660  23.958  28.345  1.00  0.00     0.014 A 
ATOM     37  C   UNL A   1      39.737  24.957  27.272  1.00  0.00     0.014 A 
ATOM     38  C   UNL A   1      41.865  25.166  29.018  1.00  0.00     0.010 A 
ATOM     39  C   UNL A   1      40.186  26.190  27.610  1.00  0.00     0.010 A 
ATOM     40  C   UNL A   1      41.116  26.284  28.626  1.00  0.00    -0.014 A 
BRANCH  40  41
ATOM     41  C   UNL A   1      41.226  27.612  29.201  1.00  0.00     0.031 A 
ATOM     42  C   UNL A   1      42.237  28.488  28.573  1.00  0.00     0.074 A 
ATOM     43  C   UNL A   1      40.303  28.079  30.075  1.00  0.00     0.049 A 
ATOM     44  N   UNL A   1      43.394  28.793  29.052  1.00  0.00    -0.248 NA
ATOM     45  C   UNL A   1      42.023  28.949  27.194  1.00  0.00     0.031 C 
ATOM     46  C   UNL A   1      39.079  27.437  30.591  1.00  0.00     0.029 A 
ATOM     47  N   UNL A   1      40.245  29.303  30.654  1.00  0.00    -0.354 N 
ATOM     48  C   UNL A   1      43.961  29.682  28.148  1.00  0.00     0.074 A 
ATOM     49  C   UNL A   1      43.175  29.577  26.945  1.00  0.00     0.031 C 
ATOM     50  C   UNL A   1      38.310  28.348  31.228  1.00  0.00     0.029 A 
ATOM     51  C   UNL A   1      39.062  29.582  31.329  1.00  0.00     0.049 A 
ATOM     52  H   UNL A   1      40.988  29.947  30.601  1.00  0.00     0.167 HD
ATOM     53  C   UNL A   1      44.887  30.596  28.552  1.00  0.00     0.037 A 
ATOM     54  C   UNL A   1      38.740  30.746  31.948  1.00  0.00     0.037 A 
ATOM     55  C   UNL A   1      45.326  30.323  29.901  1.00  0.00     0.049 A 
ATOM     56  C   UNL A   1      40.037  31.414  32.258  1.00  0.00     0.074 A 
ATOM     57  C   UNL A   1      45.974  29.265  30.510  1.00  0.00     0.029 A 
ATOM     58  N   UNL A   1      44.723  31.025  30.920  1.00  0.00    -0.354 N 
ATOM     59  N   UNL A   1      40.908  30.913  33.096  1.00  0.00    -0.248 NA
ATOM     60  C   UNL A   1      40.589  32.317  31.257  1.00  0.00     0.031 C 
ATOM     61  C   UNL A   1      45.317  29.106  31.768  1.00  0.00     0.029 A 
ATOM     62  C   UNL A   1      44.367  30.121  31.893  1.00  0.00     0.049 A 
ATOM     63  H   UNL A   1      44.573  31.998  30.947  1.00  0.00     0.167 HD
ATOM     64  C   UNL A   1      42.145  31.094  32.489  1.00  0.00     0.074 A 
ATOM     65  C   UNL A   1      41.889  32.025  31.387  1.00  0.00     0.031 C 
ATOM     66  C   UNL A   1      43.198  30.256  32.740  1.00  0.00     0.037 A 
BRANCH  53  67
ATOM     67  C   UNL A   1      45.144  31.924  27.892  1.00  0.00     0.058 A 
ATOM     68  C   UNL A   1      46.403  32.166  27.305  1.00  0.00     0.135 A 
ATOM     69  C   UNL A   1      44.312  33.053  28.047  1.00  0.00     0.135 A 
ATOM     70  F   UNL A   1      47.269  31.159  27.105  1.00  0.00    -0.206 F 
ATOM     71  C   UNL A   1      46.835  33.449  26.974  1.00  0.00     0.059 A 
ATOM     72  C   UNL A   1      44.703  34.334  27.676  1.00  0.00     0.059 A 
ATOM     73  F   UNL A   1      43.122  32.983  28.657  1.00  0.00    -0.206 F 
ATOM     74  C   UNL A   1      45.983  34.529  27.181  1.00  0.00     0.060 A 
BRANCH  74  75
ATOM     75  S   UNL A   1      46.586  36.197  26.869  1.00  0.00     0.124 S 
ATOM     76  O   UNL A   1      45.336  36.936  26.728  1.00  0.00    -0.237 OA
ATOM     77  O   UNL A   1      47.357  36.470  28.078  1.00  0.00    -0.237 OA
ATOM     78  O   UNL A   1      47.373  36.047  25.649  1.00  0.00    -0.744 OA
ENDBRANCH  74  75
ENDBRANCH  53  67
BRANCH  54  79
ATOM     79  C   UNL A   1      37.426  31.444  31.912  1.00  0.00     0.058 A 
ATOM     80  C   UNL A   1      36.730  31.781  33.086  1.00  0.00     0.135 A 
ATOM     81  C   UNL A   1      36.950  32.036  30.722  1.00  0.00     0.135 A 
ATOM     82  F   UNL A   1      37.122  31.280  34.268  1.00  0.00    -0.206 F 
ATOM     83  C   UNL A   1      35.660  32.687  33.088  1.00  0.00     0.059 A 
ATOM     84  C   UNL A   1      35.885  32.937  30.699  1.00  0.00     0.059 A 
ATOM     85  F   UNL A   1      37.568  31.823  29.551  1.00  0.00    -0.206 F 
ATOM     86  C   UNL A   1      35.258  33.278  31.890  1.00  0.00     0.060 A 
BRANCH  86  87
ATOM     87  S   UNL A   1      33.997  34.578  31.908  1.00  0.00     0.124 S 
ATOM     88  O   UNL A   1      33.531  34.566  30.527  1.00  0.00    -0.237 OA
ATOM     89  O   UNL A   1      33.054  34.079  32.904  1.00  0.00    -0.237 OA
ATOM     90  O   UNL A   1      34.744  35.768  32.305  1.00  0.00    -0.744 OA
ENDBRANCH  86  87
ENDBRANCH  54  79
BRANCH  66  91
ATOM     91  C   UNL A   1      43.042  29.236  33.846  1.00  0.00     0.058 A 
ATOM     92  C   UNL A   1      43.139  29.543  35.217  1.00  0.00     0.135 A 
ATOM     93  C   UNL A   1      42.621  27.941  33.523  1.00  0.00     0.135 A 
ATOM     94  F   UNL A   1      43.422  30.785  35.623  1.00  0.00    -0.206 F 
ATOM     95  C   UNL A   1      42.878  28.603  36.215  1.00  0.00     0.059 A 
ATOM     96  C   UNL A   1      42.327  26.991  34.502  1.00  0.00     0.059 A 
ATOM     97  F   UNL A   1      42.433  27.599  32.238  1.00  0.00    -0.206 F 
ATOM     98  C   UNL A   1      42.474  27.324  35.847  1.00  0.00     0.060 A 
BRANCH  98  99
ATOM     99  S   UNL A   1      42.074  26.126  37.140  1.00  0.00     0.124 S 
ATOM    100  O   UNL A   1      40.663  26.405  37.389  1.00  0.00    -0.237 OA
ATOM    101  O   UNL A   1      42.361  24.849  36.491  1.00  0.00    -0.237 OA
ATOM    102  O   UNL A   1      42.984  26.482  38.226  1.00  0.00    -0.744 OA
ENDBRANCH  98  99
ENDBRANCH  66  91
ENDBRANCH  40  41
ENDBRANCH  32  35
ENDBRANCH  30  31
ENDBRANCH  29  30
ENDBRANCH   1  29
TORSDOF 19
ENDMDL
