MODEL 1
REMARK VINA RESULT:     -12.9      0.000      0.000
REMARK SMILES C[C@@H]1[C@H](C(=O)NCCCCNC(=O)c2ccc(-c3c4nc(c(-c5c(F)cc(S(=O)(=O)[O-])cc5F)c5ccc([nH]5)c(-c5c(F)cc(S(=O)(=O)[O-])cc5F)c5nc(c(-c6c(F)cc(S(=O)(=O)[O-])cc6F)c6ccc3[nH]6)C=C5)C=C4)cc2)CC[N@@H+]1Cc1cnn(-c2ccccc2)c1
REMARK SMILES IDX 8 1 7 2 6 3 4 4 5 5 3 7 1 8 2 9 82 10 80 11 81 12 83 14
REMARK SMILES IDX 84 15 85 16 94 17 86 18 87 19 88 20 89 21 93 22 90 23 92 24
REMARK SMILES IDX 91 25 9 26 10 27 11 28 12 29 13 31 14 32 15 33 79 34 16 35
REMARK SMILES IDX 78 36 17 37 18 38 19 39 72 40 20 41 77 42 71 43 73 44 21 45
REMARK SMILES IDX 76 46 70 47 69 48 22 50 56 51 35 52 55 53 36 54 39 55 54 56
REMARK SMILES IDX 74 57 37 58 38 59 53 61 75 62 40 63 23 64 24 65 33 66 25 67
REMARK SMILES IDX 26 68 32 69 34 70 27 71 28 72 29 73 30 74 31 75 57 76 58 77
REMARK SMILES IDX 67 78 59 79 60 80 66 81 68 82 61 83 62 84 63 85 64 86 65 87
REMARK SMILES IDX 41 88 42 89 51 90 43 91 44 92 50 93 52 94 45 95 46 96 47 97
REMARK SMILES IDX 48 98 49 99
REMARK H PARENT 6 6 82 13 11 30 73 49 39 60
REMARK Flexibility Score: inf
ROOT
ATOM      1  C   UNL A   1      33.306  29.346  24.916  1.00  0.00     0.023 C 
ENDROOT
BRANCH   1   2
ATOM      2  C   UNL A   1      33.320  29.233  23.396  1.00  0.00     0.116 C 
BRANCH   2   3
ATOM      3  N   UNL A   1      32.047  28.779  22.885  1.00  0.00    -0.356 N 
ATOM      4  C   UNL A   1      31.659  27.553  22.452  1.00  0.00     0.229 C 
ATOM      5  O   UNL A   1      30.521  27.461  21.979  1.00  0.00    -0.275 OA
ATOM      6  H   UNL A   1      31.348  29.471  22.843  1.00  0.00     0.163 HD
BRANCH   4   7
ATOM      7  C   UNL A   1      32.534  26.309  22.537  1.00  0.00     0.142 C 
ATOM      8  C   UNL A   1      31.018  25.389  24.487  1.00  0.00     0.076 C 
ATOM      9  C   UNL A   1      32.238  25.227  23.597  1.00  0.00     0.193 C 
ATOM     10  N   UNL A   1      32.346  23.981  22.852  1.00  0.00    -0.328 N 
ATOM     11  C   UNL A   1      32.755  25.567  21.215  1.00  0.00     0.081 C 
ATOM     12  C   UNL A   1      33.108  24.152  21.639  1.00  0.00     0.263 C 
ATOM     13  H   UNL A   1      32.603  23.305  23.572  1.00  0.00     0.348 HD
BRANCH  10  14
ATOM     14  C   UNL A   1      31.623  22.767  23.125  1.00  0.00     0.302 C 
BRANCH  14  15
ATOM     15  C   UNL A   1      32.496  21.705  23.709  1.00  0.00     0.045 A 
ATOM     16  C   UNL A   1      33.742  21.853  24.352  1.00  0.00     0.145 A 
ATOM     17  C   UNL A   1      32.249  20.347  23.815  1.00  0.00     0.124 A 
ATOM     18  N   UNL A   1      34.224  20.711  24.839  1.00  0.00    -0.176 NA
ATOM     19  N   UNL A   1      33.316  19.771  24.475  1.00  0.00    -0.240 N 
BRANCH  19  20
ATOM     20  C   UNL A   1      33.546  18.393  24.731  1.00  0.00     0.065 A 
ATOM     21  C   UNL A   1      32.584  17.653  25.432  1.00  0.00     0.028 A 
ATOM     22  C   UNL A   1      34.745  17.775  24.344  1.00  0.00     0.028 A 
ATOM     23  C   UNL A   1      32.817  16.309  25.732  1.00  0.00     0.002 A 
ATOM     24  C   UNL A   1      34.990  16.444  24.695  1.00  0.00     0.002 A 
ATOM     25  C   UNL A   1      34.024  15.710  25.381  1.00  0.00     0.000 A 
ENDBRANCH  19  20
ENDBRANCH  14  15
ENDBRANCH  10  14
ENDBRANCH   4   7
ENDBRANCH   2   3
ENDBRANCH   1   2
BRANCH   1  26
ATOM     26  C   UNL A   1      33.869  28.172  25.692  1.00  0.00     0.023 C 
BRANCH  26  27
ATOM     27  C   UNL A   1      33.973  28.379  27.189  1.00  0.00     0.116 C 
BRANCH  27  28
ATOM     28  N   UNL A   1      33.625  29.719  27.647  1.00  0.00    -0.352 N 
ATOM     29  C   UNL A   1      34.463  30.669  28.191  1.00  0.00     0.251 C 
ATOM     30  H   UNL A   1      32.678  29.975  27.559  1.00  0.00     0.163 HD
ATOM     31  O   UNL A   1      34.099  31.808  28.428  1.00  0.00    -0.269 OA
BRANCH  29  32
ATOM     32  C   UNL A   1      35.847  30.275  28.478  1.00  0.00     0.039 A 
ATOM     33  C   UNL A   1      36.173  29.740  29.726  1.00  0.00     0.014 A 
ATOM     34  C   UNL A   1      36.794  30.380  27.460  1.00  0.00     0.014 A 
ATOM     35  C   UNL A   1      37.469  29.277  29.947  1.00  0.00     0.010 A 
ATOM     36  C   UNL A   1      38.045  29.825  27.647  1.00  0.00     0.010 A 
ATOM     37  C   UNL A   1      38.406  29.307  28.903  1.00  0.00    -0.014 A 
BRANCH  37  38
ATOM     38  C   UNL A   1      39.824  28.937  29.097  1.00  0.00     0.031 A 
ATOM     39  C   UNL A   1      40.771  30.015  29.550  1.00  0.00     0.074 A 
ATOM     40  C   UNL A   1      40.267  27.711  28.766  1.00  0.00     0.049 A 
ATOM     41  N   UNL A   1      42.076  30.024  29.561  1.00  0.00    -0.248 NA
ATOM     42  C   UNL A   1      40.157  31.280  29.994  1.00  0.00     0.031 C 
ATOM     43  C   UNL A   1      39.435  26.603  28.295  1.00  0.00     0.029 A 
ATOM     44  N   UNL A   1      41.539  27.204  28.750  1.00  0.00    -0.354 N 
ATOM     45  C   UNL A   1      42.436  31.304  29.965  1.00  0.00     0.074 A 
ATOM     46  C   UNL A   1      41.216  32.062  30.129  1.00  0.00     0.031 C 
ATOM     47  C   UNL A   1      40.220  25.543  28.041  1.00  0.00     0.029 A 
ATOM     48  C   UNL A   1      41.610  25.911  28.287  1.00  0.00     0.049 A 
ATOM     49  H   UNL A   1      42.327  27.716  29.042  1.00  0.00     0.167 HD
ATOM     50  C   UNL A   1      43.674  31.796  30.201  1.00  0.00     0.037 A 
ATOM     51  C   UNL A   1      42.685  25.128  28.073  1.00  0.00     0.037 A 
ATOM     52  C   UNL A   1      44.869  31.005  30.082  1.00  0.00     0.049 A 
ATOM     53  C   UNL A   1      44.053  25.685  28.368  1.00  0.00     0.074 A 
ATOM     54  C   UNL A   1      46.174  31.369  30.350  1.00  0.00     0.029 A 
ATOM     55  N   UNL A   1      44.896  29.679  29.671  1.00  0.00    -0.354 N 
ATOM     56  N   UNL A   1      44.384  26.889  28.775  1.00  0.00    -0.248 NA
ATOM     57  C   UNL A   1      45.193  24.779  28.183  1.00  0.00     0.031 C 
ATOM     58  C   UNL A   1      46.996  30.274  30.067  1.00  0.00     0.029 A 
ATOM     59  C   UNL A   1      46.196  29.210  29.673  1.00  0.00     0.049 A 
ATOM     60  H   UNL A   1      44.105  29.151  29.416  1.00  0.00     0.167 HD
ATOM     61  C   UNL A   1      45.765  26.873  28.930  1.00  0.00     0.074 A 
ATOM     62  C   UNL A   1      46.206  25.538  28.577  1.00  0.00     0.031 C 
ATOM     63  C   UNL A   1      46.597  27.868  29.332  1.00  0.00     0.037 A 
BRANCH  50  64
ATOM     64  C   UNL A   1      43.784  33.239  30.612  1.00  0.00     0.058 A 
ATOM     65  C   UNL A   1      44.053  34.257  29.682  1.00  0.00     0.135 A 
ATOM     66  C   UNL A   1      43.621  33.612  31.955  1.00  0.00     0.135 A 
ATOM     67  F   UNL A   1      44.240  33.958  28.386  1.00  0.00    -0.206 F 
ATOM     68  C   UNL A   1      44.196  35.584  30.073  1.00  0.00     0.059 A 
ATOM     69  C   UNL A   1      43.726  34.939  32.365  1.00  0.00     0.059 A 
ATOM     70  F   UNL A   1      43.367  32.682  32.890  1.00  0.00    -0.206 F 
ATOM     71  C   UNL A   1      44.031  35.915  31.418  1.00  0.00     0.060 A 
BRANCH  71  72
ATOM     72  S   UNL A   1      44.216  37.642  31.908  1.00  0.00     0.124 S 
ATOM     73  O   UNL A   1      45.664  37.747  32.064  1.00  0.00    -0.237 OA
ATOM     74  O   UNL A   1      43.648  38.353  30.767  1.00  0.00    -0.237 OA
ATOM     75  O   UNL A   1      43.445  37.729  33.145  1.00  0.00    -0.744 OA
ENDBRANCH  71  72
ENDBRANCH  50  64
BRANCH  51  76
ATOM     76  C   UNL A   1      42.505  23.733  27.589  1.00  0.00     0.058 A 
ATOM     77  C   UNL A   1      42.465  23.452  26.214  1.00  0.00     0.135 A 
ATOM     78  C   UNL A   1      42.400  22.652  28.477  1.00  0.00     0.135 A 
ATOM     79  F   UNL A   1      42.558  24.452  25.325  1.00  0.00    -0.206 F 
ATOM     80  C   UNL A   1      42.313  22.156  25.737  1.00  0.00     0.059 A 
ATOM     81  C   UNL A   1      42.272  21.342  28.024  1.00  0.00     0.059 A 
ATOM     82  F   UNL A   1      42.451  22.863  29.802  1.00  0.00    -0.206 F 
ATOM     83  C   UNL A   1      42.222  21.104  26.652  1.00  0.00     0.060 A 
BRANCH  83  84
ATOM     84  S   UNL A   1      42.085  19.418  26.018  1.00  0.00     0.124 S 
ATOM     85  O   UNL A   1      42.945  19.476  24.841  1.00  0.00    -0.237 OA
ATOM     86  O   UNL A   1      42.587  18.629  27.138  1.00  0.00    -0.237 OA
ATOM     87  O   UNL A   1      40.657  19.276  25.750  1.00  0.00    -0.744 OA
ENDBRANCH  83  84
ENDBRANCH  51  76
BRANCH  63  88
ATOM     88  C   UNL A   1      48.056  27.533  29.466  1.00  0.00     0.058 A 
ATOM     89  C   UNL A   1      48.953  27.684  28.399  1.00  0.00     0.135 A 
ATOM     90  C   UNL A   1      48.569  27.110  30.704  1.00  0.00     0.135 A 
ATOM     91  F   UNL A   1      48.511  28.082  27.195  1.00  0.00    -0.206 F 
ATOM     92  C   UNL A   1      50.307  27.403  28.546  1.00  0.00     0.059 A 
ATOM     93  C   UNL A   1      49.924  26.852  30.881  1.00  0.00     0.059 A 
ATOM     94  F   UNL A   1      47.753  26.964  31.760  1.00  0.00    -0.206 F 
ATOM     95  C   UNL A   1      50.783  26.988  29.792  1.00  0.00     0.060 A 
BRANCH  95  96
ATOM     96  S   UNL A   1      52.546  26.655  29.978  1.00  0.00     0.124 S 
ATOM     97  O   UNL A   1      53.057  27.973  30.338  1.00  0.00    -0.237 OA
ATOM     98  O   UNL A   1      52.565  25.655  31.042  1.00  0.00    -0.237 OA
ATOM     99  O   UNL A   1      52.940  26.167  28.660  1.00  0.00    -0.744 OA
ENDBRANCH  95  96
ENDBRANCH  63  88
ENDBRANCH  37  38
ENDBRANCH  29  32
ENDBRANCH  27  28
ENDBRANCH  26  27
ENDBRANCH   1  26
TORSDOF 17
ENDMDL
MODEL 2
REMARK VINA RESULT:     -12.2      2.337      3.251
REMARK SMILES C[C@@H]1[C@H](C(=O)NCCCCNC(=O)c2ccc(-c3c4nc(c(-c5c(F)cc(S(=O)(=O)[O-])cc5F)c5ccc([nH]5)c(-c5c(F)cc(S(=O)(=O)[O-])cc5F)c5nc(c(-c6c(F)cc(S(=O)(=O)[O-])cc6F)c6ccc3[nH]6)C=C5)C=C4)cc2)CC[N@@H+]1Cc1cnn(-c2ccccc2)c1
REMARK SMILES IDX 8 1 7 2 6 3 4 4 5 5 3 7 1 8 2 9 82 10 80 11 81 12 83 14
REMARK SMILES IDX 84 15 85 16 94 17 86 18 87 19 88 20 89 21 93 22 90 23 92 24
REMARK SMILES IDX 91 25 9 26 10 27 11 28 12 29 13 31 14 32 15 33 79 34 16 35
REMARK SMILES IDX 78 36 17 37 18 38 19 39 72 40 20 41 77 42 71 43 73 44 21 45
REMARK SMILES IDX 76 46 70 47 69 48 22 50 56 51 35 52 55 53 36 54 39 55 54 56
REMARK SMILES IDX 74 57 37 58 38 59 53 61 75 62 40 63 23 64 24 65 33 66 25 67
REMARK SMILES IDX 26 68 32 69 34 70 27 71 28 72 29 73 30 74 31 75 57 76 58 77
REMARK SMILES IDX 67 78 59 79 60 80 66 81 68 82 61 83 62 84 63 85 64 86 65 87
REMARK SMILES IDX 41 88 42 89 51 90 43 91 44 92 50 93 52 94 45 95 46 96 47 97
REMARK SMILES IDX 48 98 49 99
REMARK H PARENT 6 6 82 13 11 30 73 49 39 60
REMARK Flexibility Score: inf
ROOT
ATOM      1  C   UNL A   1      32.880  29.659  27.109  1.00  0.00     0.023 C 
ENDROOT
BRANCH   1   2
ATOM      2  C   UNL A   1      31.761  28.897  26.409  1.00  0.00     0.116 C 
BRANCH   2   3
ATOM      3  N   UNL A   1      31.702  29.212  25.000  1.00  0.00    -0.356 N 
ATOM      4  C   UNL A   1      31.564  28.402  23.921  1.00  0.00     0.229 C 
ATOM      5  O   UNL A   1      31.632  28.936  22.808  1.00  0.00    -0.275 OA
ATOM      6  H   UNL A   1      31.776  30.171  24.789  1.00  0.00     0.163 HD
BRANCH   4   7
ATOM      7  C   UNL A   1      31.314  26.902  24.015  1.00  0.00     0.142 C 
ATOM      8  C   UNL A   1      33.884  26.513  24.453  1.00  0.00     0.076 C 
ATOM      9  C   UNL A   1      32.494  25.935  24.244  1.00  0.00     0.193 C 
ATOM     10  N   UNL A   1      31.999  25.028  25.268  1.00  0.00    -0.328 N 
ATOM     11  C   UNL A   1      30.214  26.479  24.993  1.00  0.00     0.081 C 
ATOM     12  C   UNL A   1      30.557  25.039  25.335  1.00  0.00     0.263 C 
ATOM     13  H   UNL A   1      32.535  24.177  25.100  1.00  0.00     0.348 HD
BRANCH  10  14
ATOM     14  C   UNL A   1      32.796  24.358  26.262  1.00  0.00     0.302 C 
BRANCH  14  15
ATOM     15  C   UNL A   1      33.437  23.116  25.732  1.00  0.00     0.045 A 
ATOM     16  C   UNL A   1      34.812  22.834  25.592  1.00  0.00     0.145 A 
ATOM     17  C   UNL A   1      32.833  21.939  25.327  1.00  0.00     0.124 A 
ATOM     18  N   UNL A   1      35.055  21.595  25.167  1.00  0.00    -0.176 NA
ATOM     19  N   UNL A   1      33.828  21.052  24.969  1.00  0.00    -0.240 N 
BRANCH  19  20
ATOM     20  C   UNL A   1      33.684  19.755  24.406  1.00  0.00     0.065 A 
ATOM     21  C   UNL A   1      32.530  19.447  23.674  1.00  0.00     0.028 A 
ATOM     22  C   UNL A   1      34.650  18.761  24.623  1.00  0.00     0.028 A 
ATOM     23  C   UNL A   1      32.351  18.163  23.156  1.00  0.00     0.002 A 
ATOM     24  C   UNL A   1      34.437  17.464  24.145  1.00  0.00     0.002 A 
ATOM     25  C   UNL A   1      33.294  17.168  23.405  1.00  0.00     0.000 A 
ENDBRANCH  19  20
ENDBRANCH  14  15
ENDBRANCH  10  14
ENDBRANCH   4   7
ENDBRANCH   2   3
ENDBRANCH   1   2
BRANCH   1  26
ATOM     26  C   UNL A   1      34.278  29.482  26.550  1.00  0.00     0.023 C 
BRANCH  26  27
ATOM     27  C   UNL A   1      35.344  29.156  27.576  1.00  0.00     0.116 C 
BRANCH  27  28
ATOM     28  N   UNL A   1      35.254  29.917  28.816  1.00  0.00    -0.352 N 
ATOM     29  C   UNL A   1      36.289  30.347  29.619  1.00  0.00     0.251 C 
ATOM     30  H   UNL A   1      34.346  30.150  29.117  1.00  0.00     0.163 HD
ATOM     31  O   UNL A   1      36.118  31.087  30.572  1.00  0.00    -0.269 OA
BRANCH  29  32
ATOM     32  C   UNL A   1      37.645  29.893  29.288  1.00  0.00     0.039 A 
ATOM     33  C   UNL A   1      38.106  29.981  27.972  1.00  0.00     0.014 A 
ATOM     34  C   UNL A   1      38.469  29.450  30.321  1.00  0.00     0.014 A 
ATOM     35  C   UNL A   1      39.428  29.641  27.693  1.00  0.00     0.010 A 
ATOM     36  C   UNL A   1      39.806  29.215  30.060  1.00  0.00     0.010 A 
ATOM     37  C   UNL A   1      40.286  29.269  28.740  1.00  0.00    -0.014 A 
BRANCH  37  38
ATOM     38  C   UNL A   1      41.665  28.791  28.504  1.00  0.00     0.031 A 
ATOM     39  C   UNL A   1      42.765  29.817  28.479  1.00  0.00     0.074 A 
ATOM     40  C   UNL A   1      41.905  27.501  28.208  1.00  0.00     0.049 A 
ATOM     41  N   UNL A   1      43.996  29.705  28.060  1.00  0.00    -0.248 NA
ATOM     42  C   UNL A   1      42.404  31.173  28.932  1.00  0.00     0.031 C 
ATOM     43  C   UNL A   1      40.905  26.432  28.184  1.00  0.00     0.029 A 
ATOM     44  N   UNL A   1      43.069  26.879  27.842  1.00  0.00    -0.354 N 
ATOM     45  C   UNL A   1      44.537  30.982  28.154  1.00  0.00     0.074 A 
ATOM     46  C   UNL A   1      43.487  31.863  28.609  1.00  0.00     0.031 C 
ATOM     47  C   UNL A   1      41.502  25.282  27.826  1.00  0.00     0.029 A 
ATOM     48  C   UNL A   1      42.912  25.544  27.553  1.00  0.00     0.049 A 
ATOM     49  H   UNL A   1      43.935  27.343  27.790  1.00  0.00     0.167 HD
ATOM     50  C   UNL A   1      45.807  31.378  27.905  1.00  0.00     0.037 A 
ATOM     51  C   UNL A   1      43.808  24.646  27.101  1.00  0.00     0.037 A 
ATOM     52  C   UNL A   1      46.848  30.471  27.504  1.00  0.00     0.049 A 
ATOM     53  C   UNL A   1      45.223  25.101  26.856  1.00  0.00     0.074 A 
ATOM     54  C   UNL A   1      48.185  30.738  27.280  1.00  0.00     0.029 A 
ATOM     55  N   UNL A   1      46.665  29.113  27.282  1.00  0.00    -0.354 N 
ATOM     56  N   UNL A   1      45.735  26.304  26.973  1.00  0.00    -0.248 NA
ATOM     57  C   UNL A   1      46.184  24.078  26.426  1.00  0.00     0.031 C 
ATOM     58  C   UNL A   1      48.804  29.548  26.887  1.00  0.00     0.029 A 
ATOM     59  C   UNL A   1      47.864  28.528  26.918  1.00  0.00     0.049 A 
ATOM     60  H   UNL A   1      45.808  28.637  27.371  1.00  0.00     0.167 HD
ATOM     61  C   UNL A   1      47.085  26.176  26.667  1.00  0.00     0.074 A 
ATOM     62  C   UNL A   1      47.309  24.777  26.365  1.00  0.00     0.031 C 
ATOM     63  C   UNL A   1      48.055  27.126  26.641  1.00  0.00     0.037 A 
BRANCH  50  64
ATOM     64  C   UNL A   1      46.126  32.840  28.067  1.00  0.00     0.058 A 
ATOM     65  C   UNL A   1      45.980  33.752  27.009  1.00  0.00     0.135 A 
ATOM     66  C   UNL A   1      46.585  33.337  29.296  1.00  0.00     0.135 A 
ATOM     67  F   UNL A   1      45.565  33.331  25.803  1.00  0.00    -0.206 F 
ATOM     68  C   UNL A   1      46.316  35.095  27.151  1.00  0.00     0.059 A 
ATOM     69  C   UNL A   1      46.895  34.683  29.472  1.00  0.00     0.059 A 
ATOM     70  F   UNL A   1      46.749  32.511  30.342  1.00  0.00    -0.206 F 
ATOM     71  C   UNL A   1      46.774  35.551  28.388  1.00  0.00     0.060 A 
BRANCH  71  72
ATOM     72  S   UNL A   1      47.202  37.296  28.556  1.00  0.00     0.124 S 
ATOM     73  O   UNL A   1      46.476  37.658  29.771  1.00  0.00    -0.237 OA
ATOM     74  O   UNL A   1      48.656  37.250  28.676  1.00  0.00    -0.237 OA
ATOM     75  O   UNL A   1      46.696  37.891  27.323  1.00  0.00    -0.744 OA
ENDBRANCH  71  72
ENDBRANCH  50  64
BRANCH  51  76
ATOM     76  C   UNL A   1      43.402  23.231  26.887  1.00  0.00     0.058 A 
ATOM     77  C   UNL A   1      43.166  22.381  27.978  1.00  0.00     0.135 A 
ATOM     78  C   UNL A   1      43.213  22.705  25.600  1.00  0.00     0.135 A 
ATOM     79  F   UNL A   1      43.337  22.836  29.229  1.00  0.00    -0.206 F 
ATOM     80  C   UNL A   1      42.771  21.060  27.804  1.00  0.00     0.059 A 
ATOM     81  C   UNL A   1      42.794  21.392  25.399  1.00  0.00     0.059 A 
ATOM     82  F   UNL A   1      43.408  23.480  24.521  1.00  0.00    -0.206 F 
ATOM     83  C   UNL A   1      42.584  20.575  26.508  1.00  0.00     0.060 A 
BRANCH  83  84
ATOM     84  S   UNL A   1      42.013  18.874  26.297  1.00  0.00     0.124 S 
ATOM     85  O   UNL A   1      40.676  19.079  25.749  1.00  0.00    -0.237 OA
ATOM     86  O   UNL A   1      43.005  18.330  25.376  1.00  0.00    -0.237 OA
ATOM     87  O   UNL A   1      42.064  18.333  27.652  1.00  0.00    -0.744 OA
ENDBRANCH  83  84
ENDBRANCH  51  76
BRANCH  63  88
ATOM     88  C   UNL A   1      49.454  26.672  26.332  1.00  0.00     0.058 A 
ATOM     89  C   UNL A   1      50.281  26.100  27.309  1.00  0.00     0.135 A 
ATOM     90  C   UNL A   1      49.947  26.762  25.020  1.00  0.00     0.135 A 
ATOM     91  F   UNL A   1      49.856  25.996  28.579  1.00  0.00    -0.206 F 
ATOM     92  C   UNL A   1      51.562  25.654  27.001  1.00  0.00     0.059 A 
ATOM     93  C   UNL A   1      51.213  26.295  24.684  1.00  0.00     0.059 A 
ATOM     94  F   UNL A   1      49.189  27.289  24.045  1.00  0.00    -0.206 F 
ATOM     95  C   UNL A   1      52.019  25.755  25.685  1.00  0.00     0.060 A 
BRANCH  95  96
ATOM     96  S   UNL A   1      53.671  25.145  25.293  1.00  0.00     0.124 S 
ATOM     97  O   UNL A   1      53.870  25.682  23.952  1.00  0.00    -0.237 OA
ATOM     98  O   UNL A   1      54.484  25.748  26.345  1.00  0.00    -0.237 OA
ATOM     99  O   UNL A   1      53.526  23.695  25.374  1.00  0.00    -0.744 OA
ENDBRANCH  95  96
ENDBRANCH  63  88
ENDBRANCH  37  38
ENDBRANCH  29  32
ENDBRANCH  27  28
ENDBRANCH  26  27
ENDBRANCH   1  26
TORSDOF 17
ENDMDL
MODEL 3
REMARK VINA RESULT:     -12.1      1.783      2.402
REMARK SMILES C[C@@H]1[C@H](C(=O)NCCCCNC(=O)c2ccc(-c3c4nc(c(-c5c(F)cc(S(=O)(=O)[O-])cc5F)c5ccc([nH]5)c(-c5c(F)cc(S(=O)(=O)[O-])cc5F)c5nc(c(-c6c(F)cc(S(=O)(=O)[O-])cc6F)c6ccc3[nH]6)C=C5)C=C4)cc2)CC[N@@H+]1Cc1cnn(-c2ccccc2)c1
REMARK SMILES IDX 8 1 7 2 6 3 4 4 5 5 3 7 1 8 2 9 82 10 80 11 81 12 83 14
REMARK SMILES IDX 84 15 85 16 94 17 86 18 87 19 88 20 89 21 93 22 90 23 92 24
REMARK SMILES IDX 91 25 9 26 10 27 11 28 12 29 13 31 14 32 15 33 79 34 16 35
REMARK SMILES IDX 78 36 17 37 18 38 19 39 72 40 20 41 77 42 71 43 73 44 21 45
REMARK SMILES IDX 76 46 70 47 69 48 22 50 56 51 35 52 55 53 36 54 39 55 54 56
REMARK SMILES IDX 74 57 37 58 38 59 53 61 75 62 40 63 23 64 24 65 33 66 25 67
REMARK SMILES IDX 26 68 32 69 34 70 27 71 28 72 29 73 30 74 31 75 57 76 58 77
REMARK SMILES IDX 67 78 59 79 60 80 66 81 68 82 61 83 62 84 63 85 64 86 65 87
REMARK SMILES IDX 41 88 42 89 51 90 43 91 44 92 50 93 52 94 45 95 46 96 47 97
REMARK SMILES IDX 48 98 49 99
REMARK H PARENT 6 6 82 13 11 30 73 49 39 60
REMARK Flexibility Score: inf
ROOT
ATOM      1  C   UNL A   1      32.703  29.712  25.594  1.00  0.00     0.023 C 
ENDROOT
BRANCH   1   2
ATOM      2  C   UNL A   1      31.441  28.859  25.521  1.00  0.00     0.116 C 
BRANCH   2   3
ATOM      3  N   UNL A   1      31.561  27.663  26.324  1.00  0.00    -0.356 N 
ATOM      4  C   UNL A   1      31.313  26.365  26.013  1.00  0.00     0.229 C 
ATOM      5  O   UNL A   1      31.418  25.542  26.928  1.00  0.00    -0.275 OA
ATOM      6  H   UNL A   1      31.871  27.814  27.246  1.00  0.00     0.163 HD
BRANCH   4   7
ATOM      7  C   UNL A   1      30.940  25.886  24.616  1.00  0.00     0.142 C 
ATOM      8  C   UNL A   1      33.402  26.368  23.805  1.00  0.00     0.076 C 
ATOM      9  C   UNL A   1      31.985  25.924  23.481  1.00  0.00     0.193 C 
ATOM     10  N   UNL A   1      31.835  24.630  22.835  1.00  0.00    -0.328 N 
ATOM     11  C   UNL A   1      30.282  24.504  24.549  1.00  0.00     0.081 C 
ATOM     12  C   UNL A   1      30.554  24.034  23.130  1.00  0.00     0.263 C 
ATOM     13  H   UNL A   1      32.150  24.811  21.881  1.00  0.00     0.348 HD
BRANCH  10  14
ATOM     14  C   UNL A   1      32.874  23.892  22.166  1.00  0.00     0.302 C 
BRANCH  14  15
ATOM     15  C   UNL A   1      33.781  23.192  23.124  1.00  0.00     0.045 A 
ATOM     16  C   UNL A   1      33.575  21.963  23.785  1.00  0.00     0.145 A 
ATOM     17  C   UNL A   1      35.055  23.553  23.527  1.00  0.00     0.124 A 
ATOM     18  N   UNL A   1      34.622  21.572  24.510  1.00  0.00    -0.176 NA
ATOM     19  N   UNL A   1      35.525  22.575  24.379  1.00  0.00    -0.240 N 
BRANCH  19  20
ATOM     20  C   UNL A   1      36.745  22.561  25.108  1.00  0.00     0.065 A 
ATOM     21  C   UNL A   1      37.144  23.711  25.802  1.00  0.00     0.028 A 
ATOM     22  C   UNL A   1      37.583  21.436  25.096  1.00  0.00     0.028 A 
ATOM     23  C   UNL A   1      38.363  23.729  26.484  1.00  0.00     0.002 A 
ATOM     24  C   UNL A   1      38.824  21.483  25.738  1.00  0.00     0.002 A 
ATOM     25  C   UNL A   1      39.210  22.624  26.438  1.00  0.00     0.000 A 
ENDBRANCH  19  20
ENDBRANCH  14  15
ENDBRANCH  10  14
ENDBRANCH   4   7
ENDBRANCH   2   3
ENDBRANCH   1   2
BRANCH   1  26
ATOM     26  C   UNL A   1      34.021  28.970  25.704  1.00  0.00     0.023 C 
BRANCH  26  27
ATOM     27  C   UNL A   1      34.587  28.868  27.106  1.00  0.00     0.116 C 
BRANCH  27  28
ATOM     28  N   UNL A   1      34.194  29.947  28.005  1.00  0.00    -0.352 N 
ATOM     29  C   UNL A   1      35.005  30.689  28.837  1.00  0.00     0.251 C 
ATOM     30  H   UNL A   1      33.235  30.171  28.020  1.00  0.00     0.163 HD
ATOM     31  O   UNL A   1      34.600  31.656  29.458  1.00  0.00    -0.269 OA
BRANCH  29  32
ATOM     32  C   UNL A   1      36.412  30.288  28.955  1.00  0.00     0.039 A 
ATOM     33  C   UNL A   1      36.873  29.712  30.142  1.00  0.00     0.014 A 
ATOM     34  C   UNL A   1      37.239  30.428  27.842  1.00  0.00     0.014 A 
ATOM     35  C   UNL A   1      38.184  29.245  30.202  1.00  0.00     0.010 A 
ATOM     36  C   UNL A   1      38.503  29.869  27.871  1.00  0.00     0.010 A 
ATOM     37  C   UNL A   1      38.999  29.311  29.062  1.00  0.00    -0.014 A 
BRANCH  37  38
ATOM     38  C   UNL A   1      40.430  28.937  29.086  1.00  0.00     0.031 A 
ATOM     39  C   UNL A   1      41.429  30.019  29.389  1.00  0.00     0.074 A 
ATOM     40  C   UNL A   1      40.824  27.700  28.733  1.00  0.00     0.049 A 
ATOM     41  N   UNL A   1      42.726  30.020  29.235  1.00  0.00    -0.248 NA
ATOM     42  C   UNL A   1      40.881  31.299  29.874  1.00  0.00     0.031 C 
ATOM     43  C   UNL A   1      39.935  26.586  28.398  1.00  0.00     0.029 A 
ATOM     44  N   UNL A   1      42.082  27.185  28.570  1.00  0.00    -0.354 N 
ATOM     45  C   UNL A   1      43.137  31.308  29.558  1.00  0.00     0.074 A 
ATOM     46  C   UNL A   1      41.951  32.077  29.855  1.00  0.00     0.031 C 
ATOM     47  C   UNL A   1      40.679  25.515  28.074  1.00  0.00     0.029 A 
ATOM     48  C   UNL A   1      42.091  25.880  28.134  1.00  0.00     0.049 A 
ATOM     49  H   UNL A   1      42.902  27.699  28.747  1.00  0.00     0.167 HD
ATOM     50  C   UNL A   1      44.397  31.798  29.624  1.00  0.00     0.037 A 
ATOM     51  C   UNL A   1      43.127  25.085  27.806  1.00  0.00     0.037 A 
ATOM     52  C   UNL A   1      45.565  30.996  29.376  1.00  0.00     0.049 A 
ATOM     53  C   UNL A   1      44.523  25.641  27.913  1.00  0.00     0.074 A 
ATOM     54  C   UNL A   1      46.894  31.358  29.468  1.00  0.00     0.029 A 
ATOM     55  N   UNL A   1      45.535  29.660  28.998  1.00  0.00    -0.354 N 
ATOM     56  N   UNL A   1      44.907  26.852  28.244  1.00  0.00    -0.248 NA
ATOM     57  C   UNL A   1      45.628  24.723  27.608  1.00  0.00     0.031 C 
ATOM     58  C   UNL A   1      47.671  30.251  29.111  1.00  0.00     0.029 A 
ATOM     59  C   UNL A   1      46.825  29.184  28.848  1.00  0.00     0.049 A 
ATOM     60  H   UNL A   1      44.717  29.131  28.858  1.00  0.00     0.167 HD
ATOM     61  C   UNL A   1      46.296  26.831  28.225  1.00  0.00     0.074 A 
ATOM     62  C   UNL A   1      46.684  25.486  27.853  1.00  0.00     0.031 C 
ATOM     63  C   UNL A   1      47.175  27.831  28.493  1.00  0.00     0.037 A 
BRANCH  50  64
ATOM     64  C   UNL A   1      44.562  33.249  29.982  1.00  0.00     0.058 A 
ATOM     65  C   UNL A   1      44.601  34.255  29.001  1.00  0.00     0.135 A 
ATOM     66  C   UNL A   1      44.687  33.644  31.323  1.00  0.00     0.135 A 
ATOM     67  F   UNL A   1      44.509  33.936  27.700  1.00  0.00    -0.206 F 
ATOM     68  C   UNL A   1      44.797  35.592  29.334  1.00  0.00     0.059 A 
ATOM     69  C   UNL A   1      44.849  34.979  31.682  1.00  0.00     0.059 A 
ATOM     70  F   UNL A   1      44.662  32.726  32.303  1.00  0.00    -0.206 F 
ATOM     71  C   UNL A   1      44.921  35.944  30.678  1.00  0.00     0.060 A 
BRANCH  71  72
ATOM     72  S   UNL A   1      45.171  37.682  31.092  1.00  0.00     0.124 S 
ATOM     73  O   UNL A   1      45.950  37.580  32.322  1.00  0.00    -0.237 OA
ATOM     74  O   UNL A   1      45.890  38.181  29.925  1.00  0.00    -0.237 OA
ATOM     75  O   UNL A   1      43.812  38.192  31.252  1.00  0.00    -0.744 OA
ENDBRANCH  71  72
ENDBRANCH  50  64
BRANCH  51  76
ATOM     76  C   UNL A   1      42.883  23.680  27.383  1.00  0.00     0.058 A 
ATOM     77  C   UNL A   1      42.923  23.324  26.027  1.00  0.00     0.135 A 
ATOM     78  C   UNL A   1      42.636  22.662  28.317  1.00  0.00     0.135 A 
ATOM     79  F   UNL A   1      43.152  24.262  25.095  1.00  0.00    -0.206 F 
ATOM     80  C   UNL A   1      42.714  22.015  25.609  1.00  0.00     0.059 A 
ATOM     81  C   UNL A   1      42.448  21.339  27.925  1.00  0.00     0.059 A 
ATOM     82  F   UNL A   1      42.606  22.945  29.629  1.00  0.00    -0.206 F 
ATOM     83  C   UNL A   1      42.481  21.027  26.567  1.00  0.00     0.060 A 
BRANCH  83  84
ATOM     84  S   UNL A   1      42.270  19.320  26.014  1.00  0.00     0.124 S 
ATOM     85  O   UNL A   1      43.184  19.264  24.879  1.00  0.00    -0.237 OA
ATOM     86  O   UNL A   1      42.672  18.564  27.197  1.00  0.00    -0.237 OA
ATOM     87  O   UNL A   1      40.849  19.247  25.687  1.00  0.00    -0.744 OA
ENDBRANCH  83  84
ENDBRANCH  51  76
BRANCH  63  88
ATOM     88  C   UNL A   1      48.638  27.490  28.451  1.00  0.00     0.058 A 
ATOM     89  C   UNL A   1      49.405  27.654  27.289  1.00  0.00     0.135 A 
ATOM     90  C   UNL A   1      49.290  27.048  29.615  1.00  0.00     0.135 A 
ATOM     91  F   UNL A   1      48.827  28.070  26.150  1.00  0.00    -0.206 F 
ATOM     92  C   UNL A   1      50.766  27.367  27.273  1.00  0.00     0.059 A 
ATOM     93  C   UNL A   1      50.655  26.784  29.629  1.00  0.00     0.059 A 
ATOM     94  F   UNL A   1      48.603  26.889  30.757  1.00  0.00    -0.206 F 
ATOM     95  C   UNL A   1      51.382  26.933  28.449  1.00  0.00     0.060 A 
BRANCH  95  96
ATOM     96  S   UNL A   1      53.153  26.593  28.422  1.00  0.00     0.124 S 
ATOM     97  O   UNL A   1      53.374  26.085  29.772  1.00  0.00    -0.237 OA
ATOM     98  O   UNL A   1      53.267  25.610  27.349  1.00  0.00    -0.237 OA
ATOM     99  O   UNL A   1      53.746  27.896  28.137  1.00  0.00    -0.744 OA
ENDBRANCH  95  96
ENDBRANCH  63  88
ENDBRANCH  37  38
ENDBRANCH  29  32
ENDBRANCH  27  28
ENDBRANCH  26  27
ENDBRANCH   1  26
TORSDOF 17
ENDMDL
