MODEL 1
REMARK VINA RESULT:     -13.1      0.000      0.000
REMARK SMILES CC(C)=C1[C@H]2CC[C@@H]1[C@@H](C(=O)Nc1cc(C)cc(C)c1)[C@@H]2C(=O)NCCCCNC(=O)c1ccc(-c2c3nc(c(-c4c(F)cc(S(=O)(=O)[O-])cc4F)c4ccc([nH]4)c(-c4c(F)cc(S(=O)(=O)[O-])cc4F)c4nc(c(-c5c(F)cc(S(=O)(=O)[O-])cc5F)c5ccc2[nH]5)C=C4)C=C3)cc1
REMARK SMILES IDX 27 1 26 2 25 3 24 4 22 5 23 6 21 8 1 9 2 10 3 11 4 12 5 13
REMARK SMILES IDX 8 14 6 15 7 16 9 17 10 18 11 19 12 20 13 22 14 23 20 24
REMARK SMILES IDX 15 25 18 26 16 27 17 28 19 29 28 30 29 31 30 32 31 34 32 35
REMARK SMILES IDX 33 36 97 37 34 38 96 39 35 40 36 41 37 42 90 43 38 44 95 45
REMARK SMILES IDX 89 46 91 47 39 48 94 49 88 50 87 51 40 53 74 54 53 55 73 56
REMARK SMILES IDX 54 57 57 58 72 59 92 60 55 61 56 62 71 64 93 65 58 66 41 67
REMARK SMILES IDX 42 68 51 69 43 70 44 71 50 72 52 73 45 74 46 75 47 76 48 77
REMARK SMILES IDX 49 78 75 79 76 80 85 81 77 82 78 83 84 84 86 85 79 86 80 87
REMARK SMILES IDX 81 88 82 89 83 90 59 91 60 92 69 93 61 94 62 95 68 96 70 97
REMARK SMILES IDX 63 98 64 99 65 100 66 101 67 102
REMARK H PARENT 24 7 12 21 29 33 91 52 57 63
REMARK Flexibility Score: inf
ROOT
ATOM      1  C   UNL A   1      34.331  30.092  27.477  1.00  0.00     0.023 C 
ENDROOT
BRANCH   1   2
ATOM      2  C   UNL A   1      34.824  28.763  26.933  1.00  0.00     0.023 C 
BRANCH   2   3
ATOM      3  C   UNL A   1      33.906  28.063  25.929  1.00  0.00     0.116 C 
BRANCH   3   4
ATOM      4  N   UNL A   1      32.655  27.708  26.565  1.00  0.00    -0.356 N 
ATOM      5  C   UNL A   1      31.781  26.692  26.379  1.00  0.00     0.224 C 
ATOM      6  O   UNL A   1      30.708  26.809  26.985  1.00  0.00    -0.275 OA
ATOM      7  H   UNL A   1      32.386  28.333  27.278  1.00  0.00     0.163 HD
BRANCH   5   8
ATOM      8  C   UNL A   1      32.098  25.383  25.650  1.00  0.00     0.098 C 
ATOM      9  C   UNL A   1      32.243  21.702  22.613  1.00  0.00     0.039 C 
ATOM     10  C   UNL A   1      32.846  23.001  23.078  1.00  0.00    -0.077 C 
ATOM     11  C   UNL A   1      34.225  23.286  22.551  1.00  0.00     0.039 C 
ATOM     12  C   UNL A   1      32.151  23.876  23.827  1.00  0.00    -0.064 C 
ATOM     13  C   UNL A   1      32.402  25.331  24.144  1.00  0.00     0.028 C 
ATOM     14  C   UNL A   1      30.751  23.791  24.363  1.00  0.00     0.028 C 
ATOM     15  C   UNL A   1      31.246  25.878  23.294  1.00  0.00     0.009 C 
ATOM     16  C   UNL A   1      30.134  24.826  23.417  1.00  0.00     0.009 C 
ATOM     17  C   UNL A   1      30.896  24.411  25.775  1.00  0.00     0.099 C 
BRANCH  17  18
ATOM     18  C   UNL A   1      30.813  23.345  26.876  1.00  0.00     0.228 C 
ATOM     19  O   UNL A   1      29.808  23.323  27.603  1.00  0.00    -0.274 OA
ATOM     20  N   UNL A   1      31.635  22.268  26.989  1.00  0.00    -0.326 N 
ATOM     21  H   UNL A   1      31.256  21.528  27.516  1.00  0.00     0.169 HD
BRANCH  20  22
ATOM     22  C   UNL A   1      32.915  22.017  26.499  1.00  0.00     0.041 A 
ATOM     23  C   UNL A   1      33.949  22.932  26.655  1.00  0.00     0.029 A 
ATOM     24  C   UNL A   1      33.173  20.770  25.931  1.00  0.00     0.029 A 
ATOM     25  C   UNL A   1      35.206  22.689  26.094  1.00  0.00    -0.049 A 
ATOM     26  C   UNL A   1      34.429  20.498  25.372  1.00  0.00    -0.049 A 
ATOM     27  C   UNL A   1      36.271  23.744  26.126  1.00  0.00     0.044 C 
ATOM     28  C   UNL A   1      35.433  21.474  25.439  1.00  0.00     0.007 A 
ATOM     29  C   UNL A   1      34.675  19.221  24.626  1.00  0.00     0.044 C 
ENDBRANCH  20  22
ENDBRANCH  17  18
ENDBRANCH   5   8
ENDBRANCH   3   4
ENDBRANCH   2   3
ENDBRANCH   1   2
BRANCH   1  30
ATOM     30  C   UNL A   1      35.405  30.979  28.069  1.00  0.00     0.116 C 
BRANCH  30  31
ATOM     31  N   UNL A   1      35.367  31.097  29.522  1.00  0.00    -0.352 N 
ATOM     32  C   UNL A   1      36.293  30.606  30.419  1.00  0.00     0.251 C 
ATOM     33  H   UNL A   1      34.598  31.579  29.903  1.00  0.00     0.163 HD
ATOM     34  O   UNL A   1      36.143  30.741  31.628  1.00  0.00    -0.269 OA
BRANCH  32  35
ATOM     35  C   UNL A   1      37.439  29.854  29.870  1.00  0.00     0.039 A 
ATOM     36  C   UNL A   1      37.840  30.099  28.557  1.00  0.00     0.014 A 
ATOM     37  C   UNL A   1      38.224  29.084  30.732  1.00  0.00     0.014 A 
ATOM     38  C   UNL A   1      39.095  29.656  28.137  1.00  0.00     0.010 A 
ATOM     39  C   UNL A   1      39.513  28.749  30.347  1.00  0.00     0.010 A 
ATOM     40  C   UNL A   1      39.964  29.033  29.049  1.00  0.00    -0.014 A 
BRANCH  40  41
ATOM     41  C   UNL A   1      41.350  28.653  28.672  1.00  0.00     0.031 A 
ATOM     42  C   UNL A   1      42.421  29.710  28.654  1.00  0.00     0.074 A 
ATOM     43  C   UNL A   1      41.624  27.398  28.260  1.00  0.00     0.049 A 
ATOM     44  N   UNL A   1      43.656  29.629  28.232  1.00  0.00    -0.248 NA
ATOM     45  C   UNL A   1      42.034  31.051  29.124  1.00  0.00     0.031 C 
ATOM     46  C   UNL A   1      40.658  26.301  28.164  1.00  0.00     0.029 A 
ATOM     47  N   UNL A   1      42.802  26.835  27.836  1.00  0.00    -0.354 N 
ATOM     48  C   UNL A   1      44.176  30.912  28.351  1.00  0.00     0.074 A 
ATOM     49  C   UNL A   1      43.105  31.764  28.820  1.00  0.00     0.031 C 
ATOM     50  C   UNL A   1      41.290  25.190  27.750  1.00  0.00     0.029 A 
ATOM     51  C   UNL A   1      42.697  25.502  27.517  1.00  0.00     0.049 A 
ATOM     52  H   UNL A   1      43.645  27.340  27.767  1.00  0.00     0.167 HD
ATOM     53  C   UNL A   1      45.441  31.339  28.127  1.00  0.00     0.037 A 
ATOM     54  C   UNL A   1      43.632  24.631  27.089  1.00  0.00     0.037 A 
ATOM     55  C   UNL A   1      46.515  30.475  27.728  1.00  0.00     0.049 A 
ATOM     56  C   UNL A   1      45.046  25.112  26.905  1.00  0.00     0.074 A 
ATOM     57  C   UNL A   1      47.849  30.787  27.542  1.00  0.00     0.029 A 
ATOM     58  N   UNL A   1      46.380  29.118  27.472  1.00  0.00    -0.354 N 
ATOM     59  N   UNL A   1      45.533  26.319  27.071  1.00  0.00    -0.248 NA
ATOM     60  C   UNL A   1      46.038  24.114  26.482  1.00  0.00     0.031 C 
ATOM     61  C   UNL A   1      48.520  29.620  27.158  1.00  0.00     0.029 A 
ATOM     62  C   UNL A   1      47.607  28.577  27.131  1.00  0.00     0.049 A 
ATOM     63  H   UNL A   1      45.535  28.614  27.525  1.00  0.00     0.167 HD
ATOM     64  C   UNL A   1      46.892  26.221  26.797  1.00  0.00     0.074 A 
ATOM     65  C   UNL A   1      47.152  24.836  26.462  1.00  0.00     0.031 C 
ATOM     66  C   UNL A   1      47.840  27.189  26.820  1.00  0.00     0.037 A 
BRANCH  53  67
ATOM     67  C   UNL A   1      45.716  32.801  28.336  1.00  0.00     0.058 A 
ATOM     68  C   UNL A   1      45.601  33.726  27.286  1.00  0.00     0.135 A 
ATOM     69  C   UNL A   1      46.125  33.280  29.591  1.00  0.00     0.135 A 
ATOM     70  F   UNL A   1      45.235  33.315  26.061  1.00  0.00    -0.206 F 
ATOM     71  C   UNL A   1      45.929  35.066  27.457  1.00  0.00     0.059 A 
ATOM     72  C   UNL A   1      46.430  34.623  29.793  1.00  0.00     0.059 A 
ATOM     73  F   UNL A   1      46.254  32.438  30.628  1.00  0.00    -0.206 F 
ATOM     74  C   UNL A   1      46.352  35.503  28.713  1.00  0.00     0.060 A 
BRANCH  74  75
ATOM     75  S   UNL A   1      46.806  37.238  28.917  1.00  0.00     0.124 S 
ATOM     76  O   UNL A   1      48.060  37.296  28.173  1.00  0.00    -0.237 OA
ATOM     77  O   UNL A   1      45.677  37.933  28.307  1.00  0.00    -0.237 OA
ATOM     78  O   UNL A   1      46.924  37.388  30.363  1.00  0.00    -0.744 OA
ENDBRANCH  74  75
ENDBRANCH  53  67
BRANCH  54  79
ATOM     79  C   UNL A   1      43.276  23.206  26.862  1.00  0.00     0.058 A 
ATOM     80  C   UNL A   1      43.009  22.356  27.946  1.00  0.00     0.135 A 
ATOM     81  C   UNL A   1      43.177  22.668  25.570  1.00  0.00     0.135 A 
ATOM     82  F   UNL A   1      43.096  22.824  29.201  1.00  0.00    -0.206 F 
ATOM     83  C   UNL A   1      42.670  21.020  27.760  1.00  0.00     0.059 A 
ATOM     84  C   UNL A   1      42.820  21.339  25.358  1.00  0.00     0.059 A 
ATOM     85  F   UNL A   1      43.406  23.444  24.500  1.00  0.00    -0.206 F 
ATOM     86  C   UNL A   1      42.577  20.520  26.461  1.00  0.00     0.060 A 
BRANCH  86  87
ATOM     87  S   UNL A   1      42.081  18.798  26.228  1.00  0.00     0.124 S 
ATOM     88  O   UNL A   1      42.238  18.264  27.575  1.00  0.00    -0.237 OA
ATOM     89  O   UNL A   1      40.708  18.934  25.751  1.00  0.00    -0.237 OA
ATOM     90  O   UNL A   1      43.033  18.308  25.237  1.00  0.00    -0.744 OA
ENDBRANCH  86  87
ENDBRANCH  54  79
BRANCH  66  91
ATOM     91  C   UNL A   1      49.250  26.781  26.508  1.00  0.00     0.058 A 
ATOM     92  C   UNL A   1      50.110  26.295  27.504  1.00  0.00     0.135 A 
ATOM     93  C   UNL A   1      49.719  26.811  25.185  1.00  0.00     0.135 A 
ATOM     94  F   UNL A   1      49.706  26.253  28.783  1.00  0.00    -0.206 F 
ATOM     95  C   UNL A   1      51.396  25.864  27.199  1.00  0.00     0.059 A 
ATOM     96  C   UNL A   1      50.995  26.366  24.856  1.00  0.00     0.059 A 
ATOM     97  F   UNL A   1      48.928  27.260  24.197  1.00  0.00    -0.206 F 
ATOM     98  C   UNL A   1      51.828  25.901  25.872  1.00  0.00     0.060 A 
BRANCH  98  99
ATOM     99  S   UNL A   1      53.482  25.290  25.481  1.00  0.00     0.124 S 
ATOM    100  O   UNL A   1      53.761  25.979  24.227  1.00  0.00    -0.237 OA
ATOM    101  O   UNL A   1      54.261  25.730  26.635  1.00  0.00    -0.237 OA
ATOM    102  O   UNL A   1      53.292  23.845  25.377  1.00  0.00    -0.744 OA
ENDBRANCH  98  99
ENDBRANCH  66  91
ENDBRANCH  40  41
ENDBRANCH  32  35
ENDBRANCH  30  31
ENDBRANCH   1  30
TORSDOF 16
ENDMDL
MODEL 2
REMARK VINA RESULT:     -13.0      0.528      8.067
REMARK SMILES CC(C)=C1[C@H]2CC[C@@H]1[C@@H](C(=O)Nc1cc(C)cc(C)c1)[C@@H]2C(=O)NCCCCNC(=O)c1ccc(-c2c3nc(c(-c4c(F)cc(S(=O)(=O)[O-])cc4F)c4ccc([nH]4)c(-c4c(F)cc(S(=O)(=O)[O-])cc4F)c4nc(c(-c5c(F)cc(S(=O)(=O)[O-])cc5F)c5ccc2[nH]5)C=C4)C=C3)cc1
REMARK SMILES IDX 27 1 26 2 25 3 24 4 22 5 23 6 21 8 1 9 2 10 3 11 4 12 5 13
REMARK SMILES IDX 8 14 6 15 7 16 9 17 10 18 11 19 12 20 13 22 14 23 20 24
REMARK SMILES IDX 15 25 18 26 16 27 17 28 19 29 28 30 29 31 30 32 31 34 32 35
REMARK SMILES IDX 33 36 97 37 34 38 96 39 35 40 36 41 37 42 90 43 38 44 95 45
REMARK SMILES IDX 89 46 91 47 39 48 94 49 88 50 87 51 40 53 74 54 53 55 73 56
REMARK SMILES IDX 54 57 57 58 72 59 92 60 55 61 56 62 71 64 93 65 58 66 41 67
REMARK SMILES IDX 42 68 51 69 43 70 44 71 50 72 52 73 45 74 46 75 47 76 48 77
REMARK SMILES IDX 49 78 75 79 76 80 85 81 77 82 78 83 84 84 86 85 79 86 80 87
REMARK SMILES IDX 81 88 82 89 83 90 59 91 60 92 69 93 61 94 62 95 68 96 70 97
REMARK SMILES IDX 63 98 64 99 65 100 66 101 67 102
REMARK H PARENT 24 7 12 21 29 33 91 52 57 63
REMARK Flexibility Score: inf
ROOT
ATOM      1  C   UNL A   1      34.485  30.051  27.522  1.00  0.00     0.023 C 
ENDROOT
BRANCH   1   2
ATOM      2  C   UNL A   1      34.863  28.655  27.059  1.00  0.00     0.023 C 
BRANCH   2   3
ATOM      3  C   UNL A   1      33.962  28.034  25.991  1.00  0.00     0.116 C 
BRANCH   3   4
ATOM      4  N   UNL A   1      32.673  27.699  26.560  1.00  0.00    -0.356 N 
ATOM      5  C   UNL A   1      31.791  26.700  26.326  1.00  0.00     0.224 C 
ATOM      6  O   UNL A   1      30.692  26.835  26.877  1.00  0.00    -0.275 OA
ATOM      7  H   UNL A   1      32.380  28.326  27.261  1.00  0.00     0.163 HD
BRANCH   5   8
ATOM      8  C   UNL A   1      32.121  25.388  25.607  1.00  0.00     0.098 C 
ATOM      9  C   UNL A   1      32.310  21.689  22.596  1.00  0.00     0.039 C 
ATOM     10  C   UNL A   1      32.902  22.994  23.057  1.00  0.00    -0.077 C 
ATOM     11  C   UNL A   1      34.283  23.283  22.539  1.00  0.00     0.039 C 
ATOM     12  C   UNL A   1      32.197  23.870  23.794  1.00  0.00    -0.064 C 
ATOM     13  C   UNL A   1      32.437  25.328  24.105  1.00  0.00     0.028 C 
ATOM     14  C   UNL A   1      30.793  23.780  24.320  1.00  0.00     0.028 C 
ATOM     15  C   UNL A   1      31.285  25.864  23.242  1.00  0.00     0.009 C 
ATOM     16  C   UNL A   1      30.178  24.806  23.362  1.00  0.00     0.009 C 
ATOM     17  C   UNL A   1      30.923  24.411  25.729  1.00  0.00     0.099 C 
BRANCH  17  18
ATOM     18  C   UNL A   1      30.837  23.351  26.837  1.00  0.00     0.228 C 
ATOM     19  O   UNL A   1      29.827  23.330  27.557  1.00  0.00    -0.274 OA
ATOM     20  N   UNL A   1      31.664  22.278  26.962  1.00  0.00    -0.326 N 
ATOM     21  H   UNL A   1      31.283  21.540  27.491  1.00  0.00     0.169 HD
BRANCH  20  22
ATOM     22  C   UNL A   1      32.947  22.029  26.483  1.00  0.00     0.041 A 
ATOM     23  C   UNL A   1      33.980  22.944  26.651  1.00  0.00     0.029 A 
ATOM     24  C   UNL A   1      33.211  20.785  25.912  1.00  0.00     0.029 A 
ATOM     25  C   UNL A   1      35.242  22.704  26.100  1.00  0.00    -0.049 A 
ATOM     26  C   UNL A   1      34.472  20.515  25.363  1.00  0.00    -0.049 A 
ATOM     27  C   UNL A   1      36.306  23.759  26.146  1.00  0.00     0.044 C 
ATOM     28  C   UNL A   1      35.474  21.491  25.442  1.00  0.00     0.007 A 
ATOM     29  C   UNL A   1      34.724  19.241  24.613  1.00  0.00     0.044 C 
ENDBRANCH  20  22
ENDBRANCH  17  18
ENDBRANCH   5   8
ENDBRANCH   3   4
ENDBRANCH   2   3
ENDBRANCH   1   2
BRANCH   1  30
ATOM     30  C   UNL A   1      35.574  30.794  28.266  1.00  0.00     0.116 C 
BRANCH  30  31
ATOM     31  N   UNL A   1      35.522  30.662  29.717  1.00  0.00    -0.352 N 
ATOM     32  C   UNL A   1      36.462  30.061  30.529  1.00  0.00     0.251 C 
ATOM     33  H   UNL A   1      34.732  31.041  30.165  1.00  0.00     0.163 HD
ATOM     34  O   UNL A   1      36.299  29.982  31.742  1.00  0.00    -0.269 OA
BRANCH  32  35
ATOM     35  C   UNL A   1      37.640  29.459  29.876  1.00  0.00     0.039 A 
ATOM     36  C   UNL A   1      37.990  29.882  28.594  1.00  0.00     0.014 A 
ATOM     37  C   UNL A   1      38.497  28.650  30.627  1.00  0.00     0.014 A 
ATOM     38  C   UNL A   1      39.260  29.578  28.102  1.00  0.00     0.010 A 
ATOM     39  C   UNL A   1      39.794  28.451  30.181  1.00  0.00     0.010 A 
ATOM     40  C   UNL A   1      40.193  28.915  28.918  1.00  0.00    -0.014 A 
BRANCH  40  41
ATOM     41  C   UNL A   1      41.590  28.677  28.474  1.00  0.00     0.031 A 
ATOM     42  C   UNL A   1      41.989  27.301  28.016  1.00  0.00     0.074 A 
ATOM     43  C   UNL A   1      42.512  29.657  28.572  1.00  0.00     0.049 A 
ATOM     44  N   UNL A   1      43.175  26.840  27.716  1.00  0.00    -0.248 NA
ATOM     45  C   UNL A   1      40.917  26.295  27.935  1.00  0.00     0.031 C 
ATOM     46  C   UNL A   1      42.267  31.013  29.069  1.00  0.00     0.029 A 
ATOM     47  N   UNL A   1      43.849  29.658  28.264  1.00  0.00    -0.354 N 
ATOM     48  C   UNL A   1      42.996  25.489  27.450  1.00  0.00     0.074 A 
ATOM     49  C   UNL A   1      41.601  25.190  27.689  1.00  0.00     0.031 C 
ATOM     50  C   UNL A   1      43.405  31.724  28.993  1.00  0.00     0.029 A 
ATOM     51  C   UNL A   1      44.468  30.868  28.476  1.00  0.00     0.049 A 
ATOM     52  H   UNL A   1      44.323  28.864  27.921  1.00  0.00     0.167 HD
ATOM     53  C   UNL A   1      43.900  24.583  27.010  1.00  0.00     0.037 A 
ATOM     54  C   UNL A   1      45.746  31.242  28.272  1.00  0.00     0.037 A 
ATOM     55  C   UNL A   1      45.267  24.902  26.709  1.00  0.00     0.049 A 
ATOM     56  C   UNL A   1      46.721  30.236  27.724  1.00  0.00     0.074 A 
ATOM     57  C   UNL A   1      46.250  24.079  26.190  1.00  0.00     0.029 A 
ATOM     58  N   UNL A   1      45.839  26.154  26.881  1.00  0.00    -0.354 N 
ATOM     59  N   UNL A   1      46.522  28.973  27.429  1.00  0.00    -0.248 NA
ATOM     60  C   UNL A   1      48.091  30.704  27.475  1.00  0.00     0.031 C 
ATOM     61  C   UNL A   1      47.424  24.832  26.062  1.00  0.00     0.029 A 
ATOM     62  C   UNL A   1      47.162  26.129  26.478  1.00  0.00     0.049 A 
ATOM     63  H   UNL A   1      45.372  26.944  27.238  1.00  0.00     0.167 HD
ATOM     64  C   UNL A   1      47.734  28.502  26.937  1.00  0.00     0.074 A 
ATOM     65  C   UNL A   1      48.658  29.617  26.967  1.00  0.00     0.031 C 
ATOM     66  C   UNL A   1      48.055  27.260  26.501  1.00  0.00     0.037 A 
BRANCH  53  67
ATOM     67  C   UNL A   1      43.416  23.175  26.811  1.00  0.00     0.058 A 
ATOM     68  C   UNL A   1      43.132  22.337  27.903  1.00  0.00     0.135 A 
ATOM     69  C   UNL A   1      43.260  22.646  25.521  1.00  0.00     0.135 A 
ATOM     70  F   UNL A   1      43.286  22.787  29.158  1.00  0.00    -0.206 F 
ATOM     71  C   UNL A   1      42.758  21.010  27.724  1.00  0.00     0.059 A 
ATOM     72  C   UNL A   1      42.858  21.329  25.317  1.00  0.00     0.059 A 
ATOM     73  F   UNL A   1      43.521  23.402  24.443  1.00  0.00    -0.206 F 
ATOM     74  C   UNL A   1      42.633  20.512  26.426  1.00  0.00     0.060 A 
BRANCH  74  75
ATOM     75  S   UNL A   1      42.178  18.780  26.205  1.00  0.00     0.124 S 
ATOM     76  O   UNL A   1      42.410  18.248  27.544  1.00  0.00    -0.237 OA
ATOM     77  O   UNL A   1      40.780  18.871  25.795  1.00  0.00    -0.237 OA
ATOM     78  O   UNL A   1      43.101  18.318  25.174  1.00  0.00    -0.744 OA
ENDBRANCH  74  75
ENDBRANCH  53  67
BRANCH  54  79
ATOM     79  C   UNL A   1      46.163  32.645  28.530  1.00  0.00     0.058 A 
ATOM     80  C   UNL A   1      46.082  33.612  27.517  1.00  0.00     0.135 A 
ATOM     81  C   UNL A   1      46.630  33.054  29.788  1.00  0.00     0.135 A 
ATOM     82  F   UNL A   1      45.646  33.266  26.295  1.00  0.00    -0.206 F 
ATOM     83  C   UNL A   1      46.462  34.932  27.734  1.00  0.00     0.059 A 
ATOM     84  C   UNL A   1      46.998  34.374  30.036  1.00  0.00     0.059 A 
ATOM     85  F   UNL A   1      46.711  32.171  30.795  1.00  0.00    -0.206 F 
ATOM     86  C   UNL A   1      46.919  35.304  29.000  1.00  0.00     0.060 A 
BRANCH  86  87
ATOM     87  S   UNL A   1      47.356  37.033  29.288  1.00  0.00     0.124 S 
ATOM     88  O   UNL A   1      48.476  36.901  30.213  1.00  0.00    -0.237 OA
ATOM     89  O   UNL A   1      47.689  37.497  27.945  1.00  0.00    -0.237 OA
ATOM     90  O   UNL A   1      46.134  37.597  29.851  1.00  0.00    -0.744 OA
ENDBRANCH  86  87
ENDBRANCH  54  79
BRANCH  66  91
ATOM     91  C   UNL A   1      49.449  27.047  25.988  1.00  0.00     0.058 A 
ATOM     92  C   UNL A   1      50.498  26.686  26.845  1.00  0.00     0.135 A 
ATOM     93  C   UNL A   1      49.718  27.137  24.613  1.00  0.00     0.135 A 
ATOM     94  F   UNL A   1      50.289  26.593  28.168  1.00  0.00    -0.206 F 
ATOM     95  C   UNL A   1      51.775  26.433  26.356  1.00  0.00     0.059 A 
ATOM     96  C   UNL A   1      50.983  26.870  24.102  1.00  0.00     0.059 A 
ATOM     97  F   UNL A   1      48.742  27.470  23.753  1.00  0.00    -0.206 F 
ATOM     98  C   UNL A   1      52.007  26.525  24.983  1.00  0.00     0.060 A 
BRANCH  98  99
ATOM     99  S   UNL A   1      53.656  26.145  24.354  1.00  0.00     0.124 S 
ATOM    100  O   UNL A   1      54.475  27.117  25.070  1.00  0.00    -0.237 OA
ATOM    101  O   UNL A   1      53.832  24.751  24.751  1.00  0.00    -0.237 OA
ATOM    102  O   UNL A   1      53.529  26.367  22.916  1.00  0.00    -0.744 OA
ENDBRANCH  98  99
ENDBRANCH  66  91
ENDBRANCH  40  41
ENDBRANCH  32  35
ENDBRANCH  30  31
ENDBRANCH   1  30
TORSDOF 16
ENDMDL
MODEL 3
REMARK VINA RESULT:     -13.0      1.147      2.689
REMARK SMILES CC(C)=C1[C@H]2CC[C@@H]1[C@@H](C(=O)Nc1cc(C)cc(C)c1)[C@@H]2C(=O)NCCCCNC(=O)c1ccc(-c2c3nc(c(-c4c(F)cc(S(=O)(=O)[O-])cc4F)c4ccc([nH]4)c(-c4c(F)cc(S(=O)(=O)[O-])cc4F)c4nc(c(-c5c(F)cc(S(=O)(=O)[O-])cc5F)c5ccc2[nH]5)C=C4)C=C3)cc1
REMARK SMILES IDX 27 1 26 2 25 3 24 4 22 5 23 6 21 8 1 9 2 10 3 11 4 12 5 13
REMARK SMILES IDX 8 14 6 15 7 16 9 17 10 18 11 19 12 20 13 22 14 23 20 24
REMARK SMILES IDX 15 25 18 26 16 27 17 28 19 29 28 30 29 31 30 32 31 34 32 35
REMARK SMILES IDX 33 36 97 37 34 38 96 39 35 40 36 41 37 42 90 43 38 44 95 45
REMARK SMILES IDX 89 46 91 47 39 48 94 49 88 50 87 51 40 53 74 54 53 55 73 56
REMARK SMILES IDX 54 57 57 58 72 59 92 60 55 61 56 62 71 64 93 65 58 66 41 67
REMARK SMILES IDX 42 68 51 69 43 70 44 71 50 72 52 73 45 74 46 75 47 76 48 77
REMARK SMILES IDX 49 78 75 79 76 80 85 81 77 82 78 83 84 84 86 85 79 86 80 87
REMARK SMILES IDX 81 88 82 89 83 90 59 91 60 92 69 93 61 94 62 95 68 96 70 97
REMARK SMILES IDX 63 98 64 99 65 100 66 101 67 102
REMARK H PARENT 24 7 12 21 29 33 91 52 57 63
REMARK Flexibility Score: inf
ROOT
ATOM      1  C   UNL A   1      34.651  29.412  26.883  1.00  0.00     0.023 C 
ENDROOT
BRANCH   1   2
ATOM      2  C   UNL A   1      33.740  28.206  27.019  1.00  0.00     0.023 C 
BRANCH   2   3
ATOM      3  C   UNL A   1      33.663  27.279  25.805  1.00  0.00     0.116 C 
BRANCH   3   4
ATOM      4  N   UNL A   1      32.722  26.207  26.057  1.00  0.00    -0.356 N 
ATOM      5  C   UNL A   1      32.845  24.860  26.092  1.00  0.00     0.224 C 
ATOM      6  O   UNL A   1      31.776  24.241  26.155  1.00  0.00    -0.275 OA
ATOM      7  H   UNL A   1      31.807  26.524  26.240  1.00  0.00     0.163 HD
BRANCH   5   8
ATOM      8  C   UNL A   1      34.168  24.103  26.240  1.00  0.00     0.098 C 
ATOM      9  C   UNL A   1      38.255  21.750  25.495  1.00  0.00     0.039 C 
ATOM     10  C   UNL A   1      37.568  23.052  25.811  1.00  0.00    -0.077 C 
ATOM     11  C   UNL A   1      38.471  24.138  26.327  1.00  0.00     0.039 C 
ATOM     12  C   UNL A   1      36.263  23.245  25.551  1.00  0.00    -0.064 C 
ATOM     13  C   UNL A   1      35.440  24.510  25.479  1.00  0.00     0.028 C 
ATOM     14  C   UNL A   1      35.245  22.309  24.964  1.00  0.00     0.028 C 
ATOM     15  C   UNL A   1      35.245  24.484  23.957  1.00  0.00     0.009 C 
ATOM     16  C   UNL A   1      35.140  22.995  23.597  1.00  0.00     0.009 C 
ATOM     17  C   UNL A   1      33.978  22.629  25.795  1.00  0.00     0.099 C 
BRANCH  17  18
ATOM     18  C   UNL A   1      33.653  21.507  26.790  1.00  0.00     0.228 C 
ATOM     19  O   UNL A   1      33.762  21.742  28.004  1.00  0.00    -0.274 OA
ATOM     20  N   UNL A   1      33.032  20.337  26.478  1.00  0.00    -0.326 N 
ATOM     21  H   UNL A   1      32.603  19.894  27.246  1.00  0.00     0.169 HD
BRANCH  20  22
ATOM     22  C   UNL A   1      32.890  19.649  25.276  1.00  0.00     0.041 A 
ATOM     23  C   UNL A   1      33.187  18.295  25.170  1.00  0.00     0.029 A 
ATOM     24  C   UNL A   1      32.339  20.325  24.187  1.00  0.00     0.029 A 
ATOM     25  C   UNL A   1      33.103  17.642  23.937  1.00  0.00    -0.049 A 
ATOM     26  C   UNL A   1      32.235  19.688  22.944  1.00  0.00    -0.049 A 
ATOM     27  C   UNL A   1      33.574  16.226  23.792  1.00  0.00     0.044 C 
ATOM     28  C   UNL A   1      32.641  18.352  22.823  1.00  0.00     0.007 A 
ATOM     29  C   UNL A   1      31.787  20.447  21.730  1.00  0.00     0.044 C 
ENDBRANCH  20  22
ENDBRANCH  17  18
ENDBRANCH   5   8
ENDBRANCH   3   4
ENDBRANCH   2   3
ENDBRANCH   1   2
BRANCH   1  30
ATOM     30  C   UNL A   1      35.824  29.440  27.839  1.00  0.00     0.116 C 
BRANCH  30  31
ATOM     31  N   UNL A   1      35.476  29.734  29.224  1.00  0.00    -0.352 N 
ATOM     32  C   UNL A   1      36.344  30.047  30.249  1.00  0.00     0.251 C 
ATOM     33  H   UNL A   1      34.518  29.704  29.452  1.00  0.00     0.163 HD
ATOM     34  O   UNL A   1      35.938  30.248  31.389  1.00  0.00    -0.269 OA
BRANCH  32  35
ATOM     35  C   UNL A   1      37.786  30.066  29.937  1.00  0.00     0.039 A 
ATOM     36  C   UNL A   1      38.698  29.743  30.942  1.00  0.00     0.014 A 
ATOM     37  C   UNL A   1      38.194  30.191  28.606  1.00  0.00     0.014 A 
ATOM     38  C   UNL A   1      40.014  29.437  30.591  1.00  0.00     0.010 A 
ATOM     39  C   UNL A   1      39.467  29.774  28.253  1.00  0.00     0.010 A 
ATOM     40  C   UNL A   1      40.390  29.389  29.238  1.00  0.00    -0.014 A 
BRANCH  40  41
ATOM     41  C   UNL A   1      41.747  28.954  28.819  1.00  0.00     0.031 A 
ATOM     42  C   UNL A   1      42.860  29.966  28.773  1.00  0.00     0.074 A 
ATOM     43  C   UNL A   1      41.957  27.692  28.393  1.00  0.00     0.049 A 
ATOM     44  N   UNL A   1      44.077  29.838  28.315  1.00  0.00    -0.248 NA
ATOM     45  C   UNL A   1      42.542  31.319  29.261  1.00  0.00     0.031 C 
ATOM     46  C   UNL A   1      40.944  26.636  28.321  1.00  0.00     0.029 A 
ATOM     47  N   UNL A   1      43.097  27.083  27.932  1.00  0.00    -0.354 N 
ATOM     48  C   UNL A   1      44.653  31.097  28.423  1.00  0.00     0.074 A 
ATOM     49  C   UNL A   1      43.633  31.989  28.928  1.00  0.00     0.031 C 
ATOM     50  C   UNL A   1      41.517  25.502  27.883  1.00  0.00     0.029 A 
ATOM     51  C   UNL A   1      42.928  25.757  27.610  1.00  0.00     0.049 A 
ATOM     52  H   UNL A   1      43.958  27.554  27.840  1.00  0.00     0.167 HD
ATOM     53  C   UNL A   1      45.927  31.473  28.164  1.00  0.00     0.037 A 
ATOM     54  C   UNL A   1      43.813  24.851  27.151  1.00  0.00     0.037 A 
ATOM     55  C   UNL A   1      46.952  30.567  27.729  1.00  0.00     0.049 A 
ATOM     56  C   UNL A   1      45.240  25.274  26.927  1.00  0.00     0.074 A 
ATOM     57  C   UNL A   1      48.293  30.826  27.505  1.00  0.00     0.029 A 
ATOM     58  N   UNL A   1      46.754  29.219  27.471  1.00  0.00    -0.354 N 
ATOM     59  N   UNL A   1      45.781  26.459  27.083  1.00  0.00    -0.248 NA
ATOM     60  C   UNL A   1      46.177  24.239  26.470  1.00  0.00     0.031 C 
ATOM     61  C   UNL A   1      48.903  29.634  27.096  1.00  0.00     0.029 A 
ATOM     62  C   UNL A   1      47.947  28.629  27.091  1.00  0.00     0.049 A 
ATOM     63  H   UNL A   1      45.891  28.750  27.547  1.00  0.00     0.167 HD
ATOM     64  C   UNL A   1      47.126  26.307  26.768  1.00  0.00     0.074 A 
ATOM     65  C   UNL A   1      47.318  24.914  26.419  1.00  0.00     0.031 C 
ATOM     66  C   UNL A   1      48.113  27.236  26.767  1.00  0.00     0.037 A 
BRANCH  53  67
ATOM     67  C   UNL A   1      46.268  32.921  28.372  1.00  0.00     0.058 A 
ATOM     68  C   UNL A   1      46.690  33.402  29.622  1.00  0.00     0.135 A 
ATOM     69  C   UNL A   1      46.147  33.843  27.321  1.00  0.00     0.135 A 
ATOM     70  F   UNL A   1      46.801  32.565  30.666  1.00  0.00    -0.206 F 
ATOM     71  C   UNL A   1      46.932  34.754  29.838  1.00  0.00     0.059 A 
ATOM     72  C   UNL A   1      46.413  35.197  27.506  1.00  0.00     0.059 A 
ATOM     73  F   UNL A   1      45.745  33.437  26.106  1.00  0.00    -0.206 F 
ATOM     74  C   UNL A   1      46.782  35.646  28.775  1.00  0.00     0.060 A 
BRANCH  74  75
ATOM     75  S   UNL A   1      47.068  37.402  29.073  1.00  0.00     0.124 S 
ATOM     76  O   UNL A   1      47.664  37.375  30.405  1.00  0.00    -0.237 OA
ATOM     77  O   UNL A   1      47.970  37.764  27.984  1.00  0.00    -0.237 OA
ATOM     78  O   UNL A   1      45.730  37.980  28.993  1.00  0.00    -0.744 OA
ENDBRANCH  74  75
ENDBRANCH  53  67
BRANCH  54  79
ATOM     79  C   UNL A   1      43.392  23.443  26.928  1.00  0.00     0.058 A 
ATOM     80  C   UNL A   1      43.223  22.946  25.627  1.00  0.00     0.135 A 
ATOM     81  C   UNL A   1      43.167  22.564  27.998  1.00  0.00     0.135 A 
ATOM     82  F   UNL A   1      43.421  23.751  24.572  1.00  0.00    -0.206 F 
ATOM     83  C   UNL A   1      42.833  21.631  25.393  1.00  0.00     0.059 A 
ATOM     84  C   UNL A   1      42.795  21.239  27.789  1.00  0.00     0.059 A 
ATOM     85  F   UNL A   1      43.331  22.987  29.261  1.00  0.00    -0.206 F 
ATOM     86  C   UNL A   1      42.623  20.784  26.481  1.00  0.00     0.060 A 
BRANCH  86  87
ATOM     87  S   UNL A   1      42.172  19.063  26.165  1.00  0.00     0.124 S 
ATOM     88  O   UNL A   1      40.758  19.187  25.832  1.00  0.00    -0.237 OA
ATOM     89  O   UNL A   1      43.059  18.709  25.061  1.00  0.00    -0.237 OA
ATOM     90  O   UNL A   1      42.469  18.402  27.432  1.00  0.00    -0.744 OA
ENDBRANCH  86  87
ENDBRANCH  54  79
BRANCH  66  91
ATOM     91  C   UNL A   1      49.496  26.772  26.412  1.00  0.00     0.058 A 
ATOM     92  C   UNL A   1      50.358  26.231  27.376  1.00  0.00     0.135 A 
ATOM     93  C   UNL A   1      49.932  26.805  25.077  1.00  0.00     0.135 A 
ATOM     94  F   UNL A   1      49.986  26.184  28.665  1.00  0.00    -0.206 F 
ATOM     95  C   UNL A   1      51.616  25.749  27.031  1.00  0.00     0.059 A 
ATOM     96  C   UNL A   1      51.177  26.310  24.708  1.00  0.00     0.059 A 
ATOM     97  F   UNL A   1      49.137  27.305  24.118  1.00  0.00    -0.206 F 
ATOM     98  C   UNL A   1      52.015  25.790  25.694  1.00  0.00     0.060 A 
BRANCH  98  99
ATOM     99  S   UNL A   1      53.630  25.115  25.250  1.00  0.00     0.124 S 
ATOM    100  O   UNL A   1      53.361  23.681  25.260  1.00  0.00    -0.237 OA
ATOM    101  O   UNL A   1      53.869  25.707  23.937  1.00  0.00    -0.237 OA
ATOM    102  O   UNL A   1      54.503  25.599  26.315  1.00  0.00    -0.744 OA
ENDBRANCH  98  99
ENDBRANCH  66  91
ENDBRANCH  40  41
ENDBRANCH  32  35
ENDBRANCH  30  31
ENDBRANCH   1  30
TORSDOF 16
ENDMDL
