MODEL 1
REMARK VINA RESULT:     -11.9      0.000      0.000
REMARK SMILES C[C@H](NC1=[NH+]S(=O)(=O)c2ccccc21)C(=O)NCCCCNC(=O)c1ccc(-c2c3nc(c(-c4c(F)cc(S(=O)(=O)[O-])cc4F)c4ccc([nH]4)c(-c4c(F)cc(S(=O)(=O)[O-])cc4F)c4nc(c(-c5c(F)cc(S(=O)(=O)[O-])cc5F)c5ccc2[nH]5)C=C4)C=C3)cc1
REMARK SMILES IDX 20 1 19 2 18 3 17 4 15 5 16 6 2 8 1 9 3 10 4 11 5 13 14 14
REMARK SMILES IDX 6 15 9 17 13 18 7 19 8 20 10 21 12 22 11 23 21 24 22 25
REMARK SMILES IDX 23 26 24 28 25 29 26 30 90 31 27 32 89 33 28 34 29 35 30 36
REMARK SMILES IDX 83 37 31 38 88 39 82 40 84 41 32 42 87 43 81 44 80 45 33 47
REMARK SMILES IDX 67 48 46 49 66 50 47 51 50 52 65 53 85 54 48 55 49 56 64 58
REMARK SMILES IDX 86 59 51 60 34 61 35 62 44 63 36 64 37 65 43 66 45 67 38 68
REMARK SMILES IDX 39 69 40 70 41 71 42 72 68 73 69 74 78 75 70 76 71 77 77 78
REMARK SMILES IDX 79 79 72 80 73 81 74 82 75 83 76 84 52 85 53 86 62 87 54 88
REMARK SMILES IDX 55 89 61 90 63 91 56 92 57 93 58 94 59 95 60 96
REMARK H PARENT 17 7 3 12 5 16 22 27 84 46 50 57
REMARK Flexibility Score: inf
ROOT
ATOM      1  C   UNL A   1      41.748  22.075  28.069  1.00  0.00     0.023 C 
ENDROOT
BRANCH   1   2
ATOM      2  C   UNL A   1      41.552  21.152  26.862  1.00  0.00     0.023 C 
BRANCH   2   3
ATOM      3  C   UNL A   1      40.138  21.145  26.280  1.00  0.00     0.116 C 
BRANCH   3   4
ATOM      4  N   UNL A   1      39.534  22.462  26.337  1.00  0.00    -0.352 N 
ATOM      5  C   UNL A   1      38.270  22.898  26.059  1.00  0.00     0.264 C 
ATOM      6  O   UNL A   1      38.040  24.097  26.241  1.00  0.00    -0.270 OA
ATOM      7  H   UNL A   1      40.148  23.174  26.630  1.00  0.00     0.163 HD
BRANCH   5   8
ATOM      8  C   UNL A   1      37.156  21.947  25.590  1.00  0.00     0.258 C 
ATOM      9  C   UNL A   1      36.964  22.059  24.080  1.00  0.00     0.069 C 
BRANCH   8  10
ATOM     10  N   UNL A   1      35.892  22.193  26.287  1.00  0.00    -0.262 N 
ATOM     11  C   UNL A   1      34.707  21.619  25.921  1.00  0.00     0.292 C 
ATOM     12  H   UNL A   1      35.897  22.804  27.059  1.00  0.00     0.306 HD
ATOM     13  N   UNL A   1      34.606  20.489  25.284  1.00  0.00    -0.162 N 
ATOM     14  C   UNL A   1      33.428  22.310  26.198  1.00  0.00     0.087 A 
ATOM     15  S   UNL A   1      33.034  20.101  25.019  1.00  0.00     0.329 S 
ATOM     16  H   UNL A   1      35.372  19.938  24.999  1.00  0.00     0.327 HD
ATOM     17  C   UNL A   1      32.380  21.560  25.702  1.00  0.00     0.124 A 
ATOM     18  C   UNL A   1      33.203  23.568  26.728  1.00  0.00     0.018 A 
ATOM     19  O   UNL A   1      32.625  19.015  25.880  1.00  0.00    -0.179 OA
ATOM     20  O   UNL A   1      32.741  20.126  23.601  1.00  0.00    -0.179 OA
ATOM     21  C   UNL A   1      31.072  22.001  25.691  1.00  0.00     0.025 A 
ATOM     22  C   UNL A   1      31.886  24.044  26.741  1.00  0.00     0.001 A 
ATOM     23  C   UNL A   1      30.829  23.267  26.226  1.00  0.00     0.002 A 
ENDBRANCH   8  10
ENDBRANCH   5   8
ENDBRANCH   3   4
ENDBRANCH   2   3
ENDBRANCH   1   2
BRANCH   1  24
ATOM     24  C   UNL A   1      42.766  23.198  27.882  1.00  0.00     0.116 C 
BRANCH  24  25
ATOM     25  N   UNL A   1      42.720  23.788  26.553  1.00  0.00    -0.352 N 
ATOM     26  C   UNL A   1      42.331  25.053  26.180  1.00  0.00     0.251 C 
ATOM     27  H   UNL A   1      43.007  23.200  25.819  1.00  0.00     0.163 HD
ATOM     28  O   UNL A   1      42.238  25.332  24.988  1.00  0.00    -0.269 OA
BRANCH  26  29
ATOM     29  C   UNL A   1      41.993  26.058  27.212  1.00  0.00     0.039 A 
ATOM     30  C   UNL A   1      40.900  25.821  28.051  1.00  0.00     0.014 A 
ATOM     31  C   UNL A   1      42.754  27.221  27.359  1.00  0.00     0.014 A 
ATOM     32  C   UNL A   1      40.613  26.716  29.084  1.00  0.00     0.010 A 
ATOM     33  C   UNL A   1      42.502  28.082  28.426  1.00  0.00     0.010 A 
ATOM     34  C   UNL A   1      41.435  27.834  29.303  1.00  0.00    -0.014 A 
BRANCH  34  35
ATOM     35  C   UNL A   1      41.204  28.748  30.451  1.00  0.00     0.031 A 
ATOM     36  C   UNL A   1      42.033  28.619  31.698  1.00  0.00     0.074 A 
ATOM     37  C   UNL A   1      40.196  29.640  30.398  1.00  0.00     0.049 A 
ATOM     38  N   UNL A   1      41.922  29.262  32.832  1.00  0.00    -0.248 NA
ATOM     39  C   UNL A   1      43.113  27.620  31.676  1.00  0.00     0.031 C 
ATOM     40  C   UNL A   1      39.287  29.825  29.265  1.00  0.00     0.029 A 
ATOM     41  N   UNL A   1      39.756  30.549  31.328  1.00  0.00    -0.354 N 
ATOM     42  C   UNL A   1      42.901  28.732  33.665  1.00  0.00     0.074 A 
ATOM     43  C   UNL A   1      43.569  27.688  32.918  1.00  0.00     0.031 C 
ATOM     44  C   UNL A   1      38.407  30.796  29.560  1.00  0.00     0.029 A 
ATOM     45  C   UNL A   1      38.669  31.282  30.912  1.00  0.00     0.049 A 
ATOM     46  H   UNL A   1      40.179  30.666  32.209  1.00  0.00     0.167 HD
ATOM     47  C   UNL A   1      43.225  29.095  34.930  1.00  0.00     0.037 A 
ATOM     48  C   UNL A   1      37.959  32.232  31.549  1.00  0.00     0.037 A 
ATOM     49  C   UNL A   1      42.579  30.155  35.658  1.00  0.00     0.049 A 
ATOM     50  C   UNL A   1      38.354  32.637  32.942  1.00  0.00     0.074 A 
ATOM     51  C   UNL A   1      42.876  30.638  36.921  1.00  0.00     0.029 A 
ATOM     52  N   UNL A   1      41.509  30.901  35.188  1.00  0.00    -0.354 N 
ATOM     53  N   UNL A   1      39.317  32.162  33.694  1.00  0.00    -0.248 NA
ATOM     54  C   UNL A   1      37.571  33.709  33.570  1.00  0.00     0.031 C 
ATOM     55  C   UNL A   1      41.967  31.658  37.225  1.00  0.00     0.029 A 
ATOM     56  C   UNL A   1      41.126  31.833  36.137  1.00  0.00     0.049 A 
ATOM     57  H   UNL A   1      41.083  30.785  34.307  1.00  0.00     0.167 HD
ATOM     58  C   UNL A   1      39.269  32.891  34.877  1.00  0.00     0.074 A 
ATOM     59  C   UNL A   1      38.189  33.846  34.735  1.00  0.00     0.031 C 
ATOM     60  C   UNL A   1      40.051  32.781  35.979  1.00  0.00     0.037 A 
BRANCH  47  61
ATOM     61  C   UNL A   1      44.335  28.338  35.601  1.00  0.00     0.058 A 
ATOM     62  C   UNL A   1      44.080  27.198  36.380  1.00  0.00     0.135 A 
ATOM     63  C   UNL A   1      45.670  28.746  35.454  1.00  0.00     0.135 A 
ATOM     64  F   UNL A   1      42.819  26.774  36.565  1.00  0.00    -0.206 F 
ATOM     65  C   UNL A   1      45.105  26.509  37.018  1.00  0.00     0.059 A 
ATOM     66  C   UNL A   1      46.716  28.057  36.064  1.00  0.00     0.059 A 
ATOM     67  F   UNL A   1      45.970  29.829  34.720  1.00  0.00    -0.206 F 
ATOM     68  C   UNL A   1      46.421  26.950  36.858  1.00  0.00     0.060 A 
BRANCH  68  69
ATOM     69  S   UNL A   1      47.741  26.056  37.703  1.00  0.00     0.124 S 
ATOM     70  O   UNL A   1      47.233  24.687  37.666  1.00  0.00    -0.237 OA
ATOM     71  O   UNL A   1      48.898  26.325  36.856  1.00  0.00    -0.237 OA
ATOM     72  O   UNL A   1      47.778  26.676  39.024  1.00  0.00    -0.744 OA
ENDBRANCH  68  69
ENDBRANCH  47  61
BRANCH  48  73
ATOM     73  C   UNL A   1      36.817  32.886  30.860  1.00  0.00     0.058 A 
ATOM     74  C   UNL A   1      35.496  32.534  31.170  1.00  0.00     0.135 A 
ATOM     75  C   UNL A   1      37.021  33.892  29.904  1.00  0.00     0.135 A 
ATOM     76  F   UNL A   1      35.253  31.572  32.075  1.00  0.00    -0.206 F 
ATOM     77  C   UNL A   1      34.413  33.148  30.550  1.00  0.00     0.059 A 
ATOM     78  C   UNL A   1      35.954  34.537  29.285  1.00  0.00     0.059 A 
ATOM     79  F   UNL A   1      38.267  34.276  29.588  1.00  0.00    -0.206 F 
ATOM     80  C   UNL A   1      34.654  34.152  29.610  1.00  0.00     0.060 A 
BRANCH  80  81
ATOM     81  S   UNL A   1      33.242  34.992  28.859  1.00  0.00     0.124 S 
ATOM     82  O   UNL A   1      33.884  36.145  28.238  1.00  0.00    -0.237 OA
ATOM     83  O   UNL A   1      32.728  33.978  27.945  1.00  0.00    -0.237 OA
ATOM     84  O   UNL A   1      32.384  35.286  30.002  1.00  0.00    -0.744 OA
ENDBRANCH  80  81
ENDBRANCH  48  73
BRANCH  60  85
ATOM     85  C   UNL A   1      39.786  33.732  37.109  1.00  0.00     0.058 A 
ATOM     86  C   UNL A   1      38.867  33.427  38.125  1.00  0.00     0.135 A 
ATOM     87  C   UNL A   1      40.496  34.940  37.204  1.00  0.00     0.135 A 
ATOM     88  F   UNL A   1      38.159  32.287  38.075  1.00  0.00    -0.206 F 
ATOM     89  C   UNL A   1      38.648  34.296  39.189  1.00  0.00     0.059 A 
ATOM     90  C   UNL A   1      40.307  35.814  38.270  1.00  0.00     0.059 A 
ATOM     91  F   UNL A   1      41.392  35.273  36.261  1.00  0.00    -0.206 F 
ATOM     92  C   UNL A   1      39.373  35.488  39.252  1.00  0.00     0.060 A 
BRANCH  92  93
ATOM     93  S   UNL A   1      39.109  36.592  40.656  1.00  0.00     0.124 S 
ATOM     94  O   UNL A   1      40.478  36.826  41.105  1.00  0.00    -0.237 OA
ATOM     95  O   UNL A   1      38.440  37.733  40.040  1.00  0.00    -0.237 OA
ATOM     96  O   UNL A   1      38.279  35.799  41.558  1.00  0.00    -0.744 OA
ENDBRANCH  92  93
ENDBRANCH  60  85
ENDBRANCH  34  35
ENDBRANCH  26  29
ENDBRANCH  24  25
ENDBRANCH   1  24
TORSDOF 15
ENDMDL
MODEL 2
REMARK VINA RESULT:     -11.8      1.995      2.829
REMARK SMILES C[C@H](NC1=[NH+]S(=O)(=O)c2ccccc21)C(=O)NCCCCNC(=O)c1ccc(-c2c3nc(c(-c4c(F)cc(S(=O)(=O)[O-])cc4F)c4ccc([nH]4)c(-c4c(F)cc(S(=O)(=O)[O-])cc4F)c4nc(c(-c5c(F)cc(S(=O)(=O)[O-])cc5F)c5ccc2[nH]5)C=C4)C=C3)cc1
REMARK SMILES IDX 20 1 19 2 18 3 17 4 15 5 16 6 2 8 1 9 3 10 4 11 5 13 14 14
REMARK SMILES IDX 6 15 9 17 13 18 7 19 8 20 10 21 12 22 11 23 21 24 22 25
REMARK SMILES IDX 23 26 24 28 25 29 26 30 90 31 27 32 89 33 28 34 29 35 30 36
REMARK SMILES IDX 83 37 31 38 88 39 82 40 84 41 32 42 87 43 81 44 80 45 33 47
REMARK SMILES IDX 67 48 46 49 66 50 47 51 50 52 65 53 85 54 48 55 49 56 64 58
REMARK SMILES IDX 86 59 51 60 34 61 35 62 44 63 36 64 37 65 43 66 45 67 38 68
REMARK SMILES IDX 39 69 40 70 41 71 42 72 68 73 69 74 78 75 70 76 71 77 77 78
REMARK SMILES IDX 79 79 72 80 73 81 74 82 75 83 76 84 52 85 53 86 62 87 54 88
REMARK SMILES IDX 55 89 61 90 63 91 56 92 57 93 58 94 59 95 60 96
REMARK H PARENT 17 7 3 12 5 16 22 27 84 46 50 57
REMARK Flexibility Score: inf
ROOT
ATOM      1  C   UNL A   1      37.784  23.675  25.827  1.00  0.00     0.023 C 
ENDROOT
BRANCH   1   2
ATOM      2  C   UNL A   1      37.592  22.332  25.114  1.00  0.00     0.023 C 
BRANCH   2   3
ATOM      3  C   UNL A   1      36.566  22.345  23.981  1.00  0.00     0.116 C 
BRANCH   3   4
ATOM      4  N   UNL A   1      35.403  21.543  24.309  1.00  0.00    -0.352 N 
ATOM      5  C   UNL A   1      34.203  21.867  24.874  1.00  0.00     0.264 C 
ATOM      6  O   UNL A   1      33.379  20.956  24.996  1.00  0.00    -0.270 OA
ATOM      7  H   UNL A   1      35.495  20.590  24.081  1.00  0.00     0.163 HD
BRANCH   5   8
ATOM      8  C   UNL A   1      33.854  23.303  25.300  1.00  0.00     0.258 C 
ATOM      9  C   UNL A   1      33.755  23.396  26.821  1.00  0.00     0.069 C 
BRANCH   8  10
ATOM     10  N   UNL A   1      32.618  23.778  24.677  1.00  0.00    -0.262 N 
ATOM     11  C   UNL A   1      32.586  24.729  23.696  1.00  0.00     0.292 C 
ATOM     12  H   UNL A   1      31.765  23.391  24.980  1.00  0.00     0.306 HD
ATOM     13  N   UNL A   1      33.571  24.977  22.884  1.00  0.00    -0.162 N 
ATOM     14  C   UNL A   1      31.398  25.598  23.539  1.00  0.00     0.087 A 
ATOM     15  S   UNL A   1      33.180  26.174  21.833  1.00  0.00     0.329 S 
ATOM     16  H   UNL A   1      34.437  24.507  22.897  1.00  0.00     0.327 HD
ATOM     17  C   UNL A   1      31.617  26.501  22.518  1.00  0.00     0.124 A 
ATOM     18  C   UNL A   1      30.258  25.680  24.319  1.00  0.00     0.018 A 
ATOM     19  O   UNL A   1      32.955  25.638  20.510  1.00  0.00    -0.179 OA
ATOM     20  O   UNL A   1      34.003  27.342  22.072  1.00  0.00    -0.179 OA
ATOM     21  C   UNL A   1      30.745  27.528  22.216  1.00  0.00     0.025 A 
ATOM     22  C   UNL A   1      29.347  26.705  24.034  1.00  0.00     0.001 A 
ATOM     23  C   UNL A   1      29.588  27.622  22.992  1.00  0.00     0.002 A 
ENDBRANCH   8  10
ENDBRANCH   5   8
ENDBRANCH   3   4
ENDBRANCH   2   3
ENDBRANCH   1   2
BRANCH   1  24
ATOM     24  C   UNL A   1      38.903  23.717  26.863  1.00  0.00     0.116 C 
BRANCH  24  25
ATOM     25  N   UNL A   1      40.225  23.832  26.266  1.00  0.00    -0.352 N 
ATOM     26  C   UNL A   1      41.173  24.811  26.442  1.00  0.00     0.251 C 
ATOM     27  H   UNL A   1      40.474  23.107  25.649  1.00  0.00     0.163 HD
ATOM     28  O   UNL A   1      42.187  24.804  25.750  1.00  0.00    -0.269 OA
BRANCH  26  29
ATOM     29  C   UNL A   1      40.953  25.884  27.436  1.00  0.00     0.039 A 
ATOM     30  C   UNL A   1      39.970  25.707  28.413  1.00  0.00     0.014 A 
ATOM     31  C   UNL A   1      41.717  27.055  27.412  1.00  0.00     0.014 A 
ATOM     32  C   UNL A   1      39.801  26.670  29.410  1.00  0.00     0.010 A 
ATOM     33  C   UNL A   1      41.587  27.987  28.440  1.00  0.00     0.010 A 
ATOM     34  C   UNL A   1      40.634  27.800  29.453  1.00  0.00    -0.014 A 
BRANCH  34  35
ATOM     35  C   UNL A   1      40.534  28.790  30.555  1.00  0.00     0.031 A 
ATOM     36  C   UNL A   1      41.412  28.662  31.769  1.00  0.00     0.074 A 
ATOM     37  C   UNL A   1      39.599  29.758  30.497  1.00  0.00     0.049 A 
ATOM     38  N   UNL A   1      41.410  29.371  32.868  1.00  0.00    -0.248 NA
ATOM     39  C   UNL A   1      42.407  27.577  31.755  1.00  0.00     0.031 C 
ATOM     40  C   UNL A   1      38.652  29.956  29.398  1.00  0.00     0.029 A 
ATOM     41  N   UNL A   1      39.280  30.750  31.392  1.00  0.00    -0.354 N 
ATOM     42  C   UNL A   1      42.384  28.809  33.685  1.00  0.00     0.074 A 
ATOM     43  C   UNL A   1      42.928  27.674  32.970  1.00  0.00     0.031 C 
ATOM     44  C   UNL A   1      37.869  31.011  29.676  1.00  0.00     0.029 A 
ATOM     45  C   UNL A   1      38.236  31.546  30.984  1.00  0.00     0.049 A 
ATOM     46  H   UNL A   1      39.755  30.878  32.244  1.00  0.00     0.167 HD
ATOM     47  C   UNL A   1      42.799  29.211  34.910  1.00  0.00     0.037 A 
ATOM     48  C   UNL A   1      37.636  32.584  31.597  1.00  0.00     0.037 A 
ATOM     49  C   UNL A   1      42.277  30.359  35.604  1.00  0.00     0.049 A 
ATOM     50  C   UNL A   1      38.132  33.029  32.944  1.00  0.00     0.074 A 
ATOM     51  C   UNL A   1      42.674  30.883  36.822  1.00  0.00     0.029 A 
ATOM     52  N   UNL A   1      41.247  31.164  35.141  1.00  0.00    -0.354 N 
ATOM     53  N   UNL A   1      39.090  32.518  33.678  1.00  0.00    -0.248 NA
ATOM     54  C   UNL A   1      37.469  34.195  33.545  1.00  0.00     0.031 C 
ATOM     55  C   UNL A   1      41.866  31.990  37.108  1.00  0.00     0.029 A 
ATOM     56  C   UNL A   1      40.987  32.174  36.051  1.00  0.00     0.049 A 
ATOM     57  H   UNL A   1      40.770  31.036  34.288  1.00  0.00     0.167 HD
ATOM     58  C   UNL A   1      39.160  33.312  34.818  1.00  0.00     0.074 A 
ATOM     59  C   UNL A   1      38.153  34.343  34.671  1.00  0.00     0.031 C 
ATOM     60  C   UNL A   1      39.985  33.197  35.887  1.00  0.00     0.037 A 
BRANCH  47  61
ATOM     61  C   UNL A   1      43.878  28.403  35.573  1.00  0.00     0.058 A 
ATOM     62  C   UNL A   1      43.572  27.363  36.464  1.00  0.00     0.135 A 
ATOM     63  C   UNL A   1      45.232  28.660  35.304  1.00  0.00     0.135 A 
ATOM     64  F   UNL A   1      42.294  27.086  36.767  1.00  0.00    -0.206 F 
ATOM     65  C   UNL A   1      44.570  26.627  37.093  1.00  0.00     0.059 A 
ATOM     66  C   UNL A   1      46.248  27.920  35.903  1.00  0.00     0.059 A 
ATOM     67  F   UNL A   1      45.579  29.643  34.459  1.00  0.00    -0.206 F 
ATOM     68  C   UNL A   1      45.907  26.918  36.811  1.00  0.00     0.060 A 
BRANCH  68  69
ATOM     69  S   UNL A   1      47.194  25.967  37.644  1.00  0.00     0.124 S 
ATOM     70  O   UNL A   1      47.119  24.693  36.934  1.00  0.00    -0.237 OA
ATOM     71  O   UNL A   1      48.391  26.763  37.391  1.00  0.00    -0.237 OA
ATOM     72  O   UNL A   1      46.747  25.938  39.033  1.00  0.00    -0.744 OA
ENDBRANCH  68  69
ENDBRANCH  47  61
BRANCH  48  73
ATOM     73  C   UNL A   1      36.517  33.291  30.925  1.00  0.00     0.058 A 
ATOM     74  C   UNL A   1      35.207  33.190  31.414  1.00  0.00     0.135 A 
ATOM     75  C   UNL A   1      36.737  34.103  29.802  1.00  0.00     0.135 A 
ATOM     76  F   UNL A   1      34.949  32.419  32.483  1.00  0.00    -0.206 F 
ATOM     77  C   UNL A   1      34.149  33.860  30.810  1.00  0.00     0.059 A 
ATOM     78  C   UNL A   1      35.698  34.800  29.191  1.00  0.00     0.059 A 
ATOM     79  F   UNL A   1      37.976  34.246  29.308  1.00  0.00    -0.206 F 
ATOM     80  C   UNL A   1      34.406  34.666  29.699  1.00  0.00     0.060 A 
BRANCH  80  81
ATOM     81  S   UNL A   1      33.039  35.587  28.961  1.00  0.00     0.124 S 
ATOM     82  O   UNL A   1      33.745  36.676  28.296  1.00  0.00    -0.237 OA
ATOM     83  O   UNL A   1      32.431  34.590  28.085  1.00  0.00    -0.237 OA
ATOM     84  O   UNL A   1      32.233  35.968  30.117  1.00  0.00    -0.744 OA
ENDBRANCH  80  81
ENDBRANCH  48  73
BRANCH  60  85
ATOM     85  C   UNL A   1      39.854  34.226  36.972  1.00  0.00     0.058 A 
ATOM     86  C   UNL A   1      40.449  35.492  36.859  1.00  0.00     0.135 A 
ATOM     87  C   UNL A   1      39.084  33.960  38.115  1.00  0.00     0.135 A 
ATOM     88  F   UNL A   1      41.202  35.792  35.788  1.00  0.00    -0.206 F 
ATOM     89  C   UNL A   1      40.299  36.455  37.852  1.00  0.00     0.059 A 
ATOM     90  C   UNL A   1      38.904  34.915  39.111  1.00  0.00     0.059 A 
ATOM     91  F   UNL A   1      38.488  32.766  38.266  1.00  0.00    -0.206 F 
ATOM     92  C   UNL A   1      39.524  36.156  38.975  1.00  0.00     0.060 A 
BRANCH  92  93
ATOM     93  S   UNL A   1      39.303  37.425  40.241  1.00  0.00     0.124 S 
ATOM     94  O   UNL A   1      38.418  38.366  39.560  1.00  0.00    -0.237 OA
ATOM     95  O   UNL A   1      38.705  36.674  41.340  1.00  0.00    -0.237 OA
ATOM     96  O   UNL A   1      40.662  37.901  40.482  1.00  0.00    -0.744 OA
ENDBRANCH  92  93
ENDBRANCH  60  85
ENDBRANCH  34  35
ENDBRANCH  26  29
ENDBRANCH  24  25
ENDBRANCH   1  24
TORSDOF 15
ENDMDL
MODEL 3
REMARK VINA RESULT:     -11.8      4.669     10.507
REMARK SMILES C[C@H](NC1=[NH+]S(=O)(=O)c2ccccc21)C(=O)NCCCCNC(=O)c1ccc(-c2c3nc(c(-c4c(F)cc(S(=O)(=O)[O-])cc4F)c4ccc([nH]4)c(-c4c(F)cc(S(=O)(=O)[O-])cc4F)c4nc(c(-c5c(F)cc(S(=O)(=O)[O-])cc5F)c5ccc2[nH]5)C=C4)C=C3)cc1
REMARK SMILES IDX 20 1 19 2 18 3 17 4 15 5 16 6 2 8 1 9 3 10 4 11 5 13 14 14
REMARK SMILES IDX 6 15 9 17 13 18 7 19 8 20 10 21 12 22 11 23 21 24 22 25
REMARK SMILES IDX 23 26 24 28 25 29 26 30 90 31 27 32 89 33 28 34 29 35 30 36
REMARK SMILES IDX 83 37 31 38 88 39 82 40 84 41 32 42 87 43 81 44 80 45 33 47
REMARK SMILES IDX 67 48 46 49 66 50 47 51 50 52 65 53 85 54 48 55 49 56 64 58
REMARK SMILES IDX 86 59 51 60 34 61 35 62 44 63 36 64 37 65 43 66 45 67 38 68
REMARK SMILES IDX 39 69 40 70 41 71 42 72 68 73 69 74 78 75 70 76 71 77 77 78
REMARK SMILES IDX 79 79 72 80 73 81 74 82 75 83 76 84 52 85 53 86 62 87 54 88
REMARK SMILES IDX 55 89 61 90 63 91 56 92 57 93 58 94 59 95 60 96
REMARK H PARENT 17 7 3 12 5 16 22 27 84 46 50 57
REMARK Flexibility Score: inf
ROOT
ATOM      1  C   UNL A   1      32.174  27.730  26.927  1.00  0.00     0.023 C 
ENDROOT
BRANCH   1   2
ATOM      2  C   UNL A   1      31.519  28.009  25.571  1.00  0.00     0.023 C 
BRANCH   2   3
ATOM      3  C   UNL A   1      30.635  26.881  25.038  1.00  0.00     0.116 C 
BRANCH   3   4
ATOM      4  N   UNL A   1      30.388  25.876  26.054  1.00  0.00    -0.352 N 
ATOM      5  C   UNL A   1      30.716  24.552  26.125  1.00  0.00     0.264 C 
ATOM      6  O   UNL A   1      30.395  23.952  27.155  1.00  0.00    -0.270 OA
ATOM      7  H   UNL A   1      29.893  26.209  26.837  1.00  0.00     0.163 HD
BRANCH   5   8
ATOM      8  C   UNL A   1      31.493  23.835  25.008  1.00  0.00     0.258 C 
ATOM      9  C   UNL A   1      30.657  23.779  23.732  1.00  0.00     0.069 C 
BRANCH   8  10
ATOM     10  N   UNL A   1      31.912  22.490  25.405  1.00  0.00    -0.262 N 
ATOM     11  C   UNL A   1      33.187  22.021  25.249  1.00  0.00     0.292 C 
ATOM     12  H   UNL A   1      31.240  21.891  25.804  1.00  0.00     0.306 HD
ATOM     13  N   UNL A   1      34.244  22.778  25.200  1.00  0.00    -0.162 N 
ATOM     14  C   UNL A   1      33.431  20.573  25.068  1.00  0.00     0.087 A 
ATOM     15  S   UNL A   1      35.603  21.878  25.015  1.00  0.00     0.329 S 
ATOM     16  H   UNL A   1      34.231  23.761  25.266  1.00  0.00     0.327 HD
ATOM     17  C   UNL A   1      34.782  20.351  24.889  1.00  0.00     0.124 A 
ATOM     18  C   UNL A   1      32.524  19.537  24.936  1.00  0.00     0.018 A 
ATOM     19  O   UNL A   1      36.364  21.846  26.243  1.00  0.00    -0.179 OA
ATOM     20  O   UNL A   1      36.210  22.142  23.727  1.00  0.00    -0.179 OA
ATOM     21  C   UNL A   1      35.311  19.117  24.568  1.00  0.00     0.025 A 
ATOM     22  C   UNL A   1      33.026  18.268  24.618  1.00  0.00     0.001 A 
ATOM     23  C   UNL A   1      34.408  18.060  24.434  1.00  0.00     0.002 A 
ENDBRANCH   8  10
ENDBRANCH   5   8
ENDBRANCH   3   4
ENDBRANCH   2   3
ENDBRANCH   1   2
BRANCH   1  24
ATOM     24  C   UNL A   1      33.533  28.389  27.150  1.00  0.00     0.116 C 
BRANCH  24  25
ATOM     25  N   UNL A   1      33.430  29.799  27.489  1.00  0.00    -0.352 N 
ATOM     26  C   UNL A   1      34.366  30.620  28.073  1.00  0.00     0.251 C 
ATOM     27  H   UNL A   1      32.571  30.225  27.270  1.00  0.00     0.163 HD
ATOM     28  O   UNL A   1      34.051  31.761  28.400  1.00  0.00    -0.269 OA
BRANCH  26  29
ATOM     29  C   UNL A   1      35.732  30.116  28.336  1.00  0.00     0.039 A 
ATOM     30  C   UNL A   1      36.665  30.126  27.296  1.00  0.00     0.014 A 
ATOM     31  C   UNL A   1      36.095  29.646  29.601  1.00  0.00     0.014 A 
ATOM     32  C   UNL A   1      37.982  29.732  27.542  1.00  0.00     0.010 A 
ATOM     33  C   UNL A   1      37.422  29.310  29.860  1.00  0.00     0.010 A 
ATOM     34  C   UNL A   1      38.380  29.356  28.836  1.00  0.00    -0.014 A 
BRANCH  34  35
ATOM     35  C   UNL A   1      39.794  29.023  29.142  1.00  0.00     0.031 A 
ATOM     36  C   UNL A   1      40.703  30.059  29.743  1.00  0.00     0.074 A 
ATOM     37  C   UNL A   1      40.280  27.812  28.805  1.00  0.00     0.049 A 
ATOM     38  N   UNL A   1      41.984  29.986  29.997  1.00  0.00    -0.248 NA
ATOM     39  C   UNL A   1      40.096  31.357  30.079  1.00  0.00     0.031 C 
ATOM     40  C   UNL A   1      39.513  26.739  28.169  1.00  0.00     0.029 A 
ATOM     41  N   UNL A   1      41.540  27.285  28.938  1.00  0.00    -0.354 N 
ATOM     42  C   UNL A   1      42.342  31.230  30.502  1.00  0.00     0.074 A 
ATOM     43  C   UNL A   1      41.151  32.052  30.481  1.00  0.00     0.031 C 
ATOM     44  C   UNL A   1      40.314  25.678  27.979  1.00  0.00     0.029 A 
ATOM     45  C   UNL A   1      41.657  26.004  28.451  1.00  0.00     0.049 A 
ATOM     46  H   UNL A   1      42.290  27.777  29.343  1.00  0.00     0.167 HD
ATOM     47  C   UNL A   1      43.549  31.645  30.958  1.00  0.00     0.037 A 
ATOM     48  C   UNL A   1      42.725  25.187  28.386  1.00  0.00     0.037 A 
ATOM     49  C   UNL A   1      44.724  30.815  31.007  1.00  0.00     0.049 A 
ATOM     50  C   UNL A   1      44.047  25.659  28.923  1.00  0.00     0.074 A 
ATOM     51  C   UNL A   1      45.976  31.124  31.508  1.00  0.00     0.029 A 
ATOM     52  N   UNL A   1      44.791  29.510  30.542  1.00  0.00    -0.354 N 
ATOM     53  N   UNL A   1      44.354  26.820  29.447  1.00  0.00    -0.248 NA
ATOM     54  C   UNL A   1      45.166  24.708  28.866  1.00  0.00     0.031 C 
ATOM     55  C   UNL A   1      46.809  30.015  31.321  1.00  0.00     0.029 A 
ATOM     56  C   UNL A   1      46.065  29.003  30.734  1.00  0.00     0.049 A 
ATOM     57  H   UNL A   1      44.043  29.016  30.135  1.00  0.00     0.167 HD
ATOM     58  C   UNL A   1      45.696  26.734  29.802  1.00  0.00     0.074 A 
ATOM     59  C   UNL A   1      46.138  25.402  29.441  1.00  0.00     0.031 C 
ATOM     60  C   UNL A   1      46.488  27.672  30.375  1.00  0.00     0.037 A 
BRANCH  47  61
ATOM     61  C   UNL A   1      43.651  33.061  31.448  1.00  0.00     0.058 A 
ATOM     62  C   UNL A   1      44.036  34.107  30.594  1.00  0.00     0.135 A 
ATOM     63  C   UNL A   1      43.348  33.381  32.781  1.00  0.00     0.135 A 
ATOM     64  F   UNL A   1      44.352  33.852  29.314  1.00  0.00    -0.206 F 
ATOM     65  C   UNL A   1      44.151  35.415  31.051  1.00  0.00     0.059 A 
ATOM     66  C   UNL A   1      43.432  34.688  33.255  1.00  0.00     0.059 A 
ATOM     67  F   UNL A   1      42.974  32.420  33.640  1.00  0.00    -0.206 F 
ATOM     68  C   UNL A   1      43.852  35.695  32.387  1.00  0.00     0.060 A 
BRANCH  68  69
ATOM     69  S   UNL A   1      44.019  37.393  32.972  1.00  0.00     0.124 S 
ATOM     70  O   UNL A   1      43.813  38.146  31.738  1.00  0.00    -0.237 OA
ATOM     71  O   UNL A   1      42.950  37.494  33.960  1.00  0.00    -0.237 OA
ATOM     72  O   UNL A   1      45.374  37.433  33.513  1.00  0.00    -0.744 OA
ENDBRANCH  68  69
ENDBRANCH  47  61
BRANCH  48  73
ATOM     73  C   UNL A   1      42.577  23.825  27.813  1.00  0.00     0.058 A 
ATOM     74  C   UNL A   1      42.621  23.621  26.426  1.00  0.00     0.135 A 
ATOM     75  C   UNL A   1      42.421  22.700  28.637  1.00  0.00     0.135 A 
ATOM     76  F   UNL A   1      42.764  24.669  25.599  1.00  0.00    -0.206 F 
ATOM     77  C   UNL A   1      42.504  22.351  25.871  1.00  0.00     0.059 A 
ATOM     78  C   UNL A   1      42.322  21.416  28.107  1.00  0.00     0.059 A 
ATOM     79  F   UNL A   1      42.392  22.842  29.970  1.00  0.00    -0.206 F 
ATOM     80  C   UNL A   1      42.358  21.254  26.722  1.00  0.00     0.060 A 
BRANCH  80  81
ATOM     81  S   UNL A   1      42.275  19.601  25.998  1.00  0.00     0.124 S 
ATOM     82  O   UNL A   1      42.729  18.772  27.108  1.00  0.00    -0.237 OA
ATOM     83  O   UNL A   1      40.863  19.485  25.651  1.00  0.00    -0.237 OA
ATOM     84  O   UNL A   1      43.186  19.691  24.861  1.00  0.00    -0.744 OA
ENDBRANCH  80  81
ENDBRANCH  48  73
BRANCH  60  85
ATOM     85  C   UNL A   1      47.908  27.287  30.674  1.00  0.00     0.058 A 
ATOM     86  C   UNL A   1      48.273  26.732  31.910  1.00  0.00     0.135 A 
ATOM     87  C   UNL A   1      48.904  27.429  29.695  1.00  0.00     0.135 A 
ATOM     88  F   UNL A   1      47.358  26.582  32.880  1.00  0.00    -0.206 F 
ATOM     89  C   UNL A   1      49.583  26.346  32.172  1.00  0.00     0.059 A 
ATOM     90  C   UNL A   1      50.217  27.031  29.928  1.00  0.00     0.059 A 
ATOM     91  F   UNL A   1      48.602  27.948  28.494  1.00  0.00    -0.206 F 
ATOM     92  C   UNL A   1      50.549  26.499  31.174  1.00  0.00     0.060 A 
BRANCH  92  93
ATOM     93  S   UNL A   1      52.239  25.960  31.509  1.00  0.00     0.124 S 
ATOM     94  O   UNL A   1      52.662  26.933  32.512  1.00  0.00    -0.237 OA
ATOM     95  O   UNL A   1      52.046  24.596  31.991  1.00  0.00    -0.237 OA
ATOM     96  O   UNL A   1      52.894  26.072  30.209  1.00  0.00    -0.744 OA
ENDBRANCH  92  93
ENDBRANCH  60  85
ENDBRANCH  34  35
ENDBRANCH  26  29
ENDBRANCH  24  25
ENDBRANCH   1  24
TORSDOF 15
ENDMDL
