MODEL 1
REMARK VINA RESULT:     -14.1      0.000      0.000
REMARK SMILES Cc1nn(C(C)C)c(C)c1S(=O)(=O)Nc1cccc(C(=O)NCCCCNC(=O)c2ccc(-c3c4nc(c(-c5c(F)cc(S(=O)(=O)[O-])cc5F)c5ccc([nH]5)c(-c5c(F)cc(S(=O)(=O)[O-])cc5F)c5nc(c(-c6c(F)cc(S(=O)(=O)[O-])cc6F)c6ccc3[nH]6)C=C5)C=C4)cc2)c1C
REMARK SMILES IDX 24 1 23 2 22 3 20 4 21 5 19 7 15 8 16 9 96 10 17 11 97 12
REMARK SMILES IDX 18 13 14 14 11 16 12 17 13 18 10 19 1 20 2 21 3 22 4 23 8 24
REMARK SMILES IDX 9 25 5 26 6 27 7 28 25 29 26 30 27 31 28 32 29 34 30 35
REMARK SMILES IDX 31 36 95 37 32 38 94 39 33 40 34 41 35 42 88 43 36 44 93 45
REMARK SMILES IDX 87 46 89 47 37 48 92 49 86 50 85 51 38 53 72 54 51 55 71 56
REMARK SMILES IDX 52 57 55 58 70 59 90 60 53 61 54 62 69 64 91 65 56 66 39 67
REMARK SMILES IDX 40 68 49 69 41 70 42 71 48 72 50 73 43 74 44 75 45 76 46 77
REMARK SMILES IDX 47 78 73 79 74 80 83 81 75 82 76 83 82 84 84 85 77 86 78 87
REMARK SMILES IDX 79 88 80 89 81 90 57 91 58 92 67 93 59 94 60 95 66 96 68 97
REMARK SMILES IDX 61 98 62 99 63 100 64 101 65 102
REMARK H PARENT 22 6 14 15 27 33 89 52 55 63
REMARK Flexibility Score: inf
ROOT
ATOM      1  C   UNL A   1      31.944  30.244  26.052  1.00  0.00     0.023 C 
ENDROOT
BRANCH   1   2
ATOM      2  C   UNL A   1      32.174  29.205  24.940  1.00  0.00     0.116 C 
BRANCH   2   3
ATOM      3  N   UNL A   1      31.221  29.341  23.847  1.00  0.00    -0.352 N 
ATOM      4  C   UNL A   1      30.665  28.500  22.917  1.00  0.00     0.251 C 
ATOM      5  O   UNL A   1      29.848  29.037  22.169  1.00  0.00    -0.269 OA
ATOM      6  H   UNL A   1      30.896  30.265  23.752  1.00  0.00     0.163 HD
BRANCH   4   7
ATOM      7  C   UNL A   1      30.958  27.025  22.800  1.00  0.00     0.044 A 
ATOM      8  C   UNL A   1      30.821  24.733  23.665  1.00  0.00     0.053 A 
ATOM      9  C   UNL A   1      31.724  24.301  22.694  1.00  0.00     0.027 A 
ATOM     10  C   UNL A   1      30.322  26.066  23.640  1.00  0.00    -0.014 A 
ATOM     11  C   UNL A   1      32.240  25.207  21.781  1.00  0.00     0.003 A 
ATOM     12  C   UNL A   1      29.172  26.422  24.558  1.00  0.00     0.047 C 
ATOM     13  C   UNL A   1      31.881  26.552  21.857  1.00  0.00     0.014 A 
BRANCH   8  14
ATOM     14  N   UNL A   1      30.407  23.868  24.719  1.00  0.00    -0.279 N 
ATOM     15  H   UNL A   1      29.440  23.702  24.802  1.00  0.00     0.180 HD
BRANCH  14  16
ATOM     16  S   UNL A   1      31.392  23.112  25.824  1.00  0.00     0.265 S 
ATOM     17  O   UNL A   1      31.244  21.677  25.690  1.00  0.00    -0.201 OA
ATOM     18  O   UNL A   1      31.086  23.763  27.083  1.00  0.00    -0.201 OA
BRANCH  16  19
ATOM     19  C   UNL A   1      33.090  23.364  25.658  1.00  0.00     0.131 A 
ATOM     20  C   UNL A   1      33.529  25.969  25.949  1.00  0.00     0.070 C 
ATOM     21  C   UNL A   1      33.861  24.553  25.674  1.00  0.00     0.080 A 
ATOM     22  N   UNL A   1      35.143  24.294  25.385  1.00  0.00    -0.176 NA
ATOM     23  N   UNL A   1      35.221  22.961  25.284  1.00  0.00    -0.266 N 
ATOM     24  C   UNL A   1      34.018  22.339  25.487  1.00  0.00     0.056 A 
ATOM     25  C   UNL A   1      33.857  20.862  25.511  1.00  0.00     0.068 C 
BRANCH  23  26
ATOM     26  C   UNL A   1      36.514  22.353  24.974  1.00  0.00     0.101 C 
ATOM     27  C   UNL A   1      36.876  22.563  23.504  1.00  0.00     0.033 C 
ATOM     28  C   UNL A   1      37.622  22.864  25.897  1.00  0.00     0.033 C 
ENDBRANCH  23  26
ENDBRANCH  16  19
ENDBRANCH  14  16
ENDBRANCH   8  14
ENDBRANCH   4   7
ENDBRANCH   2   3
ENDBRANCH   1   2
BRANCH   1  29
ATOM     29  C   UNL A   1      32.801  30.067  27.310  1.00  0.00     0.023 C 
BRANCH  29  30
ATOM     30  C   UNL A   1      34.257  29.742  27.027  1.00  0.00     0.116 C 
BRANCH  30  31
ATOM     31  N   UNL A   1      35.165  30.871  27.132  1.00  0.00    -0.352 N 
ATOM     32  C   UNL A   1      36.089  31.002  28.167  1.00  0.00     0.251 C 
ATOM     33  H   UNL A   1      35.127  31.573  26.443  1.00  0.00     0.163 HD
ATOM     34  O   UNL A   1      36.206  32.005  28.844  1.00  0.00    -0.269 OA
BRANCH  32  35
ATOM     35  C   UNL A   1      37.020  29.858  28.316  1.00  0.00     0.039 A 
ATOM     36  C   UNL A   1      37.022  29.119  29.504  1.00  0.00     0.014 A 
ATOM     37  C   UNL A   1      38.027  29.689  27.372  1.00  0.00     0.014 A 
ATOM     38  C   UNL A   1      38.124  28.313  29.810  1.00  0.00     0.010 A 
ATOM     39  C   UNL A   1      39.156  28.984  27.724  1.00  0.00     0.010 A 
ATOM     40  C   UNL A   1      39.222  28.306  28.951  1.00  0.00    -0.014 A 
BRANCH  40  41
ATOM     41  C   UNL A   1      40.522  27.705  29.237  1.00  0.00     0.031 A 
ATOM     42  C   UNL A   1      40.849  26.339  28.740  1.00  0.00     0.074 A 
ATOM     43  C   UNL A   1      41.510  28.460  29.766  1.00  0.00     0.049 A 
ATOM     44  N   UNL A   1      41.876  25.654  29.118  1.00  0.00    -0.248 NA
ATOM     45  C   UNL A   1      40.019  25.619  27.777  1.00  0.00     0.031 C 
ATOM     46  C   UNL A   1      42.946  28.216  29.650  1.00  0.00     0.029 A 
ATOM     47  N   UNL A   1      41.429  29.530  30.644  1.00  0.00    -0.354 N 
ATOM     48  C   UNL A   1      42.003  24.568  28.279  1.00  0.00     0.074 A 
ATOM     49  C   UNL A   1      40.795  24.571  27.486  1.00  0.00     0.031 C 
ATOM     50  C   UNL A   1      43.595  28.943  30.573  1.00  0.00     0.029 A 
ATOM     51  C   UNL A   1      42.593  29.552  31.427  1.00  0.00     0.049 A 
ATOM     52  H   UNL A   1      40.682  30.168  30.706  1.00  0.00     0.167 HD
ATOM     53  C   UNL A   1      43.167  23.857  28.263  1.00  0.00     0.037 A 
ATOM     54  C   UNL A   1      42.554  29.402  32.786  1.00  0.00     0.037 A 
ATOM     55  C   UNL A   1      44.122  24.382  29.232  1.00  0.00     0.049 A 
ATOM     56  C   UNL A   1      43.288  28.185  33.302  1.00  0.00     0.074 A 
ATOM     57  C   UNL A   1      45.183  25.265  29.116  1.00  0.00     0.029 A 
ATOM     58  N   UNL A   1      43.880  24.228  30.590  1.00  0.00    -0.354 N 
ATOM     59  N   UNL A   1      43.666  27.190  32.550  1.00  0.00    -0.248 NA
ATOM     60  C   UNL A   1      43.643  27.976  34.705  1.00  0.00     0.031 C 
ATOM     61  C   UNL A   1      45.560  25.672  30.418  1.00  0.00     0.029 A 
ATOM     62  C   UNL A   1      44.734  25.029  31.323  1.00  0.00     0.049 A 
ATOM     63  H   UNL A   1      43.198  23.633  30.976  1.00  0.00     0.167 HD
ATOM     64  C   UNL A   1      44.254  26.218  33.320  1.00  0.00     0.074 A 
ATOM     65  C   UNL A   1      44.244  26.773  34.658  1.00  0.00     0.031 C 
ATOM     66  C   UNL A   1      44.682  25.038  32.777  1.00  0.00     0.037 A 
BRANCH  53  67
ATOM     67  C   UNL A   1      43.541  22.852  27.193  1.00  0.00     0.058 A 
ATOM     68  C   UNL A   1      42.841  21.629  27.073  1.00  0.00     0.135 A 
ATOM     69  C   UNL A   1      44.593  23.020  26.273  1.00  0.00     0.135 A 
ATOM     70  F   UNL A   1      41.764  21.356  27.821  1.00  0.00    -0.206 F 
ATOM     71  C   UNL A   1      43.220  20.617  26.190  1.00  0.00     0.059 A 
ATOM     72  C   UNL A   1      45.026  22.000  25.416  1.00  0.00     0.059 A 
ATOM     73  F   UNL A   1      45.217  24.199  26.140  1.00  0.00    -0.206 F 
ATOM     74  C   UNL A   1      44.337  20.795  25.389  1.00  0.00     0.060 A 
BRANCH  74  75
ATOM     75  S   UNL A   1      44.867  19.438  24.329  1.00  0.00     0.124 S 
ATOM     76  O   UNL A   1      44.462  19.904  23.005  1.00  0.00    -0.237 OA
ATOM     77  O   UNL A   1      46.305  19.402  24.575  1.00  0.00    -0.237 OA
ATOM     78  O   UNL A   1      44.114  18.295  24.838  1.00  0.00    -0.744 OA
ENDBRANCH  74  75
ENDBRANCH  53  67
BRANCH  54  79
ATOM     79  C   UNL A   1      41.350  30.019  33.404  1.00  0.00     0.058 A 
ATOM     80  C   UNL A   1      41.370  31.417  33.564  1.00  0.00     0.135 A 
ATOM     81  C   UNL A   1      40.100  29.389  33.315  1.00  0.00     0.135 A 
ATOM     82  F   UNL A   1      42.543  32.059  33.691  1.00  0.00    -0.206 F 
ATOM     83  C   UNL A   1      40.220  32.180  33.412  1.00  0.00     0.059 A 
ATOM     84  C   UNL A   1      38.930  30.136  33.171  1.00  0.00     0.059 A 
ATOM     85  F   UNL A   1      40.023  28.057  33.183  1.00  0.00    -0.206 F 
ATOM     86  C   UNL A   1      39.024  31.529  33.122  1.00  0.00     0.060 A 
BRANCH  86  87
ATOM     87  S   UNL A   1      37.662  32.523  32.464  1.00  0.00     0.124 S 
ATOM     88  O   UNL A   1      36.615  31.525  32.271  1.00  0.00    -0.237 OA
ATOM     89  O   UNL A   1      37.438  33.470  33.557  1.00  0.00    -0.237 OA
ATOM     90  O   UNL A   1      38.222  33.095  31.245  1.00  0.00    -0.744 OA
ENDBRANCH  86  87
ENDBRANCH  54  79
BRANCH  66  91
ATOM     91  C   UNL A   1      45.164  23.811  33.521  1.00  0.00     0.058 A 
ATOM     92  C   UNL A   1      46.472  23.636  33.999  1.00  0.00     0.135 A 
ATOM     93  C   UNL A   1      44.241  22.804  33.910  1.00  0.00     0.135 A 
ATOM     94  F   UNL A   1      47.419  24.564  33.798  1.00  0.00    -0.206 F 
ATOM     95  C   UNL A   1      46.855  22.522  34.752  1.00  0.00     0.059 A 
ATOM     96  C   UNL A   1      44.587  21.716  34.708  1.00  0.00     0.059 A 
ATOM     97  F   UNL A   1      42.953  22.853  33.538  1.00  0.00    -0.206 F 
ATOM     98  C   UNL A   1      45.906  21.568  35.104  1.00  0.00     0.060 A 
BRANCH  98  99
ATOM     99  S   UNL A   1      46.371  20.166  36.138  1.00  0.00     0.124 S 
ATOM    100  O   UNL A   1      45.757  19.056  35.415  1.00  0.00    -0.237 OA
ATOM    101  O   UNL A   1      47.830  20.207  36.105  1.00  0.00    -0.237 OA
ATOM    102  O   UNL A   1      45.772  20.493  37.427  1.00  0.00    -0.744 OA
ENDBRANCH  98  99
ENDBRANCH  66  91
ENDBRANCH  40  41
ENDBRANCH  32  35
ENDBRANCH  30  31
ENDBRANCH  29  30
ENDBRANCH   1  29
TORSDOF 18
ENDMDL
MODEL 2
REMARK VINA RESULT:     -13.8      4.344     11.036
REMARK SMILES Cc1nn(C(C)C)c(C)c1S(=O)(=O)Nc1cccc(C(=O)NCCCCNC(=O)c2ccc(-c3c4nc(c(-c5c(F)cc(S(=O)(=O)[O-])cc5F)c5ccc([nH]5)c(-c5c(F)cc(S(=O)(=O)[O-])cc5F)c5nc(c(-c6c(F)cc(S(=O)(=O)[O-])cc6F)c6ccc3[nH]6)C=C5)C=C4)cc2)c1C
REMARK SMILES IDX 24 1 23 2 22 3 20 4 21 5 19 7 15 8 16 9 96 10 17 11 97 12
REMARK SMILES IDX 18 13 14 14 11 16 12 17 13 18 10 19 1 20 2 21 3 22 4 23 8 24
REMARK SMILES IDX 9 25 5 26 6 27 7 28 25 29 26 30 27 31 28 32 29 34 30 35
REMARK SMILES IDX 31 36 95 37 32 38 94 39 33 40 34 41 35 42 88 43 36 44 93 45
REMARK SMILES IDX 87 46 89 47 37 48 92 49 86 50 85 51 38 53 72 54 51 55 71 56
REMARK SMILES IDX 52 57 55 58 70 59 90 60 53 61 54 62 69 64 91 65 56 66 39 67
REMARK SMILES IDX 40 68 49 69 41 70 42 71 48 72 50 73 43 74 44 75 45 76 46 77
REMARK SMILES IDX 47 78 73 79 74 80 83 81 75 82 76 83 82 84 84 85 77 86 78 87
REMARK SMILES IDX 79 88 80 89 81 90 57 91 58 92 67 93 59 94 60 95 66 96 68 97
REMARK SMILES IDX 61 98 62 99 63 100 64 101 65 102
REMARK H PARENT 22 6 14 15 27 33 89 52 55 63
REMARK Flexibility Score: inf
ROOT
ATOM      1  C   UNL A   1      36.131  21.583  24.644  1.00  0.00     0.023 C 
ENDROOT
BRANCH   1   2
ATOM      2  C   UNL A   1      35.173  21.453  25.841  1.00  0.00     0.116 C 
BRANCH   2   3
ATOM      3  N   UNL A   1      34.125  20.469  25.610  1.00  0.00    -0.352 N 
ATOM      4  C   UNL A   1      32.795  20.506  25.278  1.00  0.00     0.251 C 
ATOM      5  O   UNL A   1      32.270  19.401  25.145  1.00  0.00    -0.269 OA
ATOM      6  H   UNL A   1      34.453  19.546  25.720  1.00  0.00     0.163 HD
BRANCH   4   7
ATOM      7  C   UNL A   1      31.999  21.766  25.040  1.00  0.00     0.044 A 
ATOM      8  C   UNL A   1      31.377  23.682  23.638  1.00  0.00     0.053 A 
ATOM      9  C   UNL A   1      30.688  24.254  24.707  1.00  0.00     0.027 A 
ATOM     10  C   UNL A   1      31.920  22.370  23.752  1.00  0.00    -0.014 A 
ATOM     11  C   UNL A   1      30.643  23.599  25.928  1.00  0.00     0.003 A 
ATOM     12  C   UNL A   1      32.446  21.698  22.503  1.00  0.00     0.047 C 
ATOM     13  C   UNL A   1      31.314  22.388  26.093  1.00  0.00     0.014 A 
BRANCH   8  14
ATOM     14  N   UNL A   1      31.588  24.405  22.428  1.00  0.00    -0.279 N 
ATOM     15  H   UNL A   1      31.219  24.008  21.606  1.00  0.00     0.180 HD
BRANCH  14  16
ATOM     16  S   UNL A   1      32.393  25.850  22.266  1.00  0.00     0.265 S 
ATOM     17  O   UNL A   1      31.512  26.820  21.650  1.00  0.00    -0.201 OA
ATOM     18  O   UNL A   1      33.646  25.493  21.628  1.00  0.00    -0.201 OA
BRANCH  16  19
ATOM     19  C   UNL A   1      32.905  26.627  23.718  1.00  0.00     0.131 A 
ATOM     20  C   UNL A   1      34.601  24.982  24.935  1.00  0.00     0.070 C 
ATOM     21  C   UNL A   1      33.758  26.186  24.760  1.00  0.00     0.080 A 
ATOM     22  N   UNL A   1      33.783  27.073  25.764  1.00  0.00    -0.176 NA
ATOM     23  N   UNL A   1      33.046  28.107  25.341  1.00  0.00    -0.266 N 
ATOM     24  C   UNL A   1      32.527  27.916  24.088  1.00  0.00     0.056 A 
ATOM     25  C   UNL A   1      31.744  28.949  23.363  1.00  0.00     0.068 C 
BRANCH  23  26
ATOM     26  C   UNL A   1      32.880  29.261  26.224  1.00  0.00     0.101 C 
ATOM     27  C   UNL A   1      31.777  29.005  27.251  1.00  0.00     0.033 C 
ATOM     28  C   UNL A   1      34.192  29.653  26.904  1.00  0.00     0.033 C 
ENDBRANCH  23  26
ENDBRANCH  16  19
ENDBRANCH  14  16
ENDBRANCH   8  14
ENDBRANCH   4   7
ENDBRANCH   2   3
ENDBRANCH   1   2
BRANCH   1  29
ATOM     29  C   UNL A   1      37.622  21.636  24.994  1.00  0.00     0.023 C 
BRANCH  29  30
ATOM     30  C   UNL A   1      38.024  22.849  25.812  1.00  0.00     0.116 C 
BRANCH  30  31
ATOM     31  N   UNL A   1      38.979  22.579  26.873  1.00  0.00    -0.352 N 
ATOM     32  C   UNL A   1      40.106  23.370  27.093  1.00  0.00     0.251 C 
ATOM     33  H   UNL A   1      38.824  21.806  27.462  1.00  0.00     0.163 HD
ATOM     34  O   UNL A   1      41.231  22.924  27.201  1.00  0.00    -0.269 OA
BRANCH  32  35
ATOM     35  C   UNL A   1      39.821  24.809  27.309  1.00  0.00     0.039 A 
ATOM     36  C   UNL A   1      40.328  25.755  26.412  1.00  0.00     0.014 A 
ATOM     37  C   UNL A   1      39.259  25.204  28.519  1.00  0.00     0.014 A 
ATOM     38  C   UNL A   1      40.403  27.098  26.800  1.00  0.00     0.010 A 
ATOM     39  C   UNL A   1      39.435  26.503  28.939  1.00  0.00     0.010 A 
ATOM     40  C   UNL A   1      40.023  27.455  28.093  1.00  0.00    -0.014 A 
BRANCH  40  41
ATOM     41  C   UNL A   1      40.252  28.756  28.718  1.00  0.00     0.031 A 
ATOM     42  C   UNL A   1      39.190  29.799  28.701  1.00  0.00     0.074 A 
ATOM     43  C   UNL A   1      41.341  28.945  29.497  1.00  0.00     0.049 A 
ATOM     44  N   UNL A   1      39.377  31.033  29.036  1.00  0.00    -0.248 NA
ATOM     45  C   UNL A   1      37.817  29.536  28.278  1.00  0.00     0.031 C 
ATOM     46  C   UNL A   1      41.480  29.928  30.569  1.00  0.00     0.029 A 
ATOM     47  N   UNL A   1      42.606  28.388  29.396  1.00  0.00    -0.354 N 
ATOM     48  C   UNL A   1      38.145  31.640  29.147  1.00  0.00     0.074 A 
ATOM     49  C   UNL A   1      37.207  30.674  28.623  1.00  0.00     0.031 C 
ATOM     50  C   UNL A   1      42.779  30.068  30.875  1.00  0.00     0.029 A 
ATOM     51  C   UNL A   1      43.538  29.306  29.900  1.00  0.00     0.049 A 
ATOM     52  H   UNL A   1      42.815  27.497  29.033  1.00  0.00     0.167 HD
ATOM     53  C   UNL A   1      38.039  32.844  29.779  1.00  0.00     0.037 A 
ATOM     54  C   UNL A   1      44.528  29.837  29.119  1.00  0.00     0.037 A 
ATOM     55  C   UNL A   1      39.342  33.328  30.221  1.00  0.00     0.049 A 
ATOM     56  C   UNL A   1      44.457  31.339  28.955  1.00  0.00     0.074 A 
ATOM     57  C   UNL A   1      40.005  33.255  31.435  1.00  0.00     0.029 A 
ATOM     58  N   UNL A   1      40.277  33.743  29.282  1.00  0.00    -0.354 N 
ATOM     59  N   UNL A   1      43.408  32.055  29.249  1.00  0.00    -0.248 NA
ATOM     60  C   UNL A   1      45.549  32.158  28.432  1.00  0.00     0.031 C 
ATOM     61  C   UNL A   1      41.361  33.597  31.216  1.00  0.00     0.029 A 
ATOM     62  C   UNL A   1      41.517  33.886  29.872  1.00  0.00     0.049 A 
ATOM     63  H   UNL A   1      40.083  33.912  28.332  1.00  0.00     0.167 HD
ATOM     64  C   UNL A   1      43.637  33.371  28.937  1.00  0.00     0.074 A 
ATOM     65  C   UNL A   1      45.004  33.388  28.458  1.00  0.00     0.031 C 
ATOM     66  C   UNL A   1      42.666  34.322  29.092  1.00  0.00     0.037 A 
BRANCH  53  67
ATOM     67  C   UNL A   1      36.731  33.463  30.229  1.00  0.00     0.058 A 
ATOM     68  C   UNL A   1      35.765  33.881  29.284  1.00  0.00     0.135 A 
ATOM     69  C   UNL A   1      36.377  33.694  31.572  1.00  0.00     0.135 A 
ATOM     70  F   UNL A   1      35.918  33.655  27.973  1.00  0.00    -0.206 F 
ATOM     71  C   UNL A   1      34.602  34.565  29.635  1.00  0.00     0.059 A 
ATOM     72  C   UNL A   1      35.243  34.426  31.946  1.00  0.00     0.059 A 
ATOM     73  F   UNL A   1      37.099  33.181  32.578  1.00  0.00    -0.206 F 
ATOM     74  C   UNL A   1      34.364  34.867  30.967  1.00  0.00     0.060 A 
BRANCH  74  75
ATOM     75  S   UNL A   1      32.905  35.838  31.388  1.00  0.00     0.124 S 
ATOM     76  O   UNL A   1      33.490  37.005  32.043  1.00  0.00    -0.237 OA
ATOM     77  O   UNL A   1      32.312  36.079  30.077  1.00  0.00    -0.237 OA
ATOM     78  O   UNL A   1      32.148  34.952  32.266  1.00  0.00    -0.744 OA
ENDBRANCH  74  75
ENDBRANCH  53  67
BRANCH  54  79
ATOM     79  C   UNL A   1      45.051  28.876  28.113  1.00  0.00     0.058 A 
ATOM     80  C   UNL A   1      45.995  27.937  28.570  1.00  0.00     0.135 A 
ATOM     81  C   UNL A   1      44.291  28.542  26.982  1.00  0.00     0.135 A 
ATOM     82  F   UNL A   1      46.771  28.229  29.626  1.00  0.00    -0.206 F 
ATOM     83  C   UNL A   1      46.025  26.641  28.074  1.00  0.00     0.059 A 
ATOM     84  C   UNL A   1      44.313  27.247  26.462  1.00  0.00     0.059 A 
ATOM     85  F   UNL A   1      43.392  29.408  26.492  1.00  0.00    -0.206 F 
ATOM     86  C   UNL A   1      45.111  26.285  27.084  1.00  0.00     0.060 A 
BRANCH  86  87
ATOM     87  S   UNL A   1      44.832  24.521  26.790  1.00  0.00     0.124 S 
ATOM     88  O   UNL A   1      46.191  24.012  26.650  1.00  0.00    -0.237 OA
ATOM     89  O   UNL A   1      44.133  24.129  28.014  1.00  0.00    -0.237 OA
ATOM     90  O   UNL A   1      44.024  24.508  25.576  1.00  0.00    -0.744 OA
ENDBRANCH  86  87
ENDBRANCH  54  79
BRANCH  66  91
ATOM     91  C   UNL A   1      42.707  35.757  28.613  1.00  0.00     0.058 A 
ATOM     92  C   UNL A   1      42.286  36.182  27.343  1.00  0.00     0.135 A 
ATOM     93  C   UNL A   1      43.055  36.799  29.513  1.00  0.00     0.135 A 
ATOM     94  F   UNL A   1      41.828  35.312  26.432  1.00  0.00    -0.206 F 
ATOM     95  C   UNL A   1      42.265  37.529  26.969  1.00  0.00     0.059 A 
ATOM     96  C   UNL A   1      42.987  38.150  29.180  1.00  0.00     0.059 A 
ATOM     97  F   UNL A   1      43.461  36.539  30.764  1.00  0.00    -0.206 F 
ATOM     98  C   UNL A   1      42.614  38.507  27.895  1.00  0.00     0.060 A 
BRANCH  98  99
ATOM     99  S   UNL A   1      42.520  40.251  27.449  1.00  0.00     0.124 S 
ATOM    100  O   UNL A   1      42.543  40.888  28.762  1.00  0.00    -0.237 OA
ATOM    101  O   UNL A   1      43.717  40.445  26.636  1.00  0.00    -0.237 OA
ATOM    102  O   UNL A   1      41.259  40.340  26.723  1.00  0.00    -0.744 OA
ENDBRANCH  98  99
ENDBRANCH  66  91
ENDBRANCH  40  41
ENDBRANCH  32  35
ENDBRANCH  30  31
ENDBRANCH  29  30
ENDBRANCH   1  29
TORSDOF 18
ENDMDL
MODEL 3
REMARK VINA RESULT:     -13.5      1.322      2.213
REMARK SMILES Cc1nn(C(C)C)c(C)c1S(=O)(=O)Nc1cccc(C(=O)NCCCCNC(=O)c2ccc(-c3c4nc(c(-c5c(F)cc(S(=O)(=O)[O-])cc5F)c5ccc([nH]5)c(-c5c(F)cc(S(=O)(=O)[O-])cc5F)c5nc(c(-c6c(F)cc(S(=O)(=O)[O-])cc6F)c6ccc3[nH]6)C=C5)C=C4)cc2)c1C
REMARK SMILES IDX 24 1 23 2 22 3 20 4 21 5 19 7 15 8 16 9 96 10 17 11 97 12
REMARK SMILES IDX 18 13 14 14 11 16 12 17 13 18 10 19 1 20 2 21 3 22 4 23 8 24
REMARK SMILES IDX 9 25 5 26 6 27 7 28 25 29 26 30 27 31 28 32 29 34 30 35
REMARK SMILES IDX 31 36 95 37 32 38 94 39 33 40 34 41 35 42 88 43 36 44 93 45
REMARK SMILES IDX 87 46 89 47 37 48 92 49 86 50 85 51 38 53 72 54 51 55 71 56
REMARK SMILES IDX 52 57 55 58 70 59 90 60 53 61 54 62 69 64 91 65 56 66 39 67
REMARK SMILES IDX 40 68 49 69 41 70 42 71 48 72 50 73 43 74 44 75 45 76 46 77
REMARK SMILES IDX 47 78 73 79 74 80 83 81 75 82 76 83 82 84 84 85 77 86 78 87
REMARK SMILES IDX 79 88 80 89 81 90 57 91 58 92 67 93 59 94 60 95 66 96 68 97
REMARK SMILES IDX 61 98 62 99 63 100 64 101 65 102
REMARK H PARENT 22 6 14 15 27 33 89 52 55 63
REMARK Flexibility Score: inf
ROOT
ATOM      1  C   UNL A   1      31.848  30.338  25.790  1.00  0.00     0.023 C 
ENDROOT
BRANCH   1   2
ATOM      2  C   UNL A   1      32.089  29.207  24.775  1.00  0.00     0.116 C 
BRANCH   2   3
ATOM      3  N   UNL A   1      30.883  28.434  24.509  1.00  0.00    -0.352 N 
ATOM      4  C   UNL A   1      30.604  27.149  24.118  1.00  0.00     0.251 C 
ATOM      5  O   UNL A   1      29.404  26.889  24.040  1.00  0.00    -0.269 OA
ATOM      6  H   UNL A   1      30.065  28.966  24.641  1.00  0.00     0.163 HD
BRANCH   4   7
ATOM      7  C   UNL A   1      31.638  26.087  23.835  1.00  0.00     0.044 A 
ATOM      8  C   UNL A   1      33.520  24.680  24.542  1.00  0.00     0.053 A 
ATOM      9  C   UNL A   1      33.728  24.277  23.224  1.00  0.00     0.027 A 
ATOM     10  C   UNL A   1      32.389  25.477  24.881  1.00  0.00    -0.014 A 
ATOM     11  C   UNL A   1      32.907  24.761  22.217  1.00  0.00     0.003 A 
ATOM     12  C   UNL A   1      32.072  25.690  26.345  1.00  0.00     0.047 C 
ATOM     13  C   UNL A   1      31.898  25.674  22.522  1.00  0.00     0.014 A 
BRANCH   8  14
ATOM     14  N   UNL A   1      34.447  24.340  25.570  1.00  0.00    -0.279 N 
ATOM     15  H   UNL A   1      35.059  25.051  25.868  1.00  0.00     0.180 HD
BRANCH  14  16
ATOM     16  S   UNL A   1      34.599  22.862  26.316  1.00  0.00     0.265 S 
ATOM     17  O   UNL A   1      34.079  22.954  27.665  1.00  0.00    -0.201 OA
ATOM     18  O   UNL A   1      35.981  22.486  26.090  1.00  0.00    -0.201 OA
BRANCH  16  19
ATOM     19  C   UNL A   1      33.722  21.546  25.629  1.00  0.00     0.131 A 
ATOM     20  C   UNL A   1      31.150  22.216  25.656  1.00  0.00     0.070 C 
ATOM     21  C   UNL A   1      32.331  21.347  25.445  1.00  0.00     0.080 A 
ATOM     22  N   UNL A   1      32.081  20.117  24.978  1.00  0.00    -0.176 NA
ATOM     23  N   UNL A   1      33.284  19.568  24.768  1.00  0.00    -0.266 N 
ATOM     24  C   UNL A   1      34.318  20.404  25.098  1.00  0.00     0.056 A 
ATOM     25  C   UNL A   1      35.746  20.060  24.880  1.00  0.00     0.068 C 
BRANCH  23  26
ATOM     26  C   UNL A   1      33.353  18.204  24.245  1.00  0.00     0.101 C 
ATOM     27  C   UNL A   1      32.811  17.202  25.264  1.00  0.00     0.033 C 
ATOM     28  C   UNL A   1      32.638  18.071  22.900  1.00  0.00     0.033 C 
ENDBRANCH  23  26
ENDBRANCH  16  19
ENDBRANCH  14  16
ENDBRANCH   8  14
ENDBRANCH   4   7
ENDBRANCH   2   3
ENDBRANCH   1   2
BRANCH   1  29
ATOM     29  C   UNL A   1      32.451  30.118  27.181  1.00  0.00     0.023 C 
BRANCH  29  30
ATOM     30  C   UNL A   1      33.919  29.729  27.166  1.00  0.00     0.116 C 
BRANCH  30  31
ATOM     31  N   UNL A   1      34.844  30.847  27.082  1.00  0.00    -0.352 N 
ATOM     32  C   UNL A   1      35.836  31.076  28.034  1.00  0.00     0.251 C 
ATOM     33  H   UNL A   1      34.767  31.468  26.323  1.00  0.00     0.163 HD
ATOM     34  O   UNL A   1      36.009  32.147  28.583  1.00  0.00    -0.269 OA
BRANCH  32  35
ATOM     35  C   UNL A   1      36.763  29.940  28.250  1.00  0.00     0.039 A 
ATOM     36  C   UNL A   1      36.826  29.330  29.507  1.00  0.00     0.014 A 
ATOM     37  C   UNL A   1      37.713  29.658  27.273  1.00  0.00     0.014 A 
ATOM     38  C   UNL A   1      37.936  28.543  29.834  1.00  0.00     0.010 A 
ATOM     39  C   UNL A   1      38.853  28.976  27.635  1.00  0.00     0.010 A 
ATOM     40  C   UNL A   1      38.983  28.430  28.920  1.00  0.00    -0.014 A 
BRANCH  40  41
ATOM     41  C   UNL A   1      40.292  27.841  29.194  1.00  0.00     0.031 A 
ATOM     42  C   UNL A   1      40.601  26.451  28.759  1.00  0.00     0.074 A 
ATOM     43  C   UNL A   1      41.297  28.621  29.651  1.00  0.00     0.049 A 
ATOM     44  N   UNL A   1      41.641  25.784  29.140  1.00  0.00    -0.248 NA
ATOM     45  C   UNL A   1      39.740  25.683  27.864  1.00  0.00     0.031 C 
ATOM     46  C   UNL A   1      42.728  28.368  29.501  1.00  0.00     0.029 A 
ATOM     47  N   UNL A   1      41.245  29.736  30.474  1.00  0.00    -0.354 N 
ATOM     48  C   UNL A   1      41.739  24.656  28.355  1.00  0.00     0.074 A 
ATOM     49  C   UNL A   1      40.506  24.619  27.602  1.00  0.00     0.031 C 
ATOM     50  C   UNL A   1      43.407  29.141  30.363  1.00  0.00     0.029 A 
ATOM     51  C   UNL A   1      42.433  29.796  31.216  1.00  0.00     0.049 A 
ATOM     52  H   UNL A   1      40.500  30.377  30.527  1.00  0.00     0.167 HD
ATOM     53  C   UNL A   1      42.902  23.942  28.338  1.00  0.00     0.037 A 
ATOM     54  C   UNL A   1      42.439  29.718  32.582  1.00  0.00     0.037 A 
ATOM     55  C   UNL A   1      43.888  24.515  29.246  1.00  0.00     0.049 A 
ATOM     56  C   UNL A   1      43.189  28.527  33.137  1.00  0.00     0.074 A 
ATOM     57  C   UNL A   1      44.946  25.389  29.049  1.00  0.00     0.029 A 
ATOM     58  N   UNL A   1      43.691  24.433  30.618  1.00  0.00    -0.354 N 
ATOM     59  N   UNL A   1      43.543  27.494  32.426  1.00  0.00    -0.248 NA
ATOM     60  C   UNL A   1      43.590  28.392  34.536  1.00  0.00     0.031 C 
ATOM     61  C   UNL A   1      45.365  25.863  30.315  1.00  0.00     0.029 A 
ATOM     62  C   UNL A   1      44.569  25.269  31.279  1.00  0.00     0.049 A 
ATOM     63  H   UNL A   1      43.021  23.860  31.056  1.00  0.00     0.167 HD
ATOM     64  C   UNL A   1      44.155  26.562  33.226  1.00  0.00     0.074 A 
ATOM     65  C   UNL A   1      44.189  27.187  34.533  1.00  0.00     0.031 C 
ATOM     66  C   UNL A   1      44.564  25.354  32.732  1.00  0.00     0.037 A 
BRANCH  53  67
ATOM     67  C   UNL A   1      43.240  22.881  27.311  1.00  0.00     0.058 A 
ATOM     68  C   UNL A   1      42.551  21.647  27.291  1.00  0.00     0.135 A 
ATOM     69  C   UNL A   1      44.248  23.007  26.335  1.00  0.00     0.135 A 
ATOM     70  F   UNL A   1      41.511  21.407  28.100  1.00  0.00    -0.206 F 
ATOM     71  C   UNL A   1      42.903  20.591  26.450  1.00  0.00     0.059 A 
ATOM     72  C   UNL A   1      44.655  21.945  25.519  1.00  0.00     0.059 A 
ATOM     73  F   UNL A   1      44.851  24.182  26.109  1.00  0.00    -0.206 F 
ATOM     74  C   UNL A   1      43.981  20.734  25.590  1.00  0.00     0.060 A 
BRANCH  74  75
ATOM     75  S   UNL A   1      44.479  19.323  24.586  1.00  0.00     0.124 S 
ATOM     76  O   UNL A   1      43.434  18.348  24.883  1.00  0.00    -0.237 OA
ATOM     77  O   UNL A   1      44.457  19.886  23.240  1.00  0.00    -0.237 OA
ATOM     78  O   UNL A   1      45.802  18.988  25.104  1.00  0.00    -0.744 OA
ENDBRANCH  74  75
ENDBRANCH  53  67
BRANCH  54  79
ATOM     79  C   UNL A   1      41.256  30.369  33.206  1.00  0.00     0.058 A 
ATOM     80  C   UNL A   1      41.273  31.775  33.273  1.00  0.00     0.135 A 
ATOM     81  C   UNL A   1      40.008  29.728  33.208  1.00  0.00     0.135 A 
ATOM     82  F   UNL A   1      42.445  32.429  33.310  1.00  0.00    -0.206 F 
ATOM     83  C   UNL A   1      40.113  32.520  33.117  1.00  0.00     0.059 A 
ATOM     84  C   UNL A   1      38.829  30.459  33.062  1.00  0.00     0.059 A 
ATOM     85  F   UNL A   1      39.935  28.390  33.167  1.00  0.00    -0.206 F 
ATOM     86  C   UNL A   1      38.910  31.846  32.918  1.00  0.00     0.060 A 
BRANCH  86  87
ATOM     87  S   UNL A   1      37.516  32.789  32.251  1.00  0.00     0.124 S 
ATOM     88  O   UNL A   1      37.325  33.819  33.266  1.00  0.00    -0.237 OA
ATOM     89  O   UNL A   1      38.062  33.253  30.976  1.00  0.00    -0.237 OA
ATOM     90  O   UNL A   1      36.455  31.794  32.152  1.00  0.00    -0.744 OA
ENDBRANCH  86  87
ENDBRANCH  54  79
BRANCH  66  91
ATOM     91  C   UNL A   1      45.069  24.167  33.523  1.00  0.00     0.058 A 
ATOM     92  C   UNL A   1      44.306  23.024  33.812  1.00  0.00     0.135 A 
ATOM     93  C   UNL A   1      46.435  24.091  33.902  1.00  0.00     0.135 A 
ATOM     94  F   UNL A   1      43.031  22.917  33.415  1.00  0.00    -0.206 F 
ATOM     95  C   UNL A   1      44.837  21.914  34.477  1.00  0.00     0.059 A 
ATOM     96  C   UNL A   1      46.999  22.974  34.513  1.00  0.00     0.059 A 
ATOM     97  F   UNL A   1      47.284  25.105  33.673  1.00  0.00    -0.206 F 
ATOM     98  C   UNL A   1      46.185  21.896  34.822  1.00  0.00     0.060 A 
BRANCH  98  99
ATOM     99  S   UNL A   1      46.898  20.442  35.612  1.00  0.00     0.124 S 
ATOM    100  O   UNL A   1      47.386  21.003  36.868  1.00  0.00    -0.237 OA
ATOM    101  O   UNL A   1      45.756  19.540  35.728  1.00  0.00    -0.237 OA
ATOM    102  O   UNL A   1      47.924  20.020  34.665  1.00  0.00    -0.744 OA
ENDBRANCH  98  99
ENDBRANCH  66  91
ENDBRANCH  40  41
ENDBRANCH  32  35
ENDBRANCH  30  31
ENDBRANCH  29  30
ENDBRANCH   1  29
TORSDOF 18
ENDMDL
