MODEL 1
REMARK VINA RESULT:     -13.3      0.000      0.000
REMARK SMILES CCCn1nc(C(=O)NCCCCNC(=O)c2ccc(-c3c4nc(c(-c5c(F)cc(S(=O)(=O)[O-])cc5F)c5ccc([nH]5)c(-c5c(F)cc(S(=O)(=O)[O-])cc5F)c5nc(c(-c6c(F)cc(S(=O)(=O)[O-])cc6F)c6ccc3[nH]6)C=C5)C=C4)cc2)c2c1CC[C@@H]([NH+]1CC[NH+](Cc3ccccn3)CC1)C2
REMARK SMILES IDX 11 1 10 2 9 3 7 4 8 5 6 7 4 8 5 9 84 10 83 11 85 12 101 13
REMARK SMILES IDX 86 14 87 15 3 16 2 17 1 18 88 19 89 20 100 21 90 23 99 24
REMARK SMILES IDX 91 25 92 27 93 28 94 29 98 30 95 31 97 32 96 33 12 34 13 35
REMARK SMILES IDX 14 36 15 37 16 39 17 40 18 41 82 42 19 43 81 44 20 45 21 46
REMARK SMILES IDX 22 47 75 48 23 49 80 50 74 51 76 52 24 53 79 54 73 55 72 56
REMARK SMILES IDX 25 58 59 59 38 60 58 61 39 62 42 63 57 64 77 65 40 66 41 67
REMARK SMILES IDX 56 69 78 70 43 71 26 72 27 73 36 74 28 75 29 76 35 77 37 78
REMARK SMILES IDX 30 79 31 80 32 81 33 82 34 83 60 84 61 85 70 86 62 87 63 88
REMARK SMILES IDX 69 89 71 90 64 91 65 92 66 93 67 94 68 95 44 96 45 97 54 98
REMARK SMILES IDX 46 99 47 100 53 101 55 102 48 103 49 104 50 105 51 106
REMARK SMILES IDX 52 107
REMARK H PARENT 9 6 88 22 91 26 14 38 76 57 42 68
REMARK Flexibility Score: inf
ROOT
ATOM      1  C   UNL A   1      40.031  20.756  26.587  1.00  0.00     0.023 C 
ENDROOT
BRANCH   1   2
ATOM      2  C   UNL A   1      38.796  21.022  25.696  1.00  0.00     0.116 C 
BRANCH   2   3
ATOM      3  N   UNL A   1      38.211  22.346  25.901  1.00  0.00    -0.351 N 
ATOM      4  C   UNL A   1      36.967  22.944  25.782  1.00  0.00     0.272 C 
ATOM      5  O   UNL A   1      36.945  24.108  26.206  1.00  0.00    -0.267 OA
ATOM      6  H   UNL A   1      38.888  22.992  26.207  1.00  0.00     0.163 HD
BRANCH   4   7
ATOM      7  C   UNL A   1      35.739  22.325  25.200  1.00  0.00     0.153 A 
ATOM      8  N   UNL A   1      34.069  20.945  25.125  1.00  0.00    -0.269 N 
ATOM      9  N   UNL A   1      35.207  21.223  25.790  1.00  0.00    -0.167 NA
ATOM     10  C   UNL A   1      33.889  21.758  24.050  1.00  0.00     0.043 A 
ATOM     11  C   UNL A   1      34.869  22.719  24.150  1.00  0.00     0.012 A 
ATOM     12  C   UNL A   1      32.757  21.760  23.091  1.00  0.00     0.062 C 
ATOM     13  C   UNL A   1      34.819  23.945  23.346  1.00  0.00     0.105 C 
ATOM     14  C   UNL A   1      32.832  22.984  22.156  1.00  0.00     0.072 C 
ATOM     15  C   UNL A   1      33.451  24.273  22.740  1.00  0.00     0.189 C 
BRANCH   8  16
ATOM     16  C   UNL A   1      33.088  20.064  25.741  1.00  0.00     0.144 C 
BRANCH  16  17
ATOM     17  C   UNL A   1      32.687  18.836  24.926  1.00  0.00     0.020 C 
ATOM     18  C   UNL A   1      33.828  17.850  24.752  1.00  0.00     0.006 C 
ENDBRANCH  16  17
ENDBRANCH   8  16
BRANCH  15  19
ATOM     19  N   UNL A   1      32.657  25.131  23.655  1.00  0.00    -0.323 N 
ATOM     20  C   UNL A   1      31.214  25.170  23.426  1.00  0.00     0.324 C 
ATOM     21  C   UNL A   1      33.308  26.422  23.905  1.00  0.00     0.324 C 
ATOM     22  H   UNL A   1      32.670  24.642  24.550  1.00  0.00     0.348 HD
ATOM     23  C   UNL A   1      30.444  26.283  24.156  1.00  0.00     0.324 C 
ATOM     24  C   UNL A   1      32.440  27.535  24.537  1.00  0.00     0.324 C 
ATOM     25  N   UNL A   1      31.052  27.612  24.070  1.00  0.00    -0.321 N 
ATOM     26  H   UNL A   1      30.536  28.224  24.704  1.00  0.00     0.348 HD
BRANCH  25  27
ATOM     27  C   UNL A   1      30.847  28.340  22.803  1.00  0.00     0.319 C 
BRANCH  27  28
ATOM     28  C   UNL A   1      29.837  29.477  22.698  1.00  0.00     0.095 A 
ATOM     29  C   UNL A   1      29.655  30.372  23.752  1.00  0.00     0.030 A 
ATOM     30  N   UNL A   1      29.174  29.626  21.519  1.00  0.00    -0.255 NA
ATOM     31  C   UNL A   1      28.734  31.413  23.613  1.00  0.00     0.004 A 
ATOM     32  C   UNL A   1      28.265  30.625  21.423  1.00  0.00     0.111 A 
ATOM     33  C   UNL A   1      28.011  31.534  22.433  1.00  0.00     0.020 A 
ENDBRANCH  27  28
ENDBRANCH  25  27
ENDBRANCH  15  19
ENDBRANCH   4   7
ENDBRANCH   2   3
ENDBRANCH   1   2
BRANCH   1  34
ATOM     34  C   UNL A   1      41.115  19.824  26.045  1.00  0.00     0.023 C 
BRANCH  34  35
ATOM     35  C   UNL A   1      42.523  20.200  26.499  1.00  0.00     0.116 C 
BRANCH  35  36
ATOM     36  N   UNL A   1      43.353  20.776  25.433  1.00  0.00    -0.352 N 
ATOM     37  C   UNL A   1      43.450  22.119  25.110  1.00  0.00     0.251 C 
ATOM     38  H   UNL A   1      43.892  20.149  24.898  1.00  0.00     0.163 HD
ATOM     39  O   UNL A   1      43.810  22.495  23.998  1.00  0.00    -0.269 OA
BRANCH  37  40
ATOM     40  C   UNL A   1      43.130  23.087  26.167  1.00  0.00     0.039 A 
ATOM     41  C   UNL A   1      43.998  23.323  27.237  1.00  0.00     0.014 A 
ATOM     42  C   UNL A   1      41.987  23.861  25.968  1.00  0.00     0.014 A 
ATOM     43  C   UNL A   1      43.763  24.426  28.053  1.00  0.00     0.010 A 
ATOM     44  C   UNL A   1      41.825  25.009  26.703  1.00  0.00     0.010 A 
ATOM     45  C   UNL A   1      42.691  25.287  27.763  1.00  0.00    -0.014 A 
BRANCH  45  46
ATOM     46  C   UNL A   1      42.555  26.570  28.455  1.00  0.00     0.031 A 
ATOM     47  C   UNL A   1      43.671  27.536  28.227  1.00  0.00     0.074 A 
ATOM     48  C   UNL A   1      41.394  26.963  29.025  1.00  0.00     0.049 A 
ATOM     49  N   UNL A   1      44.518  27.998  29.087  1.00  0.00    -0.248 NA
ATOM     50  C   UNL A   1      43.962  27.945  26.841  1.00  0.00     0.031 C 
ATOM     51  C   UNL A   1      40.109  26.251  29.032  1.00  0.00     0.029 A 
ATOM     52  N   UNL A   1      41.077  28.150  29.610  1.00  0.00    -0.354 N 
ATOM     53  C   UNL A   1      45.288  28.940  28.404  1.00  0.00     0.074 A 
ATOM     54  C   UNL A   1      45.044  28.711  27.006  1.00  0.00     0.031 C 
ATOM     55  C   UNL A   1      39.118  27.106  29.361  1.00  0.00     0.029 A 
ATOM     56  C   UNL A   1      39.710  28.367  29.764  1.00  0.00     0.049 A 
ATOM     57  H   UNL A   1      41.756  28.800  29.900  1.00  0.00     0.167 HD
ATOM     58  C   UNL A   1      45.858  29.997  29.053  1.00  0.00     0.037 A 
ATOM     59  C   UNL A   1      39.101  29.508  30.174  1.00  0.00     0.037 A 
ATOM     60  C   UNL A   1      45.857  29.785  30.480  1.00  0.00     0.049 A 
ATOM     61  C   UNL A   1      40.124  30.308  30.891  1.00  0.00     0.074 A 
ATOM     62  C   UNL A   1      46.376  28.827  31.329  1.00  0.00     0.029 A 
ATOM     63  N   UNL A   1      44.917  30.466  31.214  1.00  0.00    -0.354 N 
ATOM     64  N   UNL A   1      40.674  29.944  32.017  1.00  0.00    -0.248 NA
ATOM     65  C   UNL A   1      40.858  31.311  30.137  1.00  0.00     0.031 C 
ATOM     66  C   UNL A   1      45.394  28.671  32.352  1.00  0.00     0.029 A 
ATOM     67  C   UNL A   1      44.369  29.588  32.110  1.00  0.00     0.049 A 
ATOM     68  H   UNL A   1      44.679  31.416  31.114  1.00  0.00     0.167 HD
ATOM     69  C   UNL A   1      42.001  30.327  31.904  1.00  0.00     0.074 A 
ATOM     70  C   UNL A   1      42.027  31.262  30.781  1.00  0.00     0.031 C 
ATOM     71  C   UNL A   1      42.989  29.635  32.543  1.00  0.00     0.037 A 
BRANCH  58  72
ATOM     72  C   UNL A   1      46.045  31.386  28.464  1.00  0.00     0.058 A 
ATOM     73  C   UNL A   1      44.922  32.057  27.927  1.00  0.00     0.135 A 
ATOM     74  C   UNL A   1      47.296  31.948  28.128  1.00  0.00     0.135 A 
ATOM     75  F   UNL A   1      43.677  31.626  28.187  1.00  0.00    -0.206 F 
ATOM     76  C   UNL A   1      45.040  33.131  27.041  1.00  0.00     0.059 A 
ATOM     77  C   UNL A   1      47.433  33.051  27.291  1.00  0.00     0.059 A 
ATOM     78  F   UNL A   1      48.456  31.404  28.511  1.00  0.00    -0.206 F 
ATOM     79  C   UNL A   1      46.305  33.603  26.711  1.00  0.00     0.060 A 
BRANCH  79  80
ATOM     80  S   UNL A   1      46.471  34.901  25.472  1.00  0.00     0.124 S 
ATOM     81  O   UNL A   1      46.154  36.089  26.256  1.00  0.00    -0.237 OA
ATOM     82  O   UNL A   1      47.865  34.753  25.065  1.00  0.00    -0.237 OA
ATOM     83  O   UNL A   1      45.486  34.525  24.462  1.00  0.00    -0.744 OA
ENDBRANCH  79  80
ENDBRANCH  58  72
BRANCH  59  84
ATOM     84  C   UNL A   1      37.794  30.072  29.748  1.00  0.00     0.058 A 
ATOM     85  C   UNL A   1      36.914  30.650  30.681  1.00  0.00     0.135 A 
ATOM     86  C   UNL A   1      37.509  30.317  28.389  1.00  0.00     0.135 A 
ATOM     87  F   UNL A   1      37.118  30.480  31.995  1.00  0.00    -0.206 F 
ATOM     88  C   UNL A   1      35.850  31.472  30.294  1.00  0.00     0.059 A 
ATOM     89  C   UNL A   1      36.448  31.126  27.979  1.00  0.00     0.059 A 
ATOM     90  F   UNL A   1      38.311  29.852  27.420  1.00  0.00    -0.206 F 
ATOM     91  C   UNL A   1      35.640  31.724  28.938  1.00  0.00     0.060 A 
BRANCH  91  92
ATOM     92  S   UNL A   1      34.387  32.934  28.446  1.00  0.00     0.124 S 
ATOM     93  O   UNL A   1      35.157  33.836  27.596  1.00  0.00    -0.237 OA
ATOM     94  O   UNL A   1      33.404  32.099  27.765  1.00  0.00    -0.237 OA
ATOM     95  O   UNL A   1      33.946  33.499  29.719  1.00  0.00    -0.744 OA
ENDBRANCH  91  92
ENDBRANCH  59  84
BRANCH  71  96
ATOM     96  C   UNL A   1      42.594  28.683  33.643  1.00  0.00     0.058 A 
ATOM     97  C   UNL A   1      42.548  27.284  33.518  1.00  0.00     0.135 A 
ATOM     98  C   UNL A   1      42.394  29.217  34.925  1.00  0.00     0.135 A 
ATOM     99  F   UNL A   1      42.826  26.684  32.354  1.00  0.00    -0.206 F 
ATOM    100  C   UNL A   1      42.275  26.457  34.610  1.00  0.00     0.059 A 
ATOM    101  C   UNL A   1      42.152  28.412  36.033  1.00  0.00     0.059 A 
ATOM    102  F   UNL A   1      42.486  30.543  35.123  1.00  0.00    -0.206 F 
ATOM    103  C   UNL A   1      42.081  27.030  35.866  1.00  0.00     0.060 A 
BRANCH 103 104
ATOM    104  S   UNL A   1      41.803  25.958  37.292  1.00  0.00     0.124 S 
ATOM    105  O   UNL A   1      42.850  26.391  38.211  1.00  0.00    -0.237 OA
ATOM    106  O   UNL A   1      40.438  26.297  37.683  1.00  0.00    -0.237 OA
ATOM    107  O   UNL A   1      41.969  24.613  36.745  1.00  0.00    -0.744 OA
ENDBRANCH 103 104
ENDBRANCH  71  96
ENDBRANCH  45  46
ENDBRANCH  37  40
ENDBRANCH  35  36
ENDBRANCH  34  35
ENDBRANCH   1  34
TORSDOF 19
ENDMDL
MODEL 2
REMARK VINA RESULT:     -12.9      2.716      9.665
REMARK SMILES CCCn1nc(C(=O)NCCCCNC(=O)c2ccc(-c3c4nc(c(-c5c(F)cc(S(=O)(=O)[O-])cc5F)c5ccc([nH]5)c(-c5c(F)cc(S(=O)(=O)[O-])cc5F)c5nc(c(-c6c(F)cc(S(=O)(=O)[O-])cc6F)c6ccc3[nH]6)C=C5)C=C4)cc2)c2c1CC[C@@H]([NH+]1CC[NH+](Cc3ccccn3)CC1)C2
REMARK SMILES IDX 11 1 10 2 9 3 7 4 8 5 6 7 4 8 5 9 84 10 83 11 85 12 101 13
REMARK SMILES IDX 86 14 87 15 3 16 2 17 1 18 88 19 89 20 100 21 90 23 99 24
REMARK SMILES IDX 91 25 92 27 93 28 94 29 98 30 95 31 97 32 96 33 12 34 13 35
REMARK SMILES IDX 14 36 15 37 16 39 17 40 18 41 82 42 19 43 81 44 20 45 21 46
REMARK SMILES IDX 22 47 75 48 23 49 80 50 74 51 76 52 24 53 79 54 73 55 72 56
REMARK SMILES IDX 25 58 59 59 38 60 58 61 39 62 42 63 57 64 77 65 40 66 41 67
REMARK SMILES IDX 56 69 78 70 43 71 26 72 27 73 36 74 28 75 29 76 35 77 37 78
REMARK SMILES IDX 30 79 31 80 32 81 33 82 34 83 60 84 61 85 70 86 62 87 63 88
REMARK SMILES IDX 69 89 71 90 64 91 65 92 66 93 67 94 68 95 44 96 45 97 54 98
REMARK SMILES IDX 46 99 47 100 53 101 55 102 48 103 49 104 50 105 51 106
REMARK SMILES IDX 52 107
REMARK H PARENT 9 6 88 22 91 26 14 38 76 57 42 68
REMARK Flexibility Score: inf
ROOT
ATOM      1  C   UNL A   1      35.089  30.720  27.848  1.00  0.00     0.023 C 
ENDROOT
BRANCH   1   2
ATOM      2  C   UNL A   1      34.543  29.398  27.262  1.00  0.00     0.116 C 
BRANCH   2   3
ATOM      3  N   UNL A   1      33.269  28.989  27.851  1.00  0.00    -0.351 N 
ATOM      4  C   UNL A   1      32.079  28.423  27.424  1.00  0.00     0.272 C 
ATOM      5  O   UNL A   1      31.312  28.142  28.355  1.00  0.00    -0.267 OA
ATOM      6  H   UNL A   1      33.251  29.164  28.820  1.00  0.00     0.163 HD
BRANCH   4   7
ATOM      7  C   UNL A   1      31.680  28.166  26.008  1.00  0.00     0.153 A 
ATOM      8  N   UNL A   1      31.642  28.527  23.870  1.00  0.00    -0.269 N 
ATOM      9  N   UNL A   1      32.040  29.053  25.045  1.00  0.00    -0.167 NA
ATOM     10  C   UNL A   1      30.934  27.377  24.036  1.00  0.00     0.043 A 
ATOM     11  C   UNL A   1      31.052  27.063  25.370  1.00  0.00     0.012 A 
ATOM     12  C   UNL A   1      30.344  26.514  22.983  1.00  0.00     0.062 C 
ATOM     13  C   UNL A   1      30.682  25.738  25.878  1.00  0.00     0.105 C 
ATOM     14  C   UNL A   1      29.819  25.195  23.586  1.00  0.00     0.072 C 
ATOM     15  C   UNL A   1      30.573  24.640  24.816  1.00  0.00     0.189 C 
BRANCH   8  16
ATOM     16  C   UNL A   1      32.207  29.047  22.634  1.00  0.00     0.144 C 
BRANCH  16  17
ATOM     17  C   UNL A   1      33.429  28.306  22.095  1.00  0.00     0.020 C 
ATOM     18  C   UNL A   1      34.704  28.657  22.839  1.00  0.00     0.006 C 
ENDBRANCH  16  17
ENDBRANCH   8  16
BRANCH  15  19
ATOM     19  N   UNL A   1      31.870  23.941  24.640  1.00  0.00    -0.323 N 
ATOM     20  C   UNL A   1      31.943  22.961  23.558  1.00  0.00     0.324 C 
ATOM     21  C   UNL A   1      32.457  23.535  25.922  1.00  0.00     0.324 C 
ATOM     22  H   UNL A   1      32.501  24.650  24.264  1.00  0.00     0.348 HD
ATOM     23  C   UNL A   1      33.162  22.024  23.577  1.00  0.00     0.324 C 
ATOM     24  C   UNL A   1      33.606  22.500  25.873  1.00  0.00     0.324 C 
ATOM     25  N   UNL A   1      33.465  21.431  24.879  1.00  0.00    -0.321 N 
ATOM     26  H   UNL A   1      34.364  20.954  24.795  1.00  0.00     0.348 HD
BRANCH  25  27
ATOM     27  C   UNL A   1      32.621  20.291  25.288  1.00  0.00     0.319 C 
BRANCH  27  28
ATOM     28  C   UNL A   1      33.087  18.853  25.099  1.00  0.00     0.095 A 
ATOM     29  C   UNL A   1      34.294  18.569  24.459  1.00  0.00     0.030 A 
ATOM     30  N   UNL A   1      32.320  17.864  25.634  1.00  0.00    -0.255 NA
ATOM     31  C   UNL A   1      34.697  17.239  24.320  1.00  0.00     0.004 A 
ATOM     32  C   UNL A   1      32.720  16.583  25.458  1.00  0.00     0.111 A 
ATOM     33  C   UNL A   1      33.888  16.223  24.813  1.00  0.00     0.020 A 
ENDBRANCH  27  28
ENDBRANCH  25  27
ENDBRANCH  15  19
ENDBRANCH   4   7
ENDBRANCH   2   3
ENDBRANCH   1   2
BRANCH   1  34
ATOM     34  C   UNL A   1      34.133  31.911  27.933  1.00  0.00     0.023 C 
BRANCH  34  35
ATOM     35  C   UNL A   1      34.844  33.250  28.111  1.00  0.00     0.116 C 
BRANCH  35  36
ATOM     36  N   UNL A   1      34.276  34.082  29.179  1.00  0.00    -0.352 N 
ATOM     37  C   UNL A   1      34.443  33.890  30.540  1.00  0.00     0.251 C 
ATOM     38  H   UNL A   1      33.725  34.850  28.902  1.00  0.00     0.163 HD
ATOM     39  O   UNL A   1      33.647  34.335  31.361  1.00  0.00    -0.269 OA
BRANCH  37  40
ATOM     40  C   UNL A   1      35.636  33.149  30.970  1.00  0.00     0.039 A 
ATOM     41  C   UNL A   1      35.566  31.813  31.373  1.00  0.00     0.014 A 
ATOM     42  C   UNL A   1      36.858  33.804  30.814  1.00  0.00     0.014 A 
ATOM     43  C   UNL A   1      36.754  31.099  31.515  1.00  0.00     0.010 A 
ATOM     44  C   UNL A   1      38.015  33.067  30.844  1.00  0.00     0.010 A 
ATOM     45  C   UNL A   1      37.977  31.722  31.218  1.00  0.00    -0.014 A 
BRANCH  45  46
ATOM     46  C   UNL A   1      39.212  30.941  31.137  1.00  0.00     0.031 A 
ATOM     47  C   UNL A   1      39.901  30.702  32.441  1.00  0.00     0.074 A 
ATOM     48  C   UNL A   1      39.559  30.252  30.027  1.00  0.00     0.049 A 
ATOM     49  N   UNL A   1      41.062  31.124  32.822  1.00  0.00    -0.248 NA
ATOM     50  C   UNL A   1      39.150  30.012  33.506  1.00  0.00     0.031 C 
ATOM     51  C   UNL A   1      38.801  30.124  28.775  1.00  0.00     0.029 A 
ATOM     52  N   UNL A   1      40.606  29.407  29.825  1.00  0.00    -0.354 N 
ATOM     53  C   UNL A   1      41.291  30.548  34.073  1.00  0.00     0.074 A 
ATOM     54  C   UNL A   1      40.016  30.059  34.522  1.00  0.00     0.031 C 
ATOM     55  C   UNL A   1      39.275  29.080  28.062  1.00  0.00     0.029 A 
ATOM     56  C   UNL A   1      40.475  28.585  28.709  1.00  0.00     0.049 A 
ATOM     57  H   UNL A   1      41.391  29.379  30.418  1.00  0.00     0.167 HD
ATOM     58  C   UNL A   1      42.556  30.291  34.515  1.00  0.00     0.037 A 
ATOM     59  C   UNL A   1      41.280  27.556  28.348  1.00  0.00     0.037 A 
ATOM     60  C   UNL A   1      43.531  30.999  33.723  1.00  0.00     0.049 A 
ATOM     61  C   UNL A   1      42.575  27.757  29.045  1.00  0.00     0.074 A 
ATOM     62  C   UNL A   1      43.775  32.325  33.422  1.00  0.00     0.029 A 
ATOM     63  N   UNL A   1      44.231  30.270  32.792  1.00  0.00    -0.354 N 
ATOM     64  N   UNL A   1      43.382  28.754  28.804  1.00  0.00    -0.248 NA
ATOM     65  C   UNL A   1      42.774  27.089  30.320  1.00  0.00     0.031 C 
ATOM     66  C   UNL A   1      44.202  32.322  32.061  1.00  0.00     0.029 A 
ATOM     67  C   UNL A   1      44.263  30.995  31.631  1.00  0.00     0.049 A 
ATOM     68  H   UNL A   1      44.636  29.385  32.934  1.00  0.00     0.167 HD
ATOM     69  C   UNL A   1      43.880  29.113  30.047  1.00  0.00     0.074 A 
ATOM     70  C   UNL A   1      43.563  27.986  30.920  1.00  0.00     0.031 C 
ATOM     71  C   UNL A   1      44.244  30.403  30.311  1.00  0.00     0.037 A 
BRANCH  58  72
ATOM     72  C   UNL A   1      42.955  29.107  35.380  1.00  0.00     0.058 A 
ATOM     73  C   UNL A   1      43.770  29.331  36.514  1.00  0.00     0.135 A 
ATOM     74  C   UNL A   1      42.837  27.756  34.986  1.00  0.00     0.135 A 
ATOM     75  F   UNL A   1      43.950  30.572  36.994  1.00  0.00    -0.206 F 
ATOM     76  C   UNL A   1      44.494  28.310  37.134  1.00  0.00     0.059 A 
ATOM     77  C   UNL A   1      43.507  26.717  35.623  1.00  0.00     0.059 A 
ATOM     78  F   UNL A   1      42.146  27.379  33.904  1.00  0.00    -0.206 F 
ATOM     79  C   UNL A   1      44.372  27.008  36.663  1.00  0.00     0.060 A 
BRANCH  79  80
ATOM     80  S   UNL A   1      45.399  25.708  37.372  1.00  0.00     0.124 S 
ATOM     81  O   UNL A   1      44.418  24.961  38.151  1.00  0.00    -0.237 OA
ATOM     82  O   UNL A   1      45.913  25.044  36.180  1.00  0.00    -0.237 OA
ATOM     83  O   UNL A   1      46.390  26.451  38.145  1.00  0.00    -0.744 OA
ENDBRANCH  79  80
ENDBRANCH  58  72
BRANCH  59  84
ATOM     84  C   UNL A   1      40.919  26.279  27.679  1.00  0.00     0.058 A 
ATOM     85  C   UNL A   1      41.765  25.698  26.717  1.00  0.00     0.135 A 
ATOM     86  C   UNL A   1      39.886  25.457  28.176  1.00  0.00     0.135 A 
ATOM     87  F   UNL A   1      42.782  26.403  26.201  1.00  0.00    -0.206 F 
ATOM     88  C   UNL A   1      41.634  24.364  26.315  1.00  0.00     0.059 A 
ATOM     89  C   UNL A   1      39.730  24.127  27.783  1.00  0.00     0.059 A 
ATOM     90  F   UNL A   1      39.053  25.897  29.131  1.00  0.00    -0.206 F 
ATOM     91  C   UNL A   1      40.626  23.579  26.873  1.00  0.00     0.060 A 
BRANCH  91  92
ATOM     92  S   UNL A   1      40.572  21.809  26.499  1.00  0.00     0.124 S 
ATOM     93  O   UNL A   1      41.733  21.649  25.630  1.00  0.00    -0.237 OA
ATOM     94  O   UNL A   1      40.679  21.210  27.825  1.00  0.00    -0.237 OA
ATOM     95  O   UNL A   1      39.275  21.641  25.846  1.00  0.00    -0.744 OA
ENDBRANCH  91  92
ENDBRANCH  59  84
BRANCH  71  96
ATOM     96  C   UNL A   1      44.434  31.342  29.147  1.00  0.00     0.058 A 
ATOM     97  C   UNL A   1      45.536  31.331  28.276  1.00  0.00     0.135 A 
ATOM     98  C   UNL A   1      43.370  32.197  28.821  1.00  0.00     0.135 A 
ATOM     99  F   UNL A   1      46.550  30.474  28.454  1.00  0.00    -0.206 F 
ATOM    100  C   UNL A   1      45.595  32.161  27.154  1.00  0.00     0.059 A 
ATOM    101  C   UNL A   1      43.393  33.010  27.692  1.00  0.00     0.059 A 
ATOM    102  F   UNL A   1      42.261  32.211  29.580  1.00  0.00    -0.206 F 
ATOM    103  C   UNL A   1      44.516  32.997  26.869  1.00  0.00     0.060 A 
BRANCH 103 104
ATOM    104  S   UNL A   1      44.559  34.015  25.378  1.00  0.00     0.124 S 
ATOM    105  O   UNL A   1      45.782  34.788  25.570  1.00  0.00    -0.237 OA
ATOM    106  O   UNL A   1      44.600  33.018  24.313  1.00  0.00    -0.237 OA
ATOM    107  O   UNL A   1      43.318  34.783  25.454  1.00  0.00    -0.744 OA
ENDBRANCH 103 104
ENDBRANCH  71  96
ENDBRANCH  45  46
ENDBRANCH  37  40
ENDBRANCH  35  36
ENDBRANCH  34  35
ENDBRANCH   1  34
TORSDOF 19
ENDMDL
MODEL 3
REMARK VINA RESULT:     -12.2      2.579      9.733
REMARK SMILES CCCn1nc(C(=O)NCCCCNC(=O)c2ccc(-c3c4nc(c(-c5c(F)cc(S(=O)(=O)[O-])cc5F)c5ccc([nH]5)c(-c5c(F)cc(S(=O)(=O)[O-])cc5F)c5nc(c(-c6c(F)cc(S(=O)(=O)[O-])cc6F)c6ccc3[nH]6)C=C5)C=C4)cc2)c2c1CC[C@@H]([NH+]1CC[NH+](Cc3ccccn3)CC1)C2
REMARK SMILES IDX 11 1 10 2 9 3 7 4 8 5 6 7 4 8 5 9 84 10 83 11 85 12 101 13
REMARK SMILES IDX 86 14 87 15 3 16 2 17 1 18 88 19 89 20 100 21 90 23 99 24
REMARK SMILES IDX 91 25 92 27 93 28 94 29 98 30 95 31 97 32 96 33 12 34 13 35
REMARK SMILES IDX 14 36 15 37 16 39 17 40 18 41 82 42 19 43 81 44 20 45 21 46
REMARK SMILES IDX 22 47 75 48 23 49 80 50 74 51 76 52 24 53 79 54 73 55 72 56
REMARK SMILES IDX 25 58 59 59 38 60 58 61 39 62 42 63 57 64 77 65 40 66 41 67
REMARK SMILES IDX 56 69 78 70 43 71 26 72 27 73 36 74 28 75 29 76 35 77 37 78
REMARK SMILES IDX 30 79 31 80 32 81 33 82 34 83 60 84 61 85 70 86 62 87 63 88
REMARK SMILES IDX 69 89 71 90 64 91 65 92 66 93 67 94 68 95 44 96 45 97 54 98
REMARK SMILES IDX 46 99 47 100 53 101 55 102 48 103 49 104 50 105 51 106
REMARK SMILES IDX 52 107
REMARK H PARENT 9 6 88 22 91 26 14 38 76 57 42 68
REMARK Flexibility Score: inf
ROOT
ATOM      1  C   UNL A   1      33.519  32.008  27.969  1.00  0.00     0.023 C 
ENDROOT
BRANCH   1   2
ATOM      2  C   UNL A   1      32.776  30.863  27.244  1.00  0.00     0.116 C 
BRANCH   2   3
ATOM      3  N   UNL A   1      33.631  30.109  26.329  1.00  0.00    -0.351 N 
ATOM      4  C   UNL A   1      33.478  29.152  25.340  1.00  0.00     0.272 C 
ATOM      5  O   UNL A   1      34.531  28.902  24.738  1.00  0.00    -0.267 OA
ATOM      6  H   UNL A   1      34.579  30.348  26.448  1.00  0.00     0.163 HD
BRANCH   4   7
ATOM      7  C   UNL A   1      32.215  28.436  24.989  1.00  0.00     0.153 A 
ATOM      8  N   UNL A   1      30.402  28.069  23.857  1.00  0.00    -0.269 N 
ATOM      9  N   UNL A   1      31.398  28.958  24.038  1.00  0.00    -0.167 NA
ATOM     10  C   UNL A   1      30.474  27.031  24.734  1.00  0.00     0.043 A 
ATOM     11  C   UNL A   1      31.683  27.178  25.376  1.00  0.00     0.012 A 
ATOM     12  C   UNL A   1      29.567  25.862  24.834  1.00  0.00     0.062 C 
ATOM     13  C   UNL A   1      32.258  26.092  26.176  1.00  0.00     0.105 C 
ATOM     14  C   UNL A   1      30.132  24.811  25.812  1.00  0.00     0.072 C 
ATOM     15  C   UNL A   1      31.670  24.703  25.909  1.00  0.00     0.189 C 
BRANCH   8  16
ATOM     16  C   UNL A   1      29.585  28.156  22.657  1.00  0.00     0.144 C 
BRANCH  16  17
ATOM     17  C   UNL A   1      28.958  29.521  22.373  1.00  0.00     0.020 C 
ATOM     18  C   UNL A   1      27.627  29.712  23.077  1.00  0.00     0.006 C 
ENDBRANCH  16  17
ENDBRANCH   8  16
BRANCH  15  19
ATOM     19  N   UNL A   1      32.434  23.998  24.849  1.00  0.00    -0.323 N 
ATOM     20  C   UNL A   1      31.842  22.770  24.323  1.00  0.00     0.324 C 
ATOM     21  C   UNL A   1      33.871  23.951  25.143  1.00  0.00     0.324 C 
ATOM     22  H   UNL A   1      32.345  24.592  24.024  1.00  0.00     0.348 HD
ATOM     23  C   UNL A   1      32.767  21.887  23.469  1.00  0.00     0.324 C 
ATOM     24  C   UNL A   1      34.723  22.954  24.323  1.00  0.00     0.324 C 
ATOM     25  N   UNL A   1      34.097  21.660  24.033  1.00  0.00    -0.321 N 
ATOM     26  H   UNL A   1      34.655  21.189  23.318  1.00  0.00     0.348 HD
BRANCH  25  27
ATOM     27  C   UNL A   1      34.185  20.656  25.112  1.00  0.00     0.319 C 
BRANCH  27  28
ATOM     28  C   UNL A   1      33.826  19.196  24.866  1.00  0.00     0.095 A 
ATOM     29  C   UNL A   1      34.805  18.270  24.503  1.00  0.00     0.030 A 
ATOM     30  N   UNL A   1      32.536  18.817  25.079  1.00  0.00    -0.255 NA
ATOM     31  C   UNL A   1      34.442  16.936  24.304  1.00  0.00     0.004 A 
ATOM     32  C   UNL A   1      32.208  17.524  24.849  1.00  0.00     0.111 A 
ATOM     33  C   UNL A   1      33.115  16.556  24.463  1.00  0.00     0.020 A 
ENDBRANCH  27  28
ENDBRANCH  25  27
ENDBRANCH  15  19
ENDBRANCH   4   7
ENDBRANCH   2   3
ENDBRANCH   1   2
BRANCH   1  34
ATOM     34  C   UNL A   1      35.008  32.191  27.676  1.00  0.00     0.023 C 
BRANCH  34  35
ATOM     35  C   UNL A   1      35.543  33.564  28.072  1.00  0.00     0.116 C 
BRANCH  35  36
ATOM     36  N   UNL A   1      34.819  34.179  29.192  1.00  0.00    -0.352 N 
ATOM     37  C   UNL A   1      34.820  33.740  30.505  1.00  0.00     0.251 C 
ATOM     38  H   UNL A   1      34.282  34.980  28.991  1.00  0.00     0.163 HD
ATOM     39  O   UNL A   1      33.913  34.018  31.284  1.00  0.00    -0.269 OA
BRANCH  37  40
ATOM     40  C   UNL A   1      35.974  32.944  30.944  1.00  0.00     0.039 A 
ATOM     41  C   UNL A   1      35.879  31.564  31.148  1.00  0.00     0.014 A 
ATOM     42  C   UNL A   1      37.197  33.610  31.001  1.00  0.00     0.014 A 
ATOM     43  C   UNL A   1      37.055  30.834  31.306  1.00  0.00     0.010 A 
ATOM     44  C   UNL A   1      38.354  32.873  31.042  1.00  0.00     0.010 A 
ATOM     45  C   UNL A   1      38.295  31.489  31.221  1.00  0.00    -0.014 A 
BRANCH  45  46
ATOM     46  C   UNL A   1      39.541  30.724  31.153  1.00  0.00     0.031 A 
ATOM     47  C   UNL A   1      40.206  30.475  32.468  1.00  0.00     0.074 A 
ATOM     48  C   UNL A   1      39.918  30.054  30.041  1.00  0.00     0.049 A 
ATOM     49  N   UNL A   1      41.354  30.906  32.878  1.00  0.00    -0.248 NA
ATOM     50  C   UNL A   1      39.442  29.762  33.508  1.00  0.00     0.031 C 
ATOM     51  C   UNL A   1      39.186  29.934  28.773  1.00  0.00     0.029 A 
ATOM     52  N   UNL A   1      40.979  29.224  29.849  1.00  0.00    -0.354 N 
ATOM     53  C   UNL A   1      41.565  30.316  34.125  1.00  0.00     0.074 A 
ATOM     54  C   UNL A   1      40.287  29.806  34.542  1.00  0.00     0.031 C 
ATOM     55  C   UNL A   1      39.687  28.906  28.056  1.00  0.00     0.029 A 
ATOM     56  C   UNL A   1      40.879  28.416  28.720  1.00  0.00     0.049 A 
ATOM     57  H   UNL A   1      41.752  29.198  30.458  1.00  0.00     0.167 HD
ATOM     58  C   UNL A   1      42.824  30.068  34.590  1.00  0.00     0.037 A 
ATOM     59  C   UNL A   1      41.704  27.401  28.362  1.00  0.00     0.037 A 
ATOM     60  C   UNL A   1      43.806  30.798  33.826  1.00  0.00     0.049 A 
ATOM     61  C   UNL A   1      42.982  27.609  29.087  1.00  0.00     0.074 A 
ATOM     62  C   UNL A   1      44.040  32.130  33.548  1.00  0.00     0.029 A 
ATOM     63  N   UNL A   1      44.533  30.090  32.900  1.00  0.00    -0.354 N 
ATOM     64  N   UNL A   1      43.782  28.618  28.876  1.00  0.00    -0.248 NA
ATOM     65  C   UNL A   1      43.164  26.926  30.357  1.00  0.00     0.031 C 
ATOM     66  C   UNL A   1      44.494  32.150  32.196  1.00  0.00     0.029 A 
ATOM     67  C   UNL A   1      44.580  30.831  31.750  1.00  0.00     0.049 A 
ATOM     68  H   UNL A   1      44.946  29.207  33.039  1.00  0.00     0.167 HD
ATOM     69  C   UNL A   1      44.251  28.966  30.133  1.00  0.00     0.074 A 
ATOM     70  C   UNL A   1      43.929  27.823  30.984  1.00  0.00     0.031 C 
ATOM     71  C   UNL A   1      44.594  30.256  30.422  1.00  0.00     0.037 A 
BRANCH  58  72
ATOM     72  C   UNL A   1      43.220  28.876  35.446  1.00  0.00     0.058 A 
ATOM     73  C   UNL A   1      44.007  29.095  36.600  1.00  0.00     0.135 A 
ATOM     74  C   UNL A   1      43.128  27.529  35.030  1.00  0.00     0.135 A 
ATOM     75  F   UNL A   1      44.160  30.331  37.101  1.00  0.00    -0.206 F 
ATOM     76  C   UNL A   1      44.731  28.074  37.222  1.00  0.00     0.059 A 
ATOM     77  C   UNL A   1      43.798  26.490  35.668  1.00  0.00     0.059 A 
ATOM     78  F   UNL A   1      42.466  27.160  33.928  1.00  0.00    -0.206 F 
ATOM     79  C   UNL A   1      44.637  26.778  36.730  1.00  0.00     0.060 A 
BRANCH  79  80
ATOM     80  S   UNL A   1      45.665  25.482  37.443  1.00  0.00     0.124 S 
ATOM     81  O   UNL A   1      46.996  26.059  37.300  1.00  0.00    -0.237 OA
ATOM     82  O   UNL A   1      45.145  25.398  38.804  1.00  0.00    -0.237 OA
ATOM     83  O   UNL A   1      45.380  24.327  36.597  1.00  0.00    -0.744 OA
ENDBRANCH  79  80
ENDBRANCH  58  72
BRANCH  59  84
ATOM     84  C   UNL A   1      41.372  26.129  27.668  1.00  0.00     0.058 A 
ATOM     85  C   UNL A   1      42.248  25.567  26.723  1.00  0.00     0.135 A 
ATOM     86  C   UNL A   1      40.333  25.294  28.128  1.00  0.00     0.135 A 
ATOM     87  F   UNL A   1      43.273  26.286  26.242  1.00  0.00    -0.206 F 
ATOM     88  C   UNL A   1      42.139  24.237  26.302  1.00  0.00     0.059 A 
ATOM     89  C   UNL A   1      40.198  23.968  27.716  1.00  0.00     0.059 A 
ATOM     90  F   UNL A   1      39.471  25.715  29.065  1.00  0.00    -0.206 F 
ATOM     91  C   UNL A   1      41.123  23.437  26.824  1.00  0.00     0.060 A 
BRANCH  91  92
ATOM     92  S   UNL A   1      41.094  21.671  26.428  1.00  0.00     0.124 S 
ATOM     93  O   UNL A   1      42.162  21.566  25.440  1.00  0.00    -0.237 OA
ATOM     94  O   UNL A   1      41.362  21.060  27.725  1.00  0.00    -0.237 OA
ATOM     95  O   UNL A   1      39.743  21.464  25.911  1.00  0.00    -0.744 OA
ENDBRANCH  91  92
ENDBRANCH  59  84
BRANCH  71  96
ATOM     96  C   UNL A   1      44.795  31.213  29.275  1.00  0.00     0.058 A 
ATOM     97  C   UNL A   1      43.794  32.031  28.724  1.00  0.00     0.135 A 
ATOM     98  C   UNL A   1      46.105  31.409  28.811  1.00  0.00     0.135 A 
ATOM     99  F   UNL A   1      42.534  31.983  29.178  1.00  0.00    -0.206 F 
ATOM    100  C   UNL A   1      44.076  32.971  27.731  1.00  0.00     0.059 A 
ATOM    101  C   UNL A   1      46.416  32.361  27.847  1.00  0.00     0.059 A 
ATOM    102  F   UNL A   1      47.118  30.701  29.341  1.00  0.00    -0.206 F 
ATOM    103  C   UNL A   1      45.392  33.132  27.300  1.00  0.00     0.060 A 
BRANCH 103 104
ATOM    104  S   UNL A   1      45.770  34.399  26.070  1.00  0.00     0.124 S 
ATOM    105  O   UNL A   1      47.073  33.969  25.576  1.00  0.00    -0.237 OA
ATOM    106  O   UNL A   1      44.661  34.270  25.130  1.00  0.00    -0.237 OA
ATOM    107  O   UNL A   1      45.775  35.637  26.847  1.00  0.00    -0.744 OA
ENDBRANCH 103 104
ENDBRANCH  71  96
ENDBRANCH  45  46
ENDBRANCH  37  40
ENDBRANCH  35  36
ENDBRANCH  34  35
ENDBRANCH   1  34
TORSDOF 19
ENDMDL
