MODEL 1
REMARK VINA RESULT:     -13.1      0.000      0.000
REMARK SMILES O=C(NCCCCNC(=O)[C@]1(NC(=O)C2CCN(C(=O)C3CC3)CC2)CCCc2ccccc21)c1ccc(-c2c3nc(c(-c4c(F)cc(S(=O)(=O)[O-])cc4F)c4ccc([nH]4)c(-c4c(F)cc(S(=O)(=O)[O-])cc4F)c4nc(c(-c5c(F)cc(S(=O)(=O)[O-])cc5F)c5ccc2[nH]5)C=C4)C=C3)cc1
REMARK SMILES IDX 5 1 4 2 3 3 1 4 2 5 35 7 36 8 100 9 37 10 99 11 38 12 39 13
REMARK SMILES IDX 40 14 93 15 41 16 98 17 92 18 94 19 42 20 97 21 91 22 90 23
REMARK SMILES IDX 43 25 77 26 56 27 76 28 57 29 60 30 75 31 95 32 58 33 59 34
REMARK SMILES IDX 74 36 96 37 61 38 44 39 45 40 54 41 46 42 47 43 53 44 55 45
REMARK SMILES IDX 48 46 49 47 50 48 51 49 52 50 78 51 79 52 88 53 80 54 81 55
REMARK SMILES IDX 87 56 89 57 82 58 83 59 84 60 85 61 86 62 62 63 63 64 72 65
REMARK SMILES IDX 64 66 65 67 71 68 73 69 66 70 67 71 68 72 69 73 70 74 6 75
REMARK SMILES IDX 7 76 8 77 9 78 10 80 11 81 26 82 34 83 27 84 29 85 33 86
REMARK SMILES IDX 28 87 30 88 32 89 31 90 12 91 13 92 14 94 15 95 16 96 25 97
REMARK SMILES IDX 17 98 24 99 18 100 19 101 20 102 21 103 22 104 23 105
REMARK H PARENT 3 6 94 24 60 35 8 79 12 93
REMARK Flexibility Score: inf
ROOT
ATOM      1  C   UNL A   1      34.089  30.958  27.691  1.00  0.00     0.023 C 
ENDROOT
BRANCH   1   2
ATOM      2  C   UNL A   1      35.380  30.569  28.394  1.00  0.00     0.116 C 
BRANCH   2   3
ATOM      3  N   UNL A   1      35.414  30.890  29.813  1.00  0.00    -0.352 N 
ATOM      4  O   UNL A   1      36.353  30.956  31.876  1.00  0.00    -0.269 OA
ATOM      5  C   UNL A   1      36.467  30.702  30.682  1.00  0.00     0.251 C 
ATOM      6  H   UNL A   1      34.596  31.283  30.194  1.00  0.00     0.163 HD
BRANCH   5   7
ATOM      7  C   UNL A   1      37.718  30.137  30.140  1.00  0.00     0.039 A 
ATOM      8  C   UNL A   1      38.636  29.536  31.003  1.00  0.00     0.014 A 
ATOM      9  C   UNL A   1      38.019  30.314  28.789  1.00  0.00     0.014 A 
ATOM     10  C   UNL A   1      39.916  29.256  30.548  1.00  0.00     0.010 A 
ATOM     11  C   UNL A   1      39.282  29.951  28.313  1.00  0.00     0.010 A 
ATOM     12  C   UNL A   1      40.252  29.456  29.198  1.00  0.00    -0.014 A 
BRANCH  12  13
ATOM     13  C   UNL A   1      41.615  29.096  28.738  1.00  0.00     0.031 A 
ATOM     14  C   UNL A   1      42.741  30.093  28.772  1.00  0.00     0.074 A 
ATOM     15  C   UNL A   1      41.837  27.828  28.340  1.00  0.00     0.049 A 
ATOM     16  N   UNL A   1      43.992  29.930  28.423  1.00  0.00    -0.248 NA
ATOM     17  C   UNL A   1      42.426  31.447  29.253  1.00  0.00     0.031 C 
ATOM     18  C   UNL A   1      40.813  26.782  28.262  1.00  0.00     0.029 A 
ATOM     19  N   UNL A   1      42.987  27.195  27.952  1.00  0.00    -0.354 N 
ATOM     20  C   UNL A   1      44.610  31.159  28.624  1.00  0.00     0.074 A 
ATOM     21  C   UNL A   1      43.592  32.066  29.110  1.00  0.00     0.031 C 
ATOM     22  C   UNL A   1      41.390  25.626  27.903  1.00  0.00     0.029 A 
ATOM     23  C   UNL A   1      42.808  25.863  27.667  1.00  0.00     0.049 A 
ATOM     24  H   UNL A   1      43.857  27.650  27.886  1.00  0.00     0.167 HD
ATOM     25  C   UNL A   1      45.908  31.493  28.427  1.00  0.00     0.037 A 
ATOM     26  C   UNL A   1      43.687  24.935  27.246  1.00  0.00     0.037 A 
ATOM     27  C   UNL A   1      46.916  30.576  27.956  1.00  0.00     0.049 A 
ATOM     28  C   UNL A   1      45.118  25.332  27.040  1.00  0.00     0.074 A 
ATOM     29  C   UNL A   1      48.258  30.817  27.714  1.00  0.00     0.029 A 
ATOM     30  N   UNL A   1      46.694  29.238  27.663  1.00  0.00    -0.354 N 
ATOM     31  N   UNL A   1      45.679  26.504  27.222  1.00  0.00    -0.248 NA
ATOM     32  C   UNL A   1      46.033  24.287  26.567  1.00  0.00     0.031 C 
ATOM     33  C   UNL A   1      48.841  29.631  27.253  1.00  0.00     0.029 A 
ATOM     34  C   UNL A   1      47.871  28.643  27.238  1.00  0.00     0.049 A 
ATOM     35  H   UNL A   1      45.827  28.779  27.744  1.00  0.00     0.167 HD
ATOM     36  C   UNL A   1      47.015  26.338  26.883  1.00  0.00     0.074 A 
ATOM     37  C   UNL A   1      47.183  24.947  26.515  1.00  0.00     0.031 C 
ATOM     38  C   UNL A   1      48.011  27.257  26.870  1.00  0.00     0.037 A 
BRANCH  25  39
ATOM     39  C   UNL A   1      46.316  32.912  28.707  1.00  0.00     0.058 A 
ATOM     40  C   UNL A   1      46.254  33.905  27.715  1.00  0.00     0.135 A 
ATOM     41  C   UNL A   1      46.729  33.299  29.993  1.00  0.00     0.135 A 
ATOM     42  F   UNL A   1      45.882  33.587  26.465  1.00  0.00    -0.206 F 
ATOM     43  C   UNL A   1      46.603  35.224  27.983  1.00  0.00     0.059 A 
ATOM     44  C   UNL A   1      47.065  34.618  30.289  1.00  0.00     0.059 A 
ATOM     45  F   UNL A   1      46.806  32.390  30.978  1.00  0.00    -0.206 F 
ATOM     46  C   UNL A   1      47.010  35.571  29.273  1.00  0.00     0.060 A 
BRANCH  46  47
ATOM     47  S   UNL A   1      47.457  37.290  29.608  1.00  0.00     0.124 S 
ATOM     48  O   UNL A   1      47.215  37.375  31.045  1.00  0.00    -0.237 OA
ATOM     49  O   UNL A   1      48.857  37.337  29.198  1.00  0.00    -0.237 OA
ATOM     50  O   UNL A   1      46.535  38.049  28.771  1.00  0.00    -0.744 OA
ENDBRANCH  46  47
ENDBRANCH  25  39
BRANCH  26  51
ATOM     51  C   UNL A   1      43.220  23.551  26.980  1.00  0.00     0.058 A 
ATOM     52  C   UNL A   1      43.034  23.088  25.670  1.00  0.00     0.135 A 
ATOM     53  C   UNL A   1      42.990  22.654  28.034  1.00  0.00     0.135 A 
ATOM     54  F   UNL A   1      43.243  23.912  24.632  1.00  0.00    -0.206 F 
ATOM     55  C   UNL A   1      42.625  21.784  25.413  1.00  0.00     0.059 A 
ATOM     56  C   UNL A   1      42.606  21.339  27.802  1.00  0.00     0.059 A 
ATOM     57  F   UNL A   1      43.177  23.046  29.304  1.00  0.00    -0.206 F 
ATOM     58  C   UNL A   1      42.415  20.917  26.487  1.00  0.00     0.060 A 
BRANCH  58  59
ATOM     59  S   UNL A   1      41.943  19.206  26.151  1.00  0.00     0.124 S 
ATOM     60  O   UNL A   1      42.368  18.542  27.378  1.00  0.00    -0.237 OA
ATOM     61  O   UNL A   1      40.502  19.313  25.950  1.00  0.00    -0.237 OA
ATOM     62  O   UNL A   1      42.712  18.879  24.954  1.00  0.00    -0.744 OA
ENDBRANCH  58  59
ENDBRANCH  26  51
BRANCH  38  63
ATOM     63  C   UNL A   1      49.367  26.773  26.446  1.00  0.00     0.058 A 
ATOM     64  C   UNL A   1      49.826  26.947  25.132  1.00  0.00     0.135 A 
ATOM     65  C   UNL A   1      50.218  26.139  27.365  1.00  0.00     0.135 A 
ATOM     66  F   UNL A   1      49.043  27.539  24.216  1.00  0.00    -0.206 F 
ATOM     67  C   UNL A   1      51.074  26.483  24.733  1.00  0.00     0.059 A 
ATOM     68  C   UNL A   1      51.478  25.686  26.993  1.00  0.00     0.059 A 
ATOM     69  F   UNL A   1      49.825  25.957  28.635  1.00  0.00    -0.206 F 
ATOM     70  C   UNL A   1      51.891  25.848  25.671  1.00  0.00     0.060 A 
BRANCH  70  71
ATOM     71  S   UNL A   1      53.515  25.257  25.148  1.00  0.00     0.124 S 
ATOM     72  O   UNL A   1      53.389  23.821  25.372  1.00  0.00    -0.237 OA
ATOM     73  O   UNL A   1      53.573  25.680  23.753  1.00  0.00    -0.237 OA
ATOM     74  O   UNL A   1      54.431  25.956  26.045  1.00  0.00    -0.744 OA
ENDBRANCH  70  71
ENDBRANCH  38  63
ENDBRANCH  12  13
ENDBRANCH   5   7
ENDBRANCH   2   3
ENDBRANCH   1   2
BRANCH   1  75
ATOM     75  C   UNL A   1      33.198  29.795  27.260  1.00  0.00     0.023 C 
BRANCH  75  76
ATOM     76  C   UNL A   1      33.929  28.574  26.711  1.00  0.00     0.116 C 
BRANCH  76  77
ATOM     77  N   UNL A   1      34.322  28.718  25.325  1.00  0.00    -0.354 N 
ATOM     78  C   UNL A   1      34.042  27.992  24.210  1.00  0.00     0.250 C 
ATOM     79  H   UNL A   1      34.907  29.492  25.158  1.00  0.00     0.163 HD
ATOM     80  O   UNL A   1      34.239  28.616  23.156  1.00  0.00    -0.272 OA
BRANCH  78  81
ATOM     81  C   UNL A   1      33.506  26.507  24.159  1.00  0.00     0.145 C 
ATOM     82  C   UNL A   1      33.865  26.029  22.712  1.00  0.00     0.044 C 
ATOM     83  C   UNL A   1      31.998  26.294  24.379  1.00  0.00    -0.010 A 
ATOM     84  C   UNL A   1      32.985  26.685  21.660  1.00  0.00     0.008 C 
ATOM     85  C   UNL A   1      31.092  26.218  23.291  1.00  0.00    -0.042 A 
ATOM     86  C   UNL A   1      31.470  26.185  25.681  1.00  0.00     0.007 A 
ATOM     87  C   UNL A   1      31.539  26.253  21.848  1.00  0.00     0.036 C 
ATOM     88  C   UNL A   1      29.711  26.093  23.532  1.00  0.00     0.004 A 
ATOM     89  C   UNL A   1      30.096  26.061  25.904  1.00  0.00     0.000 A 
ATOM     90  C   UNL A   1      29.216  26.030  24.830  1.00  0.00     0.000 A 
BRANCH  81  91
ATOM     91  N   UNL A   1      34.268  25.553  25.038  1.00  0.00    -0.338 N 
ATOM     92  C   UNL A   1      34.971  24.412  24.801  1.00  0.00     0.224 C 
ATOM     93  H   UNL A   1      34.255  25.810  25.988  1.00  0.00     0.164 HD
ATOM     94  O   UNL A   1      35.959  24.209  25.511  1.00  0.00    -0.275 OA
BRANCH  92  95
ATOM     95  C   UNL A   1      34.482  23.370  23.804  1.00  0.00     0.082 C 
ATOM     96  C   UNL A   1      33.092  22.864  24.235  1.00  0.00     0.035 C 
ATOM     97  C   UNL A   1      35.468  22.195  23.643  1.00  0.00     0.035 C 
ATOM     98  C   UNL A   1      33.160  21.855  25.375  1.00  0.00     0.120 C 
ATOM     99  C   UNL A   1      35.410  21.172  24.782  1.00  0.00     0.120 C 
ATOM    100  N   UNL A   1      34.035  20.745  25.019  1.00  0.00    -0.342 N 
ATOM    101  C   UNL A   1      33.452  19.482  24.896  1.00  0.00     0.225 C 
ATOM    102  O   UNL A   1      32.238  19.336  25.041  1.00  0.00    -0.275 OA
BRANCH 101 103
ATOM    103  C   UNL A   1      34.202  18.216  24.632  1.00  0.00     0.079 C 
ATOM    104  C   UNL A   1      33.721  16.807  24.805  1.00  0.00     0.014 C 
ATOM    105  C   UNL A   1      33.985  17.351  23.422  1.00  0.00     0.014 C 
ENDBRANCH 101 103
ENDBRANCH  92  95
ENDBRANCH  81  91
ENDBRANCH  78  81
ENDBRANCH  76  77
ENDBRANCH  75  76
ENDBRANCH   1  75
TORSDOF 17
ENDMDL
MODEL 2
REMARK VINA RESULT:     -13.0      5.665      7.634
REMARK SMILES O=C(NCCCCNC(=O)[C@]1(NC(=O)C2CCN(C(=O)C3CC3)CC2)CCCc2ccccc21)c1ccc(-c2c3nc(c(-c4c(F)cc(S(=O)(=O)[O-])cc4F)c4ccc([nH]4)c(-c4c(F)cc(S(=O)(=O)[O-])cc4F)c4nc(c(-c5c(F)cc(S(=O)(=O)[O-])cc5F)c5ccc2[nH]5)C=C4)C=C3)cc1
REMARK SMILES IDX 5 1 4 2 3 3 1 4 2 5 35 7 36 8 100 9 37 10 99 11 38 12 39 13
REMARK SMILES IDX 40 14 93 15 41 16 98 17 92 18 94 19 42 20 97 21 91 22 90 23
REMARK SMILES IDX 43 25 77 26 56 27 76 28 57 29 60 30 75 31 95 32 58 33 59 34
REMARK SMILES IDX 74 36 96 37 61 38 44 39 45 40 54 41 46 42 47 43 53 44 55 45
REMARK SMILES IDX 48 46 49 47 50 48 51 49 52 50 78 51 79 52 88 53 80 54 81 55
REMARK SMILES IDX 87 56 89 57 82 58 83 59 84 60 85 61 86 62 62 63 63 64 72 65
REMARK SMILES IDX 64 66 65 67 71 68 73 69 66 70 67 71 68 72 69 73 70 74 6 75
REMARK SMILES IDX 7 76 8 77 9 78 10 80 11 81 26 82 34 83 27 84 29 85 33 86
REMARK SMILES IDX 28 87 30 88 32 89 31 90 12 91 13 92 14 94 15 95 16 96 25 97
REMARK SMILES IDX 17 98 24 99 18 100 19 101 20 102 21 103 22 104 23 105
REMARK H PARENT 3 6 94 24 60 35 8 79 12 93
REMARK Flexibility Score: inf
ROOT
ATOM      1  C   UNL A   1      32.513  30.952  26.715  1.00  0.00     0.023 C 
ENDROOT
BRANCH   1   2
ATOM      2  C   UNL A   1      33.388  31.860  27.565  1.00  0.00     0.116 C 
BRANCH   2   3
ATOM      3  N   UNL A   1      32.896  33.224  27.695  1.00  0.00    -0.352 N 
ATOM      4  O   UNL A   1      32.828  35.299  28.606  1.00  0.00    -0.269 OA
ATOM      5  C   UNL A   1      33.369  34.201  28.543  1.00  0.00     0.251 C 
ATOM      6  H   UNL A   1      32.142  33.475  27.113  1.00  0.00     0.163 HD
BRANCH   5   7
ATOM      7  C   UNL A   1      34.514  33.867  29.413  1.00  0.00     0.039 A 
ATOM      8  C   UNL A   1      35.800  34.263  29.044  1.00  0.00     0.014 A 
ATOM      9  C   UNL A   1      34.309  33.060  30.533  1.00  0.00     0.014 A 
ATOM     10  C   UNL A   1      36.894  33.723  29.704  1.00  0.00     0.010 A 
ATOM     11  C   UNL A   1      35.411  32.586  31.249  1.00  0.00     0.010 A 
ATOM     12  C   UNL A   1      36.712  32.881  30.815  1.00  0.00    -0.014 A 
BRANCH  12  13
ATOM     13  C   UNL A   1      37.907  32.365  31.526  1.00  0.00     0.031 A 
ATOM     14  C   UNL A   1      38.316  32.910  32.866  1.00  0.00     0.074 A 
ATOM     15  C   UNL A   1      38.590  31.348  30.964  1.00  0.00     0.049 A 
ATOM     16  N   UNL A   1      39.322  32.554  33.625  1.00  0.00    -0.248 NA
ATOM     17  C   UNL A   1      37.499  33.997  33.429  1.00  0.00     0.031 C 
ATOM     18  C   UNL A   1      38.282  30.748  29.663  1.00  0.00     0.029 A 
ATOM     19  N   UNL A   1      39.660  30.624  31.418  1.00  0.00    -0.354 N 
ATOM     20  C   UNL A   1      39.271  33.380  34.742  1.00  0.00     0.074 A 
ATOM     21  C   UNL A   1      38.144  34.269  34.556  1.00  0.00     0.031 C 
ATOM     22  C   UNL A   1      39.108  29.715  29.448  1.00  0.00     0.029 A 
ATOM     23  C   UNL A   1      40.041  29.618  30.563  1.00  0.00     0.049 A 
ATOM     24  H   UNL A   1      40.110  30.806  32.274  1.00  0.00     0.167 HD
ATOM     25  C   UNL A   1      40.088  33.387  35.824  1.00  0.00     0.037 A 
ATOM     26  C   UNL A   1      41.043  28.725  30.658  1.00  0.00     0.037 A 
ATOM     27  C   UNL A   1      41.199  32.487  36.003  1.00  0.00     0.049 A 
ATOM     28  C   UNL A   1      41.927  28.753  31.868  1.00  0.00     0.074 A 
ATOM     29  C   UNL A   1      42.093  32.418  37.059  1.00  0.00     0.029 A 
ATOM     30  N   UNL A   1      41.564  31.491  35.109  1.00  0.00    -0.354 N 
ATOM     31  N   UNL A   1      41.870  29.552  32.908  1.00  0.00    -0.248 NA
ATOM     32  C   UNL A   1      43.013  27.767  31.918  1.00  0.00     0.031 C 
ATOM     33  C   UNL A   1      43.012  31.396  36.790  1.00  0.00     0.029 A 
ATOM     34  C   UNL A   1      42.671  30.807  35.584  1.00  0.00     0.049 A 
ATOM     35  H   UNL A   1      41.104  31.299  34.259  1.00  0.00     0.167 HD
ATOM     36  C   UNL A   1      42.916  29.166  33.735  1.00  0.00     0.074 A 
ATOM     37  C   UNL A   1      43.568  28.044  33.090  1.00  0.00     0.031 C 
ATOM     38  C   UNL A   1      43.307  29.698  34.919  1.00  0.00     0.037 A 
BRANCH  25  39
ATOM     39  C   UNL A   1      39.821  34.407  36.895  1.00  0.00     0.058 A 
ATOM     40  C   UNL A   1      39.092  34.085  38.052  1.00  0.00     0.135 A 
ATOM     41  C   UNL A   1      40.339  35.708  36.790  1.00  0.00     0.135 A 
ATOM     42  F   UNL A   1      38.560  32.861  38.196  1.00  0.00    -0.206 F 
ATOM     43  C   UNL A   1      38.871  35.022  39.056  1.00  0.00     0.059 A 
ATOM     44  C   UNL A   1      40.147  36.656  37.793  1.00  0.00     0.059 A 
ATOM     45  F   UNL A   1      41.043  36.069  35.706  1.00  0.00    -0.206 F 
ATOM     46  C   UNL A   1      39.401  36.306  38.917  1.00  0.00     0.060 A 
BRANCH  46  47
ATOM     47  S   UNL A   1      39.109  37.511  40.231  1.00  0.00     0.124 S 
ATOM     48  O   UNL A   1      38.533  36.667  41.274  1.00  0.00    -0.237 OA
ATOM     49  O   UNL A   1      40.451  38.019  40.498  1.00  0.00    -0.237 OA
ATOM     50  O   UNL A   1      38.191  38.466  39.619  1.00  0.00    -0.744 OA
ENDBRANCH  46  47
ENDBRANCH  25  39
BRANCH  26  51
ATOM     51  C   UNL A   1      41.258  27.747  29.562  1.00  0.00     0.058 A 
ATOM     52  C   UNL A   1      40.369  26.684  29.354  1.00  0.00     0.135 A 
ATOM     53  C   UNL A   1      42.338  27.884  28.677  1.00  0.00     0.135 A 
ATOM     54  F   UNL A   1      39.322  26.514  30.177  1.00  0.00    -0.206 F 
ATOM     55  C   UNL A   1      40.548  25.781  28.312  1.00  0.00     0.059 A 
ATOM     56  C   UNL A   1      42.524  27.010  27.613  1.00  0.00     0.059 A 
ATOM     57  F   UNL A   1      43.203  28.900  28.823  1.00  0.00    -0.206 F 
ATOM     58  C   UNL A   1      41.629  25.954  27.445  1.00  0.00     0.060 A 
BRANCH  58  59
ATOM     59  S   UNL A   1      41.827  24.819  26.055  1.00  0.00     0.124 S 
ATOM     60  O   UNL A   1      40.598  24.038  26.140  1.00  0.00    -0.237 OA
ATOM     61  O   UNL A   1      41.928  25.729  24.919  1.00  0.00    -0.237 OA
ATOM     62  O   UNL A   1      43.057  24.103  26.385  1.00  0.00    -0.744 OA
ENDBRANCH  58  59
ENDBRANCH  26  51
BRANCH  38  63
ATOM     63  C   UNL A   1      44.491  29.061  35.585  1.00  0.00     0.058 A 
ATOM     64  C   UNL A   1      45.799  29.490  35.313  1.00  0.00     0.135 A 
ATOM     65  C   UNL A   1      44.316  28.020  36.509  1.00  0.00     0.135 A 
ATOM     66  F   UNL A   1      46.016  30.477  34.428  1.00  0.00    -0.206 F 
ATOM     67  C   UNL A   1      46.898  28.889  35.914  1.00  0.00     0.059 A 
ATOM     68  C   UNL A   1      45.400  27.418  37.139  1.00  0.00     0.059 A 
ATOM     69  F   UNL A   1      43.083  27.580  36.807  1.00  0.00    -0.206 F 
ATOM     70  C   UNL A   1      46.688  27.849  36.823  1.00  0.00     0.060 A 
BRANCH  70  71
ATOM     71  S   UNL A   1      48.120  27.080  37.608  1.00  0.00     0.124 S 
ATOM     72  O   UNL A   1      48.344  27.969  38.743  1.00  0.00    -0.237 OA
ATOM     73  O   UNL A   1      47.625  25.746  37.935  1.00  0.00    -0.237 OA
ATOM     74  O   UNL A   1      49.140  27.123  36.564  1.00  0.00    -0.744 OA
ENDBRANCH  70  71
ENDBRANCH  38  63
ENDBRANCH  12  13
ENDBRANCH   5   7
ENDBRANCH   2   3
ENDBRANCH   1   2
BRANCH   1  75
ATOM     75  C   UNL A   1      32.323  29.534  27.249  1.00  0.00     0.023 C 
BRANCH  75  76
ATOM     76  C   UNL A   1      33.471  28.568  26.976  1.00  0.00     0.116 C 
BRANCH  76  77
ATOM     77  N   UNL A   1      34.065  28.740  25.667  1.00  0.00    -0.354 N 
ATOM     78  C   UNL A   1      33.967  28.029  24.512  1.00  0.00     0.250 C 
ATOM     79  H   UNL A   1      34.656  29.525  25.600  1.00  0.00     0.163 HD
ATOM     80  O   UNL A   1      34.309  28.674  23.508  1.00  0.00    -0.272 OA
BRANCH  78  81
ATOM     81  C   UNL A   1      33.469  26.538  24.359  1.00  0.00     0.145 C 
ATOM     82  C   UNL A   1      33.883  26.153  22.900  1.00  0.00     0.044 C 
ATOM     83  C   UNL A   1      31.961  26.278  24.520  1.00  0.00    -0.010 A 
ATOM     84  C   UNL A   1      33.018  26.849  21.860  1.00  0.00     0.008 C 
ATOM     85  C   UNL A   1      31.089  26.245  23.402  1.00  0.00    -0.042 A 
ATOM     86  C   UNL A   1      31.398  26.082  25.797  1.00  0.00     0.007 A 
ATOM     87  C   UNL A   1      31.578  26.374  21.978  1.00  0.00     0.036 C 
ATOM     88  C   UNL A   1      29.706  26.075  23.593  1.00  0.00     0.004 A 
ATOM     89  C   UNL A   1      30.021  25.915  25.970  1.00  0.00     0.000 A 
ATOM     90  C   UNL A   1      29.174  25.927  24.869  1.00  0.00     0.000 A 
BRANCH  81  91
ATOM     91  N   UNL A   1      34.228  25.553  25.205  1.00  0.00    -0.338 N 
ATOM     92  C   UNL A   1      34.936  24.424  24.929  1.00  0.00     0.224 C 
ATOM     93  H   UNL A   1      34.207  25.771  26.165  1.00  0.00     0.164 HD
ATOM     94  O   UNL A   1      35.920  24.196  25.637  1.00  0.00    -0.275 OA
BRANCH  92  95
ATOM     95  C   UNL A   1      34.458  23.421  23.888  1.00  0.00     0.082 C 
ATOM     96  C   UNL A   1      33.080  22.873  24.303  1.00  0.00     0.035 C 
ATOM     97  C   UNL A   1      35.462  22.271  23.668  1.00  0.00     0.035 C 
ATOM     98  C   UNL A   1      33.171  21.814  25.395  1.00  0.00     0.120 C 
ATOM     99  C   UNL A   1      35.427  21.195  24.759  1.00  0.00     0.120 C 
ATOM    100  N   UNL A   1      34.061  20.735  24.984  1.00  0.00    -0.342 N 
ATOM    101  C   UNL A   1      33.498  19.470  24.806  1.00  0.00     0.225 C 
ATOM    102  O   UNL A   1      32.288  19.298  24.951  1.00  0.00    -0.275 OA
BRANCH 101 103
ATOM    103  C   UNL A   1      34.267  18.231  24.480  1.00  0.00     0.079 C 
ATOM    104  C   UNL A   1      33.884  16.809  24.762  1.00  0.00     0.014 C 
ATOM    105  C   UNL A   1      33.930  17.312  23.339  1.00  0.00     0.014 C 
ENDBRANCH 101 103
ENDBRANCH  92  95
ENDBRANCH  81  91
ENDBRANCH  78  81
ENDBRANCH  76  77
ENDBRANCH  75  76
ENDBRANCH   1  75
TORSDOF 17
ENDMDL
MODEL 3
REMARK VINA RESULT:     -12.6      6.499     13.658
REMARK SMILES O=C(NCCCCNC(=O)[C@]1(NC(=O)C2CCN(C(=O)C3CC3)CC2)CCCc2ccccc21)c1ccc(-c2c3nc(c(-c4c(F)cc(S(=O)(=O)[O-])cc4F)c4ccc([nH]4)c(-c4c(F)cc(S(=O)(=O)[O-])cc4F)c4nc(c(-c5c(F)cc(S(=O)(=O)[O-])cc5F)c5ccc2[nH]5)C=C4)C=C3)cc1
REMARK SMILES IDX 5 1 4 2 3 3 1 4 2 5 35 7 36 8 100 9 37 10 99 11 38 12 39 13
REMARK SMILES IDX 40 14 93 15 41 16 98 17 92 18 94 19 42 20 97 21 91 22 90 23
REMARK SMILES IDX 43 25 77 26 56 27 76 28 57 29 60 30 75 31 95 32 58 33 59 34
REMARK SMILES IDX 74 36 96 37 61 38 44 39 45 40 54 41 46 42 47 43 53 44 55 45
REMARK SMILES IDX 48 46 49 47 50 48 51 49 52 50 78 51 79 52 88 53 80 54 81 55
REMARK SMILES IDX 87 56 89 57 82 58 83 59 84 60 85 61 86 62 62 63 63 64 72 65
REMARK SMILES IDX 64 66 65 67 71 68 73 69 66 70 67 71 68 72 69 73 70 74 6 75
REMARK SMILES IDX 7 76 8 77 9 78 10 80 11 81 26 82 34 83 27 84 29 85 33 86
REMARK SMILES IDX 28 87 30 88 32 89 31 90 12 91 13 92 14 94 15 95 16 96 25 97
REMARK SMILES IDX 17 98 24 99 18 100 19 101 20 102 21 103 22 104 23 105
REMARK H PARENT 3 6 94 24 60 35 8 79 12 93
REMARK Flexibility Score: inf
ROOT
ATOM      1  C   UNL A   1      43.773  24.407  25.809  1.00  0.00     0.023 C 
ENDROOT
BRANCH   1   2
ATOM      2  C   UNL A   1      42.617  24.235  26.781  1.00  0.00     0.116 C 
BRANCH   2   3
ATOM      3  N   UNL A   1      41.301  24.225  26.158  1.00  0.00    -0.352 N 
ATOM      4  O   UNL A   1      39.103  24.763  26.003  1.00  0.00    -0.269 OA
ATOM      5  C   UNL A   1      40.177  24.901  26.579  1.00  0.00     0.251 C 
ATOM      6  H   UNL A   1      41.204  23.676  25.346  1.00  0.00     0.163 HD
BRANCH   5   7
ATOM      7  C   UNL A   1      40.292  25.755  27.778  1.00  0.00     0.039 A 
ATOM      8  C   UNL A   1      39.438  25.544  28.862  1.00  0.00     0.014 A 
ATOM      9  C   UNL A   1      41.176  26.835  27.766  1.00  0.00     0.014 A 
ATOM     10  C   UNL A   1      39.357  26.502  29.861  1.00  0.00     0.010 A 
ATOM     11  C   UNL A   1      41.152  27.754  28.817  1.00  0.00     0.010 A 
ATOM     12  C   UNL A   1      40.215  27.616  29.852  1.00  0.00    -0.014 A 
BRANCH  12  13
ATOM     13  C   UNL A   1      40.133  28.592  30.965  1.00  0.00     0.031 A 
ATOM     14  C   UNL A   1      41.071  28.521  32.139  1.00  0.00     0.074 A 
ATOM     15  C   UNL A   1      39.229  29.586  30.873  1.00  0.00     0.049 A 
ATOM     16  N   UNL A   1      41.142  29.308  33.182  1.00  0.00    -0.248 NA
ATOM     17  C   UNL A   1      42.054  27.425  32.149  1.00  0.00     0.031 C 
ATOM     18  C   UNL A   1      38.265  29.746  29.780  1.00  0.00     0.029 A 
ATOM     19  N   UNL A   1      38.986  30.660  31.688  1.00  0.00    -0.354 N 
ATOM     20  C   UNL A   1      42.159  28.797  33.980  1.00  0.00     0.074 A 
ATOM     21  C   UNL A   1      42.668  27.620  33.309  1.00  0.00     0.031 C 
ATOM     22  C   UNL A   1      37.572  30.878  29.965  1.00  0.00     0.029 A 
ATOM     23  C   UNL A   1      37.999  31.491  31.216  1.00  0.00     0.049 A 
ATOM     24  H   UNL A   1      39.472  30.821  32.528  1.00  0.00     0.167 HD
ATOM     25  C   UNL A   1      42.626  29.275  35.159  1.00  0.00     0.037 A 
ATOM     26  C   UNL A   1      37.481  32.617  31.741  1.00  0.00     0.037 A 
ATOM     27  C   UNL A   1      42.120  30.456  35.811  1.00  0.00     0.049 A 
ATOM     28  C   UNL A   1      38.020  33.123  33.044  1.00  0.00     0.074 A 
ATOM     29  C   UNL A   1      42.518  31.019  37.012  1.00  0.00     0.029 A 
ATOM     30  N   UNL A   1      41.108  31.264  35.311  1.00  0.00    -0.354 N 
ATOM     31  N   UNL A   1      38.973  32.617  33.791  1.00  0.00    -0.248 NA
ATOM     32  C   UNL A   1      37.413  34.347  33.582  1.00  0.00     0.031 C 
ATOM     33  C   UNL A   1      41.731  32.153  37.249  1.00  0.00     0.029 A 
ATOM     34  C   UNL A   1      40.866  32.316  36.180  1.00  0.00     0.049 A 
ATOM     35  H   UNL A   1      40.632  31.112  34.462  1.00  0.00     0.167 HD
ATOM     36  C   UNL A   1      39.079  33.460  34.889  1.00  0.00     0.074 A 
ATOM     37  C   UNL A   1      38.114  34.524  34.694  1.00  0.00     0.031 C 
ATOM     38  C   UNL A   1      39.895  33.358  35.967  1.00  0.00     0.037 A 
BRANCH  25  39
ATOM     39  C   UNL A   1      43.734  28.513  35.833  1.00  0.00     0.058 A 
ATOM     40  C   UNL A   1      43.469  27.429  36.685  1.00  0.00     0.135 A 
ATOM     41  C   UNL A   1      45.078  28.839  35.588  1.00  0.00     0.135 A 
ATOM     42  F   UNL A   1      42.202  27.085  36.966  1.00  0.00    -0.206 F 
ATOM     43  C   UNL A   1      44.496  26.706  37.284  1.00  0.00     0.059 A 
ATOM     44  C   UNL A   1      46.123  28.117  36.161  1.00  0.00     0.059 A 
ATOM     45  F   UNL A   1      45.388  29.866  34.782  1.00  0.00    -0.206 F 
ATOM     46  C   UNL A   1      45.820  27.059  37.018  1.00  0.00     0.060 A 
BRANCH  46  47
ATOM     47  S   UNL A   1      47.144  26.110  37.800  1.00  0.00     0.124 S 
ATOM     48  O   UNL A   1      48.323  26.862  37.382  1.00  0.00    -0.237 OA
ATOM     49  O   UNL A   1      46.803  26.201  39.216  1.00  0.00    -0.237 OA
ATOM     50  O   UNL A   1      47.004  24.783  37.209  1.00  0.00    -0.744 OA
ENDBRANCH  46  47
ENDBRANCH  25  39
BRANCH  26  51
ATOM     51  C   UNL A   1      36.383  33.319  31.031  1.00  0.00     0.058 A 
ATOM     52  C   UNL A   1      35.071  33.301  31.525  1.00  0.00     0.135 A 
ATOM     53  C   UNL A   1      36.636  34.055  29.863  1.00  0.00     0.135 A 
ATOM     54  F   UNL A   1      34.784  32.610  32.639  1.00  0.00    -0.206 F 
ATOM     55  C   UNL A   1      34.044  33.981  30.881  1.00  0.00     0.059 A 
ATOM     56  C   UNL A   1      35.631  34.763  29.215  1.00  0.00     0.059 A 
ATOM     57  F   UNL A   1      37.880  34.120  29.364  1.00  0.00    -0.206 F 
ATOM     58  C   UNL A   1      34.335  34.711  29.727  1.00  0.00     0.060 A 
BRANCH  58  59
ATOM     59  S   UNL A   1      33.013  35.644  28.924  1.00  0.00     0.124 S 
ATOM     60  O   UNL A   1      32.383  34.611  28.108  1.00  0.00    -0.237 OA
ATOM     61  O   UNL A   1      32.233  36.123  30.060  1.00  0.00    -0.237 OA
ATOM     62  O   UNL A   1      33.736  36.678  28.190  1.00  0.00    -0.744 OA
ENDBRANCH  58  59
ENDBRANCH  26  51
BRANCH  38  63
ATOM     63  C   UNL A   1      39.773  34.433  37.007  1.00  0.00     0.058 A 
ATOM     64  C   UNL A   1      40.457  35.651  36.879  1.00  0.00     0.135 A 
ATOM     65  C   UNL A   1      38.957  34.247  38.133  1.00  0.00     0.135 A 
ATOM     66  F   UNL A   1      41.256  35.870  35.822  1.00  0.00    -0.206 F 
ATOM     67  C   UNL A   1      40.359  36.642  37.850  1.00  0.00     0.059 A 
ATOM     68  C   UNL A   1      38.829  35.232  39.106  1.00  0.00     0.059 A 
ATOM     69  F   UNL A   1      38.278  33.101  38.295  1.00  0.00    -0.206 F 
ATOM     70  C   UNL A   1      39.546  36.420  38.964  1.00  0.00     0.060 A 
BRANCH  70  71
ATOM     71  S   UNL A   1      39.417  37.714  40.215  1.00  0.00     0.124 S 
ATOM     72  O   UNL A   1      38.337  38.534  39.676  1.00  0.00    -0.237 OA
ATOM     73  O   UNL A   1      39.097  36.958  41.422  1.00  0.00    -0.237 OA
ATOM     74  O   UNL A   1      40.741  38.329  40.201  1.00  0.00    -0.744 OA
ENDBRANCH  70  71
ENDBRANCH  38  63
ENDBRANCH  12  13
ENDBRANCH   5   7
ENDBRANCH   2   3
ENDBRANCH   1   2
BRANCH   1  75
ATOM     75  C   UNL A   1      43.985  25.826  25.285  1.00  0.00     0.023 C 
BRANCH  75  76
ATOM     76  C   UNL A   1      45.428  26.200  24.963  1.00  0.00     0.116 C 
BRANCH  76  77
ATOM     77  N   UNL A   1      45.627  27.624  24.797  1.00  0.00    -0.354 N 
ATOM     78  C   UNL A   1      46.011  28.606  25.657  1.00  0.00     0.250 C 
ATOM     79  H   UNL A   1      45.449  27.945  23.883  1.00  0.00     0.163 HD
ATOM     80  O   UNL A   1      46.431  29.623  25.084  1.00  0.00    -0.272 OA
BRANCH  78  81
ATOM     81  C   UNL A   1      45.975  28.547  27.234  1.00  0.00     0.145 C 
ATOM     82  C   UNL A   1      44.448  28.582  27.575  1.00  0.00     0.044 C 
ATOM     83  C   UNL A   1      46.667  29.690  27.998  1.00  0.00    -0.010 A 
ATOM     84  C   UNL A   1      43.839  29.954  27.328  1.00  0.00     0.008 C 
ATOM     85  C   UNL A   1      45.950  30.831  28.438  1.00  0.00    -0.042 A 
ATOM     86  C   UNL A   1      48.050  29.639  28.267  1.00  0.00     0.007 A 
ATOM     87  C   UNL A   1      44.456  30.975  28.271  1.00  0.00     0.036 C 
ATOM     88  C   UNL A   1      46.630  31.889  29.071  1.00  0.00     0.004 A 
ATOM     89  C   UNL A   1      48.710  30.698  28.897  1.00  0.00     0.000 A 
ATOM     90  C   UNL A   1      48.003  31.828  29.285  1.00  0.00     0.000 A 
BRANCH  81  91
ATOM     91  N   UNL A   1      46.427  27.232  27.807  1.00  0.00    -0.338 N 
ATOM     92  C   UNL A   1      45.814  26.265  28.542  1.00  0.00     0.224 C 
ATOM     93  H   UNL A   1      47.369  27.027  27.606  1.00  0.00     0.164 HD
ATOM     94  O   UNL A   1      46.164  25.100  28.334  1.00  0.00    -0.275 OA
BRANCH  92  95
ATOM     95  C   UNL A   1      44.846  26.615  29.665  1.00  0.00     0.082 C 
ATOM     96  C   UNL A   1      45.644  27.002  30.924  1.00  0.00     0.035 C 
ATOM     97  C   UNL A   1      43.858  25.471  29.973  1.00  0.00     0.035 C 
ATOM     98  C   UNL A   1      46.194  25.792  31.670  1.00  0.00     0.120 C 
ATOM     99  C   UNL A   1      44.459  24.335  30.808  1.00  0.00     0.120 C 
ATOM    100  N   UNL A   1      45.118  24.865  31.997  1.00  0.00    -0.342 N 
ATOM    101  C   UNL A   1      44.832  24.663  33.348  1.00  0.00     0.225 C 
ATOM    102  O   UNL A   1      45.444  25.285  34.217  1.00  0.00    -0.275 OA
BRANCH 101 103
ATOM    103  C   UNL A   1      43.833  23.684  33.873  1.00  0.00     0.079 C 
ATOM    104  C   UNL A   1      43.838  22.983  35.199  1.00  0.00     0.014 C 
ATOM    105  C   UNL A   1      42.786  24.023  34.898  1.00  0.00     0.014 C 
ENDBRANCH 101 103
ENDBRANCH  92  95
ENDBRANCH  81  91
ENDBRANCH  78  81
ENDBRANCH  76  77
ENDBRANCH  75  76
ENDBRANCH   1  75
TORSDOF 17
ENDMDL
