MODEL 1
REMARK VINA RESULT:     -12.5      0.000      0.000
REMARK SMILES Cc1[nH]c2c(C(=O)N3CC[C@H](O)C[C@@H]3C(=O)NCCCCNC(=O)c3ccc(-c4c5nc(c(-c6c(F)cc(S(=O)(=O)[O-])cc6F)c6ccc([nH]6)c(-c6c(F)cc(S(=O)(=O)[O-])cc6F)c6nc(c(-c7c(F)cc(S(=O)(=O)[O-])cc7F)c7ccc4[nH]7)C=C6)C=C5)cc3)cccc2c1C
REMARK SMILES IDX 20 1 19 2 18 3 17 4 15 5 16 6 14 8 8 9 9 10 10 11 13 12
REMARK SMILES IDX 11 13 6 14 7 15 5 16 1 17 2 18 3 19 95 20 4 21 94 23 96 24
REMARK SMILES IDX 93 25 91 26 92 27 12 28 21 30 22 31 23 32 24 34 25 35 26 36
REMARK SMILES IDX 90 37 27 38 89 39 28 40 29 41 30 42 83 43 31 44 88 45 82 46
REMARK SMILES IDX 84 47 32 48 87 49 81 50 80 51 33 53 67 54 46 55 66 56 47 57
REMARK SMILES IDX 50 58 65 59 85 60 48 61 49 62 64 64 86 65 51 66 34 67 35 68
REMARK SMILES IDX 44 69 36 70 37 71 43 72 45 73 38 74 39 75 40 76 41 77 42 78
REMARK SMILES IDX 68 79 69 80 78 81 70 82 71 83 77 84 79 85 72 86 73 87 74 88
REMARK SMILES IDX 75 89 76 90 52 91 53 92 62 93 54 94 55 95 61 96 63 97 56 98
REMARK SMILES IDX 57 99 58 100 59 101 60 102
REMARK H PARENT 17 7 3 22 12 29 22 33 84 52 50 63
REMARK Flexibility Score: inf
ROOT
ATOM      1  C   UNL A   1      33.917  30.131  26.892  1.00  0.00     0.023 C 
ENDROOT
BRANCH   1   2
ATOM      2  C   UNL A   1      32.733  29.186  26.739  1.00  0.00     0.023 C 
BRANCH   2   3
ATOM      3  C   UNL A   1      33.039  27.700  26.913  1.00  0.00     0.116 C 
BRANCH   3   4
ATOM      4  N   UNL A   1      31.858  26.877  27.051  1.00  0.00    -0.354 N 
ATOM      5  C   UNL A   1      31.480  25.730  26.424  1.00  0.00     0.242 C 
ATOM      6  O   UNL A   1      30.276  25.451  26.527  1.00  0.00    -0.273 OA
ATOM      7  H   UNL A   1      31.212  27.205  27.718  1.00  0.00     0.163 HD
BRANCH   5   8
ATOM      8  C   UNL A   1      32.385  24.832  25.521  1.00  0.00     0.177 C 
ATOM      9  N   UNL A   1      31.882  24.272  24.259  1.00  0.00    -0.326 N 
ATOM     10  C   UNL A   1      31.350  22.912  24.207  1.00  0.00     0.123 C 
ATOM     11  C   UNL A   1      31.742  21.959  25.353  1.00  0.00     0.053 C 
ATOM     12  C   UNL A   1      33.196  23.811  26.309  1.00  0.00     0.067 C 
ATOM     13  C   UNL A   1      32.396  22.561  26.598  1.00  0.00     0.118 C 
BRANCH   9  14
ATOM     14  C   UNL A   1      32.413  24.795  23.074  1.00  0.00     0.256 C 
ATOM     15  O   UNL A   1      32.851  24.088  22.171  1.00  0.00    -0.269 OA
BRANCH  14  16
ATOM     16  C   UNL A   1      32.481  26.266  22.936  1.00  0.00     0.064 A 
ATOM     17  C   UNL A   1      27.756  27.766  23.486  1.00  0.00     0.064 C 
ATOM     18  C   UNL A   1      29.226  27.856  23.293  1.00  0.00     0.016 A 
ATOM     19  N   UNL A   1      30.009  26.735  23.199  1.00  0.00    -0.358 N 
ATOM     20  C   UNL A   1      30.060  28.959  23.206  1.00  0.00    -0.023 A 
ATOM     21  C   UNL A   1      31.332  27.070  23.034  1.00  0.00     0.059 A 
ATOM     22  H   UNL A   1      29.669  25.812  23.242  1.00  0.00     0.166 HD
ATOM     23  C   UNL A   1      31.396  28.465  23.058  1.00  0.00     0.003 A 
ATOM     24  C   UNL A   1      29.657  30.389  23.299  1.00  0.00     0.047 C 
ATOM     25  C   UNL A   1      32.662  29.083  22.975  1.00  0.00     0.010 A 
ATOM     26  C   UNL A   1      33.728  26.906  22.885  1.00  0.00     0.016 A 
ATOM     27  C   UNL A   1      33.817  28.296  22.893  1.00  0.00     0.002 A 
ENDBRANCH  14  16
ENDBRANCH   9  14
BRANCH  13  28
ATOM     28  O   UNL A   1      31.407  22.826  27.583  1.00  0.00    -0.393 OA
ATOM     29  H   UNL A   1      31.693  23.568  28.137  1.00  0.00     0.210 HD
ENDBRANCH  13  28
ENDBRANCH   5   8
ENDBRANCH   3   4
ENDBRANCH   2   3
ENDBRANCH   1   2
BRANCH   1  30
ATOM     30  C   UNL A   1      35.013  29.676  27.843  1.00  0.00     0.116 C 
BRANCH  30  31
ATOM     31  N   UNL A   1      35.195  30.523  29.015  1.00  0.00    -0.352 N 
ATOM     32  C   UNL A   1      36.341  30.699  29.759  1.00  0.00     0.251 C 
ATOM     33  H   UNL A   1      34.404  31.030  29.311  1.00  0.00     0.163 HD
ATOM     34  O   UNL A   1      36.348  31.425  30.747  1.00  0.00    -0.269 OA
BRANCH  32  35
ATOM     35  C   UNL A   1      37.546  29.940  29.370  1.00  0.00     0.039 A 
ATOM     36  C   UNL A   1      37.919  29.915  28.025  1.00  0.00     0.014 A 
ATOM     37  C   UNL A   1      38.373  29.390  30.353  1.00  0.00     0.014 A 
ATOM     38  C   UNL A   1      39.180  29.428  27.676  1.00  0.00     0.010 A 
ATOM     39  C   UNL A   1      39.658  28.983  30.011  1.00  0.00     0.010 A 
ATOM     40  C   UNL A   1      40.079  29.013  28.673  1.00  0.00    -0.014 A 
BRANCH  40  41
ATOM     41  C   UNL A   1      41.476  28.634  28.339  1.00  0.00     0.031 A 
ATOM     42  C   UNL A   1      42.549  29.685  28.293  1.00  0.00     0.074 A 
ATOM     43  C   UNL A   1      41.759  27.360  28.001  1.00  0.00     0.049 A 
ATOM     44  N   UNL A   1      43.804  29.567  27.947  1.00  0.00    -0.248 NA
ATOM     45  C   UNL A   1      42.149  31.057  28.648  1.00  0.00     0.031 C 
ATOM     46  C   UNL A   1      40.789  26.262  27.937  1.00  0.00     0.029 A 
ATOM     47  N   UNL A   1      42.945  26.772  27.635  1.00  0.00    -0.354 N 
ATOM     48  C   UNL A   1      44.337  30.847  28.025  1.00  0.00     0.074 A 
ATOM     49  C   UNL A   1      43.258  31.735  28.397  1.00  0.00     0.031 C 
ATOM     50  C   UNL A   1      41.425  25.132  27.579  1.00  0.00     0.029 A 
ATOM     51  C   UNL A   1      42.836  25.429  27.362  1.00  0.00     0.049 A 
ATOM     52  H   UNL A   1      43.794  27.268  27.573  1.00  0.00     0.167 HD
ATOM     53  C   UNL A   1      45.618  31.243  27.833  1.00  0.00     0.037 A 
ATOM     54  C   UNL A   1      43.771  24.537  26.982  1.00  0.00     0.037 A 
ATOM     55  C   UNL A   1      46.696  30.352  27.503  1.00  0.00     0.049 A 
ATOM     56  C   UNL A   1      45.196  24.990  26.820  1.00  0.00     0.074 A 
ATOM     57  C   UNL A   1      48.040  30.646  27.344  1.00  0.00     0.029 A 
ATOM     58  N   UNL A   1      46.557  28.989  27.290  1.00  0.00    -0.354 N 
ATOM     59  N   UNL A   1      45.695  26.196  26.958  1.00  0.00    -0.248 NA
ATOM     60  C   UNL A   1      46.186  23.966  26.463  1.00  0.00     0.031 C 
ATOM     61  C   UNL A   1      48.710  29.463  27.014  1.00  0.00     0.029 A 
ATOM     62  C   UNL A   1      47.789  28.427  26.997  1.00  0.00     0.049 A 
ATOM     63  H   UNL A   1      45.708  28.493  27.339  1.00  0.00     0.167 HD
ATOM     64  C   UNL A   1      47.060  26.071  26.725  1.00  0.00     0.074 A 
ATOM     65  C   UNL A   1      47.309  24.670  26.449  1.00  0.00     0.031 C 
ATOM     66  C   UNL A   1      48.018  27.029  26.737  1.00  0.00     0.037 A 
BRANCH  53  67
ATOM     67  C   UNL A   1      45.917  32.707  27.996  1.00  0.00     0.058 A 
ATOM     68  C   UNL A   1      46.362  33.229  29.221  1.00  0.00     0.135 A 
ATOM     69  C   UNL A   1      45.774  33.594  26.918  1.00  0.00     0.135 A 
ATOM     70  F   UNL A   1      46.497  32.426  30.289  1.00  0.00    -0.206 F 
ATOM     71  C   UNL A   1      46.622  34.584  29.382  1.00  0.00     0.059 A 
ATOM     72  C   UNL A   1      46.054  34.951  27.049  1.00  0.00     0.059 A 
ATOM     73  F   UNL A   1      45.350  33.146  25.725  1.00  0.00    -0.206 F 
ATOM     74  C   UNL A   1      46.461  35.439  28.290  1.00  0.00     0.060 A 
BRANCH  74  75
ATOM     75  S   UNL A   1      46.797  37.198  28.514  1.00  0.00     0.124 S 
ATOM     76  O   UNL A   1      48.236  37.189  28.758  1.00  0.00    -0.237 OA
ATOM     77  O   UNL A   1      46.377  37.764  27.235  1.00  0.00    -0.237 OA
ATOM     78  O   UNL A   1      45.968  37.559  29.658  1.00  0.00    -0.744 OA
ENDBRANCH  74  75
ENDBRANCH  53  67
BRANCH  54  79
ATOM     79  C   UNL A   1      43.396  23.114  26.765  1.00  0.00     0.058 A 
ATOM     80  C   UNL A   1      43.372  22.565  25.475  1.00  0.00     0.135 A 
ATOM     81  C   UNL A   1      43.070  22.274  27.840  1.00  0.00     0.135 A 
ATOM     82  F   UNL A   1      43.672  23.332  24.415  1.00  0.00    -0.206 F 
ATOM     83  C   UNL A   1      43.027  21.236  25.254  1.00  0.00     0.059 A 
ATOM     84  C   UNL A   1      42.740  20.935  27.647  1.00  0.00     0.059 A 
ATOM     85  F   UNL A   1      43.095  22.747  29.095  1.00  0.00    -0.206 F 
ATOM     86  C   UNL A   1      42.713  20.428  26.348  1.00  0.00     0.060 A 
BRANCH  86  87
ATOM     87  S   UNL A   1      42.320  18.689  26.058  1.00  0.00     0.124 S 
ATOM     88  O   UNL A   1      40.909  18.763  25.699  1.00  0.00    -0.237 OA
ATOM     89  O   UNL A   1      43.237  18.340  24.977  1.00  0.00    -0.237 OA
ATOM     90  O   UNL A   1      42.614  18.063  27.344  1.00  0.00    -0.744 OA
ENDBRANCH  86  87
ENDBRANCH  54  79
BRANCH  66  91
ATOM     91  C   UNL A   1      49.431  26.594  26.473  1.00  0.00     0.058 A 
ATOM     92  C   UNL A   1      50.214  25.997  27.473  1.00  0.00     0.135 A 
ATOM     93  C   UNL A   1      49.986  26.724  25.190  1.00  0.00     0.135 A 
ATOM     94  F   UNL A   1      49.729  25.856  28.716  1.00  0.00    -0.206 F 
ATOM     95  C   UNL A   1      51.507  25.557  27.213  1.00  0.00     0.059 A 
ATOM     96  C   UNL A   1      51.269  26.272  24.903  1.00  0.00     0.059 A 
ATOM     97  F   UNL A   1      49.273  27.280  24.198  1.00  0.00    -0.206 F 
ATOM     98  C   UNL A   1      52.026  25.698  25.924  1.00  0.00     0.060 A 
BRANCH  98  99
ATOM     99  S   UNL A   1      53.691  25.086  25.587  1.00  0.00     0.124 S 
ATOM    100  O   UNL A   1      54.404  25.496  26.791  1.00  0.00    -0.237 OA
ATOM    101  O   UNL A   1      53.475  23.650  25.436  1.00  0.00    -0.237 OA
ATOM    102  O   UNL A   1      54.067  25.788  24.363  1.00  0.00    -0.744 OA
ENDBRANCH  98  99
ENDBRANCH  66  91
ENDBRANCH  40  41
ENDBRANCH  32  35
ENDBRANCH  30  31
ENDBRANCH   1  30
TORSDOF 17
ENDMDL
MODEL 2
REMARK VINA RESULT:     -12.5      6.553     11.705
REMARK SMILES Cc1[nH]c2c(C(=O)N3CC[C@H](O)C[C@@H]3C(=O)NCCCCNC(=O)c3ccc(-c4c5nc(c(-c6c(F)cc(S(=O)(=O)[O-])cc6F)c6ccc([nH]6)c(-c6c(F)cc(S(=O)(=O)[O-])cc6F)c6nc(c(-c7c(F)cc(S(=O)(=O)[O-])cc7F)c7ccc4[nH]7)C=C6)C=C5)cc3)cccc2c1C
REMARK SMILES IDX 20 1 19 2 18 3 17 4 15 5 16 6 14 8 8 9 9 10 10 11 13 12
REMARK SMILES IDX 11 13 6 14 7 15 5 16 1 17 2 18 3 19 95 20 4 21 94 23 96 24
REMARK SMILES IDX 93 25 91 26 92 27 12 28 21 30 22 31 23 32 24 34 25 35 26 36
REMARK SMILES IDX 90 37 27 38 89 39 28 40 29 41 30 42 83 43 31 44 88 45 82 46
REMARK SMILES IDX 84 47 32 48 87 49 81 50 80 51 33 53 67 54 46 55 66 56 47 57
REMARK SMILES IDX 50 58 65 59 85 60 48 61 49 62 64 64 86 65 51 66 34 67 35 68
REMARK SMILES IDX 44 69 36 70 37 71 43 72 45 73 38 74 39 75 40 76 41 77 42 78
REMARK SMILES IDX 68 79 69 80 78 81 70 82 71 83 77 84 79 85 72 86 73 87 74 88
REMARK SMILES IDX 75 89 76 90 52 91 53 92 62 93 54 94 55 95 61 96 63 97 56 98
REMARK SMILES IDX 57 99 58 100 59 101 60 102
REMARK H PARENT 17 7 3 22 12 29 22 33 84 52 50 63
REMARK Flexibility Score: inf
ROOT
ATOM      1  C   UNL A   1      39.407  22.058  26.605  1.00  0.00     0.023 C 
ENDROOT
BRANCH   1   2
ATOM      2  C   UNL A   1      38.327  22.335  25.568  1.00  0.00     0.023 C 
BRANCH   2   3
ATOM      3  C   UNL A   1      37.395  23.506  25.870  1.00  0.00     0.116 C 
BRANCH   3   4
ATOM      4  N   UNL A   1      36.299  23.164  26.748  1.00  0.00    -0.354 N 
ATOM      5  C   UNL A   1      34.977  22.955  26.502  1.00  0.00     0.242 C 
ATOM      6  O   UNL A   1      34.246  22.999  27.502  1.00  0.00    -0.273 OA
ATOM      7  H   UNL A   1      36.555  23.064  27.694  1.00  0.00     0.163 HD
BRANCH   5   8
ATOM      8  C   UNL A   1      34.318  22.784  25.095  1.00  0.00     0.177 C 
ATOM      9  N   UNL A   1      33.071  23.482  24.752  1.00  0.00    -0.326 N 
ATOM     10  C   UNL A   1      31.781  22.806  24.879  1.00  0.00     0.123 C 
ATOM     11  C   UNL A   1      31.795  21.267  24.933  1.00  0.00     0.053 C 
ATOM     12  C   UNL A   1      34.314  21.343  24.604  1.00  0.00     0.067 C 
ATOM     13  C   UNL A   1      33.137  20.567  25.151  1.00  0.00     0.118 C 
BRANCH   9  14
ATOM     14  C   UNL A   1      33.158  24.520  23.817  1.00  0.00     0.256 C 
ATOM     15  O   UNL A   1      33.992  24.537  22.917  1.00  0.00    -0.269 OA
BRANCH  14  16
ATOM     16  C   UNL A   1      32.225  25.659  23.957  1.00  0.00     0.064 A 
ATOM     17  C   UNL A   1      34.581  28.798  27.034  1.00  0.00     0.064 C 
ATOM     18  C   UNL A   1      33.529  28.275  26.127  1.00  0.00     0.016 A 
ATOM     19  N   UNL A   1      33.618  27.028  25.564  1.00  0.00    -0.358 N 
ATOM     20  C   UNL A   1      32.363  28.862  25.663  1.00  0.00    -0.023 A 
ATOM     21  C   UNL A   1      32.535  26.772  24.758  1.00  0.00     0.059 A 
ATOM     22  H   UNL A   1      34.360  26.399  25.719  1.00  0.00     0.166 HD
ATOM     23  C   UNL A   1      31.739  27.919  24.783  1.00  0.00     0.003 A 
ATOM     24  C   UNL A   1      31.870  30.231  25.975  1.00  0.00     0.047 C 
ATOM     25  C   UNL A   1      30.581  27.953  23.978  1.00  0.00     0.010 A 
ATOM     26  C   UNL A   1      31.084  25.732  23.145  1.00  0.00     0.016 A 
ATOM     27  C   UNL A   1      30.267  26.859  23.162  1.00  0.00     0.002 A 
ENDBRANCH  14  16
ENDBRANCH   9  14
BRANCH  13  28
ATOM     28  O   UNL A   1      33.324  20.300  26.534  1.00  0.00    -0.393 OA
ATOM     29  H   UNL A   1      32.492  19.982  26.917  1.00  0.00     0.210 HD
ENDBRANCH  13  28
ENDBRANCH   5   8
ENDBRANCH   3   4
ENDBRANCH   2   3
ENDBRANCH   1   2
BRANCH   1  30
ATOM     30  C   UNL A   1      40.201  23.267  27.076  1.00  0.00     0.116 C 
BRANCH  30  31
ATOM     31  N   UNL A   1      40.739  24.099  26.007  1.00  0.00    -0.352 N 
ATOM     32  C   UNL A   1      41.240  25.378  26.105  1.00  0.00     0.251 C 
ATOM     33  H   UNL A   1      40.747  23.697  25.108  1.00  0.00     0.163 HD
ATOM     34  O   UNL A   1      41.637  25.979  25.113  1.00  0.00    -0.269 OA
BRANCH  32  35
ATOM     35  C   UNL A   1      41.226  26.032  27.430  1.00  0.00     0.039 A 
ATOM     36  C   UNL A   1      42.334  26.786  27.817  1.00  0.00     0.014 A 
ATOM     37  C   UNL A   1      40.063  26.015  28.204  1.00  0.00     0.014 A 
ATOM     38  C   UNL A   1      42.237  27.613  28.937  1.00  0.00     0.010 A 
ATOM     39  C   UNL A   1      39.943  26.900  29.270  1.00  0.00     0.010 A 
ATOM     40  C   UNL A   1      41.023  27.720  29.636  1.00  0.00    -0.014 A 
BRANCH  40  41
ATOM     41  C   UNL A   1      40.852  28.703  30.735  1.00  0.00     0.031 A 
ATOM     42  C   UNL A   1      41.714  28.616  31.962  1.00  0.00     0.074 A 
ATOM     43  C   UNL A   1      39.868  29.623  30.661  1.00  0.00     0.049 A 
ATOM     44  N   UNL A   1      41.665  29.328  33.057  1.00  0.00    -0.248 NA
ATOM     45  C   UNL A   1      42.745  27.565  31.975  1.00  0.00     0.031 C 
ATOM     46  C   UNL A   1      38.917  29.763  29.554  1.00  0.00     0.029 A 
ATOM     47  N   UNL A   1      39.495  30.609  31.541  1.00  0.00    -0.354 N 
ATOM     48  C   UNL A   1      42.641  28.802  33.893  1.00  0.00     0.074 A 
ATOM     49  C   UNL A   1      43.229  27.676  33.202  1.00  0.00     0.031 C 
ATOM     50  C   UNL A   1      38.089  30.791  29.811  1.00  0.00     0.029 A 
ATOM     51  C   UNL A   1      38.429  31.363  31.109  1.00  0.00     0.049 A 
ATOM     52  H   UNL A   1      39.949  30.762  32.401  1.00  0.00     0.167 HD
ATOM     53  C   UNL A   1      43.033  29.235  35.115  1.00  0.00     0.037 A 
ATOM     54  C   UNL A   1      37.800  32.401  31.693  1.00  0.00     0.037 A 
ATOM     55  C   UNL A   1      42.474  30.379  35.781  1.00  0.00     0.049 A 
ATOM     56  C   UNL A   1      38.283  32.894  33.029  1.00  0.00     0.074 A 
ATOM     57  C   UNL A   1      42.841  30.935  36.995  1.00  0.00     0.029 A 
ATOM     58  N   UNL A   1      41.433  31.152  35.287  1.00  0.00    -0.354 N 
ATOM     59  N   UNL A   1      39.250  32.422  33.779  1.00  0.00    -0.248 NA
ATOM     60  C   UNL A   1      37.600  34.066  33.594  1.00  0.00     0.031 C 
ATOM     61  C   UNL A   1      42.008  32.031  37.244  1.00  0.00     0.029 A 
ATOM     62  C   UNL A   1      41.142  32.177  36.171  1.00  0.00     0.049 A 
ATOM     63  H   UNL A   1      40.969  30.994  34.432  1.00  0.00     0.167 HD
ATOM     64  C   UNL A   1      39.305  33.250  34.894  1.00  0.00     0.074 A 
ATOM     65  C   UNL A   1      38.282  34.260  34.714  1.00  0.00     0.031 C 
ATOM     66  C   UNL A   1      40.127  33.179  35.969  1.00  0.00     0.037 A 
BRANCH  53  67
ATOM     67  C   UNL A   1      44.135  28.473  35.795  1.00  0.00     0.058 A 
ATOM     68  C   UNL A   1      43.856  27.413  36.672  1.00  0.00     0.135 A 
ATOM     69  C   UNL A   1      45.480  28.792  35.558  1.00  0.00     0.135 A 
ATOM     70  F   UNL A   1      42.584  27.080  36.948  1.00  0.00    -0.206 F 
ATOM     71  C   UNL A   1      44.871  26.717  37.317  1.00  0.00     0.059 A 
ATOM     72  C   UNL A   1      46.514  28.091  36.173  1.00  0.00     0.059 A 
ATOM     73  F   UNL A   1      45.802  29.798  34.729  1.00  0.00    -0.206 F 
ATOM     74  C   UNL A   1      46.199  27.067  37.065  1.00  0.00     0.060 A 
BRANCH  74  75
ATOM     75  S   UNL A   1      47.507  26.159  37.913  1.00  0.00     0.124 S 
ATOM     76  O   UNL A   1      46.817  25.719  39.122  1.00  0.00    -0.237 OA
ATOM     77  O   UNL A   1      47.834  25.108  36.953  1.00  0.00    -0.237 OA
ATOM     78  O   UNL A   1      48.544  27.165  38.112  1.00  0.00    -0.744 OA
ENDBRANCH  74  75
ENDBRANCH  53  67
BRANCH  54  79
ATOM     79  C   UNL A   1      36.666  33.068  30.999  1.00  0.00     0.058 A 
ATOM     80  C   UNL A   1      35.347  32.887  31.440  1.00  0.00     0.135 A 
ATOM     81  C   UNL A   1      36.879  33.909  29.897  1.00  0.00     0.135 A 
ATOM     82  F   UNL A   1      35.094  32.088  32.488  1.00  0.00    -0.206 F 
ATOM     83  C   UNL A   1      34.275  33.506  30.805  1.00  0.00     0.059 A 
ATOM     84  C   UNL A   1      35.825  34.555  29.256  1.00  0.00     0.059 A 
ATOM     85  F   UNL A   1      38.124  34.127  29.448  1.00  0.00    -0.206 F 
ATOM     86  C   UNL A   1      34.525  34.340  29.714  1.00  0.00     0.060 A 
BRANCH  86  87
ATOM     87  S   UNL A   1      33.134  35.184  28.929  1.00  0.00     0.124 S 
ATOM     88  O   UNL A   1      32.654  34.163  28.005  1.00  0.00    -0.237 OA
ATOM     89  O   UNL A   1      32.266  35.473  30.067  1.00  0.00    -0.237 OA
ATOM     90  O   UNL A   1      33.757  36.352  28.314  1.00  0.00    -0.744 OA
ENDBRANCH  86  87
ENDBRANCH  54  79
BRANCH  66  91
ATOM     91  C   UNL A   1      39.978  34.238  37.023  1.00  0.00     0.058 A 
ATOM     92  C   UNL A   1      40.624  35.479  36.914  1.00  0.00     0.135 A 
ATOM     93  C   UNL A   1      39.131  34.030  38.124  1.00  0.00     0.135 A 
ATOM     94  F   UNL A   1      41.447  35.723  35.882  1.00  0.00    -0.206 F 
ATOM     95  C   UNL A   1      40.449  36.472  37.870  1.00  0.00     0.059 A 
ATOM     96  C   UNL A   1      38.926  35.018  39.080  1.00  0.00     0.059 A 
ATOM     97  F   UNL A   1      38.484  32.863  38.267  1.00  0.00    -0.206 F 
ATOM     98  C   UNL A   1      39.597  36.233  38.950  1.00  0.00     0.060 A 
BRANCH  98  99
ATOM     99  S   UNL A   1      39.344  37.545  40.164  1.00  0.00     0.124 S 
ATOM    100  O   UNL A   1      38.260  38.306  39.552  1.00  0.00    -0.237 OA
ATOM    101  O   UNL A   1      38.993  36.798  41.368  1.00  0.00    -0.237 OA
ATOM    102  O   UNL A   1      40.639  38.219  40.208  1.00  0.00    -0.744 OA
ENDBRANCH  98  99
ENDBRANCH  66  91
ENDBRANCH  40  41
ENDBRANCH  32  35
ENDBRANCH  30  31
ENDBRANCH   1  30
TORSDOF 17
ENDMDL
MODEL 3
REMARK VINA RESULT:     -12.4      1.453      3.245
REMARK SMILES Cc1[nH]c2c(C(=O)N3CC[C@H](O)C[C@@H]3C(=O)NCCCCNC(=O)c3ccc(-c4c5nc(c(-c6c(F)cc(S(=O)(=O)[O-])cc6F)c6ccc([nH]6)c(-c6c(F)cc(S(=O)(=O)[O-])cc6F)c6nc(c(-c7c(F)cc(S(=O)(=O)[O-])cc7F)c7ccc4[nH]7)C=C6)C=C5)cc3)cccc2c1C
REMARK SMILES IDX 20 1 19 2 18 3 17 4 15 5 16 6 14 8 8 9 9 10 10 11 13 12
REMARK SMILES IDX 11 13 6 14 7 15 5 16 1 17 2 18 3 19 95 20 4 21 94 23 96 24
REMARK SMILES IDX 93 25 91 26 92 27 12 28 21 30 22 31 23 32 24 34 25 35 26 36
REMARK SMILES IDX 90 37 27 38 89 39 28 40 29 41 30 42 83 43 31 44 88 45 82 46
REMARK SMILES IDX 84 47 32 48 87 49 81 50 80 51 33 53 67 54 46 55 66 56 47 57
REMARK SMILES IDX 50 58 65 59 85 60 48 61 49 62 64 64 86 65 51 66 34 67 35 68
REMARK SMILES IDX 44 69 36 70 37 71 43 72 45 73 38 74 39 75 40 76 41 77 42 78
REMARK SMILES IDX 68 79 69 80 78 81 70 82 71 83 77 84 79 85 72 86 73 87 74 88
REMARK SMILES IDX 75 89 76 90 52 91 53 92 62 93 54 94 55 95 61 96 63 97 56 98
REMARK SMILES IDX 57 99 58 100 59 101 60 102
REMARK H PARENT 17 7 3 22 12 29 22 33 84 52 50 63
REMARK Flexibility Score: inf
ROOT
ATOM      1  C   UNL A   1      34.807  31.017  27.665  1.00  0.00     0.023 C 
ENDROOT
BRANCH   1   2
ATOM      2  C   UNL A   1      34.857  29.547  27.272  1.00  0.00     0.023 C 
BRANCH   2   3
ATOM      3  C   UNL A   1      33.758  29.072  26.323  1.00  0.00     0.116 C 
BRANCH   3   4
ATOM      4  N   UNL A   1      34.065  29.287  24.927  1.00  0.00    -0.354 N 
ATOM      5  C   UNL A   1      33.768  28.559  23.816  1.00  0.00     0.242 C 
ATOM      6  O   UNL A   1      34.446  28.834  22.815  1.00  0.00    -0.273 OA
ATOM      7  H   UNL A   1      34.581  30.106  24.748  1.00  0.00     0.163 HD
BRANCH   5   8
ATOM      8  C   UNL A   1      32.757  27.370  23.737  1.00  0.00     0.177 C 
ATOM      9  N   UNL A   1      32.233  26.905  22.445  1.00  0.00    -0.326 N 
ATOM     10  C   UNL A   1      30.939  27.376  21.954  1.00  0.00     0.123 C 
ATOM     11  C   UNL A   1      29.971  27.980  22.989  1.00  0.00     0.053 C 
ATOM     12  C   UNL A   1      31.669  27.434  24.799  1.00  0.00     0.067 C 
ATOM     13  C   UNL A   1      30.521  28.322  24.375  1.00  0.00     0.118 C 
BRANCH   9  14
ATOM     14  C   UNL A   1      32.670  25.655  21.993  1.00  0.00     0.256 C 
ATOM     15  O   UNL A   1      33.244  25.498  20.919  1.00  0.00    -0.269 OA
BRANCH  14  16
ATOM     16  C   UNL A   1      32.383  24.474  22.837  1.00  0.00     0.064 A 
ATOM     17  C   UNL A   1      36.867  22.461  23.685  1.00  0.00     0.064 C 
ATOM     18  C   UNL A   1      35.396  22.653  23.761  1.00  0.00     0.016 A 
ATOM     19  N   UNL A   1      34.763  23.645  23.060  1.00  0.00    -0.358 N 
ATOM     20  C   UNL A   1      34.434  21.978  24.495  1.00  0.00    -0.023 A 
ATOM     21  C   UNL A   1      33.409  23.630  23.297  1.00  0.00     0.059 A 
ATOM     22  H   UNL A   1      35.218  24.284  22.463  1.00  0.00     0.166 HD
ATOM     23  C   UNL A   1      33.177  22.605  24.216  1.00  0.00     0.003 A 
ATOM     24  C   UNL A   1      34.662  20.847  25.435  1.00  0.00     0.047 C 
ATOM     25  C   UNL A   1      31.862  22.410  24.691  1.00  0.00     0.010 A 
ATOM     26  C   UNL A   1      31.092  24.278  23.348  1.00  0.00     0.016 A 
ATOM     27  C   UNL A   1      30.832  23.253  24.254  1.00  0.00     0.002 A 
ENDBRANCH  14  16
ENDBRANCH   9  14
BRANCH  13  28
ATOM     28  O   UNL A   1      30.913  29.687  24.416  1.00  0.00    -0.393 OA
ATOM     29  H   UNL A   1      30.181  30.243  24.110  1.00  0.00     0.210 HD
ENDBRANCH  13  28
ENDBRANCH   5   8
ENDBRANCH   3   4
ENDBRANCH   2   3
ENDBRANCH   1   2
BRANCH   1  30
ATOM     30  C   UNL A   1      35.798  31.454  28.734  1.00  0.00     0.116 C 
BRANCH  30  31
ATOM     31  N   UNL A   1      35.657  30.770  30.013  1.00  0.00    -0.352 N 
ATOM     32  C   UNL A   1      36.642  30.150  30.751  1.00  0.00     0.251 C 
ATOM     33  H   UNL A   1      34.750  30.749  30.396  1.00  0.00     0.163 HD
ATOM     34  O   UNL A   1      36.379  29.582  31.805  1.00  0.00    -0.269 OA
BRANCH  32  35
ATOM     35  C   UNL A   1      38.014  30.133  30.204  1.00  0.00     0.039 A 
ATOM     36  C   UNL A   1      39.089  30.236  31.088  1.00  0.00     0.014 A 
ATOM     37  C   UNL A   1      38.223  29.866  28.849  1.00  0.00     0.014 A 
ATOM     38  C   UNL A   1      40.378  29.964  30.627  1.00  0.00     0.010 A 
ATOM     39  C   UNL A   1      39.496  29.517  28.413  1.00  0.00     0.010 A 
ATOM     40  C   UNL A   1      40.583  29.546  29.301  1.00  0.00    -0.014 A 
BRANCH  40  41
ATOM     41  C   UNL A   1      41.921  29.108  28.831  1.00  0.00     0.031 A 
ATOM     42  C   UNL A   1      43.041  30.103  28.720  1.00  0.00     0.074 A 
ATOM     43  C   UNL A   1      42.103  27.834  28.429  1.00  0.00     0.049 A 
ATOM     44  N   UNL A   1      44.253  29.933  28.259  1.00  0.00    -0.248 NA
ATOM     45  C   UNL A   1      42.750  31.480  29.152  1.00  0.00     0.031 C 
ATOM     46  C   UNL A   1      41.074  26.790  28.419  1.00  0.00     0.029 A 
ATOM     47  N   UNL A   1      43.218  27.199  27.939  1.00  0.00    -0.354 N 
ATOM     48  C   UNL A   1      44.860  31.181  28.328  1.00  0.00     0.074 A 
ATOM     49  C   UNL A   1      43.868  32.109  28.823  1.00  0.00     0.031 C 
ATOM     50  C   UNL A   1      41.612  25.643  27.971  1.00  0.00     0.029 A 
ATOM     51  C   UNL A   1      43.013  25.874  27.636  1.00  0.00     0.049 A 
ATOM     52  H   UNL A   1      44.084  27.652  27.816  1.00  0.00     0.167 HD
ATOM     53  C   UNL A   1      46.138  31.517  28.032  1.00  0.00     0.037 A 
ATOM     54  C   UNL A   1      43.861  24.949  27.146  1.00  0.00     0.037 A 
ATOM     55  C   UNL A   1      47.133  30.584  27.579  1.00  0.00     0.049 A 
ATOM     56  C   UNL A   1      45.288  25.334  26.870  1.00  0.00     0.074 A 
ATOM     57  C   UNL A   1      48.471  30.813  27.308  1.00  0.00     0.029 A 
ATOM     58  N   UNL A   1      46.901  29.237  27.337  1.00  0.00    -0.354 N 
ATOM     59  N   UNL A   1      45.862  26.506  26.999  1.00  0.00    -0.248 NA
ATOM     60  C   UNL A   1      46.185  24.273  26.392  1.00  0.00     0.031 C 
ATOM     61  C   UNL A   1      49.043  29.610  26.882  1.00  0.00     0.029 A 
ATOM     62  C   UNL A   1      48.069  28.624  26.917  1.00  0.00     0.049 A 
ATOM     63  H   UNL A   1      46.034  28.785  27.447  1.00  0.00     0.167 HD
ATOM     64  C   UNL A   1      47.192  26.320  26.639  1.00  0.00     0.074 A 
ATOM     65  C   UNL A   1      47.339  24.919  26.299  1.00  0.00     0.031 C 
ATOM     66  C   UNL A   1      48.198  27.226  26.594  1.00  0.00     0.037 A 
BRANCH  53  67
ATOM     67  C   UNL A   1      46.530  32.956  28.213  1.00  0.00     0.058 A 
ATOM     68  C   UNL A   1      47.068  33.421  29.424  1.00  0.00     0.135 A 
ATOM     69  C   UNL A   1      46.383  33.878  27.165  1.00  0.00     0.135 A 
ATOM     70  F   UNL A   1      47.211  32.584  30.464  1.00  0.00    -0.206 F 
ATOM     71  C   UNL A   1      47.414  34.754  29.601  1.00  0.00     0.059 A 
ATOM     72  C   UNL A   1      46.747  35.213  27.312  1.00  0.00     0.059 A 
ATOM     73  F   UNL A   1      45.872  33.486  25.986  1.00  0.00    -0.206 F 
ATOM     74  C   UNL A   1      47.246  35.645  28.540  1.00  0.00     0.060 A 
BRANCH  74  75
ATOM     75  S   UNL A   1      47.695  37.375  28.785  1.00  0.00     0.124 S 
ATOM     76  O   UNL A   1      48.571  37.284  29.950  1.00  0.00    -0.237 OA
ATOM     77  O   UNL A   1      48.352  37.712  27.526  1.00  0.00    -0.237 OA
ATOM     78  O   UNL A   1      46.411  38.030  29.014  1.00  0.00    -0.744 OA
ENDBRANCH  74  75
ENDBRANCH  53  67
BRANCH  54  79
ATOM     79  C   UNL A   1      43.390  23.556  26.920  1.00  0.00     0.058 A 
ATOM     80  C   UNL A   1      43.160  23.076  25.622  1.00  0.00     0.135 A 
ATOM     81  C   UNL A   1      43.178  22.675  27.991  1.00  0.00     0.135 A 
ATOM     82  F   UNL A   1      43.345  23.884  24.567  1.00  0.00    -0.206 F 
ATOM     83  C   UNL A   1      42.724  21.775  25.392  1.00  0.00     0.059 A 
ATOM     84  C   UNL A   1      42.760  21.363  27.786  1.00  0.00     0.059 A 
ATOM     85  F   UNL A   1      43.401  23.082  29.250  1.00  0.00    -0.206 F 
ATOM     86  C   UNL A   1      42.527  20.926  26.482  1.00  0.00     0.060 A 
BRANCH  86  87
ATOM     87  S   UNL A   1      42.014  19.222  26.172  1.00  0.00     0.124 S 
ATOM     88  O   UNL A   1      42.361  18.577  27.434  1.00  0.00    -0.237 OA
ATOM     89  O   UNL A   1      40.588  19.372  25.903  1.00  0.00    -0.237 OA
ATOM     90  O   UNL A   1      42.823  18.835  25.020  1.00  0.00    -0.744 OA
ENDBRANCH  86  87
ENDBRANCH  54  79
BRANCH  66  91
ATOM     91  C   UNL A   1      49.556  26.729  26.190  1.00  0.00     0.058 A 
ATOM     92  C   UNL A   1      50.016  26.842  24.868  1.00  0.00     0.135 A 
ATOM     93  C   UNL A   1      50.430  26.188  27.147  1.00  0.00     0.135 A 
ATOM     94  F   UNL A   1      49.216  27.347  23.917  1.00  0.00    -0.206 F 
ATOM     95  C   UNL A   1      51.290  26.420  24.507  1.00  0.00     0.059 A 
ATOM     96  C   UNL A   1      51.715  25.779  26.811  1.00  0.00     0.059 A 
ATOM     97  F   UNL A   1      50.039  26.068  28.426  1.00  0.00    -0.206 F 
ATOM     98  C   UNL A   1      52.134  25.890  25.486  1.00  0.00     0.060 A 
BRANCH  98  99
ATOM     99  S   UNL A   1      53.801  25.384  25.014  1.00  0.00     0.124 S 
ATOM    100  O   UNL A   1      54.569  25.766  26.193  1.00  0.00    -0.237 OA
ATOM    101  O   UNL A   1      53.645  23.948  24.797  1.00  0.00    -0.237 OA
ATOM    102  O   UNL A   1      54.064  26.168  23.810  1.00  0.00    -0.744 OA
ENDBRANCH  98  99
ENDBRANCH  66  91
ENDBRANCH  40  41
ENDBRANCH  32  35
ENDBRANCH  30  31
ENDBRANCH   1  30
TORSDOF 17
ENDMDL
