MODEL 1
REMARK VINA RESULT:     -13.3      0.000      0.000
REMARK SMILES Cc1ccccc1/C=C1\SC(=S)N(CCC(=O)N[C@@H](C)C(=O)NCCCCNC(=O)c2ccc(-c3c4nc(c(-c5c(F)cc(S(=O)(=O)[O-])cc5F)c5ccc([nH]5)c(-c5c(F)cc(S(=O)(=O)[O-])cc5F)c5nc(c(-c6c(F)cc(S(=O)(=O)[O-])cc6F)c6ccc3[nH]6)C=C5)C=C4)cc2)C1=O
REMARK SMILES IDX 24 1 23 2 21 3 22 4 19 6 20 7 18 8 16 9 17 10 15 12 14 13
REMARK SMILES IDX 13 14 8 15 9 16 10 17 97 18 11 19 98 20 12 21 7 22 1 23 2 24
REMARK SMILES IDX 3 25 4 26 6 27 5 28 25 29 26 30 27 31 28 32 29 33 30 35
REMARK SMILES IDX 31 36 32 37 96 38 33 39 95 40 34 41 35 42 36 43 89 44 37 45
REMARK SMILES IDX 94 46 88 47 90 48 38 49 93 50 87 51 86 52 39 54 73 55 52 56
REMARK SMILES IDX 72 57 53 58 56 59 71 60 91 61 54 62 55 63 70 65 92 66 57 67
REMARK SMILES IDX 40 68 41 69 50 70 42 71 43 72 49 73 51 74 44 75 45 76 46 77
REMARK SMILES IDX 47 78 48 79 74 80 75 81 84 82 76 83 77 84 83 85 85 86 78 87
REMARK SMILES IDX 79 88 80 89 81 90 82 91 58 92 59 93 68 94 60 95 61 96 67 97
REMARK SMILES IDX 69 98 62 99 63 100 64 101 65 102 66 103
REMARK H PARENT 23 5 18 11 28 34 90 53 56 64
REMARK Flexibility Score: inf
ROOT
ATOM      1  C   UNL A   1      38.482  20.988  25.249  1.00  0.00     0.116 C 
ENDROOT
BRANCH   1   2
ATOM      2  N   UNL A   1      37.785  19.732  25.007  1.00  0.00    -0.354 N 
ATOM      3  C   UNL A   1      36.461  19.437  24.905  1.00  0.00     0.242 C 
ATOM      4  O   UNL A   1      36.150  18.257  24.714  1.00  0.00    -0.273 OA
ATOM      5  H   UNL A   1      38.380  18.954  24.897  1.00  0.00     0.163 HD
BRANCH   3   6
ATOM      6  C   UNL A   1      35.370  20.516  24.989  1.00  0.00     0.168 C 
ATOM      7  C   UNL A   1      35.664  21.493  26.106  1.00  0.00     0.041 C 
BRANCH   6   8
ATOM      8  N   UNL A   1      33.995  20.050  25.089  1.00  0.00    -0.345 N 
ATOM      9  C   UNL A   1      32.878  20.674  24.604  1.00  0.00     0.222 C 
ATOM     10  O   UNL A   1      31.772  20.317  25.015  1.00  0.00    -0.275 OA
ATOM     11  H   UNL A   1      33.854  19.194  25.556  1.00  0.00     0.164 HD
BRANCH   9  12
ATOM     12  C   UNL A   1      32.992  21.739  23.522  1.00  0.00     0.122 C 
BRANCH  12  13
ATOM     13  C   UNL A   1      31.975  22.893  23.607  1.00  0.00     0.137 C 
BRANCH  13  14
ATOM     14  N   UNL A   1      32.279  23.925  24.618  1.00  0.00    -0.292 N 
ATOM     15  C   UNL A   1      33.679  27.166  25.002  1.00  0.00     0.029 C 
ATOM     16  C   UNL A   1      33.235  25.947  25.352  1.00  0.00     0.081 C 
ATOM     17  S   UNL A   1      32.223  25.509  26.665  1.00  0.00    -0.054 SA
ATOM     18  C   UNL A   1      33.329  24.806  24.397  1.00  0.00     0.266 C 
ATOM     19  C   UNL A   1      31.667  24.043  25.852  1.00  0.00     0.148 C 
ATOM     20  O   UNL A   1      34.176  24.718  23.520  1.00  0.00    -0.268 OA
ATOM     21  S   UNL A   1      30.558  23.011  26.555  1.00  0.00    -0.052 S 
BRANCH  15  22
ATOM     22  C   UNL A   1      33.371  28.429  25.694  1.00  0.00    -0.021 A 
ATOM     23  C   UNL A   1      31.240  28.742  24.348  1.00  0.00     0.045 C 
ATOM     24  C   UNL A   1      32.232  29.185  25.384  1.00  0.00    -0.044 A 
ATOM     25  C   UNL A   1      32.027  30.410  26.042  1.00  0.00     0.004 A 
ATOM     26  C   UNL A   1      32.913  30.860  27.022  1.00  0.00     0.000 A 
ATOM     27  C   UNL A   1      34.231  28.874  26.717  1.00  0.00     0.008 A 
ATOM     28  C   UNL A   1      34.006  30.082  27.375  1.00  0.00     0.001 A 
ENDBRANCH  15  22
ENDBRANCH  13  14
ENDBRANCH  12  13
ENDBRANCH   9  12
ENDBRANCH   6   8
ENDBRANCH   3   6
ENDBRANCH   1   2
BRANCH   1  29
ATOM     29  C   UNL A   1      39.856  20.789  25.888  1.00  0.00     0.023 C 
BRANCH  29  30
ATOM     30  C   UNL A   1      40.166  21.662  27.104  1.00  0.00     0.023 C 
BRANCH  30  31
ATOM     31  C   UNL A   1      40.980  22.904  26.810  1.00  0.00     0.116 C 
BRANCH  31  32
ATOM     32  N   UNL A   1      40.309  23.955  26.071  1.00  0.00    -0.352 N 
ATOM     33  C   UNL A   1      39.186  24.527  26.672  1.00  0.00     0.251 C 
ATOM     34  H   UNL A   1      40.628  24.250  25.188  1.00  0.00     0.163 HD
ATOM     35  O   UNL A   1      38.073  24.041  26.682  1.00  0.00    -0.269 OA
BRANCH  33  36
ATOM     36  C   UNL A   1      39.552  25.624  27.597  1.00  0.00     0.039 A 
ATOM     37  C   UNL A   1      39.089  25.706  28.908  1.00  0.00     0.014 A 
ATOM     38  C   UNL A   1      40.300  26.661  27.031  1.00  0.00     0.014 A 
ATOM     39  C   UNL A   1      39.289  26.894  29.620  1.00  0.00     0.010 A 
ATOM     40  C   UNL A   1      40.408  27.856  27.690  1.00  0.00     0.010 A 
ATOM     41  C   UNL A   1      39.898  27.978  28.983  1.00  0.00    -0.014 A 
BRANCH  41  42
ATOM     42  C   UNL A   1      40.087  29.305  29.544  1.00  0.00     0.031 A 
ATOM     43  C   UNL A   1      38.989  30.296  29.478  1.00  0.00     0.074 A 
ATOM     44  C   UNL A   1      41.140  29.506  30.362  1.00  0.00     0.049 A 
ATOM     45  N   UNL A   1      39.137  31.555  29.701  1.00  0.00    -0.248 NA
ATOM     46  C   UNL A   1      37.613  29.930  29.154  1.00  0.00     0.031 C 
ATOM     47  C   UNL A   1      41.298  30.557  31.358  1.00  0.00     0.029 A 
ATOM     48  N   UNL A   1      42.374  28.853  30.351  1.00  0.00    -0.354 N 
ATOM     49  C   UNL A   1      37.883  32.111  29.831  1.00  0.00     0.074 A 
ATOM     50  C   UNL A   1      36.967  31.069  29.426  1.00  0.00     0.031 C 
ATOM     51  C   UNL A   1      42.594  30.653  31.693  1.00  0.00     0.029 A 
ATOM     52  C   UNL A   1      43.332  29.790  30.787  1.00  0.00     0.049 A 
ATOM     53  H   UNL A   1      42.541  27.919  30.090  1.00  0.00     0.167 HD
ATOM     54  C   UNL A   1      37.753  33.343  30.402  1.00  0.00     0.037 A 
ATOM     55  C   UNL A   1      44.298  30.234  29.924  1.00  0.00     0.037 A 
ATOM     56  C   UNL A   1      39.061  33.881  30.775  1.00  0.00     0.049 A 
ATOM     57  C   UNL A   1      44.201  31.713  29.621  1.00  0.00     0.074 A 
ATOM     58  C   UNL A   1      39.751  33.896  31.977  1.00  0.00     0.029 A 
ATOM     59  N   UNL A   1      39.983  34.209  29.787  1.00  0.00    -0.354 N 
ATOM     60  N   UNL A   1      43.130  32.432  29.817  1.00  0.00    -0.248 NA
ATOM     61  C   UNL A   1      45.307  32.503  29.090  1.00  0.00     0.031 C 
ATOM     62  C   UNL A   1      41.111  34.174  31.699  1.00  0.00     0.029 A 
ATOM     63  C   UNL A   1      41.245  34.345  30.332  1.00  0.00     0.049 A 
ATOM     64  H   UNL A   1      39.766  34.328  28.834  1.00  0.00     0.167 HD
ATOM     65  C   UNL A   1      43.362  33.727  29.433  1.00  0.00     0.074 A 
ATOM     66  C   UNL A   1      44.748  33.724  29.005  1.00  0.00     0.031 C 
ATOM     67  C   UNL A   1      42.391  34.687  29.500  1.00  0.00     0.037 A 
BRANCH  54  68
ATOM     68  C   UNL A   1      36.439  33.926  30.882  1.00  0.00     0.058 A 
ATOM     69  C   UNL A   1      35.404  34.230  29.969  1.00  0.00     0.135 A 
ATOM     70  C   UNL A   1      36.145  34.236  32.225  1.00  0.00     0.135 A 
ATOM     71  F   UNL A   1      35.495  33.915  28.670  1.00  0.00    -0.206 F 
ATOM     72  C   UNL A   1      34.225  34.881  30.339  1.00  0.00     0.059 A 
ATOM     73  C   UNL A   1      34.995  34.935  32.614  1.00  0.00     0.059 A 
ATOM     74  F   UNL A   1      36.948  33.832  33.221  1.00  0.00    -0.206 F 
ATOM     75  C   UNL A   1      34.043  35.262  31.659  1.00  0.00     0.060 A 
BRANCH  75  76
ATOM     76  S   UNL A   1      32.551  36.176  32.095  1.00  0.00     0.124 S 
ATOM     77  O   UNL A   1      32.233  36.858  30.845  1.00  0.00    -0.237 OA
ATOM     78  O   UNL A   1      31.641  35.103  32.481  1.00  0.00    -0.237 OA
ATOM     79  O   UNL A   1      32.990  37.047  33.181  1.00  0.00    -0.744 OA
ENDBRANCH  75  76
ENDBRANCH  54  68
BRANCH  55  80
ATOM     80  C   UNL A   1      44.737  29.168  28.974  1.00  0.00     0.058 A 
ATOM     81  C   UNL A   1      44.192  29.209  27.675  1.00  0.00     0.135 A 
ATOM     82  C   UNL A   1      45.975  28.527  29.137  1.00  0.00     0.135 A 
ATOM     83  F   UNL A   1      42.996  29.784  27.468  1.00  0.00    -0.206 F 
ATOM     84  C   UNL A   1      44.935  28.830  26.560  1.00  0.00     0.059 A 
ATOM     85  C   UNL A   1      46.730  28.127  28.030  1.00  0.00     0.059 A 
ATOM     86  F   UNL A   1      46.537  28.441  30.351  1.00  0.00    -0.206 F 
ATOM     87  C   UNL A   1      46.238  28.376  26.748  1.00  0.00     0.060 A 
BRANCH  87  88
ATOM     88  S   UNL A   1      47.326  28.291  25.301  1.00  0.00     0.124 S 
ATOM     89  O   UNL A   1      46.674  29.211  24.373  1.00  0.00    -0.237 OA
ATOM     90  O   UNL A   1      48.605  28.750  25.849  1.00  0.00    -0.237 OA
ATOM     91  O   UNL A   1      47.279  26.883  24.925  1.00  0.00    -0.744 OA
ENDBRANCH  87  88
ENDBRANCH  55  80
BRANCH  67  92
ATOM     92  C   UNL A   1      42.454  36.068  28.886  1.00  0.00     0.058 A 
ATOM     93  C   UNL A   1      43.108  37.162  29.475  1.00  0.00     0.135 A 
ATOM     94  C   UNL A   1      41.960  36.291  27.575  1.00  0.00     0.135 A 
ATOM     95  F   UNL A   1      43.724  37.054  30.661  1.00  0.00    -0.206 F 
ATOM     96  C   UNL A   1      43.203  38.406  28.848  1.00  0.00     0.059 A 
ATOM     97  C   UNL A   1      42.097  37.505  26.906  1.00  0.00     0.059 A 
ATOM     98  F   UNL A   1      41.336  35.325  26.884  1.00  0.00    -0.206 F 
ATOM     99  C   UNL A   1      42.695  38.569  27.564  1.00  0.00     0.060 A 
BRANCH  99 100
ATOM    100  S   UNL A   1      42.865  40.154  26.725  1.00  0.00     0.124 S 
ATOM    101  O   UNL A   1      44.039  39.916  25.892  1.00  0.00    -0.237 OA
ATOM    102  O   UNL A   1      41.600  40.279  26.007  1.00  0.00    -0.237 OA
ATOM    103  O   UNL A   1      43.047  41.095  27.825  1.00  0.00    -0.744 OA
ENDBRANCH  99 100
ENDBRANCH  67  92
ENDBRANCH  41  42
ENDBRANCH  33  36
ENDBRANCH  31  32
ENDBRANCH  30  31
ENDBRANCH  29  30
ENDBRANCH   1  29
TORSDOF 19
ENDMDL
MODEL 2
REMARK VINA RESULT:     -13.0      5.041     11.597
REMARK SMILES Cc1ccccc1/C=C1\SC(=S)N(CCC(=O)N[C@@H](C)C(=O)NCCCCNC(=O)c2ccc(-c3c4nc(c(-c5c(F)cc(S(=O)(=O)[O-])cc5F)c5ccc([nH]5)c(-c5c(F)cc(S(=O)(=O)[O-])cc5F)c5nc(c(-c6c(F)cc(S(=O)(=O)[O-])cc6F)c6ccc3[nH]6)C=C5)C=C4)cc2)C1=O
REMARK SMILES IDX 24 1 23 2 21 3 22 4 19 6 20 7 18 8 16 9 17 10 15 12 14 13
REMARK SMILES IDX 13 14 8 15 9 16 10 17 97 18 11 19 98 20 12 21 7 22 1 23 2 24
REMARK SMILES IDX 3 25 4 26 6 27 5 28 25 29 26 30 27 31 28 32 29 33 30 35
REMARK SMILES IDX 31 36 32 37 96 38 33 39 95 40 34 41 35 42 36 43 89 44 37 45
REMARK SMILES IDX 94 46 88 47 90 48 38 49 93 50 87 51 86 52 39 54 73 55 52 56
REMARK SMILES IDX 72 57 53 58 56 59 71 60 91 61 54 62 55 63 70 65 92 66 57 67
REMARK SMILES IDX 40 68 41 69 50 70 42 71 43 72 49 73 51 74 44 75 45 76 46 77
REMARK SMILES IDX 47 78 48 79 74 80 75 81 84 82 76 83 77 84 83 85 85 86 78 87
REMARK SMILES IDX 79 88 80 89 81 90 82 91 58 92 59 93 68 94 60 95 61 96 67 97
REMARK SMILES IDX 69 98 62 99 63 100 64 101 65 102 66 103
REMARK H PARENT 23 5 18 11 28 34 90 53 56 64
REMARK Flexibility Score: inf
ROOT
ATOM      1  C   UNL A   1      32.562  31.300  27.216  1.00  0.00     0.116 C 
ENDROOT
BRANCH   1   2
ATOM      2  N   UNL A   1      31.479  31.750  26.353  1.00  0.00    -0.354 N 
ATOM      3  C   UNL A   1      30.828  31.139  25.327  1.00  0.00     0.242 C 
ATOM      4  O   UNL A   1      29.946  31.780  24.746  1.00  0.00    -0.273 OA
ATOM      5  H   UNL A   1      31.160  32.662  26.546  1.00  0.00     0.163 HD
BRANCH   3   6
ATOM      6  C   UNL A   1      31.134  29.694  24.903  1.00  0.00     0.168 C 
ATOM      7  C   UNL A   1      32.618  29.499  24.691  1.00  0.00     0.041 C 
BRANCH   6   8
ATOM      8  N   UNL A   1      30.398  29.178  23.758  1.00  0.00    -0.345 N 
ATOM      9  C   UNL A   1      30.145  27.865  23.467  1.00  0.00     0.222 C 
ATOM     10  O   UNL A   1      29.773  27.570  22.329  1.00  0.00    -0.275 OA
ATOM     11  H   UNL A   1      30.046  29.845  23.125  1.00  0.00     0.164 HD
BRANCH   9  12
ATOM     12  C   UNL A   1      30.247  26.797  24.548  1.00  0.00     0.122 C 
BRANCH  12  13
ATOM     13  C   UNL A   1      30.583  25.376  24.056  1.00  0.00     0.137 C 
BRANCH  13  14
ATOM     14  N   UNL A   1      32.019  25.035  24.054  1.00  0.00    -0.292 N 
ATOM     15  C   UNL A   1      34.480  23.195  25.834  1.00  0.00     0.029 C 
ATOM     16  C   UNL A   1      33.969  24.098  24.981  1.00  0.00     0.081 C 
ATOM     17  S   UNL A   1      34.443  24.440  23.369  1.00  0.00    -0.054 SA
ATOM     18  C   UNL A   1      32.649  24.734  25.254  1.00  0.00     0.266 C 
ATOM     19  C   UNL A   1      32.853  25.084  22.952  1.00  0.00     0.148 C 
ATOM     20  O   UNL A   1      32.187  24.895  26.375  1.00  0.00    -0.268 OA
ATOM     21  S   UNL A   1      32.504  25.649  21.420  1.00  0.00    -0.052 S 
BRANCH  15  22
ATOM     22  C   UNL A   1      35.588  22.267  25.550  1.00  0.00    -0.021 A 
ATOM     23  C   UNL A   1      37.322  24.051  26.063  1.00  0.00     0.045 C 
ATOM     24  C   UNL A   1      36.930  22.665  25.642  1.00  0.00    -0.044 A 
ATOM     25  C   UNL A   1      37.937  21.747  25.302  1.00  0.00     0.004 A 
ATOM     26  C   UNL A   1      37.625  20.443  24.917  1.00  0.00     0.000 A 
ATOM     27  C   UNL A   1      35.291  20.935  25.204  1.00  0.00     0.008 A 
ATOM     28  C   UNL A   1      36.301  20.028  24.887  1.00  0.00     0.001 A 
ENDBRANCH  15  22
ENDBRANCH  13  14
ENDBRANCH  12  13
ENDBRANCH   9  12
ENDBRANCH   6   8
ENDBRANCH   3   6
ENDBRANCH   1   2
BRANCH   1  29
ATOM     29  C   UNL A   1      33.193  32.439  28.016  1.00  0.00     0.023 C 
BRANCH  29  30
ATOM     30  C   UNL A   1      34.689  32.668  27.799  1.00  0.00     0.023 C 
BRANCH  30  31
ATOM     31  C   UNL A   1      35.579  32.205  28.932  1.00  0.00     0.116 C 
BRANCH  31  32
ATOM     32  N   UNL A   1      35.410  30.831  29.366  1.00  0.00    -0.352 N 
ATOM     33  C   UNL A   1      35.828  29.836  28.480  1.00  0.00     0.251 C 
ATOM     34  H   UNL A   1      35.017  30.611  30.241  1.00  0.00     0.163 HD
ATOM     35  O   UNL A   1      35.197  29.444  27.518  1.00  0.00    -0.269 OA
BRANCH  33  36
ATOM     36  C   UNL A   1      37.272  29.540  28.622  1.00  0.00     0.039 A 
ATOM     37  C   UNL A   1      38.191  29.703  27.589  1.00  0.00     0.014 A 
ATOM     38  C   UNL A   1      37.647  28.956  29.835  1.00  0.00     0.014 A 
ATOM     39  C   UNL A   1      39.477  29.170  27.741  1.00  0.00     0.010 A 
ATOM     40  C   UNL A   1      38.869  28.348  29.946  1.00  0.00     0.010 A 
ATOM     41  C   UNL A   1      39.784  28.448  28.897  1.00  0.00    -0.014 A 
BRANCH  41  42
ATOM     42  C   UNL A   1      41.030  27.750  29.164  1.00  0.00     0.031 A 
ATOM     43  C   UNL A   1      41.202  26.351  28.710  1.00  0.00     0.074 A 
ATOM     44  C   UNL A   1      42.097  28.477  29.556  1.00  0.00     0.049 A 
ATOM     45  N   UNL A   1      42.141  25.569  29.116  1.00  0.00    -0.248 NA
ATOM     46  C   UNL A   1      40.312  25.720  27.739  1.00  0.00     0.031 C 
ATOM     47  C   UNL A   1      43.503  28.108  29.460  1.00  0.00     0.029 A 
ATOM     48  N   UNL A   1      42.104  29.676  30.269  1.00  0.00    -0.354 N 
ATOM     49  C   UNL A   1      42.162  24.469  28.287  1.00  0.00     0.074 A 
ATOM     50  C   UNL A   1      40.968  24.584  27.482  1.00  0.00     0.031 C 
ATOM     51  C   UNL A   1      44.220  28.897  30.274  1.00  0.00     0.029 A 
ATOM     52  C   UNL A   1      43.274  29.674  31.054  1.00  0.00     0.049 A 
ATOM     53  H   UNL A   1      41.422  30.387  30.231  1.00  0.00     0.167 HD
ATOM     54  C   UNL A   1      43.260  23.659  28.277  1.00  0.00     0.037 A 
ATOM     55  C   UNL A   1      43.183  29.624  32.419  1.00  0.00     0.037 A 
ATOM     56  C   UNL A   1      44.264  24.138  29.227  1.00  0.00     0.049 A 
ATOM     57  C   UNL A   1      43.774  28.364  33.015  1.00  0.00     0.074 A 
ATOM     58  C   UNL A   1      45.398  24.918  29.065  1.00  0.00     0.029 A 
ATOM     59  N   UNL A   1      43.999  24.106  30.591  1.00  0.00    -0.354 N 
ATOM     60  N   UNL A   1      43.996  27.270  32.340  1.00  0.00    -0.248 NA
ATOM     61  C   UNL A   1      44.177  28.243  34.412  1.00  0.00     0.031 C 
ATOM     62  C   UNL A   1      45.778  25.409  30.337  1.00  0.00     0.029 A 
ATOM     63  C   UNL A   1      44.888  24.915  31.274  1.00  0.00     0.049 A 
ATOM     64  H   UNL A   1      43.279  23.582  31.012  1.00  0.00     0.167 HD
ATOM     65  C   UNL A   1      44.524  26.313  33.167  1.00  0.00     0.074 A 
ATOM     66  C   UNL A   1      44.638  26.979  34.450  1.00  0.00     0.031 C 
ATOM     67  C   UNL A   1      44.819  25.054  32.722  1.00  0.00     0.037 A 
BRANCH  54  68
ATOM     68  C   UNL A   1      43.541  22.617  27.214  1.00  0.00     0.058 A 
ATOM     69  C   UNL A   1      42.811  21.409  27.171  1.00  0.00     0.135 A 
ATOM     70  C   UNL A   1      44.537  22.735  26.222  1.00  0.00     0.135 A 
ATOM     71  F   UNL A   1      41.775  21.182  27.989  1.00  0.00    -0.206 F 
ATOM     72  C   UNL A   1      43.112  20.364  26.293  1.00  0.00     0.059 A 
ATOM     73  C   UNL A   1      44.892  21.685  25.366  1.00  0.00     0.059 A 
ATOM     74  F   UNL A   1      45.178  23.896  26.019  1.00  0.00    -0.206 F 
ATOM     75  C   UNL A   1      44.177  20.497  25.416  1.00  0.00     0.060 A 
BRANCH  75  76
ATOM     76  S   UNL A   1      44.596  19.103  24.352  1.00  0.00     0.124 S 
ATOM     77  O   UNL A   1      43.569  18.127  24.705  1.00  0.00    -0.237 OA
ATOM     78  O   UNL A   1      44.481  19.691  23.022  1.00  0.00    -0.237 OA
ATOM     79  O   UNL A   1      45.951  18.752  24.768  1.00  0.00    -0.744 OA
ENDBRANCH  75  76
ENDBRANCH  54  68
BRANCH  55  80
ATOM     80  C   UNL A   1      41.993  30.365  32.932  1.00  0.00     0.058 A 
ATOM     81  C   UNL A   1      42.023  31.771  32.826  1.00  0.00     0.135 A 
ATOM     82  C   UNL A   1      40.733  29.748  32.991  1.00  0.00     0.135 A 
ATOM     83  F   UNL A   1      43.202  32.414  32.795  1.00  0.00    -0.206 F 
ATOM     84  C   UNL A   1      40.871  32.508  32.572  1.00  0.00     0.059 A 
ATOM     85  C   UNL A   1      39.563  30.475  32.752  1.00  0.00     0.059 A 
ATOM     86  F   UNL A   1      40.639  28.416  33.110  1.00  0.00    -0.206 F 
ATOM     87  C   UNL A   1      39.659  31.833  32.447  1.00  0.00     0.060 A 
BRANCH  87  88
ATOM     88  S   UNL A   1      38.262  32.722  31.708  1.00  0.00     0.124 S 
ATOM     89  O   UNL A   1      37.151  31.811  31.963  1.00  0.00    -0.237 OA
ATOM     90  O   UNL A   1      38.247  33.968  32.479  1.00  0.00    -0.237 OA
ATOM     91  O   UNL A   1      38.652  32.861  30.310  1.00  0.00    -0.744 OA
ENDBRANCH  87  88
ENDBRANCH  55  80
BRANCH  67  92
ATOM     92  C   UNL A   1      45.168  23.860  33.582  1.00  0.00     0.058 A 
ATOM     93  C   UNL A   1      44.283  22.806  33.861  1.00  0.00     0.135 A 
ATOM     94  C   UNL A   1      46.497  23.673  34.043  1.00  0.00     0.135 A 
ATOM     95  F   UNL A   1      43.031  22.798  33.383  1.00  0.00    -0.206 F 
ATOM     96  C   UNL A   1      44.661  21.686  34.605  1.00  0.00     0.059 A 
ATOM     97  C   UNL A   1      46.911  22.537  34.734  1.00  0.00     0.059 A 
ATOM     98  F   UNL A   1      47.453  24.589  33.823  1.00  0.00    -0.206 F 
ATOM     99  C   UNL A   1      45.977  21.560  35.037  1.00  0.00     0.060 A 
BRANCH  99 100
ATOM    100  S   UNL A   1      46.487  20.090  35.947  1.00  0.00     0.124 S 
ATOM    101  O   UNL A   1      45.566  19.090  35.418  1.00  0.00    -0.237 OA
ATOM    102  O   UNL A   1      47.883  19.932  35.552  1.00  0.00    -0.237 OA
ATOM    103  O   UNL A   1      46.277  20.472  37.340  1.00  0.00    -0.744 OA
ENDBRANCH  99 100
ENDBRANCH  67  92
ENDBRANCH  41  42
ENDBRANCH  33  36
ENDBRANCH  31  32
ENDBRANCH  30  31
ENDBRANCH  29  30
ENDBRANCH   1  29
TORSDOF 19
ENDMDL
MODEL 3
REMARK VINA RESULT:     -12.8      5.037     11.697
REMARK SMILES Cc1ccccc1/C=C1\SC(=S)N(CCC(=O)N[C@@H](C)C(=O)NCCCCNC(=O)c2ccc(-c3c4nc(c(-c5c(F)cc(S(=O)(=O)[O-])cc5F)c5ccc([nH]5)c(-c5c(F)cc(S(=O)(=O)[O-])cc5F)c5nc(c(-c6c(F)cc(S(=O)(=O)[O-])cc6F)c6ccc3[nH]6)C=C5)C=C4)cc2)C1=O
REMARK SMILES IDX 24 1 23 2 21 3 22 4 19 6 20 7 18 8 16 9 17 10 15 12 14 13
REMARK SMILES IDX 13 14 8 15 9 16 10 17 97 18 11 19 98 20 12 21 7 22 1 23 2 24
REMARK SMILES IDX 3 25 4 26 6 27 5 28 25 29 26 30 27 31 28 32 29 33 30 35
REMARK SMILES IDX 31 36 32 37 96 38 33 39 95 40 34 41 35 42 36 43 89 44 37 45
REMARK SMILES IDX 94 46 88 47 90 48 38 49 93 50 87 51 86 52 39 54 73 55 52 56
REMARK SMILES IDX 72 57 53 58 56 59 71 60 91 61 54 62 55 63 70 65 92 66 57 67
REMARK SMILES IDX 40 68 41 69 50 70 42 71 43 72 49 73 51 74 44 75 45 76 46 77
REMARK SMILES IDX 47 78 48 79 74 80 75 81 84 82 76 83 77 84 83 85 85 86 78 87
REMARK SMILES IDX 79 88 80 89 81 90 82 91 58 92 59 93 68 94 60 95 61 96 67 97
REMARK SMILES IDX 69 98 62 99 63 100 64 101 65 102 66 103
REMARK H PARENT 23 5 18 11 28 34 90 53 56 64
REMARK Flexibility Score: inf
ROOT
ATOM      1  C   UNL A   1      32.732  30.365  26.874  1.00  0.00     0.116 C 
ENDROOT
BRANCH   1   2
ATOM      2  N   UNL A   1      31.636  30.522  25.927  1.00  0.00    -0.354 N 
ATOM      3  C   UNL A   1      31.307  29.830  24.804  1.00  0.00     0.242 C 
ATOM      4  O   UNL A   1      30.315  30.207  24.171  1.00  0.00    -0.273 OA
ATOM      5  H   UNL A   1      31.024  31.264  26.138  1.00  0.00     0.163 HD
BRANCH   3   6
ATOM      6  C   UNL A   1      32.100  28.602  24.332  1.00  0.00     0.168 C 
ATOM      7  C   UNL A   1      33.322  29.020  23.546  1.00  0.00     0.041 C 
BRANCH   6   8
ATOM      8  N   UNL A   1      31.359  27.589  23.593  1.00  0.00    -0.345 N 
ATOM      9  C   UNL A   1      31.804  26.347  23.229  1.00  0.00     0.222 C 
ATOM     10  O   UNL A   1      31.184  25.723  22.366  1.00  0.00    -0.275 OA
ATOM     11  H   UNL A   1      30.440  27.823  23.327  1.00  0.00     0.164 HD
BRANCH   9  12
ATOM     12  C   UNL A   1      33.000  25.715  23.930  1.00  0.00     0.122 C 
BRANCH  12  13
ATOM     13  C   UNL A   1      33.673  24.547  23.185  1.00  0.00     0.137 C 
BRANCH  13  14
ATOM     14  N   UNL A   1      33.761  23.284  23.944  1.00  0.00    -0.292 N 
ATOM     15  C   UNL A   1      32.214  20.109  24.318  1.00  0.00     0.029 C 
ATOM     16  C   UNL A   1      32.983  21.169  24.622  1.00  0.00     0.081 C 
ATOM     17  S   UNL A   1      34.589  21.192  25.224  1.00  0.00    -0.054 SA
ATOM     18  C   UNL A   1      32.612  22.533  24.150  1.00  0.00     0.266 C 
ATOM     19  C   UNL A   1      34.892  22.808  24.581  1.00  0.00     0.148 C 
ATOM     20  O   UNL A   1      31.464  22.888  23.924  1.00  0.00    -0.268 OA
ATOM     21  S   UNL A   1      36.368  23.568  24.765  1.00  0.00    -0.052 S 
BRANCH  15  22
ATOM     22  C   UNL A   1      32.606  18.695  24.434  1.00  0.00    -0.021 A 
ATOM     23  C   UNL A   1      32.695  18.426  21.910  1.00  0.00     0.045 C 
ATOM     24  C   UNL A   1      32.822  17.890  23.306  1.00  0.00    -0.044 A 
ATOM     25  C   UNL A   1      33.139  16.533  23.488  1.00  0.00     0.004 A 
ATOM     26  C   UNL A   1      33.281  15.990  24.764  1.00  0.00     0.000 A 
ATOM     27  C   UNL A   1      32.798  18.143  25.715  1.00  0.00     0.008 A 
ATOM     28  C   UNL A   1      33.131  16.800  25.882  1.00  0.00     0.001 A 
ENDBRANCH  15  22
ENDBRANCH  13  14
ENDBRANCH  12  13
ENDBRANCH   9  12
ENDBRANCH   6   8
ENDBRANCH   3   6
ENDBRANCH   1   2
BRANCH   1  29
ATOM     29  C   UNL A   1      33.034  31.647  27.649  1.00  0.00     0.023 C 
BRANCH  29  30
ATOM     30  C   UNL A   1      34.451  32.202  27.507  1.00  0.00     0.023 C 
BRANCH  30  31
ATOM     31  C   UNL A   1      35.364  31.937  28.685  1.00  0.00     0.116 C 
BRANCH  31  32
ATOM     32  N   UNL A   1      35.250  30.633  29.309  1.00  0.00    -0.352 N 
ATOM     33  C   UNL A   1      35.692  29.538  28.562  1.00  0.00     0.251 C 
ATOM     34  H   UNL A   1      34.877  30.523  30.213  1.00  0.00     0.163 HD
ATOM     35  O   UNL A   1      35.063  28.995  27.676  1.00  0.00    -0.269 OA
BRANCH  33  36
ATOM     36  C   UNL A   1      37.148  29.314  28.718  1.00  0.00     0.039 A 
ATOM     37  C   UNL A   1      38.079  29.624  27.731  1.00  0.00     0.014 A 
ATOM     38  C   UNL A   1      37.528  28.642  29.883  1.00  0.00     0.014 A 
ATOM     39  C   UNL A   1      39.391  29.154  27.871  1.00  0.00     0.010 A 
ATOM     40  C   UNL A   1      38.782  28.098  29.973  1.00  0.00     0.010 A 
ATOM     41  C   UNL A   1      39.714  28.348  28.965  1.00  0.00    -0.014 A 
BRANCH  41  42
ATOM     42  C   UNL A   1      40.992  27.700  29.203  1.00  0.00     0.031 A 
ATOM     43  C   UNL A   1      41.228  26.328  28.700  1.00  0.00     0.074 A 
ATOM     44  C   UNL A   1      42.026  28.463  29.616  1.00  0.00     0.049 A 
ATOM     45  N   UNL A   1      42.205  25.577  29.076  1.00  0.00    -0.248 NA
ATOM     46  C   UNL A   1      40.364  25.689  27.711  1.00  0.00     0.031 C 
ATOM     47  C   UNL A   1      43.447  28.164  29.502  1.00  0.00     0.029 A 
ATOM     48  N   UNL A   1      41.979  29.636  30.370  1.00  0.00    -0.354 N 
ATOM     49  C   UNL A   1      42.274  24.509  28.208  1.00  0.00     0.074 A 
ATOM     50  C   UNL A   1      41.072  24.595  27.412  1.00  0.00     0.031 C 
ATOM     51  C   UNL A   1      44.130  28.958  30.340  1.00  0.00     0.029 A 
ATOM     52  C   UNL A   1      43.152  29.662  31.151  1.00  0.00     0.049 A 
ATOM     53  H   UNL A   1      41.265  30.314  30.359  1.00  0.00     0.167 HD
ATOM     54  C   UNL A   1      43.408  23.753  28.166  1.00  0.00     0.037 A 
ATOM     55  C   UNL A   1      43.072  29.560  32.513  1.00  0.00     0.037 A 
ATOM     56  C   UNL A   1      44.394  24.246  29.128  1.00  0.00     0.049 A 
ATOM     57  C   UNL A   1      43.725  28.311  33.063  1.00  0.00     0.074 A 
ATOM     58  C   UNL A   1      45.489  25.084  28.989  1.00  0.00     0.029 A 
ATOM     59  N   UNL A   1      44.137  24.154  30.492  1.00  0.00    -0.354 N 
ATOM     60  N   UNL A   1      43.994  27.252  32.350  1.00  0.00    -0.248 NA
ATOM     61  C   UNL A   1      44.140  28.160  34.453  1.00  0.00     0.031 C 
ATOM     62  C   UNL A   1      45.852  25.548  30.276  1.00  0.00     0.029 A 
ATOM     63  C   UNL A   1      44.991  24.980  31.199  1.00  0.00     0.049 A 
ATOM     64  H   UNL A   1      43.446  23.582  30.896  1.00  0.00     0.167 HD
ATOM     65  C   UNL A   1      44.571  26.293  33.141  1.00  0.00     0.074 A 
ATOM     66  C   UNL A   1      44.660  26.919  34.446  1.00  0.00     0.031 C 
ATOM     67  C   UNL A   1      44.923  25.066  32.651  1.00  0.00     0.037 A 
BRANCH  54  68
ATOM     68  C   UNL A   1      43.733  22.763  27.066  1.00  0.00     0.058 A 
ATOM     69  C   UNL A   1      43.039  21.536  26.966  1.00  0.00     0.135 A 
ATOM     70  C   UNL A   1      44.737  22.949  26.094  1.00  0.00     0.135 A 
ATOM     71  F   UNL A   1      42.001  21.247  27.761  1.00  0.00    -0.206 F 
ATOM     72  C   UNL A   1      43.381  20.537  26.051  1.00  0.00     0.059 A 
ATOM     73  C   UNL A   1      45.132  21.945  25.201  1.00  0.00     0.059 A 
ATOM     74  F   UNL A   1      45.345  24.135  25.945  1.00  0.00    -0.206 F 
ATOM     75  C   UNL A   1      44.452  20.735  25.195  1.00  0.00     0.060 A 
BRANCH  75  76
ATOM     76  S   UNL A   1      44.925  19.398  24.082  1.00  0.00     0.124 S 
ATOM     77  O   UNL A   1      44.143  18.278  24.598  1.00  0.00    -0.237 OA
ATOM     78  O   UNL A   1      44.505  19.919  22.786  1.00  0.00    -0.237 OA
ATOM     79  O   UNL A   1      46.368  19.286  24.277  1.00  0.00    -0.744 OA
ENDBRANCH  75  76
ENDBRANCH  54  68
BRANCH  55  80
ATOM     80  C   UNL A   1      41.850  30.226  33.056  1.00  0.00     0.058 A 
ATOM     81  C   UNL A   1      41.817  31.635  33.005  1.00  0.00     0.135 A 
ATOM     82  C   UNL A   1      40.620  29.551  33.092  1.00  0.00     0.135 A 
ATOM     83  F   UNL A   1      42.965  32.332  32.998  1.00  0.00    -0.206 F 
ATOM     84  C   UNL A   1      40.631  32.329  32.781  1.00  0.00     0.059 A 
ATOM     85  C   UNL A   1      39.417  30.232  32.883  1.00  0.00     0.059 A 
ATOM     86  F   UNL A   1      40.587  28.212  33.159  1.00  0.00    -0.206 F 
ATOM     87  C   UNL A   1      39.451  31.605  32.631  1.00  0.00     0.060 A 
BRANCH  87  88
ATOM     88  S   UNL A   1      38.014  32.457  31.929  1.00  0.00     0.124 S 
ATOM     89  O   UNL A   1      36.901  31.720  32.521  1.00  0.00    -0.237 OA
ATOM     90  O   UNL A   1      38.196  33.826  32.421  1.00  0.00    -0.237 OA
ATOM     91  O   UNL A   1      38.187  32.285  30.492  1.00  0.00    -0.744 OA
ENDBRANCH  87  88
ENDBRANCH  55  80
BRANCH  67  92
ATOM     92  C   UNL A   1      45.333  23.860  33.468  1.00  0.00     0.058 A 
ATOM     93  C   UNL A   1      46.628  23.655  33.971  1.00  0.00     0.135 A 
ATOM     94  C   UNL A   1      44.360  22.922  33.898  1.00  0.00     0.135 A 
ATOM     95  F   UNL A   1      47.616  24.530  33.740  1.00  0.00    -0.206 F 
ATOM     96  C   UNL A   1      46.955  22.562  34.777  1.00  0.00     0.059 A 
ATOM     97  C   UNL A   1      44.650  21.860  34.751  1.00  0.00     0.059 A 
ATOM     98  F   UNL A   1      43.077  23.013  33.516  1.00  0.00    -0.206 F 
ATOM     99  C   UNL A   1      45.960  21.670  35.163  1.00  0.00     0.060 A 
BRANCH  99 100
ATOM    100  S   UNL A   1      46.363  20.292  36.251  1.00  0.00     0.124 S 
ATOM    101  O   UNL A   1      45.867  19.158  35.477  1.00  0.00    -0.237 OA
ATOM    102  O   UNL A   1      47.815  20.385  36.370  1.00  0.00    -0.237 OA
ATOM    103  O   UNL A   1      45.621  20.601  37.468  1.00  0.00    -0.744 OA
ENDBRANCH  99 100
ENDBRANCH  67  92
ENDBRANCH  41  42
ENDBRANCH  33  36
ENDBRANCH  31  32
ENDBRANCH  30  31
ENDBRANCH  29  30
ENDBRANCH   1  29
TORSDOF 19
ENDMDL
