MODEL 1
REMARK VINA RESULT:     -10.5      0.000      0.000
REMARK SMILES O=C(CSc1ccnc(C(=O)NCCCCNC(=O)c2ccc(-c3c4nc(c(-c5c(F)cc(S(=O)(=O)[O-])cc5F)c5ccc([nH]5)c(-c5c(F)cc(S(=O)(=O)[O-])cc5F)c5nc(c(-c6c(F)cc(S(=O)(=O)[O-])cc6F)c6ccc3[nH]6)C=C5)C=C4)cc2)c1)NCC(F)(F)F
REMARK SMILES IDX 13 1 12 2 10 3 11 4 9 6 5 7 6 8 86 9 7 10 8 11 4 12 3 13
REMARK SMILES IDX 2 14 1 15 87 16 88 18 89 19 90 20 91 21 92 22 14 23 15 24
REMARK SMILES IDX 16 25 17 26 18 27 19 29 20 30 21 31 85 32 22 33 84 34 23 35
REMARK SMILES IDX 24 36 25 37 78 38 26 39 83 40 77 41 79 42 27 43 82 44 76 45
REMARK SMILES IDX 75 46 28 48 62 49 41 50 61 51 42 52 45 53 60 54 80 55 43 56
REMARK SMILES IDX 44 57 59 59 81 60 46 61 29 62 30 63 39 64 31 65 32 66 38 67
REMARK SMILES IDX 40 68 33 69 34 70 35 71 36 72 37 73 63 74 64 75 73 76 65 77
REMARK SMILES IDX 66 78 72 79 74 80 67 81 68 82 69 83 70 84 71 85 47 86 48 87
REMARK SMILES IDX 57 88 49 89 50 90 56 91 58 92 51 93 52 94 53 95 54 96 55 97
REMARK H PARENT 12 5 87 17 17 28 79 47 45 58
REMARK Flexibility Score: inf
ROOT
ATOM      1  C   UNL A   1      33.117  33.278  27.992  1.00  0.00     0.116 C 
ENDROOT
BRANCH   1   2
ATOM      2  N   UNL A   1      33.589  34.634  27.811  1.00  0.00    -0.351 N 
ATOM      3  C   UNL A   1      33.812  35.707  28.640  1.00  0.00     0.269 C 
ATOM      4  O   UNL A   1      34.214  36.728  28.071  1.00  0.00    -0.268 OA
ATOM      5  H   UNL A   1      33.800  34.836  26.870  1.00  0.00     0.163 HD
BRANCH   3   6
ATOM      6  C   UNL A   1      33.623  35.732  30.141  1.00  0.00     0.129 A 
ATOM      7  C   UNL A   1      33.893  34.978  32.409  1.00  0.00     0.012 A 
ATOM      8  C   UNL A   1      33.244  36.124  32.852  1.00  0.00     0.035 A 
ATOM      9  C   UNL A   1      34.076  34.778  31.036  1.00  0.00     0.049 A 
ATOM     10  C   UNL A   1      32.787  37.013  31.904  1.00  0.00     0.113 A 
ATOM     11  N   UNL A   1      32.967  36.843  30.581  1.00  0.00    -0.251 NA
BRANCH   7  12
ATOM     12  S   UNL A   1      34.605  33.784  33.533  1.00  0.00    -0.116 SA
BRANCH  12  13
ATOM     13  C   UNL A   1      36.282  34.473  33.768  1.00  0.00     0.174 C 
BRANCH  13  14
ATOM     14  C   UNL A   1      37.287  33.898  32.784  1.00  0.00     0.230 C 
ATOM     15  O   UNL A   1      37.492  32.691  32.691  1.00  0.00    -0.274 OA
ATOM     16  N   UNL A   1      37.926  34.816  31.981  1.00  0.00    -0.346 N 
ATOM     17  H   UNL A   1      37.678  35.765  32.059  1.00  0.00     0.163 HD
BRANCH  16  18
ATOM     18  C   UNL A   1      38.958  34.436  31.016  1.00  0.00     0.231 C 
BRANCH  18  19
ATOM     19  C   UNL A   1      40.347  34.220  31.611  1.00  0.00     0.405 C 
ATOM     20  F   UNL A   1      41.292  34.816  30.844  1.00  0.00    -0.169 F 
ATOM     21  F   UNL A   1      40.427  34.767  32.846  1.00  0.00    -0.169 F 
ATOM     22  F   UNL A   1      40.663  32.914  31.716  1.00  0.00    -0.169 F 
ENDBRANCH  18  19
ENDBRANCH  16  18
ENDBRANCH  13  14
ENDBRANCH  12  13
ENDBRANCH   7  12
ENDBRANCH   3   6
ENDBRANCH   1   2
BRANCH   1  23
ATOM     23  C   UNL A   1      34.259  32.266  27.891  1.00  0.00     0.023 C 
BRANCH  23  24
ATOM     24  C   UNL A   1      35.657  32.893  27.986  1.00  0.00     0.023 C 
BRANCH  24  25
ATOM     25  C   UNL A   1      36.383  32.679  29.312  1.00  0.00     0.116 C 
BRANCH  25  26
ATOM     26  N   UNL A   1      35.874  31.552  30.088  1.00  0.00    -0.352 N 
ATOM     27  C   UNL A   1      36.528  30.391  30.419  1.00  0.00     0.251 C 
ATOM     28  H   UNL A   1      34.949  31.635  30.414  1.00  0.00     0.163 HD
ATOM     29  O   UNL A   1      35.946  29.494  31.005  1.00  0.00    -0.269 OA
BRANCH  27  30
ATOM     30  C   UNL A   1      37.940  30.228  30.002  1.00  0.00     0.039 A 
ATOM     31  C   UNL A   1      38.927  30.155  30.988  1.00  0.00     0.014 A 
ATOM     32  C   UNL A   1      38.268  30.077  28.652  1.00  0.00     0.014 A 
ATOM     33  C   UNL A   1      40.238  29.849  30.623  1.00  0.00     0.010 A 
ATOM     34  C   UNL A   1      39.563  29.715  28.299  1.00  0.00     0.010 A 
ATOM     35  C   UNL A   1      40.557  29.585  29.281  1.00  0.00    -0.014 A 
BRANCH  35  36
ATOM     36  C   UNL A   1      41.917  29.144  28.884  1.00  0.00     0.031 A 
ATOM     37  C   UNL A   1      43.045  30.136  28.832  1.00  0.00     0.074 A 
ATOM     38  C   UNL A   1      42.113  27.870  28.490  1.00  0.00     0.049 A 
ATOM     39  N   UNL A   1      44.275  29.964  28.421  1.00  0.00    -0.248 NA
ATOM     40  C   UNL A   1      42.741  31.507  29.269  1.00  0.00     0.031 C 
ATOM     41  C   UNL A   1      41.083  26.830  28.442  1.00  0.00     0.029 A 
ATOM     42  N   UNL A   1      43.243  27.235  28.039  1.00  0.00    -0.354 N 
ATOM     43  C   UNL A   1      44.886  31.208  28.530  1.00  0.00     0.074 A 
ATOM     44  C   UNL A   1      43.880  32.132  29.006  1.00  0.00     0.031 C 
ATOM     45  C   UNL A   1      41.632  25.686  28.003  1.00  0.00     0.029 A 
ATOM     46  C   UNL A   1      43.042  25.916  27.710  1.00  0.00     0.049 A 
ATOM     47  H   UNL A   1      44.116  27.684  27.958  1.00  0.00     0.167 HD
ATOM     48  C   UNL A   1      46.173  31.542  28.276  1.00  0.00     0.037 A 
ATOM     49  C   UNL A   1      43.899  24.996  27.223  1.00  0.00     0.037 A 
ATOM     50  C   UNL A   1      47.177  30.610  27.838  1.00  0.00     0.049 A 
ATOM     51  C   UNL A   1      45.331  25.382  26.984  1.00  0.00     0.074 A 
ATOM     52  C   UNL A   1      48.523  30.837  27.610  1.00  0.00     0.029 A 
ATOM     53  N   UNL A   1      46.947  29.269  27.566  1.00  0.00    -0.354 N 
ATOM     54  N   UNL A   1      45.907  26.549  27.149  1.00  0.00    -0.248 NA
ATOM     55  C   UNL A   1      46.234  24.328  26.502  1.00  0.00     0.031 C 
ATOM     56  C   UNL A   1      49.102  29.639  27.177  1.00  0.00     0.029 A 
ATOM     57  C   UNL A   1      48.123  28.657  27.169  1.00  0.00     0.049 A 
ATOM     58  H   UNL A   1      46.075  28.818  27.645  1.00  0.00     0.167 HD
ATOM     59  C   UNL A   1      47.244  26.365  26.817  1.00  0.00     0.074 A 
ATOM     60  C   UNL A   1      47.393  24.971  26.446  1.00  0.00     0.031 C 
ATOM     61  C   UNL A   1      48.256  27.266  26.821  1.00  0.00     0.037 A 
BRANCH  48  62
ATOM     62  C   UNL A   1      46.567  32.978  28.478  1.00  0.00     0.058 A 
ATOM     63  C   UNL A   1      47.140  33.418  29.682  1.00  0.00     0.135 A 
ATOM     64  C   UNL A   1      46.389  33.920  27.453  1.00  0.00     0.135 A 
ATOM     65  F   UNL A   1      47.316  32.561  30.699  1.00  0.00    -0.206 F 
ATOM     66  C   UNL A   1      47.492  34.749  29.875  1.00  0.00     0.059 A 
ATOM     67  C   UNL A   1      46.757  35.253  27.615  1.00  0.00     0.059 A 
ATOM     68  F   UNL A   1      45.845  33.551  26.283  1.00  0.00    -0.206 F 
ATOM     69  C   UNL A   1      47.292  35.660  28.838  1.00  0.00     0.060 A 
BRANCH  69  70
ATOM     70  S   UNL A   1      47.745  37.387  29.104  1.00  0.00     0.124 S 
ATOM     71  O   UNL A   1      47.035  37.685  30.344  1.00  0.00    -0.237 OA
ATOM     72  O   UNL A   1      49.199  37.318  29.208  1.00  0.00    -0.237 OA
ATOM     73  O   UNL A   1      47.238  38.059  27.911  1.00  0.00    -0.744 OA
ENDBRANCH  69  70
ENDBRANCH  48  62
BRANCH  49  74
ATOM     74  C   UNL A   1      43.429  23.610  26.966  1.00  0.00     0.058 A 
ATOM     75  C   UNL A   1      43.220  23.156  25.656  1.00  0.00     0.135 A 
ATOM     76  C   UNL A   1      43.199  22.709  28.017  1.00  0.00     0.135 A 
ATOM     77  F   UNL A   1      43.423  23.984  24.620  1.00  0.00    -0.206 F 
ATOM     78  C   UNL A   1      42.786  21.861  25.394  1.00  0.00     0.059 A 
ATOM     79  C   UNL A   1      42.784  21.403  27.780  1.00  0.00     0.059 A 
ATOM     80  F   UNL A   1      43.403  23.092  29.287  1.00  0.00    -0.206 F 
ATOM     81  C   UNL A   1      42.571  20.990  26.464  1.00  0.00     0.060 A 
BRANCH  81  82
ATOM     82  S   UNL A   1      42.061  19.293  26.113  1.00  0.00     0.124 S 
ATOM     83  O   UNL A   1      40.617  19.442  25.987  1.00  0.00    -0.237 OA
ATOM     84  O   UNL A   1      42.784  19.002  24.879  1.00  0.00    -0.237 OA
ATOM     85  O   UNL A   1      42.522  18.557  27.287  1.00  0.00    -0.744 OA
ENDBRANCH  81  82
ENDBRANCH  49  74
BRANCH  61  86
ATOM     86  C   UNL A   1      49.625  26.770  26.453  1.00  0.00     0.058 A 
ATOM     87  C   UNL A   1      50.434  26.092  27.377  1.00  0.00     0.135 A 
ATOM     88  C   UNL A   1      50.101  26.916  25.141  1.00  0.00     0.135 A 
ATOM     89  F   UNL A   1      50.024  25.934  28.645  1.00  0.00    -0.206 F 
ATOM     90  C   UNL A   1      51.678  25.586  27.015  1.00  0.00     0.059 A 
ATOM     91  C   UNL A   1      51.332  26.400  24.752  1.00  0.00     0.059 A 
ATOM     92  F   UNL A   1      49.360  27.550  24.219  1.00  0.00    -0.206 F 
ATOM     93  C   UNL A   1      52.118  25.742  25.699  1.00  0.00     0.060 A 
BRANCH  93  94
ATOM     94  S   UNL A   1      53.709  25.036  25.225  1.00  0.00     0.124 S 
ATOM     95  O   UNL A   1      53.896  25.600  23.892  1.00  0.00    -0.237 OA
ATOM     96  O   UNL A   1      54.603  25.546  26.260  1.00  0.00    -0.237 OA
ATOM     97  O   UNL A   1      53.468  23.596  25.269  1.00  0.00    -0.744 OA
ENDBRANCH  93  94
ENDBRANCH  61  86
ENDBRANCH  35  36
ENDBRANCH  27  30
ENDBRANCH  25  26
ENDBRANCH  24  25
ENDBRANCH  23  24
ENDBRANCH   1  23
TORSDOF 19
ENDMDL
MODEL 2
REMARK VINA RESULT:      -9.9      0.956      8.297
REMARK SMILES O=C(CSc1ccnc(C(=O)NCCCCNC(=O)c2ccc(-c3c4nc(c(-c5c(F)cc(S(=O)(=O)[O-])cc5F)c5ccc([nH]5)c(-c5c(F)cc(S(=O)(=O)[O-])cc5F)c5nc(c(-c6c(F)cc(S(=O)(=O)[O-])cc6F)c6ccc3[nH]6)C=C5)C=C4)cc2)c1)NCC(F)(F)F
REMARK SMILES IDX 13 1 12 2 10 3 11 4 9 6 5 7 6 8 86 9 7 10 8 11 4 12 3 13
REMARK SMILES IDX 2 14 1 15 87 16 88 18 89 19 90 20 91 21 92 22 14 23 15 24
REMARK SMILES IDX 16 25 17 26 18 27 19 29 20 30 21 31 85 32 22 33 84 34 23 35
REMARK SMILES IDX 24 36 25 37 78 38 26 39 83 40 77 41 79 42 27 43 82 44 76 45
REMARK SMILES IDX 75 46 28 48 62 49 41 50 61 51 42 52 45 53 60 54 80 55 43 56
REMARK SMILES IDX 44 57 59 59 81 60 46 61 29 62 30 63 39 64 31 65 32 66 38 67
REMARK SMILES IDX 40 68 33 69 34 70 35 71 36 72 37 73 63 74 64 75 73 76 65 77
REMARK SMILES IDX 66 78 72 79 74 80 67 81 68 82 69 83 70 84 71 85 47 86 48 87
REMARK SMILES IDX 57 88 49 89 50 90 56 91 58 92 51 93 52 94 53 95 54 96 55 97
REMARK H PARENT 12 5 87 17 17 28 79 47 45 58
REMARK Flexibility Score: inf
ROOT
ATOM      1  C   UNL A   1      36.065  34.206  28.870  1.00  0.00     0.116 C 
ENDROOT
BRANCH   1   2
ATOM      2  N   UNL A   1      34.642  34.391  28.682  1.00  0.00    -0.351 N 
ATOM      3  C   UNL A   1      33.608  34.850  29.463  1.00  0.00     0.269 C 
ATOM      4  O   UNL A   1      32.499  34.833  28.918  1.00  0.00    -0.268 OA
ATOM      5  H   UNL A   1      34.344  34.126  27.782  1.00  0.00     0.163 HD
BRANCH   3   6
ATOM      6  C   UNL A   1      33.718  35.365  30.881  1.00  0.00     0.129 A 
ATOM      7  C   UNL A   1      34.394  35.338  33.190  1.00  0.00     0.012 A 
ATOM      8  C   UNL A   1      33.897  36.627  33.336  1.00  0.00     0.035 A 
ATOM      9  C   UNL A   1      34.295  34.698  31.949  1.00  0.00     0.049 A 
ATOM     10  C   UNL A   1      33.304  37.216  32.241  1.00  0.00     0.113 A 
ATOM     11  N   UNL A   1      33.212  36.621  31.037  1.00  0.00    -0.251 NA
BRANCH   7  12
ATOM     12  S   UNL A   1      35.259  34.488  34.504  1.00  0.00    -0.116 SA
BRANCH  12  13
ATOM     13  C   UNL A   1      36.030  33.107  33.588  1.00  0.00     0.174 C 
BRANCH  13  14
ATOM     14  C   UNL A   1      37.532  33.279  33.438  1.00  0.00     0.230 C 
ATOM     15  O   UNL A   1      38.237  33.683  34.359  1.00  0.00    -0.274 OA
ATOM     16  N   UNL A   1      38.055  32.917  32.217  1.00  0.00    -0.346 N 
ATOM     17  H   UNL A   1      37.450  32.543  31.537  1.00  0.00     0.163 HD
BRANCH  16  18
ATOM     18  C   UNL A   1      39.472  33.066  31.891  1.00  0.00     0.231 C 
BRANCH  18  19
ATOM     19  C   UNL A   1      39.757  33.698  30.530  1.00  0.00     0.405 C 
ATOM     20  F   UNL A   1      41.004  34.226  30.502  1.00  0.00    -0.169 F 
ATOM     21  F   UNL A   1      39.691  32.768  29.550  1.00  0.00    -0.169 F 
ATOM     22  F   UNL A   1      38.885  34.680  30.228  1.00  0.00    -0.169 F 
ENDBRANCH  18  19
ENDBRANCH  16  18
ENDBRANCH  13  14
ENDBRANCH  12  13
ENDBRANCH   7  12
ENDBRANCH   3   6
ENDBRANCH   1   2
BRANCH   1  23
ATOM     23  C   UNL A   1      36.548  32.893  28.254  1.00  0.00     0.023 C 
BRANCH  23  24
ATOM     24  C   UNL A   1      35.415  31.924  27.885  1.00  0.00     0.023 C 
BRANCH  24  25
ATOM     25  C   UNL A   1      35.677  30.455  28.209  1.00  0.00     0.116 C 
BRANCH  25  26
ATOM     26  N   UNL A   1      35.576  30.137  29.629  1.00  0.00    -0.352 N 
ATOM     27  C   UNL A   1      36.587  29.787  30.490  1.00  0.00     0.251 C 
ATOM     28  H   UNL A   1      34.673  30.180  30.018  1.00  0.00     0.163 HD
ATOM     29  O   UNL A   1      36.341  29.464  31.640  1.00  0.00    -0.269 OA
BRANCH  27  30
ATOM     30  C   UNL A   1      37.976  29.756  29.978  1.00  0.00     0.039 A 
ATOM     31  C   UNL A   1      39.028  29.676  30.894  1.00  0.00     0.014 A 
ATOM     32  C   UNL A   1      38.225  29.733  28.603  1.00  0.00     0.014 A 
ATOM     33  C   UNL A   1      40.329  29.491  30.428  1.00  0.00     0.010 A 
ATOM     34  C   UNL A   1      39.515  29.492  28.145  1.00  0.00     0.010 A 
ATOM     35  C   UNL A   1      40.577  29.355  29.052  1.00  0.00    -0.014 A 
BRANCH  35  36
ATOM     36  C   UNL A   1      41.935  29.042  28.540  1.00  0.00     0.031 A 
ATOM     37  C   UNL A   1      42.269  27.645  28.099  1.00  0.00     0.074 A 
ATOM     38  C   UNL A   1      42.886  29.997  28.555  1.00  0.00     0.049 A 
ATOM     39  N   UNL A   1      43.420  27.157  27.714  1.00  0.00    -0.248 NA
ATOM     40  C   UNL A   1      41.175  26.663  28.124  1.00  0.00     0.031 C 
ATOM     41  C   UNL A   1      42.696  31.375  29.016  1.00  0.00     0.029 A 
ATOM     42  N   UNL A   1      44.207  29.952  28.188  1.00  0.00    -0.354 N 
ATOM     43  C   UNL A   1      43.193  25.807  27.471  1.00  0.00     0.074 A 
ATOM     44  C   UNL A   1      41.807  25.546  27.792  1.00  0.00     0.031 C 
ATOM     45  C   UNL A   1      43.852  32.045  28.888  1.00  0.00     0.029 A 
ATOM     46  C   UNL A   1      44.872  31.141  28.367  1.00  0.00     0.049 A 
ATOM     47  H   UNL A   1      44.638  29.142  27.831  1.00  0.00     0.167 HD
ATOM     48  C   UNL A   1      44.059  24.875  27.004  1.00  0.00     0.037 A 
ATOM     49  C   UNL A   1      46.160  31.465  28.139  1.00  0.00     0.037 A 
ATOM     50  C   UNL A   1      45.426  25.150  26.652  1.00  0.00     0.049 A 
ATOM     51  C   UNL A   1      47.092  30.424  27.585  1.00  0.00     0.074 A 
ATOM     52  C   UNL A   1      46.366  24.289  26.113  1.00  0.00     0.029 A 
ATOM     53  N   UNL A   1      46.049  26.381  26.797  1.00  0.00    -0.354 N 
ATOM     54  N   UNL A   1      46.845  29.166  27.306  1.00  0.00    -0.248 NA
ATOM     55  C   UNL A   1      48.472  30.844  27.308  1.00  0.00     0.031 C 
ATOM     56  C   UNL A   1      47.565  24.993  25.955  1.00  0.00     0.029 A 
ATOM     57  C   UNL A   1      47.361  26.302  26.364  1.00  0.00     0.049 A 
ATOM     58  H   UNL A   1      45.620  27.192  27.155  1.00  0.00     0.167 HD
ATOM     59  C   UNL A   1      48.031  28.651  26.794  1.00  0.00     0.074 A 
ATOM     60  C   UNL A   1      48.993  29.735  26.798  1.00  0.00     0.031 C 
ATOM     61  C   UNL A   1      48.298  27.396  26.358  1.00  0.00     0.037 A 
BRANCH  48  62
ATOM     62  C   UNL A   1      43.542  23.474  26.837  1.00  0.00     0.058 A 
ATOM     63  C   UNL A   1      43.355  22.625  27.939  1.00  0.00     0.135 A 
ATOM     64  C   UNL A   1      43.211  22.981  25.565  1.00  0.00     0.135 A 
ATOM     65  F   UNL A   1      43.671  23.044  29.175  1.00  0.00    -0.206 F 
ATOM     66  C   UNL A   1      42.890  21.325  27.785  1.00  0.00     0.059 A 
ATOM     67  C   UNL A   1      42.721  21.690  25.389  1.00  0.00     0.059 A 
ATOM     68  F   UNL A   1      43.372  23.751  24.478  1.00  0.00    -0.206 F 
ATOM     69  C   UNL A   1      42.580  20.864  26.505  1.00  0.00     0.060 A 
BRANCH  69  70
ATOM     70  S   UNL A   1      41.985  19.171  26.316  1.00  0.00     0.124 S 
ATOM     71  O   UNL A   1      42.915  18.646  25.321  1.00  0.00    -0.237 OA
ATOM     72  O   UNL A   1      42.131  18.633  27.665  1.00  0.00    -0.237 OA
ATOM     73  O   UNL A   1      40.609  19.344  25.861  1.00  0.00    -0.744 OA
ENDBRANCH  69  70
ENDBRANCH  48  62
BRANCH  49  74
ATOM     74  C   UNL A   1      46.633  32.849  28.401  1.00  0.00     0.058 A 
ATOM     75  C   UNL A   1      46.583  33.826  27.397  1.00  0.00     0.135 A 
ATOM     76  C   UNL A   1      47.122  33.228  29.661  1.00  0.00     0.135 A 
ATOM     77  F   UNL A   1      46.126  33.508  26.176  1.00  0.00    -0.206 F 
ATOM     78  C   UNL A   1      47.015  35.128  27.624  1.00  0.00     0.059 A 
ATOM     79  C   UNL A   1      47.542  34.529  29.918  1.00  0.00     0.059 A 
ATOM     80  F   UNL A   1      47.172  32.334  30.660  1.00  0.00    -0.206 F 
ATOM     81  C   UNL A   1      47.493  35.471  28.890  1.00  0.00     0.060 A 
BRANCH  81  82
ATOM     82  S   UNL A   1      48.000  37.178  29.193  1.00  0.00     0.124 S 
ATOM     83  O   UNL A   1      49.160  37.298  28.318  1.00  0.00    -0.237 OA
ATOM     84  O   UNL A   1      46.816  37.929  28.790  1.00  0.00    -0.237 OA
ATOM     85  O   UNL A   1      48.283  37.192  30.625  1.00  0.00    -0.744 OA
ENDBRANCH  81  82
ENDBRANCH  49  74
BRANCH  61  86
ATOM     86  C   UNL A   1      49.671  27.131  25.811  1.00  0.00     0.058 A 
ATOM     87  C   UNL A   1      49.961  27.289  24.447  1.00  0.00     0.135 A 
ATOM     88  C   UNL A   1      50.722  26.782  26.673  1.00  0.00     0.135 A 
ATOM     89  F   UNL A   1      48.987  27.615  23.583  1.00  0.00    -0.206 F 
ATOM     90  C   UNL A   1      51.247  27.097  23.954  1.00  0.00     0.059 A 
ATOM     91  C   UNL A   1      52.019  26.606  26.206  1.00  0.00     0.059 A 
ATOM     92  F   UNL A   1      50.495  26.628  27.987  1.00  0.00    -0.206 F 
ATOM     93  C   UNL A   1      52.271  26.758  24.842  1.00  0.00     0.060 A 
BRANCH  93  94
ATOM     94  S   UNL A   1      53.947  26.563  24.201  1.00  0.00     0.124 S 
ATOM     95  O   UNL A   1      54.518  25.619  25.156  1.00  0.00    -0.237 OA
ATOM     96  O   UNL A   1      53.713  26.042  22.858  1.00  0.00    -0.237 OA
ATOM     97  O   UNL A   1      54.490  27.917  24.255  1.00  0.00    -0.744 OA
ENDBRANCH  93  94
ENDBRANCH  61  86
ENDBRANCH  35  36
ENDBRANCH  27  30
ENDBRANCH  25  26
ENDBRANCH  24  25
ENDBRANCH  23  24
ENDBRANCH   1  23
TORSDOF 19
ENDMDL
MODEL 3
REMARK VINA RESULT:      -9.9      6.504     13.268
REMARK SMILES O=C(CSc1ccnc(C(=O)NCCCCNC(=O)c2ccc(-c3c4nc(c(-c5c(F)cc(S(=O)(=O)[O-])cc5F)c5ccc([nH]5)c(-c5c(F)cc(S(=O)(=O)[O-])cc5F)c5nc(c(-c6c(F)cc(S(=O)(=O)[O-])cc6F)c6ccc3[nH]6)C=C5)C=C4)cc2)c1)NCC(F)(F)F
REMARK SMILES IDX 13 1 12 2 10 3 11 4 9 6 5 7 6 8 86 9 7 10 8 11 4 12 3 13
REMARK SMILES IDX 2 14 1 15 87 16 88 18 89 19 90 20 91 21 92 22 14 23 15 24
REMARK SMILES IDX 16 25 17 26 18 27 19 29 20 30 21 31 85 32 22 33 84 34 23 35
REMARK SMILES IDX 24 36 25 37 78 38 26 39 83 40 77 41 79 42 27 43 82 44 76 45
REMARK SMILES IDX 75 46 28 48 62 49 41 50 61 51 42 52 45 53 60 54 80 55 43 56
REMARK SMILES IDX 44 57 59 59 81 60 46 61 29 62 30 63 39 64 31 65 32 66 38 67
REMARK SMILES IDX 40 68 33 69 34 70 35 71 36 72 37 73 63 74 64 75 73 76 65 77
REMARK SMILES IDX 66 78 72 79 74 80 67 81 68 82 69 83 70 84 71 85 47 86 48 87
REMARK SMILES IDX 57 88 49 89 50 90 56 91 58 92 51 93 52 94 53 95 54 96 55 97
REMARK H PARENT 12 5 87 17 17 28 79 47 45 58
REMARK Flexibility Score: inf
ROOT
ATOM      1  C   UNL A   1      37.877  21.804  25.691  1.00  0.00     0.116 C 
ENDROOT
BRANCH   1   2
ATOM      2  N   UNL A   1      37.377  22.387  24.464  1.00  0.00    -0.351 N 
ATOM      3  C   UNL A   1      36.132  22.580  23.914  1.00  0.00     0.269 C 
ATOM      4  O   UNL A   1      36.134  23.118  22.801  1.00  0.00    -0.268 OA
ATOM      5  H   UNL A   1      38.099  22.726  23.887  1.00  0.00     0.163 HD
BRANCH   3   6
ATOM      6  C   UNL A   1      34.808  22.209  24.544  1.00  0.00     0.129 A 
ATOM      7  C   UNL A   1      32.836  22.536  25.882  1.00  0.00     0.012 A 
ATOM      8  C   UNL A   1      32.339  21.324  25.422  1.00  0.00     0.035 A 
ATOM      9  C   UNL A   1      34.089  22.979  25.444  1.00  0.00     0.049 A 
ATOM     10  C   UNL A   1      33.125  20.593  24.557  1.00  0.00     0.113 A 
ATOM     11  N   UNL A   1      34.325  21.009  24.115  1.00  0.00    -0.251 NA
BRANCH   7  12
ATOM     12  S   UNL A   1      31.888  23.621  26.942  1.00  0.00    -0.116 SA
BRANCH  12  13
ATOM     13  C   UNL A   1      31.105  24.724  25.713  1.00  0.00     0.174 C 
BRANCH  13  14
ATOM     14  C   UNL A   1      31.912  25.989  25.472  1.00  0.00     0.230 C 
ATOM     15  O   UNL A   1      32.367  26.271  24.367  1.00  0.00    -0.274 OA
ATOM     16  N   UNL A   1      32.069  26.813  26.563  1.00  0.00    -0.346 N 
ATOM     17  H   UNL A   1      31.631  26.565  27.409  1.00  0.00     0.163 HD
BRANCH  16  18
ATOM     18  C   UNL A   1      32.859  28.043  26.516  1.00  0.00     0.231 C 
BRANCH  18  19
ATOM     19  C   UNL A   1      32.070  29.300  26.158  1.00  0.00     0.405 C 
ATOM     20  F   UNL A   1      31.071  29.006  25.293  1.00  0.00    -0.169 F 
ATOM     21  F   UNL A   1      31.502  29.836  27.263  1.00  0.00    -0.169 F 
ATOM     22  F   UNL A   1      32.844  30.247  25.591  1.00  0.00    -0.169 F 
ENDBRANCH  18  19
ENDBRANCH  16  18
ENDBRANCH  13  14
ENDBRANCH  12  13
ENDBRANCH   7  12
ENDBRANCH   3   6
ENDBRANCH   1   2
BRANCH   1  23
ATOM     23  C   UNL A   1      38.795  22.771  26.440  1.00  0.00     0.023 C 
BRANCH  23  24
ATOM     24  C   UNL A   1      40.107  22.135  26.923  1.00  0.00     0.023 C 
BRANCH  24  25
ATOM     25  C   UNL A   1      41.255  23.111  27.171  1.00  0.00     0.116 C 
BRANCH  25  26
ATOM     26  N   UNL A   1      41.573  23.952  26.022  1.00  0.00    -0.352 N 
ATOM     27  C   UNL A   1      41.743  25.314  25.993  1.00  0.00     0.251 C 
ATOM     28  H   UNL A   1      41.679  23.485  25.161  1.00  0.00     0.163 HD
ATOM     29  O   UNL A   1      41.924  25.897  24.938  1.00  0.00    -0.269 OA
BRANCH  27  30
ATOM     30  C   UNL A   1      41.647  26.067  27.265  1.00  0.00     0.039 A 
ATOM     31  C   UNL A   1      42.679  26.946  27.604  1.00  0.00     0.014 A 
ATOM     32  C   UNL A   1      40.512  25.955  28.072  1.00  0.00     0.014 A 
ATOM     33  C   UNL A   1      42.534  27.775  28.717  1.00  0.00     0.010 A 
ATOM     34  C   UNL A   1      40.347  26.823  29.146  1.00  0.00     0.010 A 
ATOM     35  C   UNL A   1      41.350  27.750  29.470  1.00  0.00    -0.014 A 
BRANCH  35  36
ATOM     36  C   UNL A   1      41.125  28.702  30.586  1.00  0.00     0.031 A 
ATOM     37  C   UNL A   1      41.940  28.593  31.844  1.00  0.00     0.074 A 
ATOM     38  C   UNL A   1      40.131  29.607  30.497  1.00  0.00     0.049 A 
ATOM     39  N   UNL A   1      41.828  29.268  32.959  1.00  0.00    -0.248 NA
ATOM     40  C   UNL A   1      42.998  27.571  31.861  1.00  0.00     0.031 C 
ATOM     41  C   UNL A   1      39.235  29.770  29.349  1.00  0.00     0.029 A 
ATOM     42  N   UNL A   1      39.695  30.551  31.392  1.00  0.00    -0.354 N 
ATOM     43  C   UNL A   1      42.785  28.739  33.817  1.00  0.00     0.074 A 
ATOM     44  C   UNL A   1      43.440  27.661  33.108  1.00  0.00     0.031 C 
ATOM     45  C   UNL A   1      38.368  30.764  29.604  1.00  0.00     0.029 A 
ATOM     46  C   UNL A   1      38.625  31.288  30.941  1.00  0.00     0.049 A 
ATOM     47  H   UNL A   1      40.109  30.687  32.274  1.00  0.00     0.167 HD
ATOM     48  C   UNL A   1      43.102  29.131  35.075  1.00  0.00     0.037 A 
ATOM     49  C   UNL A   1      37.929  32.274  31.541  1.00  0.00     0.037 A 
ATOM     50  C   UNL A   1      42.473  30.227  35.760  1.00  0.00     0.049 A 
ATOM     51  C   UNL A   1      38.324  32.716  32.922  1.00  0.00     0.074 A 
ATOM     52  C   UNL A   1      42.763  30.741  37.012  1.00  0.00     0.029 A 
ATOM     53  N   UNL A   1      41.428  30.984  35.250  1.00  0.00    -0.354 N 
ATOM     54  N   UNL A   1      39.271  32.244  33.697  1.00  0.00    -0.248 NA
ATOM     55  C   UNL A   1      37.564  33.828  33.509  1.00  0.00     0.031 C 
ATOM     56  C   UNL A   1      41.878  31.794  37.269  1.00  0.00     0.029 A 
ATOM     57  C   UNL A   1      41.059  31.958  36.162  1.00  0.00     0.049 A 
ATOM     58  H   UNL A   1      41.011  30.850  34.368  1.00  0.00     0.167 HD
ATOM     59  C   UNL A   1      39.239  33.017  34.851  1.00  0.00     0.074 A 
ATOM     60  C   UNL A   1      38.182  33.993  34.671  1.00  0.00     0.031 C 
ATOM     61  C   UNL A   1      40.016  32.931  35.958  1.00  0.00     0.037 A 
BRANCH  48  62
ATOM     62  C   UNL A   1      44.189  28.371  35.782  1.00  0.00     0.058 A 
ATOM     63  C   UNL A   1      45.541  28.722  35.639  1.00  0.00     0.135 A 
ATOM     64  C   UNL A   1      43.876  27.294  36.625  1.00  0.00     0.135 A 
ATOM     65  F   UNL A   1      45.894  29.734  34.831  1.00  0.00    -0.206 F 
ATOM     66  C   UNL A   1      46.548  28.012  36.282  1.00  0.00     0.059 A 
ATOM     67  C   UNL A   1      44.866  26.584  37.299  1.00  0.00     0.059 A 
ATOM     68  F   UNL A   1      42.599  26.917  36.796  1.00  0.00    -0.206 F 
ATOM     69  C   UNL A   1      46.201  26.940  37.106  1.00  0.00     0.060 A 
BRANCH  69  70
ATOM     70  S   UNL A   1      47.518  26.021  37.929  1.00  0.00     0.124 S 
ATOM     71  O   UNL A   1      46.790  25.395  39.029  1.00  0.00    -0.237 OA
ATOM     72  O   UNL A   1      47.976  25.118  36.878  1.00  0.00    -0.237 OA
ATOM     73  O   UNL A   1      48.468  27.060  38.314  1.00  0.00    -0.744 OA
ENDBRANCH  69  70
ENDBRANCH  48  62
BRANCH  49  74
ATOM     74  C   UNL A   1      36.809  32.933  30.820  1.00  0.00     0.058 A 
ATOM     75  C   UNL A   1      35.477  32.630  31.134  1.00  0.00     0.135 A 
ATOM     76  C   UNL A   1      37.046  33.890  29.820  1.00  0.00     0.135 A 
ATOM     77  F   UNL A   1      35.203  31.719  32.080  1.00  0.00    -0.206 F 
ATOM     78  C   UNL A   1      34.416  33.241  30.475  1.00  0.00     0.059 A 
ATOM     79  C   UNL A   1      36.002  34.529  29.160  1.00  0.00     0.059 A 
ATOM     80  F   UNL A   1      38.304  34.227  29.497  1.00  0.00    -0.206 F 
ATOM     81  C   UNL A   1      34.688  34.191  29.488  1.00  0.00     0.060 A 
BRANCH  81  82
ATOM     82  S   UNL A   1      33.304  35.019  28.676  1.00  0.00     0.124 S 
ATOM     83  O   UNL A   1      33.991  36.050  27.907  1.00  0.00    -0.237 OA
ATOM     84  O   UNL A   1      32.707  33.936  27.901  1.00  0.00    -0.237 OA
ATOM     85  O   UNL A   1      32.498  35.496  29.795  1.00  0.00    -0.744 OA
ENDBRANCH  81  82
ENDBRANCH  49  74
BRANCH  61  86
ATOM     86  C   UNL A   1      39.785  33.938  37.047  1.00  0.00     0.058 A 
ATOM     87  C   UNL A   1      38.975  33.649  38.155  1.00  0.00     0.135 A 
ATOM     88  C   UNL A   1      40.435  35.181  37.011  1.00  0.00     0.135 A 
ATOM     89  F   UNL A   1      38.326  32.477  38.231  1.00  0.00    -0.206 F 
ATOM     90  C   UNL A   1      38.809  34.565  39.189  1.00  0.00     0.059 A 
ATOM     91  C   UNL A   1      40.300  36.104  38.042  1.00  0.00     0.059 A 
ATOM     92  F   UNL A   1      41.227  35.501  35.974  1.00  0.00    -0.206 F 
ATOM     93  C   UNL A   1      39.478  35.790  39.125  1.00  0.00     0.060 A 
BRANCH  93  94
ATOM     94  S   UNL A   1      39.299  36.951  40.495  1.00  0.00     0.124 S 
ATOM     95  O   UNL A   1      40.685  37.128  40.913  1.00  0.00    -0.237 OA
ATOM     96  O   UNL A   1      38.678  38.105  39.852  1.00  0.00    -0.237 OA
ATOM     97  O   UNL A   1      38.445  36.233  41.437  1.00  0.00    -0.744 OA
ENDBRANCH  93  94
ENDBRANCH  61  86
ENDBRANCH  35  36
ENDBRANCH  27  30
ENDBRANCH  25  26
ENDBRANCH  24  25
ENDBRANCH  23  24
ENDBRANCH   1  23
TORSDOF 19
ENDMDL
