MODEL 1
REMARK VINA RESULT:     -12.5      0.000      0.000
REMARK SMILES Cc1ccccc1[C@@H](CC(=O)NCCCCNC(=O)c1ccc(-c2c3nc(c(-c4c(F)cc(S(=O)(=O)[O-])cc4F)c4ccc([nH]4)c(-c4c(F)cc(S(=O)(=O)[O-])cc4F)c4nc(c(-c5c(F)cc(S(=O)(=O)[O-])cc5F)c5ccc2[nH]5)C=C4)C=C3)cc1)NC(=O)C(F)(F)F
REMARK SMILES IDX 14 1 13 2 12 3 10 4 11 5 9 7 8 8 7 9 1 10 2 11 3 12 4 13
REMARK SMILES IDX 6 14 5 15 86 16 87 17 88 19 89 20 90 21 91 22 92 23 15 24
REMARK SMILES IDX 16 25 17 26 18 27 19 29 20 30 21 31 85 32 22 33 84 34 23 35
REMARK SMILES IDX 24 36 25 37 78 38 26 39 83 40 77 41 79 42 27 43 82 44 76 45
REMARK SMILES IDX 75 46 28 48 62 49 41 50 61 51 42 52 45 53 60 54 80 55 43 56
REMARK SMILES IDX 44 57 59 59 81 60 46 61 29 62 30 63 39 64 31 65 32 66 38 67
REMARK SMILES IDX 40 68 33 69 34 70 35 71 36 72 37 73 63 74 64 75 73 76 65 77
REMARK SMILES IDX 66 78 72 79 74 80 67 81 68 82 69 83 70 84 71 85 47 86 48 87
REMARK SMILES IDX 57 88 49 89 50 90 56 91 58 92 51 93 52 94 53 95 54 96 55 97
REMARK H PARENT 12 6 86 18 17 28 79 47 45 58
REMARK Flexibility Score: inf
ROOT
ATOM      1  C   UNL A   1      33.120  27.091  25.975  1.00  0.00     0.023 C 
ENDROOT
BRANCH   1   2
ATOM      2  C   UNL A   1      32.046  26.093  25.526  1.00  0.00     0.116 C 
BRANCH   2   3
ATOM      3  N   UNL A   1      31.752  25.148  26.591  1.00  0.00    -0.356 N 
ATOM      4  C   UNL A   1      31.339  23.855  26.519  1.00  0.00     0.222 C 
ATOM      5  O   UNL A   1      30.989  23.302  27.565  1.00  0.00    -0.275 OA
ATOM      6  H   UNL A   1      31.871  25.499  27.504  1.00  0.00     0.163 HD
BRANCH   4   7
ATOM      7  C   UNL A   1      31.312  23.099  25.206  1.00  0.00     0.129 C 
BRANCH   7   8
ATOM      8  C   UNL A   1      32.331  21.947  25.037  1.00  0.00     0.122 C 
BRANCH   8   9
ATOM      9  C   UNL A   1      33.771  22.463  25.030  1.00  0.00    -0.022 A 
ATOM     10  C   UNL A   1      34.224  21.834  27.488  1.00  0.00     0.045 C 
ATOM     11  C   UNL A   1      34.545  22.561  26.210  1.00  0.00    -0.046 A 
ATOM     12  C   UNL A   1      35.751  23.293  26.192  1.00  0.00     0.004 A 
ATOM     13  C   UNL A   1      36.212  23.895  25.027  1.00  0.00     0.000 A 
ATOM     14  C   UNL A   1      34.330  22.965  23.843  1.00  0.00     0.006 A 
ATOM     15  C   UNL A   1      35.524  23.691  23.844  1.00  0.00     0.000 A 
ENDBRANCH   8   9
BRANCH   8  16
ATOM     16  N   UNL A   1      32.043  21.054  23.919  1.00  0.00    -0.341 N 
ATOM     17  C   UNL A   1      32.500  19.767  23.740  1.00  0.00     0.326 C 
ATOM     18  H   UNL A   1      31.456  21.411  23.214  1.00  0.00     0.164 HD
ATOM     19  O   UNL A   1      32.204  19.198  22.683  1.00  0.00    -0.265 OA
BRANCH  17  20
ATOM     20  C   UNL A   1      33.324  19.086  24.857  1.00  0.00     0.471 C 
ATOM     21  F   UNL A   1      32.787  19.265  26.096  1.00  0.00    -0.162 F 
ATOM     22  F   UNL A   1      33.412  17.735  24.677  1.00  0.00    -0.162 F 
ATOM     23  F   UNL A   1      34.607  19.539  24.929  1.00  0.00    -0.162 F 
ENDBRANCH  17  20
ENDBRANCH   8  16
ENDBRANCH   7   8
ENDBRANCH   4   7
ENDBRANCH   2   3
ENDBRANCH   1   2
BRANCH   1  24
ATOM     24  C   UNL A   1      32.753  28.560  25.869  1.00  0.00     0.023 C 
BRANCH  24  25
ATOM     25  C   UNL A   1      32.785  29.272  27.210  1.00  0.00     0.116 C 
BRANCH  25  26
ATOM     26  N   UNL A   1      33.319  30.628  27.204  1.00  0.00    -0.352 N 
ATOM     27  C   UNL A   1      34.484  31.080  27.814  1.00  0.00     0.251 C 
ATOM     28  H   UNL A   1      32.795  31.300  26.711  1.00  0.00     0.163 HD
ATOM     29  O   UNL A   1      34.704  32.278  27.967  1.00  0.00    -0.269 OA
BRANCH  27  30
ATOM     30  C   UNL A   1      35.508  30.072  28.183  1.00  0.00     0.039 A 
ATOM     31  C   UNL A   1      35.683  29.771  29.539  1.00  0.00     0.014 A 
ATOM     32  C   UNL A   1      36.474  29.717  27.254  1.00  0.00     0.014 A 
ATOM     33  C   UNL A   1      36.929  29.333  29.988  1.00  0.00     0.010 A 
ATOM     34  C   UNL A   1      37.745  29.463  27.715  1.00  0.00     0.010 A 
ATOM     35  C   UNL A   1      37.988  29.294  29.084  1.00  0.00    -0.014 A 
BRANCH  35  36
ATOM     36  C   UNL A   1      39.398  29.173  29.440  1.00  0.00     0.031 A 
ATOM     37  C   UNL A   1      40.139  27.931  29.117  1.00  0.00     0.074 A 
ATOM     38  C   UNL A   1      40.080  30.266  29.851  1.00  0.00     0.049 A 
ATOM     39  N   UNL A   1      41.307  27.645  29.580  1.00  0.00    -0.248 NA
ATOM     40  C   UNL A   1      39.617  26.900  28.221  1.00  0.00     0.031 C 
ATOM     41  C   UNL A   1      41.528  30.458  29.853  1.00  0.00     0.029 A 
ATOM     42  N   UNL A   1      39.590  31.389  30.516  1.00  0.00    -0.354 N 
ATOM     43  C   UNL A   1      41.799  26.584  28.858  1.00  0.00     0.074 A 
ATOM     44  C   UNL A   1      40.698  26.141  28.036  1.00  0.00     0.031 C 
ATOM     45  C   UNL A   1      41.836  31.469  30.680  1.00  0.00     0.029 A 
ATOM     46  C   UNL A   1      40.617  31.859  31.363  1.00  0.00     0.049 A 
ATOM     47  H   UNL A   1      38.693  31.782  30.414  1.00  0.00     0.167 HD
ATOM     48  C   UNL A   1      43.118  26.259  28.950  1.00  0.00     0.037 A 
ATOM     49  C   UNL A   1      40.440  31.817  32.719  1.00  0.00     0.037 A 
ATOM     50  C   UNL A   1      43.817  27.104  29.916  1.00  0.00     0.049 A 
ATOM     51  C   UNL A   1      41.306  30.789  33.432  1.00  0.00     0.074 A 
ATOM     52  C   UNL A   1      44.632  28.220  29.837  1.00  0.00     0.029 A 
ATOM     53  N   UNL A   1      43.444  27.009  31.242  1.00  0.00    -0.354 N 
ATOM     54  N   UNL A   1      42.255  30.088  32.869  1.00  0.00    -0.248 NA
ATOM     55  C   UNL A   1      41.112  30.420  34.836  1.00  0.00     0.031 C 
ATOM     56  C   UNL A   1      44.707  28.810  31.136  1.00  0.00     0.029 A 
ATOM     57  C   UNL A   1      43.948  28.044  32.001  1.00  0.00     0.049 A 
ATOM     58  H   UNL A   1      42.884  26.285  31.604  1.00  0.00     0.167 HD
ATOM     59  C   UNL A   1      42.693  29.127  33.745  1.00  0.00     0.074 A 
ATOM     60  C   UNL A   1      41.979  29.403  34.979  1.00  0.00     0.031 C 
ATOM     61  C   UNL A   1      43.554  28.125  33.399  1.00  0.00     0.037 A 
BRANCH  48  62
ATOM     62  C   UNL A   1      43.789  25.294  28.007  1.00  0.00     0.058 A 
ATOM     63  C   UNL A   1      44.530  25.763  26.905  1.00  0.00     0.135 A 
ATOM     64  C   UNL A   1      43.709  23.891  28.122  1.00  0.00     0.135 A 
ATOM     65  F   UNL A   1      44.739  27.071  26.708  1.00  0.00    -0.206 F 
ATOM     66  C   UNL A   1      45.068  24.912  25.940  1.00  0.00     0.059 A 
ATOM     67  C   UNL A   1      44.186  23.019  27.138  1.00  0.00     0.059 A 
ATOM     68  F   UNL A   1      43.187  23.313  29.215  1.00  0.00    -0.206 F 
ATOM     69  C   UNL A   1      44.863  23.542  26.046  1.00  0.00     0.060 A 
BRANCH  69  70
ATOM     70  S   UNL A   1      45.484  22.471  24.735  1.00  0.00     0.124 S 
ATOM     71  O   UNL A   1      44.250  21.971  24.136  1.00  0.00    -0.237 OA
ATOM     72  O   UNL A   1      46.252  23.406  23.922  1.00  0.00    -0.237 OA
ATOM     73  O   UNL A   1      46.268  21.473  25.456  1.00  0.00    -0.744 OA
ENDBRANCH  69  70
ENDBRANCH  48  62
BRANCH  49  74
ATOM     74  C   UNL A   1      39.053  32.224  33.096  1.00  0.00     0.058 A 
ATOM     75  C   UNL A   1      38.756  33.602  33.047  1.00  0.00     0.135 A 
ATOM     76  C   UNL A   1      37.980  31.326  33.002  1.00  0.00     0.135 A 
ATOM     77  F   UNL A   1      39.744  34.506  33.155  1.00  0.00    -0.206 F 
ATOM     78  C   UNL A   1      37.489  34.063  32.711  1.00  0.00     0.059 A 
ATOM     79  C   UNL A   1      36.696  31.770  32.684  1.00  0.00     0.059 A 
ATOM     80  F   UNL A   1      38.199  30.003  33.047  1.00  0.00    -0.206 F 
ATOM     81  C   UNL A   1      36.487  33.131  32.455  1.00  0.00     0.060 A 
BRANCH  81  82
ATOM     82  S   UNL A   1      34.988  33.716  31.628  1.00  0.00     0.124 S 
ATOM     83  O   UNL A   1      34.583  34.832  32.476  1.00  0.00    -0.237 OA
ATOM     84  O   UNL A   1      35.510  34.083  30.313  1.00  0.00    -0.237 OA
ATOM     85  O   UNL A   1      34.116  32.546  31.661  1.00  0.00    -0.744 OA
ENDBRANCH  81  82
ENDBRANCH  49  74
BRANCH  61  86
ATOM     86  C   UNL A   1      44.063  27.099  34.378  1.00  0.00     0.058 A 
ATOM     87  C   UNL A   1      45.413  27.051  34.762  1.00  0.00     0.135 A 
ATOM     88  C   UNL A   1      43.246  26.051  34.857  1.00  0.00     0.135 A 
ATOM     89  F   UNL A   1      46.283  27.975  34.322  1.00  0.00    -0.206 F 
ATOM     90  C   UNL A   1      45.913  26.049  35.596  1.00  0.00     0.059 A 
ATOM     91  C   UNL A   1      43.734  25.013  35.644  1.00  0.00     0.059 A 
ATOM     92  F   UNL A   1      41.930  26.017  34.604  1.00  0.00    -0.206 F 
ATOM     93  C   UNL A   1      45.066  25.032  36.029  1.00  0.00     0.060 A 
BRANCH  93  94
ATOM     94  S   UNL A   1      45.709  23.723  37.087  1.00  0.00     0.124 S 
ATOM     95  O   UNL A   1      45.225  22.513  36.428  1.00  0.00    -0.237 OA
ATOM     96  O   UNL A   1      47.146  23.959  36.998  1.00  0.00    -0.237 OA
ATOM     97  O   UNL A   1      45.102  24.007  38.384  1.00  0.00    -0.744 OA
ENDBRANCH  93  94
ENDBRANCH  61  86
ENDBRANCH  35  36
ENDBRANCH  27  30
ENDBRANCH  25  26
ENDBRANCH  24  25
ENDBRANCH   1  24
TORSDOF 18
ENDMDL
MODEL 2
REMARK VINA RESULT:     -12.4      2.473      3.410
REMARK SMILES Cc1ccccc1[C@@H](CC(=O)NCCCCNC(=O)c1ccc(-c2c3nc(c(-c4c(F)cc(S(=O)(=O)[O-])cc4F)c4ccc([nH]4)c(-c4c(F)cc(S(=O)(=O)[O-])cc4F)c4nc(c(-c5c(F)cc(S(=O)(=O)[O-])cc5F)c5ccc2[nH]5)C=C4)C=C3)cc1)NC(=O)C(F)(F)F
REMARK SMILES IDX 14 1 13 2 12 3 10 4 11 5 9 7 8 8 7 9 1 10 2 11 3 12 4 13
REMARK SMILES IDX 6 14 5 15 86 16 87 17 88 19 89 20 90 21 91 22 92 23 15 24
REMARK SMILES IDX 16 25 17 26 18 27 19 29 20 30 21 31 85 32 22 33 84 34 23 35
REMARK SMILES IDX 24 36 25 37 78 38 26 39 83 40 77 41 79 42 27 43 82 44 76 45
REMARK SMILES IDX 75 46 28 48 62 49 41 50 61 51 42 52 45 53 60 54 80 55 43 56
REMARK SMILES IDX 44 57 59 59 81 60 46 61 29 62 30 63 39 64 31 65 32 66 38 67
REMARK SMILES IDX 40 68 33 69 34 70 35 71 36 72 37 73 63 74 64 75 73 76 65 77
REMARK SMILES IDX 66 78 72 79 74 80 67 81 68 82 69 83 70 84 71 85 47 86 48 87
REMARK SMILES IDX 57 88 49 89 50 90 56 91 58 92 51 93 52 94 53 95 54 96 55 97
REMARK H PARENT 12 6 86 18 17 28 79 47 45 58
REMARK Flexibility Score: inf
ROOT
ATOM      1  C   UNL A   1      32.328  29.354  26.210  1.00  0.00     0.023 C 
ENDROOT
BRANCH   1   2
ATOM      2  C   UNL A   1      32.716  27.874  26.109  1.00  0.00     0.116 C 
BRANCH   2   3
ATOM      3  N   UNL A   1      32.889  27.488  24.717  1.00  0.00    -0.356 N 
ATOM      4  C   UNL A   1      33.675  26.523  24.172  1.00  0.00     0.222 C 
ATOM      5  O   UNL A   1      33.784  26.493  22.943  1.00  0.00    -0.275 OA
ATOM      6  H   UNL A   1      32.353  28.005  24.071  1.00  0.00     0.163 HD
BRANCH   4   7
ATOM      7  C   UNL A   1      34.395  25.503  25.031  1.00  0.00     0.129 C 
BRANCH   7   8
ATOM      8  C   UNL A   1      33.802  24.075  25.071  1.00  0.00     0.122 C 
BRANCH   8   9
ATOM      9  C   UNL A   1      34.866  23.013  24.789  1.00  0.00    -0.022 A 
ATOM     10  C   UNL A   1      33.921  21.322  26.490  1.00  0.00     0.045 C 
ATOM     11  C   UNL A   1      34.998  21.846  25.578  1.00  0.00    -0.046 A 
ATOM     12  C   UNL A   1      36.154  21.047  25.450  1.00  0.00     0.004 A 
ATOM     13  C   UNL A   1      37.154  21.366  24.538  1.00  0.00     0.000 A 
ATOM     14  C   UNL A   1      35.825  23.230  23.785  1.00  0.00     0.006 A 
ATOM     15  C   UNL A   1      36.966  22.431  23.676  1.00  0.00     0.000 A 
ENDBRANCH   8   9
BRANCH   8  16
ATOM     16  N   UNL A   1      32.600  23.904  24.260  1.00  0.00    -0.341 N 
ATOM     17  C   UNL A   1      31.301  23.793  24.706  1.00  0.00     0.326 C 
ATOM     18  H   UNL A   1      32.732  23.865  23.286  1.00  0.00     0.164 HD
ATOM     19  O   UNL A   1      30.425  23.576  23.861  1.00  0.00    -0.265 OA
BRANCH  17  20
ATOM     20  C   UNL A   1      30.992  23.969  26.210  1.00  0.00     0.471 C 
ATOM     21  F   UNL A   1      31.852  24.824  26.832  1.00  0.00    -0.162 F 
ATOM     22  F   UNL A   1      29.741  24.477  26.420  1.00  0.00    -0.162 F 
ATOM     23  F   UNL A   1      31.044  22.801  26.910  1.00  0.00    -0.162 F 
ENDBRANCH  17  20
ENDBRANCH   8  16
ENDBRANCH   7   8
ENDBRANCH   4   7
ENDBRANCH   2   3
ENDBRANCH   1   2
BRANCH   1  24
ATOM     24  C   UNL A   1      33.057  30.165  27.266  1.00  0.00     0.023 C 
BRANCH  24  25
ATOM     25  C   UNL A   1      34.552  29.896  27.282  1.00  0.00     0.116 C 
BRANCH  25  26
ATOM     26  N   UNL A   1      35.406  31.042  27.569  1.00  0.00    -0.352 N 
ATOM     27  C   UNL A   1      36.619  31.043  28.249  1.00  0.00     0.251 C 
ATOM     28  H   UNL A   1      35.088  31.915  27.243  1.00  0.00     0.163 HD
ATOM     29  O   UNL A   1      37.123  32.085  28.660  1.00  0.00    -0.269 OA
BRANCH  27  30
ATOM     30  C   UNL A   1      37.344  29.755  28.373  1.00  0.00     0.039 A 
ATOM     31  C   UNL A   1      37.480  29.192  29.648  1.00  0.00     0.014 A 
ATOM     32  C   UNL A   1      38.142  29.323  27.326  1.00  0.00     0.014 A 
ATOM     33  C   UNL A   1      38.576  28.373  29.922  1.00  0.00     0.010 A 
ATOM     34  C   UNL A   1      39.313  28.671  27.637  1.00  0.00     0.010 A 
ATOM     35  C   UNL A   1      39.551  28.214  28.940  1.00  0.00    -0.014 A 
BRANCH  35  36
ATOM     36  C   UNL A   1      40.887  27.669  29.157  1.00  0.00     0.031 A 
ATOM     37  C   UNL A   1      41.216  26.302  28.687  1.00  0.00     0.074 A 
ATOM     38  C   UNL A   1      41.882  28.484  29.576  1.00  0.00     0.049 A 
ATOM     39  N   UNL A   1      42.280  25.659  29.022  1.00  0.00    -0.248 NA
ATOM     40  C   UNL A   1      40.358  25.544  27.777  1.00  0.00     0.031 C 
ATOM     41  C   UNL A   1      43.321  28.260  29.458  1.00  0.00     0.029 A 
ATOM     42  N   UNL A   1      41.782  29.636  30.355  1.00  0.00    -0.354 N 
ATOM     43  C   UNL A   1      42.395  24.571  28.190  1.00  0.00     0.074 A 
ATOM     44  C   UNL A   1      41.160  24.530  27.444  1.00  0.00     0.031 C 
ATOM     45  C   UNL A   1      43.962  29.064  30.319  1.00  0.00     0.029 A 
ATOM     46  C   UNL A   1      42.957  29.720  31.134  1.00  0.00     0.049 A 
ATOM     47  H   UNL A   1      41.032  30.273  30.361  1.00  0.00     0.167 HD
ATOM     48  C   UNL A   1      43.567  23.880  28.139  1.00  0.00     0.037 A 
ATOM     49  C   UNL A   1      42.869  29.609  32.495  1.00  0.00     0.037 A 
ATOM     50  C   UNL A   1      44.545  24.404  29.092  1.00  0.00     0.049 A 
ATOM     51  C   UNL A   1      43.448  28.319  33.056  1.00  0.00     0.074 A 
ATOM     52  C   UNL A   1      45.639  25.248  29.013  1.00  0.00     0.029 A 
ATOM     53  N   UNL A   1      44.252  24.301  30.437  1.00  0.00    -0.354 N 
ATOM     54  N   UNL A   1      44.114  27.433  32.364  1.00  0.00    -0.248 NA
ATOM     55  C   UNL A   1      43.252  27.896  34.445  1.00  0.00     0.031 C 
ATOM     56  C   UNL A   1      45.969  25.676  30.335  1.00  0.00     0.029 A 
ATOM     57  C   UNL A   1      45.084  25.080  31.214  1.00  0.00     0.049 A 
ATOM     58  H   UNL A   1      43.533  23.734  30.800  1.00  0.00     0.167 HD
ATOM     59  C   UNL A   1      44.316  26.313  33.132  1.00  0.00     0.074 A 
ATOM     60  C   UNL A   1      43.798  26.668  34.441  1.00  0.00     0.031 C 
ATOM     61  C   UNL A   1      44.825  25.144  32.643  1.00  0.00     0.037 A 
BRANCH  48  62
ATOM     62  C   UNL A   1      43.865  22.853  27.078  1.00  0.00     0.058 A 
ATOM     63  C   UNL A   1      43.124  21.658  27.005  1.00  0.00     0.135 A 
ATOM     64  C   UNL A   1      44.894  22.979  26.122  1.00  0.00     0.135 A 
ATOM     65  F   UNL A   1      42.077  21.433  27.811  1.00  0.00    -0.206 F 
ATOM     66  C   UNL A   1      43.438  20.628  26.119  1.00  0.00     0.059 A 
ATOM     67  C   UNL A   1      45.268  21.939  25.266  1.00  0.00     0.059 A 
ATOM     68  F   UNL A   1      45.559  24.135  25.967  1.00  0.00    -0.206 F 
ATOM     69  C   UNL A   1      44.533  20.763  25.275  1.00  0.00     0.060 A 
BRANCH  69  70
ATOM     70  S   UNL A   1      44.978  19.378  24.209  1.00  0.00     0.124 S 
ATOM     71  O   UNL A   1      44.462  19.809  22.913  1.00  0.00    -0.237 OA
ATOM     72  O   UNL A   1      46.430  19.353  24.339  1.00  0.00    -0.237 OA
ATOM     73  O   UNL A   1      44.273  18.249  24.809  1.00  0.00    -0.744 OA
ENDBRANCH  69  70
ENDBRANCH  48  62
BRANCH  49  74
ATOM     74  C   UNL A   1      41.687  30.355  33.022  1.00  0.00     0.058 A 
ATOM     75  C   UNL A   1      41.797  31.759  33.092  1.00  0.00     0.135 A 
ATOM     76  C   UNL A   1      40.397  29.808  32.967  1.00  0.00     0.135 A 
ATOM     77  F   UNL A   1      43.009  32.335  33.169  1.00  0.00    -0.206 F 
ATOM     78  C   UNL A   1      40.697  32.587  32.903  1.00  0.00     0.059 A 
ATOM     79  C   UNL A   1      39.276  30.623  32.797  1.00  0.00     0.059 A 
ATOM     80  F   UNL A   1      40.228  28.478  32.904  1.00  0.00    -0.206 F 
ATOM     81  C   UNL A   1      39.454  32.003  32.679  1.00  0.00     0.060 A 
BRANCH  81  82
ATOM     82  S   UNL A   1      38.134  33.057  32.031  1.00  0.00     0.124 S 
ATOM     83  O   UNL A   1      38.797  33.733  30.921  1.00  0.00    -0.237 OA
ATOM     84  O   UNL A   1      37.132  32.064  31.654  1.00  0.00    -0.237 OA
ATOM     85  O   UNL A   1      37.796  33.900  33.173  1.00  0.00    -0.744 OA
ENDBRANCH  81  82
ENDBRANCH  49  74
BRANCH  61  86
ATOM     86  C   UNL A   1      45.083  23.933  33.503  1.00  0.00     0.058 A 
ATOM     87  C   UNL A   1      46.360  23.649  34.015  1.00  0.00     0.135 A 
ATOM     88  C   UNL A   1      44.095  22.950  33.728  1.00  0.00     0.135 A 
ATOM     89  F   UNL A   1      47.382  24.498  33.815  1.00  0.00    -0.206 F 
ATOM     90  C   UNL A   1      46.630  22.484  34.734  1.00  0.00     0.059 A 
ATOM     91  C   UNL A   1      44.354  21.757  34.393  1.00  0.00     0.059 A 
ATOM     92  F   UNL A   1      42.825  23.131  33.336  1.00  0.00    -0.206 F 
ATOM     93  C   UNL A   1      45.620  21.541  34.915  1.00  0.00     0.060 A 
BRANCH  93  94
ATOM     94  S   UNL A   1      45.966  20.023  35.823  1.00  0.00     0.124 S 
ATOM     95  O   UNL A   1      45.681  20.404  37.203  1.00  0.00    -0.237 OA
ATOM     96  O   UNL A   1      45.015  19.099  35.213  1.00  0.00    -0.237 OA
ATOM     97  O   UNL A   1      47.372  19.766  35.529  1.00  0.00    -0.744 OA
ENDBRANCH  93  94
ENDBRANCH  61  86
ENDBRANCH  35  36
ENDBRANCH  27  30
ENDBRANCH  25  26
ENDBRANCH  24  25
ENDBRANCH   1  24
TORSDOF 18
ENDMDL
MODEL 3
REMARK VINA RESULT:     -12.3      4.035     10.203
REMARK SMILES Cc1ccccc1[C@@H](CC(=O)NCCCCNC(=O)c1ccc(-c2c3nc(c(-c4c(F)cc(S(=O)(=O)[O-])cc4F)c4ccc([nH]4)c(-c4c(F)cc(S(=O)(=O)[O-])cc4F)c4nc(c(-c5c(F)cc(S(=O)(=O)[O-])cc5F)c5ccc2[nH]5)C=C4)C=C3)cc1)NC(=O)C(F)(F)F
REMARK SMILES IDX 14 1 13 2 12 3 10 4 11 5 9 7 8 8 7 9 1 10 2 11 3 12 4 13
REMARK SMILES IDX 6 14 5 15 86 16 87 17 88 19 89 20 90 21 91 22 92 23 15 24
REMARK SMILES IDX 16 25 17 26 18 27 19 29 20 30 21 31 85 32 22 33 84 34 23 35
REMARK SMILES IDX 24 36 25 37 78 38 26 39 83 40 77 41 79 42 27 43 82 44 76 45
REMARK SMILES IDX 75 46 28 48 62 49 41 50 61 51 42 52 45 53 60 54 80 55 43 56
REMARK SMILES IDX 44 57 59 59 81 60 46 61 29 62 30 63 39 64 31 65 32 66 38 67
REMARK SMILES IDX 40 68 33 69 34 70 35 71 36 72 37 73 63 74 64 75 73 76 65 77
REMARK SMILES IDX 66 78 72 79 74 80 67 81 68 82 69 83 70 84 71 85 47 86 48 87
REMARK SMILES IDX 57 88 49 89 50 90 56 91 58 92 51 93 52 94 53 95 54 96 55 97
REMARK H PARENT 12 6 86 18 17 28 79 47 45 58
REMARK Flexibility Score: inf
ROOT
ATOM      1  C   UNL A   1      36.833  22.146  23.830  1.00  0.00     0.023 C 
ENDROOT
BRANCH   1   2
ATOM      2  C   UNL A   1      35.533  22.751  24.375  1.00  0.00     0.116 C 
BRANCH   2   3
ATOM      3  N   UNL A   1      34.621  23.062  23.286  1.00  0.00    -0.356 N 
ATOM      4  C   UNL A   1      33.791  24.126  23.123  1.00  0.00     0.222 C 
ATOM      5  O   UNL A   1      32.981  24.089  22.192  1.00  0.00    -0.275 OA
ATOM      6  H   UNL A   1      34.603  22.402  22.555  1.00  0.00     0.163 HD
BRANCH   4   7
ATOM      7  C   UNL A   1      33.850  25.331  24.040  1.00  0.00     0.129 C 
BRANCH   7   8
ATOM      8  C   UNL A   1      32.759  25.436  25.132  1.00  0.00     0.122 C 
BRANCH   8   9
ATOM      9  C   UNL A   1      32.557  26.881  25.591  1.00  0.00    -0.022 A 
ATOM     10  C   UNL A   1      30.383  27.219  24.249  1.00  0.00     0.045 C 
ATOM     11  C   UNL A   1      31.566  27.722  25.032  1.00  0.00    -0.046 A 
ATOM     12  C   UNL A   1      31.604  29.108  25.289  1.00  0.00     0.004 A 
ATOM     13  C   UNL A   1      32.579  29.663  26.111  1.00  0.00     0.000 A 
ATOM     14  C   UNL A   1      33.442  27.451  26.522  1.00  0.00     0.006 A 
ATOM     15  C   UNL A   1      33.468  28.827  26.762  1.00  0.00     0.000 A 
ENDBRANCH   8   9
BRANCH   8  16
ATOM     16  N   UNL A   1      32.935  24.506  26.243  1.00  0.00    -0.341 N 
ATOM     17  C   UNL A   1      31.980  23.688  26.806  1.00  0.00     0.326 C 
ATOM     18  H   UNL A   1      33.836  24.457  26.634  1.00  0.00     0.164 HD
ATOM     19  O   UNL A   1      32.309  23.024  27.796  1.00  0.00    -0.265 OA
BRANCH  17  20
ATOM     20  C   UNL A   1      30.572  23.610  26.174  1.00  0.00     0.471 C 
ATOM     21  F   UNL A   1      30.606  23.395  24.829  1.00  0.00    -0.162 F 
ATOM     22  F   UNL A   1      29.830  22.589  26.698  1.00  0.00    -0.162 F 
ATOM     23  F   UNL A   1      29.836  24.742  26.360  1.00  0.00    -0.162 F 
ENDBRANCH  17  20
ENDBRANCH   8  16
ENDBRANCH   7   8
ENDBRANCH   4   7
ENDBRANCH   2   3
ENDBRANCH   1   2
BRANCH   1  24
ATOM     24  C   UNL A   1      37.698  21.406  24.834  1.00  0.00     0.023 C 
BRANCH  24  25
ATOM     25  C   UNL A   1      38.261  22.321  25.909  1.00  0.00     0.116 C 
BRANCH  25  26
ATOM     26  N   UNL A   1      39.677  22.158  26.211  1.00  0.00    -0.352 N 
ATOM     27  C   UNL A   1      40.631  23.160  26.354  1.00  0.00     0.251 C 
ATOM     28  H   UNL A   1      39.995  21.233  26.326  1.00  0.00     0.163 HD
ATOM     29  O   UNL A   1      41.833  22.906  26.349  1.00  0.00    -0.269 OA
BRANCH  27  30
ATOM     30  C   UNL A   1      40.153  24.537  26.622  1.00  0.00     0.039 A 
ATOM     31  C   UNL A   1      40.720  25.589  25.892  1.00  0.00     0.014 A 
ATOM     32  C   UNL A   1      39.438  24.793  27.782  1.00  0.00     0.014 A 
ATOM     33  C   UNL A   1      40.772  26.865  26.456  1.00  0.00     0.010 A 
ATOM     34  C   UNL A   1      39.648  25.996  28.414  1.00  0.00     0.010 A 
ATOM     35  C   UNL A   1      40.336  27.031  27.769  1.00  0.00    -0.014 A 
BRANCH  35  36
ATOM     36  C   UNL A   1      40.609  28.194  28.607  1.00  0.00     0.031 A 
ATOM     37  C   UNL A   1      39.582  29.253  28.761  1.00  0.00     0.074 A 
ATOM     38  C   UNL A   1      41.692  28.197  29.416  1.00  0.00     0.049 A 
ATOM     39  N   UNL A   1      39.807  30.406  29.290  1.00  0.00    -0.248 NA
ATOM     40  C   UNL A   1      38.195  29.087  28.331  1.00  0.00     0.031 C 
ATOM     41  C   UNL A   1      41.917  29.032  30.594  1.00  0.00     0.029 A 
ATOM     42  N   UNL A   1      42.906  27.536  29.235  1.00  0.00    -0.354 N 
ATOM     43  C   UNL A   1      38.592  31.004  29.529  1.00  0.00     0.074 A 
ATOM     44  C   UNL A   1      37.617  30.151  28.893  1.00  0.00     0.031 C 
ATOM     45  C   UNL A   1      43.226  29.037  30.885  1.00  0.00     0.029 A 
ATOM     46  C   UNL A   1      43.913  28.337  29.815  1.00  0.00     0.049 A 
ATOM     47  H   UNL A   1      43.037  26.670  28.784  1.00  0.00     0.167 HD
ATOM     48  C   UNL A   1      38.526  32.101  30.333  1.00  0.00     0.037 A 
ATOM     49  C   UNL A   1      44.871  28.895  29.014  1.00  0.00     0.037 A 
ATOM     50  C   UNL A   1      39.853  32.525  30.778  1.00  0.00     0.049 A 
ATOM     51  C   UNL A   1      44.760  30.405  28.863  1.00  0.00     0.074 A 
ATOM     52  C   UNL A   1      40.599  32.366  31.932  1.00  0.00     0.029 A 
ATOM     53  N   UNL A   1      40.741  32.971  29.820  1.00  0.00    -0.354 N 
ATOM     54  N   UNL A   1      43.936  31.167  29.532  1.00  0.00    -0.248 NA
ATOM     55  C   UNL A   1      45.533  31.166  27.879  1.00  0.00     0.031 C 
ATOM     56  C   UNL A   1      41.958  32.690  31.634  1.00  0.00     0.029 A 
ATOM     57  C   UNL A   1      42.030  33.057  30.303  1.00  0.00     0.049 A 
ATOM     58  H   UNL A   1      40.483  33.202  28.898  1.00  0.00     0.167 HD
ATOM     59  C   UNL A   1      43.961  32.436  29.010  1.00  0.00     0.074 A 
ATOM     60  C   UNL A   1      45.010  32.397  28.007  1.00  0.00     0.031 C 
ATOM     61  C   UNL A   1      43.088  33.420  29.373  1.00  0.00     0.037 A 
BRANCH  48  62
ATOM     62  C   UNL A   1      37.226  32.654  30.855  1.00  0.00     0.058 A 
ATOM     63  C   UNL A   1      36.493  33.596  30.107  1.00  0.00     0.135 A 
ATOM     64  C   UNL A   1      36.666  32.315  32.104  1.00  0.00     0.135 A 
ATOM     65  F   UNL A   1      36.875  33.963  28.876  1.00  0.00    -0.206 F 
ATOM     66  C   UNL A   1      35.349  34.224  30.598  1.00  0.00     0.059 A 
ATOM     67  C   UNL A   1      35.558  32.973  32.644  1.00  0.00     0.059 A 
ATOM     68  F   UNL A   1      37.165  31.307  32.836  1.00  0.00    -0.206 F 
ATOM     69  C   UNL A   1      34.906  33.932  31.881  1.00  0.00     0.060 A 
BRANCH  69  70
ATOM     70  S   UNL A   1      33.483  34.829  32.530  1.00  0.00     0.124 S 
ATOM     71  O   UNL A   1      32.848  35.321  31.312  1.00  0.00    -0.237 OA
ATOM     72  O   UNL A   1      32.764  33.778  33.242  1.00  0.00    -0.237 OA
ATOM     73  O   UNL A   1      34.087  35.859  33.371  1.00  0.00    -0.744 OA
ENDBRANCH  69  70
ENDBRANCH  48  62
BRANCH  49  74
ATOM     74  C   UNL A   1      45.333  27.930  27.972  1.00  0.00     0.058 A 
ATOM     75  C   UNL A   1      44.746  28.041  26.694  1.00  0.00     0.135 A 
ATOM     76  C   UNL A   1      46.589  27.313  28.057  1.00  0.00     0.135 A 
ATOM     77  F   UNL A   1      43.534  28.604  26.558  1.00  0.00    -0.206 F 
ATOM     78  C   UNL A   1      45.457  27.747  25.537  1.00  0.00     0.059 A 
ATOM     79  C   UNL A   1      47.313  26.992  26.907  1.00  0.00     0.059 A 
ATOM     80  F   UNL A   1      47.196  27.175  29.245  1.00  0.00    -0.206 F 
ATOM     81  C   UNL A   1      46.769  27.297  25.658  1.00  0.00     0.060 A 
BRANCH  81  82
ATOM     82  S   UNL A   1      47.803  27.317  24.173  1.00  0.00     0.124 S 
ATOM     83  O   UNL A   1      47.901  25.898  23.847  1.00  0.00    -0.237 OA
ATOM     84  O   UNL A   1      46.985  28.116  23.263  1.00  0.00    -0.237 OA
ATOM     85  O   UNL A   1      49.035  27.946  24.639  1.00  0.00    -0.744 OA
ENDBRANCH  81  82
ENDBRANCH  49  74
BRANCH  61  86
ATOM     86  C   UNL A   1      43.152  34.823  28.827  1.00  0.00     0.058 A 
ATOM     87  C   UNL A   1      43.323  35.936  29.666  1.00  0.00     0.135 A 
ATOM     88  C   UNL A   1      42.907  35.108  27.465  1.00  0.00     0.135 A 
ATOM     89  F   UNL A   1      43.514  35.774  30.986  1.00  0.00    -0.206 F 
ATOM     90  C   UNL A   1      43.291  37.245  29.181  1.00  0.00     0.059 A 
ATOM     91  C   UNL A   1      42.816  36.404  26.969  1.00  0.00     0.059 A 
ATOM     92  F   UNL A   1      42.781  34.130  26.556  1.00  0.00    -0.206 F 
ATOM     93  C   UNL A   1      43.033  37.469  27.830  1.00  0.00     0.060 A 
BRANCH  93  94
ATOM     94  S   UNL A   1      42.967  39.156  27.200  1.00  0.00     0.124 S 
ATOM     95  O   UNL A   1      44.192  39.250  26.411  1.00  0.00    -0.237 OA
ATOM     96  O   UNL A   1      41.724  39.130  26.436  1.00  0.00    -0.237 OA
ATOM     97  O   UNL A   1      42.947  39.969  28.411  1.00  0.00    -0.744 OA
ENDBRANCH  93  94
ENDBRANCH  61  86
ENDBRANCH  35  36
ENDBRANCH  27  30
ENDBRANCH  25  26
ENDBRANCH  24  25
ENDBRANCH   1  24
TORSDOF 18
ENDMDL
