MODEL 1
REMARK VINA RESULT:     -11.8      0.000      0.000
REMARK SMILES C[C@]([NH3+])(C(=O)N1[C@@H](C(=O)NCCCCNC(=O)c2ccc(-c3c4nc(c(-c5c(F)cc(S(=O)(=O)[O-])cc5F)c5ccc([nH]5)c(-c5c(F)cc(S(=O)(=O)[O-])cc5F)c5nc(c(-c6c(F)cc(S(=O)(=O)[O-])cc6F)c6ccc3[nH]6)C=C5)C=C4)cc2)C[C@H]2CCCC[C@@H]21)C(F)(F)F
REMARK SMILES IDX 12 1 11 2 10 3 8 4 9 5 7 7 6 8 90 9 84 10 85 11 89 12 86 13
REMARK SMILES IDX 88 14 87 15 4 16 5 17 2 18 1 19 91 20 92 21 93 22 94 23 3 24
REMARK SMILES IDX 13 28 14 29 15 30 16 31 17 33 18 34 19 35 83 36 20 37 82 38
REMARK SMILES IDX 21 39 22 40 23 41 76 42 24 43 81 44 75 45 77 46 25 47 80 48
REMARK SMILES IDX 74 49 73 50 26 52 60 53 39 54 59 55 40 56 43 57 58 58 78 59
REMARK SMILES IDX 41 60 42 61 57 63 79 64 44 65 27 66 28 67 37 68 29 69 30 70
REMARK SMILES IDX 36 71 38 72 31 73 32 74 33 75 34 76 35 77 61 78 62 79 71 80
REMARK SMILES IDX 63 81 64 82 70 83 72 84 65 85 66 86 67 87 68 88 69 89 45 90
REMARK SMILES IDX 46 91 55 92 47 93 48 94 54 95 56 96 49 97 50 98 51 99 52 100
REMARK SMILES IDX 53 101
REMARK H PARENT 10 6 3 25 3 26 3 27 15 32 77 51 43 62
REMARK Flexibility Score: inf
ROOT
ATOM      1  C   UNL A   1      39.136  22.688  26.464  1.00  0.00     0.023 C 
ENDROOT
BRANCH   1   2
ATOM      2  C   UNL A   1      38.368  21.606  25.713  1.00  0.00     0.116 C 
BRANCH   2   3
ATOM      3  N   UNL A   1      37.492  22.175  24.719  1.00  0.00    -0.354 N 
ATOM      4  C   UNL A   1      36.154  21.984  24.538  1.00  0.00     0.242 C 
ATOM      5  O   UNL A   1      35.660  22.477  23.519  1.00  0.00    -0.273 OA
ATOM      6  H   UNL A   1      37.920  22.789  24.080  1.00  0.00     0.163 HD
BRANCH   4   7
ATOM      7  C   UNL A   1      35.305  21.162  25.565  1.00  0.00     0.175 C 
ATOM      8  N   UNL A   1      33.964  20.827  25.037  1.00  0.00    -0.322 N 
ATOM      9  C   UNL A   1      33.109  21.979  25.246  1.00  0.00     0.089 C 
ATOM     10  C   UNL A   1      34.980  22.080  26.779  1.00  0.00     0.041 C 
ATOM     11  C   UNL A   1      33.463  22.295  26.700  1.00  0.00     0.014 C 
ATOM     12  C   UNL A   1      31.593  21.831  25.133  1.00  0.00     0.025 C 
ATOM     13  C   UNL A   1      32.901  23.643  27.111  1.00  0.00     0.006 C 
ATOM     14  C   UNL A   1      30.908  23.126  25.591  1.00  0.00     0.002 C 
ATOM     15  C   UNL A   1      31.372  23.601  26.974  1.00  0.00     0.000 C 
BRANCH   8  16
ATOM     16  C   UNL A   1      33.601  19.770  24.228  1.00  0.00     0.294 C 
ATOM     17  O   UNL A   1      33.251  19.987  23.066  1.00  0.00    -0.267 OA
BRANCH  16  18
ATOM     18  C   UNL A   1      33.344  18.387  24.893  1.00  0.00     0.267 C 
ATOM     19  C   UNL A   1      32.099  17.758  24.242  1.00  0.00     0.100 C 
BRANCH  18  20
ATOM     20  C   UNL A   1      34.570  17.489  24.574  1.00  0.00     0.453 C 
ATOM     21  F   UNL A   1      34.697  16.451  25.427  1.00  0.00    -0.164 F 
ATOM     22  F   UNL A   1      34.402  16.942  23.334  1.00  0.00    -0.164 F 
ATOM     23  F   UNL A   1      35.738  18.164  24.532  1.00  0.00    -0.164 F 
ENDBRANCH  18  20
BRANCH  18  24
ATOM     24  N   UNL A   1      33.045  18.486  26.367  1.00  0.00    -0.337 N 
ATOM     25  H   UNL A   1      33.335  19.401  26.712  1.00  0.00     0.345 HD
ATOM     26  H   UNL A   1      33.555  17.758  26.867  1.00  0.00     0.345 HD
ATOM     27  H   UNL A   1      32.044  18.366  26.520  1.00  0.00     0.345 HD
ENDBRANCH  18  24
ENDBRANCH  16  18
ENDBRANCH   8  16
ENDBRANCH   4   7
ENDBRANCH   2   3
ENDBRANCH   1   2
BRANCH   1  28
ATOM     28  C   UNL A   1      40.299  22.163  27.304  1.00  0.00     0.023 C 
BRANCH  28  29
ATOM     29  C   UNL A   1      41.549  23.035  27.284  1.00  0.00     0.116 C 
BRANCH  29  30
ATOM     30  N   UNL A   1      41.648  23.900  26.115  1.00  0.00    -0.352 N 
ATOM     31  C   UNL A   1      41.643  25.275  26.072  1.00  0.00     0.251 C 
ATOM     32  H   UNL A   1      41.728  23.442  25.246  1.00  0.00     0.163 HD
ATOM     33  O   UNL A   1      41.659  25.871  25.003  1.00  0.00    -0.269 OA
BRANCH  31  34
ATOM     34  C   UNL A   1      41.570  26.017  27.346  1.00  0.00     0.039 A 
ATOM     35  C   UNL A   1      42.633  26.847  27.705  1.00  0.00     0.014 A 
ATOM     36  C   UNL A   1      40.412  25.962  28.125  1.00  0.00     0.014 A 
ATOM     37  C   UNL A   1      42.500  27.691  28.809  1.00  0.00     0.010 A 
ATOM     38  C   UNL A   1      40.252  26.855  29.177  1.00  0.00     0.010 A 
ATOM     39  C   UNL A   1      41.291  27.733  29.526  1.00  0.00    -0.014 A 
BRANCH  39  40
ATOM     40  C   UNL A   1      41.084  28.696  30.636  1.00  0.00     0.031 A 
ATOM     41  C   UNL A   1      41.919  28.590  31.881  1.00  0.00     0.074 A 
ATOM     42  C   UNL A   1      40.094  29.607  30.556  1.00  0.00     0.049 A 
ATOM     43  N   UNL A   1      41.823  29.261  33.000  1.00  0.00    -0.248 NA
ATOM     44  C   UNL A   1      42.982  27.571  31.882  1.00  0.00     0.031 C 
ATOM     45  C   UNL A   1      39.175  29.766  29.426  1.00  0.00     0.029 A 
ATOM     46  N   UNL A   1      39.683  30.562  31.452  1.00  0.00    -0.354 N 
ATOM     47  C   UNL A   1      42.797  28.736  33.840  1.00  0.00     0.074 A 
ATOM     48  C   UNL A   1      43.436  27.654  33.123  1.00  0.00     0.031 C 
ATOM     49  C   UNL A   1      38.320  30.768  29.690  1.00  0.00     0.029 A 
ATOM     50  C   UNL A   1      38.607  31.300  31.018  1.00  0.00     0.049 A 
ATOM     51  H   UNL A   1      40.118  30.706  32.323  1.00  0.00     0.167 HD
ATOM     52  C   UNL A   1      43.147  29.137  35.085  1.00  0.00     0.037 A 
ATOM     53  C   UNL A   1      37.923  32.290  31.626  1.00  0.00     0.037 A 
ATOM     54  C   UNL A   1      42.531  30.235  35.779  1.00  0.00     0.049 A 
ATOM     55  C   UNL A   1      38.351  32.739  32.997  1.00  0.00     0.074 A 
ATOM     56  C   UNL A   1      42.844  30.752  37.024  1.00  0.00     0.029 A 
ATOM     57  N   UNL A   1      41.481  30.996  35.283  1.00  0.00    -0.354 N 
ATOM     58  N   UNL A   1      39.309  32.265  33.756  1.00  0.00    -0.248 NA
ATOM     59  C   UNL A   1      37.613  33.864  33.589  1.00  0.00     0.031 C 
ATOM     60  C   UNL A   1      41.967  31.809  37.293  1.00  0.00     0.029 A 
ATOM     61  C   UNL A   1      41.131  31.973  36.198  1.00  0.00     0.049 A 
ATOM     62  H   UNL A   1      41.049  30.858  34.410  1.00  0.00     0.167 HD
ATOM     63  C   UNL A   1      39.303  33.045  34.907  1.00  0.00     0.074 A 
ATOM     64  C   UNL A   1      38.256  34.032  34.737  1.00  0.00     0.031 C 
ATOM     65  C   UNL A   1      40.092  32.953  36.006  1.00  0.00     0.037 A 
BRANCH  52  66
ATOM     66  C   UNL A   1      44.260  28.390  35.763  1.00  0.00     0.058 A 
ATOM     67  C   UNL A   1      44.001  27.293  36.600  1.00  0.00     0.135 A 
ATOM     68  C   UNL A   1      45.600  28.758  35.562  1.00  0.00     0.135 A 
ATOM     69  F   UNL A   1      42.737  26.910  36.841  1.00  0.00    -0.206 F 
ATOM     70  C   UNL A   1      45.027  26.607  37.241  1.00  0.00     0.059 A 
ATOM     71  C   UNL A   1      46.645  28.069  36.172  1.00  0.00     0.059 A 
ATOM     72  F   UNL A   1      45.904  29.801  34.772  1.00  0.00    -0.206 F 
ATOM     73  C   UNL A   1      46.346  27.006  37.022  1.00  0.00     0.060 A 
BRANCH  73  74
ATOM     74  S   UNL A   1      47.669  26.107  37.861  1.00  0.00     0.124 S 
ATOM     75  O   UNL A   1      48.680  27.151  38.008  1.00  0.00    -0.237 OA
ATOM     76  O   UNL A   1      47.021  25.676  39.096  1.00  0.00    -0.237 OA
ATOM     77  O   UNL A   1      48.000  25.038  36.924  1.00  0.00    -0.744 OA
ENDBRANCH  73  74
ENDBRANCH  52  66
BRANCH  53  78
ATOM     78  C   UNL A   1      36.778  32.937  30.934  1.00  0.00     0.058 A 
ATOM     79  C   UNL A   1      36.990  33.895  29.931  1.00  0.00     0.135 A 
ATOM     80  C   UNL A   1      35.452  32.605  31.251  1.00  0.00     0.135 A 
ATOM     81  F   UNL A   1      38.240  34.249  29.596  1.00  0.00    -0.206 F 
ATOM     82  C   UNL A   1      35.929  34.516  29.280  1.00  0.00     0.059 A 
ATOM     83  C   UNL A   1      34.375  33.196  30.599  1.00  0.00     0.059 A 
ATOM     84  F   UNL A   1      35.198  31.680  32.190  1.00  0.00    -0.206 F 
ATOM     85  C   UNL A   1      34.624  34.159  29.622  1.00  0.00     0.060 A 
BRANCH  85  86
ATOM     86  S   UNL A   1      33.251  34.938  28.743  1.00  0.00     0.124 S 
ATOM     87  O   UNL A   1      32.806  33.855  27.875  1.00  0.00    -0.237 OA
ATOM     88  O   UNL A   1      32.349  35.296  29.832  1.00  0.00    -0.237 OA
ATOM     89  O   UNL A   1      33.886  36.068  28.070  1.00  0.00    -0.744 OA
ENDBRANCH  85  86
ENDBRANCH  53  78
BRANCH  65  90
ATOM     90  C   UNL A   1      39.876  33.962  37.096  1.00  0.00     0.058 A 
ATOM     91  C   UNL A   1      39.023  33.702  38.180  1.00  0.00     0.135 A 
ATOM     92  C   UNL A   1      40.575  35.181  37.086  1.00  0.00     0.135 A 
ATOM     93  F   UNL A   1      38.329  32.554  38.232  1.00  0.00    -0.206 F 
ATOM     94  C   UNL A   1      38.856  34.624  39.208  1.00  0.00     0.059 A 
ATOM     95  C   UNL A   1      40.440  36.106  38.114  1.00  0.00     0.059 A 
ATOM     96  F   UNL A   1      41.411  35.471  36.076  1.00  0.00    -0.206 F 
ATOM     97  C   UNL A   1      39.570  35.823  39.167  1.00  0.00     0.060 A 
BRANCH  97  98
ATOM     98  S   UNL A   1      39.374  36.995  40.526  1.00  0.00     0.124 S 
ATOM     99  O   UNL A   1      40.763  37.274  40.875  1.00  0.00    -0.237 OA
ATOM    100  O   UNL A   1      38.646  38.092  39.895  1.00  0.00    -0.237 OA
ATOM    101  O   UNL A   1      38.617  36.239  41.518  1.00  0.00    -0.744 OA
ENDBRANCH  97  98
ENDBRANCH  65  90
ENDBRANCH  39  40
ENDBRANCH  31  34
ENDBRANCH  29  30
ENDBRANCH  28  29
ENDBRANCH   1  28
TORSDOF 18
ENDMDL
MODEL 2
REMARK VINA RESULT:     -11.4      4.164      5.649
REMARK SMILES C[C@]([NH3+])(C(=O)N1[C@@H](C(=O)NCCCCNC(=O)c2ccc(-c3c4nc(c(-c5c(F)cc(S(=O)(=O)[O-])cc5F)c5ccc([nH]5)c(-c5c(F)cc(S(=O)(=O)[O-])cc5F)c5nc(c(-c6c(F)cc(S(=O)(=O)[O-])cc6F)c6ccc3[nH]6)C=C5)C=C4)cc2)C[C@H]2CCCC[C@@H]21)C(F)(F)F
REMARK SMILES IDX 12 1 11 2 10 3 8 4 9 5 7 7 6 8 90 9 84 10 85 11 89 12 86 13
REMARK SMILES IDX 88 14 87 15 4 16 5 17 2 18 1 19 91 20 92 21 93 22 94 23 3 24
REMARK SMILES IDX 13 28 14 29 15 30 16 31 17 33 18 34 19 35 83 36 20 37 82 38
REMARK SMILES IDX 21 39 22 40 23 41 76 42 24 43 81 44 75 45 77 46 25 47 80 48
REMARK SMILES IDX 74 49 73 50 26 52 60 53 39 54 59 55 40 56 43 57 58 58 78 59
REMARK SMILES IDX 41 60 42 61 57 63 79 64 44 65 27 66 28 67 37 68 29 69 30 70
REMARK SMILES IDX 36 71 38 72 31 73 32 74 33 75 34 76 35 77 61 78 62 79 71 80
REMARK SMILES IDX 63 81 64 82 70 83 72 84 65 85 66 86 67 87 68 88 69 89 45 90
REMARK SMILES IDX 46 91 55 92 47 93 48 94 54 95 56 96 49 97 50 98 51 99 52 100
REMARK SMILES IDX 53 101
REMARK H PARENT 10 6 3 25 3 26 3 27 15 32 77 51 43 62
REMARK Flexibility Score: inf
ROOT
ATOM      1  C   UNL A   1      34.621  23.419  24.500  1.00  0.00     0.023 C 
ENDROOT
BRANCH   1   2
ATOM      2  C   UNL A   1      33.778  23.992  23.367  1.00  0.00     0.116 C 
BRANCH   2   3
ATOM      3  N   UNL A   1      34.188  25.334  23.031  1.00  0.00    -0.354 N 
ATOM      4  C   UNL A   1      33.814  26.516  23.596  1.00  0.00     0.242 C 
ATOM      5  O   UNL A   1      34.200  27.544  23.029  1.00  0.00    -0.273 OA
ATOM      6  H   UNL A   1      34.829  25.405  22.288  1.00  0.00     0.163 HD
BRANCH   4   7
ATOM      7  C   UNL A   1      32.926  26.557  24.884  1.00  0.00     0.175 C 
ATOM      8  N   UNL A   1      32.078  27.768  24.939  1.00  0.00    -0.322 N 
ATOM      9  C   UNL A   1      32.890  28.849  25.462  1.00  0.00     0.089 C 
ATOM     10  C   UNL A   1      33.858  26.730  26.118  1.00  0.00     0.041 C 
ATOM     11  C   UNL A   1      33.531  28.131  26.650  1.00  0.00     0.014 C 
ATOM     12  C   UNL A   1      32.221  30.128  25.964  1.00  0.00     0.025 C 
ATOM     13  C   UNL A   1      34.656  28.962  27.239  1.00  0.00     0.006 C 
ATOM     14  C   UNL A   1      33.264  31.026  26.646  1.00  0.00     0.002 C 
ATOM     15  C   UNL A   1      34.079  30.300  27.724  1.00  0.00     0.000 C 
BRANCH   8  16
ATOM     16  C   UNL A   1      30.847  27.981  24.353  1.00  0.00     0.294 C 
ATOM     17  O   UNL A   1      29.834  27.527  24.889  1.00  0.00    -0.267 OA
BRANCH  16  18
ATOM     18  C   UNL A   1      30.807  28.507  22.890  1.00  0.00     0.267 C 
ATOM     19  C   UNL A   1      30.747  27.298  21.939  1.00  0.00     0.100 C 
BRANCH  18  20
ATOM     20  C   UNL A   1      29.494  29.321  22.730  1.00  0.00     0.453 C 
ATOM     21  F   UNL A   1      29.444  30.014  21.572  1.00  0.00    -0.164 F 
ATOM     22  F   UNL A   1      28.441  28.453  22.698  1.00  0.00    -0.164 F 
ATOM     23  F   UNL A   1      29.255  30.167  23.755  1.00  0.00    -0.164 F 
ENDBRANCH  18  20
BRANCH  18  24
ATOM     24  N   UNL A   1      32.041  29.284  22.507  1.00  0.00    -0.337 N 
ATOM     25  H   UNL A   1      32.871  28.775  22.811  1.00  0.00     0.345 HD
ATOM     26  H   UNL A   1      32.020  30.199  22.958  1.00  0.00     0.345 HD
ATOM     27  H   UNL A   1      32.067  29.405  21.495  1.00  0.00     0.345 HD
ENDBRANCH  18  24
ENDBRANCH  16  18
ENDBRANCH   8  16
ENDBRANCH   4   7
ENDBRANCH   2   3
ENDBRANCH   1   2
BRANCH   1  28
ATOM     28  C   UNL A   1      36.074  23.142  24.122  1.00  0.00     0.023 C 
BRANCH  28  29
ATOM     29  C   UNL A   1      37.106  23.664  25.115  1.00  0.00     0.116 C 
BRANCH  29  30
ATOM     30  N   UNL A   1      38.225  22.756  25.335  1.00  0.00    -0.352 N 
ATOM     31  C   UNL A   1      39.377  22.984  26.053  1.00  0.00     0.251 C 
ATOM     32  H   UNL A   1      38.148  21.868  24.916  1.00  0.00     0.163 HD
ATOM     33  O   UNL A   1      40.271  22.149  26.091  1.00  0.00    -0.269 OA
BRANCH  31  34
ATOM     34  C   UNL A   1      39.530  24.282  26.740  1.00  0.00     0.039 A 
ATOM     35  C   UNL A   1      38.989  24.437  28.017  1.00  0.00     0.014 A 
ATOM     36  C   UNL A   1      40.290  25.299  26.157  1.00  0.00     0.014 A 
ATOM     37  C   UNL A   1      39.282  25.590  28.749  1.00  0.00     0.010 A 
ATOM     38  C   UNL A   1      40.642  26.409  26.915  1.00  0.00     0.010 A 
ATOM     39  C   UNL A   1      40.148  26.562  28.220  1.00  0.00    -0.014 A 
BRANCH  39  40
ATOM     40  C   UNL A   1      40.562  27.744  29.017  1.00  0.00     0.031 A 
ATOM     41  C   UNL A   1      41.871  27.725  29.756  1.00  0.00     0.074 A 
ATOM     42  C   UNL A   1      39.727  28.794  29.141  1.00  0.00     0.049 A 
ATOM     43  N   UNL A   1      42.363  28.606  30.588  1.00  0.00    -0.248 NA
ATOM     44  C   UNL A   1      42.725  26.541  29.560  1.00  0.00     0.031 C 
ATOM     45  C   UNL A   1      38.402  28.903  28.524  1.00  0.00     0.029 A 
ATOM     46  N   UNL A   1      39.860  29.966  29.844  1.00  0.00    -0.354 N 
ATOM     47  C   UNL A   1      43.571  28.078  31.026  1.00  0.00     0.074 A 
ATOM     48  C   UNL A   1      43.711  26.775  30.413  1.00  0.00     0.031 C 
ATOM     49  C   UNL A   1      37.853  30.081  28.863  1.00  0.00     0.029 A 
ATOM     50  C   UNL A   1      38.769  30.797  29.745  1.00  0.00     0.049 A 
ATOM     51  H   UNL A   1      40.662  30.190  30.368  1.00  0.00     0.167 HD
ATOM     52  C   UNL A   1      44.493  28.639  31.844  1.00  0.00     0.037 A 
ATOM     53  C   UNL A   1      38.531  31.998  30.308  1.00  0.00     0.037 A 
ATOM     54  C   UNL A   1      44.364  29.948  32.424  1.00  0.00     0.049 A 
ATOM     55  C   UNL A   1      39.584  32.614  31.188  1.00  0.00     0.074 A 
ATOM     56  C   UNL A   1      45.263  30.628  33.227  1.00  0.00     0.029 A 
ATOM     57  N   UNL A   1      43.269  30.784  32.255  1.00  0.00    -0.354 N 
ATOM     58  N   UNL A   1      40.745  32.123  31.550  1.00  0.00    -0.248 NA
ATOM     59  C   UNL A   1      39.302  33.953  31.727  1.00  0.00     0.031 C 
ATOM     60  C   UNL A   1      44.701  31.864  33.564  1.00  0.00     0.029 A 
ATOM     61  C   UNL A   1      43.467  31.969  32.941  1.00  0.00     0.049 A 
ATOM     62  H   UNL A   1      42.469  30.565  31.724  1.00  0.00     0.167 HD
ATOM     63  C   UNL A   1      41.340  33.098  32.342  1.00  0.00     0.074 A 
ATOM     64  C   UNL A   1      40.418  34.215  32.394  1.00  0.00     0.031 C 
ATOM     65  C   UNL A   1      42.541  33.073  32.971  1.00  0.00     0.037 A 
BRANCH  52  66
ATOM     66  C   UNL A   1      45.731  27.839  32.139  1.00  0.00     0.058 A 
ATOM     67  C   UNL A   1      46.921  28.043  31.423  1.00  0.00     0.135 A 
ATOM     68  C   UNL A   1      45.736  26.874  33.159  1.00  0.00     0.135 A 
ATOM     69  F   UNL A   1      46.965  28.941  30.426  1.00  0.00    -0.206 F 
ATOM     70  C   UNL A   1      48.065  27.297  31.685  1.00  0.00     0.059 A 
ATOM     71  C   UNL A   1      46.878  26.134  33.456  1.00  0.00     0.059 A 
ATOM     72  F   UNL A   1      44.624  26.638  33.873  1.00  0.00    -0.206 F 
ATOM     73  C   UNL A   1      48.031  26.341  32.701  1.00  0.00     0.060 A 
BRANCH  73  74
ATOM     74  S   UNL A   1      49.523  25.378  33.029  1.00  0.00     0.124 S 
ATOM     75  O   UNL A   1      49.033  24.410  34.007  1.00  0.00    -0.237 OA
ATOM     76  O   UNL A   1      49.844  24.838  31.711  1.00  0.00    -0.237 OA
ATOM     77  O   UNL A   1      50.462  26.371  33.542  1.00  0.00    -0.744 OA
ENDBRANCH  73  74
ENDBRANCH  52  66
BRANCH  53  78
ATOM     78  C   UNL A   1      37.251  32.704  30.040  1.00  0.00     0.058 A 
ATOM     79  C   UNL A   1      36.097  32.413  30.785  1.00  0.00     0.135 A 
ATOM     80  C   UNL A   1      37.155  33.688  29.045  1.00  0.00     0.135 A 
ATOM     81  F   UNL A   1      36.138  31.477  31.744  1.00  0.00    -0.206 F 
ATOM     82  C   UNL A   1      34.890  33.060  30.540  1.00  0.00     0.059 A 
ATOM     83  C   UNL A   1      35.965  34.363  28.796  1.00  0.00     0.059 A 
ATOM     84  F   UNL A   1      38.236  34.015  28.318  1.00  0.00    -0.206 F 
ATOM     85  C   UNL A   1      34.835  34.034  29.542  1.00  0.00     0.060 A 
BRANCH  85  86
ATOM     86  S   UNL A   1      33.273  34.898  29.259  1.00  0.00     0.124 S 
ATOM     87  O   UNL A   1      33.739  36.194  28.778  1.00  0.00    -0.237 OA
ATOM     88  O   UNL A   1      32.623  34.046  28.268  1.00  0.00    -0.237 OA
ATOM     89  O   UNL A   1      32.649  34.900  30.578  1.00  0.00    -0.744 OA
ENDBRANCH  85  86
ENDBRANCH  53  78
BRANCH  65  90
ATOM     90  C   UNL A   1      42.942  34.297  33.743  1.00  0.00     0.058 A 
ATOM     91  C   UNL A   1      42.698  34.409  35.121  1.00  0.00     0.135 A 
ATOM     92  C   UNL A   1      43.627  35.345  33.108  1.00  0.00     0.135 A 
ATOM     93  F   UNL A   1      42.041  33.436  35.772  1.00  0.00    -0.206 F 
ATOM     94  C   UNL A   1      43.106  35.528  35.839  1.00  0.00     0.059 A 
ATOM     95  C   UNL A   1      44.063  36.462  33.811  1.00  0.00     0.059 A 
ATOM     96  F   UNL A   1      43.893  35.279  31.793  1.00  0.00    -0.206 F 
ATOM     97  C   UNL A   1      43.789  36.549  35.176  1.00  0.00     0.060 A 
BRANCH  97  98
ATOM     98  S   UNL A   1      44.347  37.979  36.126  1.00  0.00     0.124 S 
ATOM     99  O   UNL A   1      43.521  37.876  37.324  1.00  0.00    -0.237 OA
ATOM    100  O   UNL A   1      45.768  37.698  36.311  1.00  0.00    -0.237 OA
ATOM    101  O   UNL A   1      44.047  39.106  35.250  1.00  0.00    -0.744 OA
ENDBRANCH  97  98
ENDBRANCH  65  90
ENDBRANCH  39  40
ENDBRANCH  31  34
ENDBRANCH  29  30
ENDBRANCH  28  29
ENDBRANCH   1  28
TORSDOF 18
ENDMDL
MODEL 3
REMARK VINA RESULT:     -11.4      7.292     12.380
REMARK SMILES C[C@]([NH3+])(C(=O)N1[C@@H](C(=O)NCCCCNC(=O)c2ccc(-c3c4nc(c(-c5c(F)cc(S(=O)(=O)[O-])cc5F)c5ccc([nH]5)c(-c5c(F)cc(S(=O)(=O)[O-])cc5F)c5nc(c(-c6c(F)cc(S(=O)(=O)[O-])cc6F)c6ccc3[nH]6)C=C5)C=C4)cc2)C[C@H]2CCCC[C@@H]21)C(F)(F)F
REMARK SMILES IDX 12 1 11 2 10 3 8 4 9 5 7 7 6 8 90 9 84 10 85 11 89 12 86 13
REMARK SMILES IDX 88 14 87 15 4 16 5 17 2 18 1 19 91 20 92 21 93 22 94 23 3 24
REMARK SMILES IDX 13 28 14 29 15 30 16 31 17 33 18 34 19 35 83 36 20 37 82 38
REMARK SMILES IDX 21 39 22 40 23 41 76 42 24 43 81 44 75 45 77 46 25 47 80 48
REMARK SMILES IDX 74 49 73 50 26 52 60 53 39 54 59 55 40 56 43 57 58 58 78 59
REMARK SMILES IDX 41 60 42 61 57 63 79 64 44 65 27 66 28 67 37 68 29 69 30 70
REMARK SMILES IDX 36 71 38 72 31 73 32 74 33 75 34 76 35 77 61 78 62 79 71 80
REMARK SMILES IDX 63 81 64 82 70 83 72 84 65 85 66 86 67 87 68 88 69 89 45 90
REMARK SMILES IDX 46 91 55 92 47 93 48 94 54 95 56 96 49 97 50 98 51 99 52 100
REMARK SMILES IDX 53 101
REMARK H PARENT 10 6 3 25 3 26 3 27 15 32 77 51 43 62
REMARK Flexibility Score: inf
ROOT
ATOM      1  C   UNL A   1      33.949  31.118  27.561  1.00  0.00     0.023 C 
ENDROOT
BRANCH   1   2
ATOM      2  C   UNL A   1      32.470  31.030  27.202  1.00  0.00     0.116 C 
BRANCH   2   3
ATOM      3  N   UNL A   1      32.016  29.661  27.167  1.00  0.00    -0.354 N 
ATOM      4  C   UNL A   1      31.628  28.909  26.099  1.00  0.00     0.242 C 
ATOM      5  O   UNL A   1      31.143  27.802  26.352  1.00  0.00    -0.273 OA
ATOM      6  H   UNL A   1      31.981  29.206  28.039  1.00  0.00     0.163 HD
BRANCH   4   7
ATOM      7  C   UNL A   1      31.778  29.440  24.634  1.00  0.00     0.175 C 
ATOM      8  N   UNL A   1      30.837  28.778  23.703  1.00  0.00    -0.322 N 
ATOM      9  C   UNL A   1      31.427  27.514  23.307  1.00  0.00     0.089 C 
ATOM     10  C   UNL A   1      33.168  29.001  24.091  1.00  0.00     0.041 C 
ATOM     11  C   UNL A   1      32.845  27.988  22.987  1.00  0.00     0.014 C 
ATOM     12  C   UNL A   1      30.875  26.764  22.096  1.00  0.00     0.025 C 
ATOM     13  C   UNL A   1      33.777  26.805  22.794  1.00  0.00     0.006 C 
ATOM     14  C   UNL A   1      31.784  25.572  21.765  1.00  0.00     0.002 C 
ATOM     15  C   UNL A   1      33.262  25.958  21.621  1.00  0.00     0.000 C 
BRANCH   8  16
ATOM     16  C   UNL A   1      29.519  29.095  23.447  1.00  0.00     0.294 C 
ATOM     17  O   UNL A   1      28.627  28.333  23.825  1.00  0.00    -0.267 OA
BRANCH  16  18
ATOM     18  C   UNL A   1      29.217  30.229  22.426  1.00  0.00     0.267 C 
ATOM     19  C   UNL A   1      27.960  29.842  21.626  1.00  0.00     0.100 C 
BRANCH  18  20
ATOM     20  C   UNL A   1      28.902  31.512  23.244  1.00  0.00     0.453 C 
ATOM     21  F   UNL A   1      29.206  32.646  22.579  1.00  0.00    -0.164 F 
ATOM     22  F   UNL A   1      27.558  31.561  23.482  1.00  0.00    -0.164 F 
ATOM     23  F   UNL A   1      29.500  31.542  24.454  1.00  0.00    -0.164 F 
ENDBRANCH  18  20
BRANCH  18  24
ATOM     24  N   UNL A   1      30.319  30.423  21.415  1.00  0.00    -0.337 N 
ATOM     25  H   UNL A   1      31.075  29.766  21.607  1.00  0.00     0.345 HD
ATOM     26  H   UNL A   1      30.674  31.377  21.478  1.00  0.00     0.345 HD
ATOM     27  H   UNL A   1      29.953  30.257  20.478  1.00  0.00     0.345 HD
ENDBRANCH  18  24
ENDBRANCH  16  18
ENDBRANCH   8  16
ENDBRANCH   4   7
ENDBRANCH   2   3
ENDBRANCH   1   2
BRANCH   1  28
ATOM     28  C   UNL A   1      34.675  29.774  27.559  1.00  0.00     0.023 C 
BRANCH  28  29
ATOM     29  C   UNL A   1      35.977  29.747  28.353  1.00  0.00     0.116 C 
BRANCH  29  30
ATOM     30  N   UNL A   1      35.789  29.828  29.796  1.00  0.00    -0.352 N 
ATOM     31  C   UNL A   1      36.752  29.842  30.779  1.00  0.00     0.251 C 
ATOM     32  H   UNL A   1      34.855  29.880  30.107  1.00  0.00     0.163 HD
ATOM     33  O   UNL A   1      36.442  29.840  31.963  1.00  0.00    -0.269 OA
BRANCH  31  34
ATOM     34  C   UNL A   1      38.170  29.812  30.373  1.00  0.00     0.039 A 
ATOM     35  C   UNL A   1      39.107  29.234  31.232  1.00  0.00     0.014 A 
ATOM     36  C   UNL A   1      38.548  30.267  29.106  1.00  0.00     0.014 A 
ATOM     37  C   UNL A   1      40.414  29.034  30.784  1.00  0.00     0.010 A 
ATOM     38  C   UNL A   1      39.827  29.998  28.637  1.00  0.00     0.010 A 
ATOM     39  C   UNL A   1      40.771  29.374  29.468  1.00  0.00    -0.014 A 
BRANCH  39  40
ATOM     40  C   UNL A   1      42.122  29.074  28.932  1.00  0.00     0.031 A 
ATOM     41  C   UNL A   1      42.436  27.695  28.425  1.00  0.00     0.074 A 
ATOM     42  C   UNL A   1      43.085  30.016  28.979  1.00  0.00     0.049 A 
ATOM     43  N   UNL A   1      43.578  27.203  28.019  1.00  0.00    -0.248 NA
ATOM     44  C   UNL A   1      41.325  26.728  28.404  1.00  0.00     0.031 C 
ATOM     45  C   UNL A   1      42.920  31.373  29.508  1.00  0.00     0.029 A 
ATOM     46  N   UNL A   1      44.401  29.972  28.591  1.00  0.00    -0.354 N 
ATOM     47  C   UNL A   1      43.328  25.872  27.711  1.00  0.00     0.074 A 
ATOM     48  C   UNL A   1      41.940  25.616  28.031  1.00  0.00     0.031 C 
ATOM     49  C   UNL A   1      44.085  32.034  29.396  1.00  0.00     0.029 A 
ATOM     50  C   UNL A   1      45.085  31.142  28.821  1.00  0.00     0.049 A 
ATOM     51  H   UNL A   1      44.815  29.176  28.186  1.00  0.00     0.167 HD
ATOM     52  C   UNL A   1      44.170  24.952  27.185  1.00  0.00     0.037 A 
ATOM     53  C   UNL A   1      46.377  31.458  28.599  1.00  0.00     0.037 A 
ATOM     54  C   UNL A   1      45.540  25.221  26.837  1.00  0.00     0.049 A 
ATOM     55  C   UNL A   1      47.285  30.429  27.983  1.00  0.00     0.074 A 
ATOM     56  C   UNL A   1      46.464  24.372  26.254  1.00  0.00     0.029 A 
ATOM     57  N   UNL A   1      46.182  26.436  27.033  1.00  0.00    -0.354 N 
ATOM     58  N   UNL A   1      47.018  29.189  27.650  1.00  0.00    -0.248 NA
ATOM     59  C   UNL A   1      48.668  30.844  27.703  1.00  0.00     0.031 C 
ATOM     60  C   UNL A   1      47.672  25.065  26.119  1.00  0.00     0.029 A 
ATOM     61  C   UNL A   1      47.489  26.358  26.586  1.00  0.00     0.049 A 
ATOM     62  H   UNL A   1      45.767  27.235  27.431  1.00  0.00     0.167 HD
ATOM     63  C   UNL A   1      48.191  28.681  27.103  1.00  0.00     0.074 A 
ATOM     64  C   UNL A   1      49.166  29.753  27.136  1.00  0.00     0.031 C 
ATOM     65  C   UNL A   1      48.441  27.440  26.618  1.00  0.00     0.037 A 
BRANCH  52  66
ATOM     66  C   UNL A   1      43.622  23.576  26.936  1.00  0.00     0.058 A 
ATOM     67  C   UNL A   1      43.395  22.678  27.991  1.00  0.00     0.135 A 
ATOM     68  C   UNL A   1      43.301  23.153  25.636  1.00  0.00     0.135 A 
ATOM     69  F   UNL A   1      43.701  23.024  29.252  1.00  0.00    -0.206 F 
ATOM     70  C   UNL A   1      42.900  21.398  27.765  1.00  0.00     0.059 A 
ATOM     71  C   UNL A   1      42.779  21.886  25.389  1.00  0.00     0.059 A 
ATOM     72  F   UNL A   1      43.500  23.972  24.591  1.00  0.00    -0.206 F 
ATOM     73  C   UNL A   1      42.599  21.011  26.459  1.00  0.00     0.060 A 
BRANCH  73  74
ATOM     74  S   UNL A   1      41.957  19.347  26.179  1.00  0.00     0.124 S 
ATOM     75  O   UNL A   1      42.728  18.932  25.010  1.00  0.00    -0.237 OA
ATOM     76  O   UNL A   1      42.290  18.668  27.428  1.00  0.00    -0.237 OA
ATOM     77  O   UNL A   1      40.533  19.565  25.949  1.00  0.00    -0.744 OA
ENDBRANCH  73  74
ENDBRANCH  52  66
BRANCH  53  78
ATOM     78  C   UNL A   1      46.880  32.814  28.940  1.00  0.00     0.058 A 
ATOM     79  C   UNL A   1      47.407  33.088  30.212  1.00  0.00     0.135 A 
ATOM     80  C   UNL A   1      46.853  33.859  28.005  1.00  0.00     0.135 A 
ATOM     81  F   UNL A   1      47.449  32.122  31.142  1.00  0.00    -0.206 F 
ATOM     82  C   UNL A   1      47.874  34.354  30.549  1.00  0.00     0.059 A 
ATOM     83  C   UNL A   1      47.334  35.127  28.312  1.00  0.00     0.059 A 
ATOM     84  F   UNL A   1      46.375  33.642  26.769  1.00  0.00    -0.206 F 
ATOM     85  C   UNL A   1      47.832  35.368  29.591  1.00  0.00     0.060 A 
BRANCH  85  86
ATOM     86  S   UNL A   1      48.480  36.999  30.024  1.00  0.00     0.124 S 
ATOM     87  O   UNL A   1      49.631  36.647  30.847  1.00  0.00    -0.237 OA
ATOM     88  O   UNL A   1      48.781  37.569  28.715  1.00  0.00    -0.237 OA
ATOM     89  O   UNL A   1      47.365  37.623  30.729  1.00  0.00    -0.744 OA
ENDBRANCH  85  86
ENDBRANCH  53  78
BRANCH  65  90
ATOM     90  C   UNL A   1      49.808  27.181  26.055  1.00  0.00     0.058 A 
ATOM     91  C   UNL A   1      50.888  26.830  26.880  1.00  0.00     0.135 A 
ATOM     92  C   UNL A   1      50.028  27.230  24.669  1.00  0.00     0.135 A 
ATOM     93  F   UNL A   1      50.729  26.775  28.212  1.00  0.00    -0.206 F 
ATOM     94  C   UNL A   1      52.144  26.553  26.351  1.00  0.00     0.059 A 
ATOM     95  C   UNL A   1      51.269  26.935  24.117  1.00  0.00     0.059 A 
ATOM     96  F   UNL A   1      49.024  27.552  23.838  1.00  0.00    -0.206 F 
ATOM     97  C   UNL A   1      52.325  26.607  24.967  1.00  0.00     0.060 A 
BRANCH  97  98
ATOM     98  S   UNL A   1      53.949  26.208  24.289  1.00  0.00     0.124 S 
ATOM     99  O   UNL A   1      53.741  26.451  22.866  1.00  0.00    -0.237 OA
ATOM    100  O   UNL A   1      54.819  27.159  24.975  1.00  0.00    -0.237 OA
ATOM    101  O   UNL A   1      54.139  24.810  24.666  1.00  0.00    -0.744 OA
ENDBRANCH  97  98
ENDBRANCH  65  90
ENDBRANCH  39  40
ENDBRANCH  31  34
ENDBRANCH  29  30
ENDBRANCH  28  29
ENDBRANCH   1  28
TORSDOF 18
ENDMDL
