MODEL 1
REMARK VINA RESULT:     -10.9      0.000      0.000
REMARK SMILES [NH3+][C@]1(C(=O)NCCCCNC(=O)c2ccc(-c3c4nc(c(-c5c(F)cc(S(=O)(=O)[O-])cc5F)c5ccc([nH]5)c(-c5c(F)cc(S(=O)(=O)[O-])cc5F)c5nc(c(-c6c(F)cc(S(=O)(=O)[O-])cc6F)c6ccc3[nH]6)C=C5)C=C4)cc2)CCC[C@@H](OC2CCC2)C1
REMARK SMILES IDX 8 1 7 2 6 3 5 4 3 5 4 6 2 8 79 9 88 10 80 11 82 12 81 13
REMARK SMILES IDX 1 14 83 18 84 19 85 20 87 21 86 22 9 23 10 24 11 25 12 27
REMARK SMILES IDX 13 28 14 29 78 30 15 31 77 32 16 33 17 34 18 35 71 36 19 37
REMARK SMILES IDX 76 38 70 39 72 40 20 41 75 42 69 43 68 44 21 46 55 47 34 48
REMARK SMILES IDX 54 49 35 50 38 51 53 52 73 53 36 54 37 55 52 57 74 58 39 59
REMARK SMILES IDX 22 60 23 61 32 62 24 63 25 64 31 65 33 66 26 67 27 68 28 69
REMARK SMILES IDX 29 70 30 71 56 72 57 73 66 74 58 75 59 76 65 77 67 78 60 79
REMARK SMILES IDX 61 80 62 81 63 82 64 83 40 84 41 85 50 86 42 87 43 88 49 89
REMARK SMILES IDX 51 90 44 91 45 92 46 93 47 94 48 95
REMARK H PARENT 5 7 1 15 1 16 1 17 10 26 72 45 38 56
REMARK Flexibility Score: inf
ROOT
ATOM      1  C   UNL A   1      32.727  28.275  25.914  1.00  0.00     0.023 C 
ENDROOT
BRANCH   1   2
ATOM      2  C   UNL A   1      33.339  27.426  24.796  1.00  0.00     0.023 C 
BRANCH   2   3
ATOM      3  C   UNL A   1      32.701  26.062  24.535  1.00  0.00     0.116 C 
BRANCH   3   4
ATOM      4  N   UNL A   1      33.130  25.439  23.307  1.00  0.00    -0.351 N 
ATOM      5  C   UNL A   1      32.827  24.264  22.694  1.00  0.00     0.281 C 
ATOM      6  O   UNL A   1      33.228  24.197  21.523  1.00  0.00    -0.268 OA
ATOM      7  H   UNL A   1      33.781  25.982  22.806  1.00  0.00     0.163 HD
BRANCH   5   8
ATOM      8  C   UNL A   1      31.930  23.111  23.329  1.00  0.00     0.176 C 
ATOM      9  C   UNL A   1      32.181  21.817  22.484  1.00  0.00     0.079 C 
ATOM     10  C   UNL A   1      32.139  22.802  24.836  1.00  0.00     0.111 C 
ATOM     11  C   UNL A   1      32.339  20.509  23.263  1.00  0.00     0.010 C 
ATOM     12  C   UNL A   1      33.423  21.998  25.058  1.00  0.00     0.125 C 
ATOM     13  C   UNL A   1      33.219  20.585  24.515  1.00  0.00     0.032 C 
BRANCH   8  14
ATOM     14  N   UNL A   1      30.515  23.529  23.138  1.00  0.00    -0.345 N 
ATOM     15  H   UNL A   1      30.284  24.262  23.809  1.00  0.00     0.345 HD
ATOM     16  H   UNL A   1      29.901  22.728  23.286  1.00  0.00     0.345 HD
ATOM     17  H   UNL A   1      30.390  23.883  22.190  1.00  0.00     0.345 HD
ENDBRANCH   8  14
BRANCH  12  18
ATOM     18  O   UNL A   1      34.401  22.788  24.412  1.00  0.00    -0.375 OA
BRANCH  18  19
ATOM     19  C   UNL A   1      35.755  22.952  24.852  1.00  0.00     0.118 C 
ATOM     20  C   UNL A   1      36.358  21.892  25.800  1.00  0.00     0.032 C 
ATOM     21  C   UNL A   1      36.745  22.453  23.764  1.00  0.00     0.032 C 
ATOM     22  C   UNL A   1      36.996  21.193  24.598  1.00  0.00     0.005 C 
ENDBRANCH  18  19
ENDBRANCH  12  18
ENDBRANCH   5   8
ENDBRANCH   3   4
ENDBRANCH   2   3
ENDBRANCH   1   2
BRANCH   1  23
ATOM     23  C   UNL A   1      33.583  28.507  27.154  1.00  0.00     0.116 C 
BRANCH  23  24
ATOM     24  N   UNL A   1      33.513  29.865  27.670  1.00  0.00    -0.352 N 
ATOM     25  C   UNL A   1      34.474  30.633  28.281  1.00  0.00     0.251 C 
ATOM     26  H   UNL A   1      32.638  30.303  27.563  1.00  0.00     0.163 HD
ATOM     27  O   UNL A   1      34.171  31.750  28.696  1.00  0.00    -0.269 OA
BRANCH  25  28
ATOM     28  C   UNL A   1      35.847  30.116  28.488  1.00  0.00     0.039 A 
ATOM     29  C   UNL A   1      36.728  30.116  27.402  1.00  0.00     0.014 A 
ATOM     30  C   UNL A   1      36.275  29.635  29.728  1.00  0.00     0.014 A 
ATOM     31  C   UNL A   1      38.054  29.714  27.577  1.00  0.00     0.010 A 
ATOM     32  C   UNL A   1      37.616  29.305  29.920  1.00  0.00     0.010 A 
ATOM     33  C   UNL A   1      38.522  29.345  28.849  1.00  0.00    -0.014 A 
BRANCH  33  34
ATOM     34  C   UNL A   1      39.953  29.015  29.080  1.00  0.00     0.031 A 
ATOM     35  C   UNL A   1      40.896  30.059  29.611  1.00  0.00     0.074 A 
ATOM     36  C   UNL A   1      40.416  27.794  28.745  1.00  0.00     0.049 A 
ATOM     37  N   UNL A   1      42.189  29.986  29.797  1.00  0.00    -0.248 NA
ATOM     38  C   UNL A   1      40.314  31.366  29.954  1.00  0.00     0.031 C 
ATOM     39  C   UNL A   1      39.612  26.709  28.177  1.00  0.00     0.029 A 
ATOM     40  N   UNL A   1      41.681  27.263  28.819  1.00  0.00    -0.354 N 
ATOM     41  C   UNL A   1      42.578  31.237  30.261  1.00  0.00     0.074 A 
ATOM     42  C   UNL A   1      41.392  32.065  30.283  1.00  0.00     0.031 C 
ATOM     43  C   UNL A   1      40.397  25.639  27.971  1.00  0.00     0.029 A 
ATOM     44  C   UNL A   1      41.766  25.971  28.355  1.00  0.00     0.049 A 
ATOM     45  H   UNL A   1      42.454  27.761  29.171  1.00  0.00     0.167 HD
ATOM     46  C   UNL A   1      43.807  31.652  30.652  1.00  0.00     0.037 A 
ATOM     47  C   UNL A   1      42.827  25.148  28.239  1.00  0.00     0.037 A 
ATOM     48  C   UNL A   1      44.979  30.816  30.655  1.00  0.00     0.049 A 
ATOM     49  C   UNL A   1      44.182  25.631  28.682  1.00  0.00     0.074 A 
ATOM     50  C   UNL A   1      46.256  31.126  31.089  1.00  0.00     0.029 A 
ATOM     51  N   UNL A   1      45.019  29.506  30.200  1.00  0.00    -0.354 N 
ATOM     52  N   UNL A   1      44.518  26.799  29.175  1.00  0.00    -0.248 NA
ATOM     53  C   UNL A   1      45.299  24.685  28.559  1.00  0.00     0.031 C 
ATOM     54  C   UNL A   1      47.077  30.017  30.861  1.00  0.00     0.029 A 
ATOM     55  C   UNL A   1      46.302  29.000  30.326  1.00  0.00     0.049 A 
ATOM     56  H   UNL A   1      44.249  29.009  29.840  1.00  0.00     0.167 HD
ATOM     57  C   UNL A   1      45.881  26.721  29.444  1.00  0.00     0.074 A 
ATOM     58  C   UNL A   1      46.303  25.386  29.069  1.00  0.00     0.031 C 
ATOM     59  C   UNL A   1      46.706  27.666  29.956  1.00  0.00     0.037 A 
BRANCH  46  60
ATOM     60  C   UNL A   1      43.945  33.076  31.118  1.00  0.00     0.058 A 
ATOM     61  C   UNL A   1      43.755  33.431  32.463  1.00  0.00     0.135 A 
ATOM     62  C   UNL A   1      44.303  34.092  30.217  1.00  0.00     0.135 A 
ATOM     63  F   UNL A   1      43.396  32.503  33.364  1.00  0.00    -0.206 F 
ATOM     64  C   UNL A   1      43.883  34.749  32.893  1.00  0.00     0.059 A 
ATOM     65  C   UNL A   1      44.465  35.412  30.631  1.00  0.00     0.059 A 
ATOM     66  F   UNL A   1      44.499  33.807  28.920  1.00  0.00    -0.206 F 
ATOM     67  C   UNL A   1      44.237  35.732  31.968  1.00  0.00     0.060 A 
BRANCH  67  68
ATOM     68  S   UNL A   1      44.402  37.436  32.543  1.00  0.00     0.124 S 
ATOM     69  O   UNL A   1      43.506  37.441  33.695  1.00  0.00    -0.237 OA
ATOM     70  O   UNL A   1      45.826  37.528  32.848  1.00  0.00    -0.237 OA
ATOM     71  O   UNL A   1      43.957  38.225  31.398  1.00  0.00    -0.744 OA
ENDBRANCH  67  68
ENDBRANCH  46  60
BRANCH  47  72
ATOM     72  C   UNL A   1      42.648  23.775  27.698  1.00  0.00     0.058 A 
ATOM     73  C   UNL A   1      42.475  22.680  28.557  1.00  0.00     0.135 A 
ATOM     74  C   UNL A   1      42.629  23.532  26.316  1.00  0.00     0.135 A 
ATOM     75  F   UNL A   1      42.492  22.861  29.886  1.00  0.00    -0.206 F 
ATOM     76  C   UNL A   1      42.306  21.389  28.067  1.00  0.00     0.059 A 
ATOM     77  C   UNL A   1      42.436  22.253  25.801  1.00  0.00     0.059 A 
ATOM     78  F   UNL A   1      42.773  24.548  25.452  1.00  0.00    -0.206 F 
ATOM     79  C   UNL A   1      42.285  21.186  26.687  1.00  0.00     0.060 A 
BRANCH  79  80
ATOM     80  S   UNL A   1      42.012  19.514  26.060  1.00  0.00     0.124 S 
ATOM     81  O   UNL A   1      42.451  18.702  27.190  1.00  0.00    -0.237 OA
ATOM     82  O   UNL A   1      40.578  19.516  25.793  1.00  0.00    -0.237 OA
ATOM     83  O   UNL A   1      42.862  19.458  24.874  1.00  0.00    -0.744 OA
ENDBRANCH  79  80
ENDBRANCH  47  72
BRANCH  59  84
ATOM     84  C   UNL A   1      48.144  27.287  30.173  1.00  0.00     0.058 A 
ATOM     85  C   UNL A   1      49.136  27.584  29.226  1.00  0.00     0.135 A 
ATOM     86  C   UNL A   1      48.543  26.670  31.371  1.00  0.00     0.135 A 
ATOM     87  F   UNL A   1      48.807  28.166  28.062  1.00  0.00    -0.206 F 
ATOM     88  C   UNL A   1      50.472  27.266  29.450  1.00  0.00     0.059 A 
ATOM     89  C   UNL A   1      49.876  26.367  31.626  1.00  0.00     0.059 A 
ATOM     90  F   UNL A   1      47.634  26.373  32.312  1.00  0.00    -0.206 F 
ATOM     91  C   UNL A   1      50.832  26.660  30.655  1.00  0.00     0.060 A 
BRANCH  91  92
ATOM     92  S   UNL A   1      52.575  26.290  30.951  1.00  0.00     0.124 S 
ATOM     93  O   UNL A   1      52.485  25.079  31.760  1.00  0.00    -0.237 OA
ATOM     94  O   UNL A   1      53.092  26.113  29.598  1.00  0.00    -0.237 OA
ATOM     95  O   UNL A   1      53.060  27.477  31.651  1.00  0.00    -0.744 OA
ENDBRANCH  91  92
ENDBRANCH  59  84
ENDBRANCH  33  34
ENDBRANCH  25  28
ENDBRANCH  23  24
ENDBRANCH   1  23
TORSDOF 17
ENDMDL
MODEL 2
REMARK VINA RESULT:     -10.8      1.001      2.272
REMARK SMILES [NH3+][C@]1(C(=O)NCCCCNC(=O)c2ccc(-c3c4nc(c(-c5c(F)cc(S(=O)(=O)[O-])cc5F)c5ccc([nH]5)c(-c5c(F)cc(S(=O)(=O)[O-])cc5F)c5nc(c(-c6c(F)cc(S(=O)(=O)[O-])cc6F)c6ccc3[nH]6)C=C5)C=C4)cc2)CCC[C@@H](OC2CCC2)C1
REMARK SMILES IDX 8 1 7 2 6 3 5 4 3 5 4 6 2 8 79 9 88 10 80 11 82 12 81 13
REMARK SMILES IDX 1 14 83 18 84 19 85 20 87 21 86 22 9 23 10 24 11 25 12 27
REMARK SMILES IDX 13 28 14 29 78 30 15 31 77 32 16 33 17 34 18 35 71 36 19 37
REMARK SMILES IDX 76 38 70 39 72 40 20 41 75 42 69 43 68 44 21 46 55 47 34 48
REMARK SMILES IDX 54 49 35 50 38 51 53 52 73 53 36 54 37 55 52 57 74 58 39 59
REMARK SMILES IDX 22 60 23 61 32 62 24 63 25 64 31 65 33 66 26 67 27 68 28 69
REMARK SMILES IDX 29 70 30 71 56 72 57 73 66 74 58 75 59 76 65 77 67 78 60 79
REMARK SMILES IDX 61 80 62 81 63 82 64 83 40 84 41 85 50 86 42 87 43 88 49 89
REMARK SMILES IDX 51 90 44 91 45 92 46 93 47 94 48 95
REMARK H PARENT 5 7 1 15 1 16 1 17 10 26 72 45 38 56
REMARK Flexibility Score: inf
ROOT
ATOM      1  C   UNL A   1      32.789  28.144  25.811  1.00  0.00     0.023 C 
ENDROOT
BRANCH   1   2
ATOM      2  C   UNL A   1      31.379  27.552  25.883  1.00  0.00     0.023 C 
BRANCH   2   3
ATOM      3  C   UNL A   1      31.260  26.102  26.352  1.00  0.00     0.116 C 
BRANCH   3   4
ATOM      4  N   UNL A   1      30.914  25.173  25.305  1.00  0.00    -0.351 N 
ATOM      5  C   UNL A   1      31.401  23.961  24.924  1.00  0.00     0.281 C 
ATOM      6  O   UNL A   1      30.674  23.366  24.116  1.00  0.00    -0.268 OA
ATOM      7  H   UNL A   1      30.165  25.483  24.745  1.00  0.00     0.163 HD
BRANCH   5   8
ATOM      8  C   UNL A   1      32.701  23.272  25.534  1.00  0.00     0.176 C 
ATOM      9  C   UNL A   1      33.243  22.280  24.449  1.00  0.00     0.079 C 
ATOM     10  C   UNL A   1      33.845  24.211  26.004  1.00  0.00     0.111 C 
ATOM     11  C   UNL A   1      34.759  22.256  24.239  1.00  0.00     0.010 C 
ATOM     12  C   UNL A   1      34.630  24.760  24.809  1.00  0.00     0.125 C 
ATOM     13  C   UNL A   1      35.445  23.625  24.192  1.00  0.00     0.032 C 
BRANCH   8  14
ATOM     14  N   UNL A   1      32.245  22.480  26.707  1.00  0.00    -0.345 N 
ATOM     15  H   UNL A   1      31.497  21.849  26.420  1.00  0.00     0.345 HD
ATOM     16  H   UNL A   1      31.898  23.112  27.429  1.00  0.00     0.345 HD
ATOM     17  H   UNL A   1      33.026  21.938  27.076  1.00  0.00     0.345 HD
ENDBRANCH   8  14
BRANCH  12  18
ATOM     18  O   UNL A   1      33.616  25.321  24.001  1.00  0.00    -0.375 OA
BRANCH  18  19
ATOM     19  C   UNL A   1      33.743  25.627  22.607  1.00  0.00     0.118 C 
ATOM     20  C   UNL A   1      32.891  24.832  21.594  1.00  0.00     0.032 C 
ATOM     21  C   UNL A   1      32.895  26.878  22.245  1.00  0.00     0.032 C 
ATOM     22  C   UNL A   1      31.858  25.961  21.590  1.00  0.00     0.005 C 
ENDBRANCH  18  19
ENDBRANCH  12  18
ENDBRANCH   5   8
ENDBRANCH   3   4
ENDBRANCH   2   3
ENDBRANCH   1   2
BRANCH   1  23
ATOM     23  C   UNL A   1      33.502  28.395  27.135  1.00  0.00     0.116 C 
BRANCH  23  24
ATOM     24  N   UNL A   1      33.449  29.780  27.576  1.00  0.00    -0.352 N 
ATOM     25  C   UNL A   1      34.421  30.569  28.141  1.00  0.00     0.251 C 
ATOM     26  H   UNL A   1      32.578  30.221  27.449  1.00  0.00     0.163 HD
ATOM     27  O   UNL A   1      34.132  31.711  28.496  1.00  0.00    -0.269 OA
BRANCH  25  28
ATOM     28  C   UNL A   1      35.789  30.049  28.371  1.00  0.00     0.039 A 
ATOM     29  C   UNL A   1      36.706  30.103  27.317  1.00  0.00     0.014 A 
ATOM     30  C   UNL A   1      36.177  29.514  29.602  1.00  0.00     0.014 A 
ATOM     31  C   UNL A   1      38.028  29.698  27.519  1.00  0.00     0.010 A 
ATOM     32  C   UNL A   1      37.512  29.181  29.825  1.00  0.00     0.010 A 
ATOM     33  C   UNL A   1      38.454  29.274  28.788  1.00  0.00    -0.014 A 
BRANCH  33  34
ATOM     34  C   UNL A   1      39.878  28.940  29.054  1.00  0.00     0.031 A 
ATOM     35  C   UNL A   1      40.811  29.980  29.610  1.00  0.00     0.074 A 
ATOM     36  C   UNL A   1      40.347  27.718  28.726  1.00  0.00     0.049 A 
ATOM     37  N   UNL A   1      42.099  29.904  29.827  1.00  0.00    -0.248 NA
ATOM     38  C   UNL A   1      40.224  31.288  29.943  1.00  0.00     0.031 C 
ATOM     39  C   UNL A   1      39.554  26.638  28.135  1.00  0.00     0.029 A 
ATOM     40  N   UNL A   1      41.608  27.185  28.828  1.00  0.00    -0.354 N 
ATOM     41  C   UNL A   1      42.479  31.152  30.304  1.00  0.00     0.074 A 
ATOM     42  C   UNL A   1      41.295  31.983  30.300  1.00  0.00     0.031 C 
ATOM     43  C   UNL A   1      40.341  25.567  27.945  1.00  0.00     0.029 A 
ATOM     44  C   UNL A   1      41.702  25.894  28.362  1.00  0.00     0.049 A 
ATOM     45  H   UNL A   1      42.373  27.679  29.201  1.00  0.00     0.167 HD
ATOM     46  C   UNL A   1      43.699  31.563  30.726  1.00  0.00     0.037 A 
ATOM     47  C   UNL A   1      42.763  25.069  28.270  1.00  0.00     0.037 A 
ATOM     48  C   UNL A   1      44.869  30.724  30.754  1.00  0.00     0.049 A 
ATOM     49  C   UNL A   1      44.108  25.547  28.748  1.00  0.00     0.074 A 
ATOM     50  C   UNL A   1      46.136  31.029  31.220  1.00  0.00     0.029 A 
ATOM     51  N   UNL A   1      44.917  29.415  30.297  1.00  0.00    -0.354 N 
ATOM     52  N   UNL A   1      44.435  26.713  29.252  1.00  0.00    -0.248 NA
ATOM     53  C   UNL A   1      45.226  24.599  28.649  1.00  0.00     0.031 C 
ATOM     54  C   UNL A   1      46.960  29.919  31.009  1.00  0.00     0.029 A 
ATOM     55  C   UNL A   1      46.196  28.906  30.452  1.00  0.00     0.049 A 
ATOM     56  H   UNL A   1      44.155  28.922  29.916  1.00  0.00     0.167 HD
ATOM     57  C   UNL A   1      45.790  26.630  29.553  1.00  0.00     0.074 A 
ATOM     58  C   UNL A   1      46.219  25.296  29.184  1.00  0.00     0.031 C 
ATOM     59  C   UNL A   1      46.605  27.572  30.088  1.00  0.00     0.037 A 
BRANCH  46  60
ATOM     60  C   UNL A   1      43.829  32.985  31.200  1.00  0.00     0.058 A 
ATOM     61  C   UNL A   1      44.144  34.029  30.316  1.00  0.00     0.135 A 
ATOM     62  C   UNL A   1      43.606  33.314  32.547  1.00  0.00     0.135 A 
ATOM     63  F   UNL A   1      44.383  33.770  29.021  1.00  0.00    -0.206 F 
ATOM     64  C   UNL A   1      44.264  35.344  30.756  1.00  0.00     0.059 A 
ATOM     65  C   UNL A   1      43.692  34.626  33.004  1.00  0.00     0.059 A 
ATOM     66  F   UNL A   1      43.300  32.354  33.435  1.00  0.00    -0.206 F 
ATOM     67  C   UNL A   1      44.037  35.632  32.102  1.00  0.00     0.060 A 
BRANCH  67  68
ATOM     68  S   UNL A   1      44.194  37.343  32.656  1.00  0.00     0.124 S 
ATOM     69  O   UNL A   1      45.552  37.351  33.193  1.00  0.00    -0.237 OA
ATOM     70  O   UNL A   1      44.000  38.092  31.418  1.00  0.00    -0.237 OA
ATOM     71  O   UNL A   1      43.127  37.480  33.643  1.00  0.00    -0.744 OA
ENDBRANCH  67  68
ENDBRANCH  46  60
BRANCH  47  72
ATOM     72  C   UNL A   1      42.594  23.698  27.721  1.00  0.00     0.058 A 
ATOM     73  C   UNL A   1      42.620  23.469  26.337  1.00  0.00     0.135 A 
ATOM     74  C   UNL A   1      42.419  22.590  28.563  1.00  0.00     0.135 A 
ATOM     75  F   UNL A   1      42.777  24.498  25.490  1.00  0.00    -0.206 F 
ATOM     76  C   UNL A   1      42.463  22.193  25.806  1.00  0.00     0.059 A 
ATOM     77  C   UNL A   1      42.285  21.300  28.057  1.00  0.00     0.059 A 
ATOM     78  F   UNL A   1      42.403  22.753  29.895  1.00  0.00    -0.206 F 
ATOM     79  C   UNL A   1      42.299  21.113  26.675  1.00  0.00     0.060 A 
BRANCH  79  80
ATOM     80  S   UNL A   1      42.149  19.454  25.979  1.00  0.00     0.124 S 
ATOM     81  O   UNL A   1      40.710  19.358  25.756  1.00  0.00    -0.237 OA
ATOM     82  O   UNL A   1      42.976  19.548  24.780  1.00  0.00    -0.237 OA
ATOM     83  O   UNL A   1      42.683  18.598  27.034  1.00  0.00    -0.744 OA
ENDBRANCH  79  80
ENDBRANCH  47  72
BRANCH  59  84
ATOM     84  C   UNL A   1      48.037  27.189  30.339  1.00  0.00     0.058 A 
ATOM     85  C   UNL A   1      49.047  27.458  29.402  1.00  0.00     0.135 A 
ATOM     86  C   UNL A   1      48.411  26.597  31.557  1.00  0.00     0.135 A 
ATOM     87  F   UNL A   1      48.742  28.016  28.220  1.00  0.00    -0.206 F 
ATOM     88  C   UNL A   1      50.377  27.137  29.657  1.00  0.00     0.059 A 
ATOM     89  C   UNL A   1      49.737  26.291  31.842  1.00  0.00     0.059 A 
ATOM     90  F   UNL A   1      47.484  26.327  32.489  1.00  0.00    -0.206 F 
ATOM     91  C   UNL A   1      50.712  26.556  30.882  1.00  0.00     0.060 A 
BRANCH  91  92
ATOM     92  S   UNL A   1      52.446  26.182  31.217  1.00  0.00     0.124 S 
ATOM     93  O   UNL A   1      52.825  27.292  32.086  1.00  0.00    -0.237 OA
ATOM     94  O   UNL A   1      52.366  24.873  31.858  1.00  0.00    -0.237 OA
ATOM     95  O   UNL A   1      53.058  26.186  29.890  1.00  0.00    -0.744 OA
ENDBRANCH  91  92
ENDBRANCH  59  84
ENDBRANCH  33  34
ENDBRANCH  25  28
ENDBRANCH  23  24
ENDBRANCH   1  23
TORSDOF 17
ENDMDL
MODEL 3
REMARK VINA RESULT:     -10.8      0.386      1.521
REMARK SMILES [NH3+][C@]1(C(=O)NCCCCNC(=O)c2ccc(-c3c4nc(c(-c5c(F)cc(S(=O)(=O)[O-])cc5F)c5ccc([nH]5)c(-c5c(F)cc(S(=O)(=O)[O-])cc5F)c5nc(c(-c6c(F)cc(S(=O)(=O)[O-])cc6F)c6ccc3[nH]6)C=C5)C=C4)cc2)CCC[C@@H](OC2CCC2)C1
REMARK SMILES IDX 8 1 7 2 6 3 5 4 3 5 4 6 2 8 79 9 88 10 80 11 82 12 81 13
REMARK SMILES IDX 1 14 83 18 84 19 85 20 87 21 86 22 9 23 10 24 11 25 12 27
REMARK SMILES IDX 13 28 14 29 78 30 15 31 77 32 16 33 17 34 18 35 71 36 19 37
REMARK SMILES IDX 76 38 70 39 72 40 20 41 75 42 69 43 68 44 21 46 55 47 34 48
REMARK SMILES IDX 54 49 35 50 38 51 53 52 73 53 36 54 37 55 52 57 74 58 39 59
REMARK SMILES IDX 22 60 23 61 32 62 24 63 25 64 31 65 33 66 26 67 27 68 28 69
REMARK SMILES IDX 29 70 30 71 56 72 57 73 66 74 58 75 59 76 65 77 67 78 60 79
REMARK SMILES IDX 61 80 62 81 63 82 64 83 40 84 41 85 50 86 42 87 43 88 49 89
REMARK SMILES IDX 51 90 44 91 45 92 46 93 47 94 48 95
REMARK H PARENT 5 7 1 15 1 16 1 17 10 26 72 45 38 56
REMARK Flexibility Score: inf
ROOT
ATOM      1  C   UNL A   1      32.566  27.936  26.055  1.00  0.00     0.023 C 
ENDROOT
BRANCH   1   2
ATOM      2  C   UNL A   1      33.236  27.216  24.881  1.00  0.00     0.023 C 
BRANCH   2   3
ATOM      3  C   UNL A   1      33.092  25.696  24.828  1.00  0.00     0.116 C 
BRANCH   3   4
ATOM      4  N   UNL A   1      33.611  25.099  23.622  1.00  0.00    -0.351 N 
ATOM      5  C   UNL A   1      33.251  24.020  22.877  1.00  0.00     0.281 C 
ATOM      6  O   UNL A   1      33.807  23.973  21.770  1.00  0.00    -0.268 OA
ATOM      7  H   UNL A   1      34.394  25.576  23.261  1.00  0.00     0.163 HD
BRANCH   5   8
ATOM      8  C   UNL A   1      32.128  22.967  23.285  1.00  0.00     0.176 C 
ATOM      9  C   UNL A   1      32.229  21.775  22.274  1.00  0.00     0.079 C 
ATOM     10  C   UNL A   1      32.162  22.425  24.740  1.00  0.00     0.111 C 
ATOM     11  C   UNL A   1      32.107  20.367  22.861  1.00  0.00     0.010 C 
ATOM     12  C   UNL A   1      33.274  21.387  24.912  1.00  0.00     0.125 C 
ATOM     13  C   UNL A   1      32.884  20.117  24.158  1.00  0.00     0.032 C 
BRANCH   8  14
ATOM     14  N   UNL A   1      30.821  23.647  23.079  1.00  0.00    -0.345 N 
ATOM     15  H   UNL A   1      30.152  22.985  22.686  1.00  0.00     0.345 HD
ATOM     16  H   UNL A   1      30.943  24.429  22.435  1.00  0.00     0.345 HD
ATOM     17  H   UNL A   1      30.473  23.994  23.973  1.00  0.00     0.345 HD
ENDBRANCH   8  14
BRANCH  12  18
ATOM     18  O   UNL A   1      34.417  22.073  24.445  1.00  0.00    -0.375 OA
BRANCH  18  19
ATOM     19  C   UNL A   1      35.688  22.110  25.106  1.00  0.00     0.118 C 
ATOM     20  C   UNL A   1      36.797  23.016  24.526  1.00  0.00     0.032 C 
ATOM     21  C   UNL A   1      35.636  23.063  26.331  1.00  0.00     0.032 C 
ATOM     22  C   UNL A   1      36.417  24.108  25.528  1.00  0.00     0.005 C 
ENDBRANCH  18  19
ENDBRANCH  12  18
ENDBRANCH   5   8
ENDBRANCH   3   4
ENDBRANCH   2   3
ENDBRANCH   1   2
BRANCH   1  23
ATOM     23  C   UNL A   1      33.451  28.298  27.242  1.00  0.00     0.116 C 
BRANCH  23  24
ATOM     24  N   UNL A   1      33.412  29.709  27.593  1.00  0.00    -0.352 N 
ATOM     25  C   UNL A   1      34.397  30.527  28.088  1.00  0.00     0.251 C 
ATOM     26  H   UNL A   1      32.541  30.146  27.454  1.00  0.00     0.163 HD
ATOM     27  O   UNL A   1      34.120  31.691  28.374  1.00  0.00    -0.269 OA
BRANCH  25  28
ATOM     28  C   UNL A   1      35.767  30.016  28.326  1.00  0.00     0.039 A 
ATOM     29  C   UNL A   1      36.684  30.054  27.270  1.00  0.00     0.014 A 
ATOM     30  C   UNL A   1      36.159  29.503  29.565  1.00  0.00     0.014 A 
ATOM     31  C   UNL A   1      38.007  29.658  27.478  1.00  0.00     0.010 A 
ATOM     32  C   UNL A   1      37.495  29.178  29.793  1.00  0.00     0.010 A 
ATOM     33  C   UNL A   1      38.436  29.257  28.754  1.00  0.00    -0.014 A 
BRANCH  33  34
ATOM     34  C   UNL A   1      39.861  28.931  29.023  1.00  0.00     0.031 A 
ATOM     35  C   UNL A   1      40.786  29.979  29.581  1.00  0.00     0.074 A 
ATOM     36  C   UNL A   1      40.338  27.712  28.699  1.00  0.00     0.049 A 
ATOM     37  N   UNL A   1      42.074  29.910  29.802  1.00  0.00    -0.248 NA
ATOM     38  C   UNL A   1      40.190  31.283  29.910  1.00  0.00     0.031 C 
ATOM     39  C   UNL A   1      39.554  26.626  28.108  1.00  0.00     0.029 A 
ATOM     40  N   UNL A   1      41.602  27.187  28.806  1.00  0.00    -0.354 N 
ATOM     41  C   UNL A   1      42.445  31.162  30.277  1.00  0.00     0.074 A 
ATOM     42  C   UNL A   1      41.256  31.985  30.269  1.00  0.00     0.031 C 
ATOM     43  C   UNL A   1      40.348  25.559  27.922  1.00  0.00     0.029 A 
ATOM     44  C   UNL A   1      41.705  25.895  28.342  1.00  0.00     0.049 A 
ATOM     45  H   UNL A   1      42.364  27.686  29.180  1.00  0.00     0.167 HD
ATOM     46  C   UNL A   1      43.662  31.581  30.702  1.00  0.00     0.037 A 
ATOM     47  C   UNL A   1      42.772  25.077  28.254  1.00  0.00     0.037 A 
ATOM     48  C   UNL A   1      44.836  30.749  30.735  1.00  0.00     0.049 A 
ATOM     49  C   UNL A   1      44.112  25.564  28.735  1.00  0.00     0.074 A 
ATOM     50  C   UNL A   1      46.100  31.063  31.204  1.00  0.00     0.029 A 
ATOM     51  N   UNL A   1      44.894  29.440  30.279  1.00  0.00    -0.354 N 
ATOM     52  N   UNL A   1      44.431  26.733  29.238  1.00  0.00    -0.248 NA
ATOM     53  C   UNL A   1      45.236  24.623  28.640  1.00  0.00     0.031 C 
ATOM     54  C   UNL A   1      46.931  29.957  30.996  1.00  0.00     0.029 A 
ATOM     55  C   UNL A   1      46.175  28.938  30.440  1.00  0.00     0.049 A 
ATOM     56  H   UNL A   1      44.135  28.941  29.898  1.00  0.00     0.167 HD
ATOM     57  C   UNL A   1      45.786  26.659  29.543  1.00  0.00     0.074 A 
ATOM     58  C   UNL A   1      46.223  25.326  29.177  1.00  0.00     0.031 C 
ATOM     59  C   UNL A   1      46.594  27.606  30.078  1.00  0.00     0.037 A 
BRANCH  46  60
ATOM     60  C   UNL A   1      43.782  33.004  31.174  1.00  0.00     0.058 A 
ATOM     61  C   UNL A   1      44.076  34.051  30.286  1.00  0.00     0.135 A 
ATOM     62  C   UNL A   1      43.568  33.331  32.523  1.00  0.00     0.135 A 
ATOM     63  F   UNL A   1      44.305  33.794  28.989  1.00  0.00    -0.206 F 
ATOM     64  C   UNL A   1      44.187  35.367  30.724  1.00  0.00     0.059 A 
ATOM     65  C   UNL A   1      43.646  34.644  32.978  1.00  0.00     0.059 A 
ATOM     66  F   UNL A   1      43.282  32.369  33.415  1.00  0.00    -0.206 F 
ATOM     67  C   UNL A   1      43.971  35.653  32.073  1.00  0.00     0.060 A 
BRANCH  67  68
ATOM     68  S   UNL A   1      44.116  37.367  32.624  1.00  0.00     0.124 S 
ATOM     69  O   UNL A   1      43.048  37.444  33.616  1.00  0.00    -0.237 OA
ATOM     70  O   UNL A   1      45.475  37.412  33.153  1.00  0.00    -0.237 OA
ATOM     71  O   UNL A   1      43.896  38.136  31.402  1.00  0.00    -0.744 OA
ENDBRANCH  67  68
ENDBRANCH  46  60
BRANCH  47  72
ATOM     72  C   UNL A   1      42.612  23.704  27.706  1.00  0.00     0.058 A 
ATOM     73  C   UNL A   1      42.634  23.475  26.323  1.00  0.00     0.135 A 
ATOM     74  C   UNL A   1      42.452  22.595  28.551  1.00  0.00     0.135 A 
ATOM     75  F   UNL A   1      42.778  24.504  25.475  1.00  0.00    -0.206 F 
ATOM     76  C   UNL A   1      42.486  22.196  25.794  1.00  0.00     0.059 A 
ATOM     77  C   UNL A   1      42.327  21.303  28.047  1.00  0.00     0.059 A 
ATOM     78  F   UNL A   1      42.440  22.759  29.882  1.00  0.00    -0.206 F 
ATOM     79  C   UNL A   1      42.336  21.116  26.664  1.00  0.00     0.060 A 
BRANCH  79  80
ATOM     80  S   UNL A   1      42.197  19.455  25.970  1.00  0.00     0.124 S 
ATOM     81  O   UNL A   1      40.775  19.387  25.652  1.00  0.00    -0.237 OA
ATOM     82  O   UNL A   1      43.104  19.522  24.829  1.00  0.00    -0.237 OA
ATOM     83  O   UNL A   1      42.642  18.596  27.064  1.00  0.00    -0.744 OA
ENDBRANCH  79  80
ENDBRANCH  47  72
BRANCH  59  84
ATOM     84  C   UNL A   1      48.027  27.233  30.334  1.00  0.00     0.058 A 
ATOM     85  C   UNL A   1      49.046  27.558  29.426  1.00  0.00     0.135 A 
ATOM     86  C   UNL A   1      48.391  26.591  31.530  1.00  0.00     0.135 A 
ATOM     87  F   UNL A   1      48.750  28.163  28.265  1.00  0.00    -0.206 F 
ATOM     88  C   UNL A   1      50.377  27.243  29.686  1.00  0.00     0.059 A 
ATOM     89  C   UNL A   1      49.718  26.292  31.822  1.00  0.00     0.059 A 
ATOM     90  F   UNL A   1      47.455  26.267  32.434  1.00  0.00    -0.206 F 
ATOM     91  C   UNL A   1      50.703  26.613  30.889  1.00  0.00     0.060 A 
BRANCH  91  92
ATOM     92  S   UNL A   1      52.437  26.249  31.233  1.00  0.00     0.124 S 
ATOM     93  O   UNL A   1      53.007  26.234  29.890  1.00  0.00    -0.237 OA
ATOM     94  O   UNL A   1      52.832  27.372  32.078  1.00  0.00    -0.237 OA
ATOM     95  O   UNL A   1      52.385  24.954  31.907  1.00  0.00    -0.744 OA
ENDBRANCH  91  92
ENDBRANCH  59  84
ENDBRANCH  33  34
ENDBRANCH  25  28
ENDBRANCH  23  24
ENDBRANCH   1  23
TORSDOF 17
ENDMDL
