MODEL 1
REMARK VINA RESULT:      -9.9      0.000      0.000
REMARK SMILES C[C@@H]1CC(NC(=O)NCCOCC(=O)NCCCCNC(=O)c2ccc(-c3c4nc(c(-c5c(F)cc(S(=O)(=O)[O-])cc5F)c5ccc([nH]5)c(-c5c(F)cc(S(=O)(=O)[O-])cc5F)c5nc(c(-c6c(F)cc(S(=O)(=O)[O-])cc6F)c6ccc3[nH]6)C=C5)C=C4)cc2)C[C@@H](C)C1
REMARK SMILES IDX 16 1 15 2 13 3 14 4 12 6 11 7 10 8 9 9 8 10 5 11 6 12 7 14
REMARK SMILES IDX 4 16 1 17 2 18 3 19 92 20 90 21 89 22 91 23 17 24 18 25
REMARK SMILES IDX 19 26 20 27 21 28 22 30 23 31 24 32 88 33 25 34 87 35 26 36
REMARK SMILES IDX 27 37 28 38 81 39 29 40 86 41 80 42 82 43 30 44 85 45 79 46
REMARK SMILES IDX 78 47 31 49 65 50 44 51 64 52 45 53 48 54 63 55 83 56 46 57
REMARK SMILES IDX 47 58 62 60 84 61 49 62 32 63 33 64 42 65 34 66 35 67 41 68
REMARK SMILES IDX 43 69 36 70 37 71 38 72 39 73 40 74 66 75 67 76 76 77 68 78
REMARK SMILES IDX 69 79 75 80 77 81 70 82 71 83 72 84 73 85 74 86 50 87 51 88
REMARK SMILES IDX 60 89 52 90 53 91 59 92 61 93 54 94 55 95 56 96 57 97 58 98
REMARK H PARENT 15 5 5 13 8 15 20 29 82 48 48 59
REMARK Flexibility Score: inf
ROOT
ATOM      1  C   UNL A   1      33.134  34.742  28.708  1.00  0.00     0.116 C 
ENDROOT
BRANCH   1   2
ATOM      2  N   UNL A   1      32.946  36.052  29.296  1.00  0.00    -0.354 N 
ATOM      3  C   UNL A   1      33.074  36.411  30.607  1.00  0.00     0.245 C 
ATOM      4  O   UNL A   1      32.877  37.583  30.927  1.00  0.00    -0.272 OA
ATOM      5  H   UNL A   1      32.694  36.772  28.674  1.00  0.00     0.163 HD
BRANCH   3   6
ATOM      6  C   UNL A   1      33.488  35.349  31.630  1.00  0.00     0.260 C 
BRANCH   6   7
ATOM      7  O   UNL A   1      34.855  34.963  31.621  1.00  0.00    -0.370 OA
BRANCH   7   8
ATOM      8  C   UNL A   1      35.488  34.998  32.906  1.00  0.00     0.182 C 
BRANCH   8   9
ATOM      9  C   UNL A   1      34.988  33.881  33.835  1.00  0.00     0.146 C 
BRANCH   9  10
ATOM     10  N   UNL A   1      35.539  33.955  35.176  1.00  0.00    -0.336 N 
ATOM     11  N   UNL A   1      37.493  32.629  35.133  1.00  0.00    -0.335 N 
ATOM     12  C   UNL A   1      36.559  33.336  35.784  1.00  0.00     0.315 C 
ATOM     13  H   UNL A   1      37.943  31.959  35.697  1.00  0.00     0.165 HD
ATOM     14  O   UNL A   1      36.642  33.428  37.009  1.00  0.00    -0.249 OA
ATOM     15  H   UNL A   1      35.065  34.591  35.759  1.00  0.00     0.165 HD
BRANCH  11  16
ATOM     16  C   UNL A   1      37.978  32.650  33.759  1.00  0.00     0.084 C 
ATOM     17  C   UNL A   1      40.778  32.826  35.575  1.00  0.00     0.008 C 
ATOM     18  C   UNL A   1      40.562  32.813  34.058  1.00  0.00    -0.012 C 
ATOM     19  C   UNL A   1      39.254  33.503  33.622  1.00  0.00     0.028 C 
ATOM     20  C   UNL A   1      40.667  31.400  33.471  1.00  0.00     0.006 C 
ATOM     21  C   UNL A   1      39.433  30.538  33.752  1.00  0.00    -0.012 C 
ATOM     22  C   UNL A   1      38.172  31.227  33.219  1.00  0.00     0.028 C 
ATOM     23  C   UNL A   1      39.594  29.159  33.111  1.00  0.00     0.008 C 
ENDBRANCH  11  16
ENDBRANCH   9  10
ENDBRANCH   8   9
ENDBRANCH   7   8
ENDBRANCH   6   7
ENDBRANCH   3   6
ENDBRANCH   1   2
BRANCH   1  24
ATOM     24  C   UNL A   1      34.484  34.621  28.008  1.00  0.00     0.023 C 
BRANCH  24  25
ATOM     25  C   UNL A   1      35.081  33.211  28.004  1.00  0.00     0.023 C 
BRANCH  25  26
ATOM     26  C   UNL A   1      34.473  32.237  29.008  1.00  0.00     0.116 C 
BRANCH  26  27
ATOM     27  N   UNL A   1      33.950  31.029  28.387  1.00  0.00    -0.352 N 
ATOM     28  C   UNL A   1      34.624  29.897  27.998  1.00  0.00     0.251 C 
ATOM     29  H   UNL A   1      32.979  31.023  28.224  1.00  0.00     0.163 HD
ATOM     30  O   UNL A   1      34.037  29.017  27.376  1.00  0.00    -0.269 OA
BRANCH  28  31
ATOM     31  C   UNL A   1      36.066  29.766  28.298  1.00  0.00     0.039 A 
ATOM     32  C   UNL A   1      36.455  29.347  29.573  1.00  0.00     0.014 A 
ATOM     33  C   UNL A   1      37.028  30.023  27.318  1.00  0.00     0.014 A 
ATOM     34  C   UNL A   1      37.804  29.117  29.842  1.00  0.00     0.010 A 
ATOM     35  C   UNL A   1      38.364  29.723  27.565  1.00  0.00     0.010 A 
ATOM     36  C   UNL A   1      38.767  29.264  28.829  1.00  0.00    -0.014 A 
BRANCH  36  37
ATOM     37  C   UNL A   1      40.195  28.932  29.070  1.00  0.00     0.031 A 
ATOM     38  C   UNL A   1      41.129  29.969  29.631  1.00  0.00     0.074 A 
ATOM     39  C   UNL A   1      40.664  27.716  28.724  1.00  0.00     0.049 A 
ATOM     40  N   UNL A   1      42.416  29.888  29.853  1.00  0.00    -0.248 NA
ATOM     41  C   UNL A   1      40.546  31.279  29.963  1.00  0.00     0.031 C 
ATOM     42  C   UNL A   1      39.869  26.642  28.123  1.00  0.00     0.029 A 
ATOM     43  N   UNL A   1      41.924  27.180  28.816  1.00  0.00    -0.354 N 
ATOM     44  C   UNL A   1      42.798  31.133  30.336  1.00  0.00     0.074 A 
ATOM     45  C   UNL A   1      41.618  31.971  30.323  1.00  0.00     0.031 C 
ATOM     46  C   UNL A   1      40.653  25.571  27.923  1.00  0.00     0.029 A 
ATOM     47  C   UNL A   1      42.013  25.891  28.342  1.00  0.00     0.049 A 
ATOM     48  H   UNL A   1      42.692  27.672  29.187  1.00  0.00     0.167 HD
ATOM     49  C   UNL A   1      44.015  31.537  30.773  1.00  0.00     0.037 A 
ATOM     50  C   UNL A   1      43.073  25.064  28.248  1.00  0.00     0.037 A 
ATOM     51  C   UNL A   1      45.181  30.692  30.802  1.00  0.00     0.049 A 
ATOM     52  C   UNL A   1      44.417  25.537  28.735  1.00  0.00     0.074 A 
ATOM     53  C   UNL A   1      46.445  30.987  31.280  1.00  0.00     0.029 A 
ATOM     54  N   UNL A   1      45.228  29.388  30.330  1.00  0.00    -0.354 N 
ATOM     55  N   UNL A   1      44.744  26.697  29.253  1.00  0.00    -0.248 NA
ATOM     56  C   UNL A   1      45.533  24.588  28.631  1.00  0.00     0.031 C 
ATOM     57  C   UNL A   1      47.269  29.879  31.054  1.00  0.00     0.029 A 
ATOM     58  C   UNL A   1      46.505  28.873  30.485  1.00  0.00     0.049 A 
ATOM     59  H   UNL A   1      44.466  28.900  29.943  1.00  0.00     0.167 HD
ATOM     60  C   UNL A   1      46.097  26.606  29.562  1.00  0.00     0.074 A 
ATOM     61  C   UNL A   1      46.524  25.274  29.185  1.00  0.00     0.031 C 
ATOM     62  C   UNL A   1      46.913  27.542  30.109  1.00  0.00     0.037 A 
BRANCH  49  63
ATOM     63  C   UNL A   1      44.147  32.954  31.260  1.00  0.00     0.058 A 
ATOM     64  C   UNL A   1      44.377  34.020  30.375  1.00  0.00     0.135 A 
ATOM     65  C   UNL A   1      44.008  33.257  32.625  1.00  0.00     0.135 A 
ATOM     66  F   UNL A   1      44.532  33.787  29.062  1.00  0.00    -0.206 F 
ATOM     67  C   UNL A   1      44.497  35.330  30.828  1.00  0.00     0.059 A 
ATOM     68  C   UNL A   1      44.094  34.565  33.096  1.00  0.00     0.059 A 
ATOM     69  F   UNL A   1      43.787  32.279  33.516  1.00  0.00    -0.206 F 
ATOM     70  C   UNL A   1      44.354  35.593  32.191  1.00  0.00     0.060 A 
BRANCH  70  71
ATOM     71  S   UNL A   1      44.508  37.299  32.759  1.00  0.00     0.124 S 
ATOM     72  O   UNL A   1      43.862  38.027  31.670  1.00  0.00    -0.237 OA
ATOM     73  O   UNL A   1      43.780  37.274  34.023  1.00  0.00    -0.237 OA
ATOM     74  O   UNL A   1      45.951  37.491  32.873  1.00  0.00    -0.744 OA
ENDBRANCH  70  71
ENDBRANCH  49  63
BRANCH  50  75
ATOM     75  C   UNL A   1      42.901  23.697  27.688  1.00  0.00     0.058 A 
ATOM     76  C   UNL A   1      43.143  23.438  26.330  1.00  0.00     0.135 A 
ATOM     77  C   UNL A   1      42.505  22.620  28.498  1.00  0.00     0.135 A 
ATOM     78  F   UNL A   1      43.517  24.435  25.513  1.00  0.00    -0.206 F 
ATOM     79  C   UNL A   1      42.983  22.165  25.790  1.00  0.00     0.059 A 
ATOM     80  C   UNL A   1      42.365  21.334  27.986  1.00  0.00     0.059 A 
ATOM     81  F   UNL A   1      42.277  22.811  29.805  1.00  0.00    -0.206 F 
ATOM     82  C   UNL A   1      42.597  21.118  26.629  1.00  0.00     0.060 A 
BRANCH  82  83
ATOM     83  S   UNL A   1      42.443  19.460  25.928  1.00  0.00     0.124 S 
ATOM     84  O   UNL A   1      42.874  18.628  27.044  1.00  0.00    -0.237 OA
ATOM     85  O   UNL A   1      41.022  19.400  25.595  1.00  0.00    -0.237 OA
ATOM     86  O   UNL A   1      43.345  19.498  24.781  1.00  0.00    -0.744 OA
ENDBRANCH  82  83
ENDBRANCH  50  75
BRANCH  62  87
ATOM     87  C   UNL A   1      48.342  27.150  30.368  1.00  0.00     0.058 A 
ATOM     88  C   UNL A   1      49.367  27.443  29.455  1.00  0.00     0.135 A 
ATOM     89  C   UNL A   1      48.698  26.518  31.572  1.00  0.00     0.135 A 
ATOM     90  F   UNL A   1      49.080  28.040  28.288  1.00  0.00    -0.206 F 
ATOM     91  C   UNL A   1      50.690  27.104  29.716  1.00  0.00     0.059 A 
ATOM     92  C   UNL A   1      50.019  26.195  31.865  1.00  0.00     0.059 A 
ATOM     93  F   UNL A   1      47.758  26.223  32.485  1.00  0.00    -0.206 F 
ATOM     94  C   UNL A   1      51.007  26.482  30.925  1.00  0.00     0.060 A 
BRANCH  94  95
ATOM     95  S   UNL A   1      52.734  26.077  31.265  1.00  0.00     0.124 S 
ATOM     96  O   UNL A   1      52.611  24.765  31.889  1.00  0.00    -0.237 OA
ATOM     97  O   UNL A   1      53.325  26.092  29.931  1.00  0.00    -0.237 OA
ATOM     98  O   UNL A   1      53.167  27.155  32.149  1.00  0.00    -0.744 OA
ENDBRANCH  94  95
ENDBRANCH  62  87
ENDBRANCH  36  37
ENDBRANCH  28  31
ENDBRANCH  26  27
ENDBRANCH  25  26
ENDBRANCH  24  25
ENDBRANCH   1  24
TORSDOF 19
ENDMDL
MODEL 2
REMARK VINA RESULT:      -9.8      2.648      3.354
REMARK SMILES C[C@@H]1CC(NC(=O)NCCOCC(=O)NCCCCNC(=O)c2ccc(-c3c4nc(c(-c5c(F)cc(S(=O)(=O)[O-])cc5F)c5ccc([nH]5)c(-c5c(F)cc(S(=O)(=O)[O-])cc5F)c5nc(c(-c6c(F)cc(S(=O)(=O)[O-])cc6F)c6ccc3[nH]6)C=C5)C=C4)cc2)C[C@@H](C)C1
REMARK SMILES IDX 16 1 15 2 13 3 14 4 12 6 11 7 10 8 9 9 8 10 5 11 6 12 7 14
REMARK SMILES IDX 4 16 1 17 2 18 3 19 92 20 90 21 89 22 91 23 17 24 18 25
REMARK SMILES IDX 19 26 20 27 21 28 22 30 23 31 24 32 88 33 25 34 87 35 26 36
REMARK SMILES IDX 27 37 28 38 81 39 29 40 86 41 80 42 82 43 30 44 85 45 79 46
REMARK SMILES IDX 78 47 31 49 65 50 44 51 64 52 45 53 48 54 63 55 83 56 46 57
REMARK SMILES IDX 47 58 62 60 84 61 49 62 32 63 33 64 42 65 34 66 35 67 41 68
REMARK SMILES IDX 43 69 36 70 37 71 38 72 39 73 40 74 66 75 67 76 76 77 68 78
REMARK SMILES IDX 69 79 75 80 77 81 70 82 71 83 72 84 73 85 74 86 50 87 51 88
REMARK SMILES IDX 60 89 52 90 53 91 59 92 61 93 54 94 55 95 56 96 57 97 58 98
REMARK H PARENT 15 5 5 13 8 15 20 29 82 48 48 59
REMARK Flexibility Score: inf
ROOT
ATOM      1  C   UNL A   1      33.792  34.645  29.268  1.00  0.00     0.116 C 
ENDROOT
BRANCH   1   2
ATOM      2  N   UNL A   1      33.507  36.030  29.582  1.00  0.00    -0.354 N 
ATOM      3  C   UNL A   1      33.053  36.548  30.760  1.00  0.00     0.245 C 
ATOM      4  O   UNL A   1      32.868  37.762  30.846  1.00  0.00    -0.272 OA
ATOM      5  H   UNL A   1      33.659  36.677  28.855  1.00  0.00     0.163 HD
BRANCH   3   6
ATOM      6  C   UNL A   1      32.817  35.606  31.944  1.00  0.00     0.260 C 
BRANCH   6   7
ATOM      7  O   UNL A   1      33.816  35.599  32.953  1.00  0.00    -0.370 OA
BRANCH   7   8
ATOM      8  C   UNL A   1      34.384  34.309  33.214  1.00  0.00     0.182 C 
BRANCH   8   9
ATOM      9  C   UNL A   1      35.848  34.394  33.670  1.00  0.00     0.146 C 
BRANCH   9  10
ATOM     10  N   UNL A   1      36.305  33.210  34.375  1.00  0.00    -0.336 N 
ATOM     11  N   UNL A   1      38.599  33.007  33.851  1.00  0.00    -0.335 N 
ATOM     12  C   UNL A   1      37.462  32.536  34.380  1.00  0.00     0.315 C 
ATOM     13  H   UNL A   1      39.240  32.302  33.605  1.00  0.00     0.165 HD
ATOM     14  O   UNL A   1      37.477  31.421  34.905  1.00  0.00    -0.249 OA
ATOM     15  H   UNL A   1      35.624  32.824  34.972  1.00  0.00     0.165 HD
BRANCH  11  16
ATOM     16  C   UNL A   1      39.080  34.353  33.566  1.00  0.00     0.084 C 
ATOM     17  C   UNL A   1      41.870  32.513  33.567  1.00  0.00     0.008 C 
ATOM     18  C   UNL A   1      41.654  34.014  33.343  1.00  0.00    -0.012 C 
ATOM     19  C   UNL A   1      40.482  34.591  34.161  1.00  0.00     0.028 C 
ATOM     20  C   UNL A   1      41.519  34.362  31.855  1.00  0.00     0.006 C 
ATOM     21  C   UNL A   1      40.157  33.979  31.269  1.00  0.00    -0.012 C 
ATOM     22  C   UNL A   1      39.030  34.650  32.062  1.00  0.00     0.028 C 
ATOM     23  C   UNL A   1      40.083  34.386  29.797  1.00  0.00     0.008 C 
ENDBRANCH  11  16
ENDBRANCH   9  10
ENDBRANCH   8   9
ENDBRANCH   7   8
ENDBRANCH   6   7
ENDBRANCH   3   6
ENDBRANCH   1   2
BRANCH   1  24
ATOM     24  C   UNL A   1      34.989  34.508  28.331  1.00  0.00     0.023 C 
BRANCH  24  25
ATOM     25  C   UNL A   1      35.868  33.281  28.588  1.00  0.00     0.023 C 
BRANCH  25  26
ATOM     26  C   UNL A   1      36.541  33.229  29.955  1.00  0.00     0.116 C 
BRANCH  26  27
ATOM     27  N   UNL A   1      36.064  32.135  30.786  1.00  0.00    -0.352 N 
ATOM     28  C   UNL A   1      36.670  30.934  31.065  1.00  0.00     0.251 C 
ATOM     29  H   UNL A   1      35.184  32.274  31.207  1.00  0.00     0.163 HD
ATOM     30  O   UNL A   1      36.065  30.072  31.694  1.00  0.00    -0.269 OA
BRANCH  28  31
ATOM     31  C   UNL A   1      38.039  30.674  30.569  1.00  0.00     0.039 A 
ATOM     32  C   UNL A   1      39.086  30.590  31.489  1.00  0.00     0.014 A 
ATOM     33  C   UNL A   1      38.282  30.483  29.206  1.00  0.00     0.014 A 
ATOM     34  C   UNL A   1      40.364  30.243  31.051  1.00  0.00     0.010 A 
ATOM     35  C   UNL A   1      39.540  30.065  28.781  1.00  0.00     0.010 A 
ATOM     36  C   UNL A   1      40.594  29.938  29.698  1.00  0.00    -0.014 A 
BRANCH  36  37
ATOM     37  C   UNL A   1      41.925  29.473  29.230  1.00  0.00     0.031 A 
ATOM     38  C   UNL A   1      43.076  30.438  29.143  1.00  0.00     0.074 A 
ATOM     39  C   UNL A   1      42.080  28.197  28.822  1.00  0.00     0.049 A 
ATOM     40  N   UNL A   1      44.291  30.236  28.702  1.00  0.00    -0.248 NA
ATOM     41  C   UNL A   1      42.822  31.818  29.586  1.00  0.00     0.031 C 
ATOM     42  C   UNL A   1      41.027  27.179  28.809  1.00  0.00     0.029 A 
ATOM     43  N   UNL A   1      43.179  27.539  28.329  1.00  0.00    -0.354 N 
ATOM     44  C   UNL A   1      44.940  31.461  28.802  1.00  0.00     0.074 A 
ATOM     45  C   UNL A   1      43.968  32.414  29.293  1.00  0.00     0.031 C 
ATOM     46  C   UNL A   1      41.536  26.023  28.355  1.00  0.00     0.029 A 
ATOM     47  C   UNL A   1      42.939  26.224  28.007  1.00  0.00     0.049 A 
ATOM     48  H   UNL A   1      44.058  27.969  28.216  1.00  0.00     0.167 HD
ATOM     49  C   UNL A   1      46.233  31.760  28.532  1.00  0.00     0.037 A 
ATOM     50  C   UNL A   1      43.753  25.287  27.483  1.00  0.00     0.037 A 
ATOM     51  C   UNL A   1      47.200  30.802  28.063  1.00  0.00     0.049 A 
ATOM     52  C   UNL A   1      45.185  25.644  27.186  1.00  0.00     0.074 A 
ATOM     53  C   UNL A   1      48.549  30.991  27.817  1.00  0.00     0.029 A 
ATOM     54  N   UNL A   1      46.923  29.475  27.766  1.00  0.00    -0.354 N 
ATOM     55  N   UNL A   1      45.799  26.791  27.352  1.00  0.00    -0.248 NA
ATOM     56  C   UNL A   1      46.036  24.580  26.638  1.00  0.00     0.031 C 
ATOM     57  C   UNL A   1      49.076  29.793  27.324  1.00  0.00     0.029 A 
ATOM     58  C   UNL A   1      48.070  28.840  27.316  1.00  0.00     0.049 A 
ATOM     59  H   UNL A   1      46.042  29.047  27.861  1.00  0.00     0.167 HD
ATOM     60  C   UNL A   1      47.115  26.579  26.954  1.00  0.00     0.074 A 
ATOM     61  C   UNL A   1      47.210  25.190  26.553  1.00  0.00     0.031 C 
ATOM     62  C   UNL A   1      48.151  27.454  26.925  1.00  0.00     0.037 A 
BRANCH  49  63
ATOM     63  C   UNL A   1      46.679  33.182  28.742  1.00  0.00     0.058 A 
ATOM     64  C   UNL A   1      46.426  34.183  27.790  1.00  0.00     0.135 A 
ATOM     65  C   UNL A   1      47.338  33.557  29.925  1.00  0.00     0.135 A 
ATOM     66  F   UNL A   1      45.812  33.878  26.635  1.00  0.00    -0.206 F 
ATOM     67  C   UNL A   1      46.837  35.497  27.988  1.00  0.00     0.059 A 
ATOM     68  C   UNL A   1      47.732  34.873  30.157  1.00  0.00     0.059 A 
ATOM     69  F   UNL A   1      47.606  32.643  30.869  1.00  0.00    -0.206 F 
ATOM     70  C   UNL A   1      47.490  35.833  29.174  1.00  0.00     0.060 A 
BRANCH  70  71
ATOM     71  S   UNL A   1      48.013  37.543  29.414  1.00  0.00     0.124 S 
ATOM     72  O   UNL A   1      47.346  37.876  30.670  1.00  0.00    -0.237 OA
ATOM     73  O   UNL A   1      49.466  37.419  29.483  1.00  0.00    -0.237 OA
ATOM     74  O   UNL A   1      47.500  38.226  28.231  1.00  0.00    -0.744 OA
ENDBRANCH  70  71
ENDBRANCH  49  63
BRANCH  50  75
ATOM     75  C   UNL A   1      43.239  23.915  27.225  1.00  0.00     0.058 A 
ATOM     76  C   UNL A   1      42.731  23.560  25.967  1.00  0.00     0.135 A 
ATOM     77  C   UNL A   1      43.257  22.928  28.224  1.00  0.00     0.135 A 
ATOM     78  F   UNL A   1      42.686  24.469  24.980  1.00  0.00    -0.206 F 
ATOM     79  C   UNL A   1      42.243  22.282  25.710  1.00  0.00     0.059 A 
ATOM     80  C   UNL A   1      42.800  21.636  27.983  1.00  0.00     0.059 A 
ATOM     81  F   UNL A   1      43.748  23.211  29.440  1.00  0.00    -0.206 F 
ATOM     82  C   UNL A   1      42.285  21.325  26.726  1.00  0.00     0.060 A 
BRANCH  82  83
ATOM     83  S   UNL A   1      41.697  19.655  26.367  1.00  0.00     0.124 S 
ATOM     84  O   UNL A   1      42.037  18.953  27.597  1.00  0.00    -0.237 OA
ATOM     85  O   UNL A   1      40.274  19.877  26.128  1.00  0.00    -0.237 OA
ATOM     86  O   UNL A   1      42.470  19.276  25.188  1.00  0.00    -0.744 OA
ENDBRANCH  82  83
ENDBRANCH  50  75
BRANCH  62  87
ATOM     87  C   UNL A   1      49.489  26.931  26.477  1.00  0.00     0.058 A 
ATOM     88  C   UNL A   1      50.392  26.344  27.377  1.00  0.00     0.135 A 
ATOM     89  C   UNL A   1      49.848  26.972  25.120  1.00  0.00     0.135 A 
ATOM     90  F   UNL A   1      50.100  26.286  28.685  1.00  0.00    -0.206 F 
ATOM     91  C   UNL A   1      51.614  25.837  26.950  1.00  0.00     0.059 A 
ATOM     92  C   UNL A   1      51.053  26.445  24.667  1.00  0.00     0.059 A 
ATOM     93  F   UNL A   1      49.016  27.513  24.215  1.00  0.00    -0.206 F 
ATOM     94  C   UNL A   1      51.935  25.890  25.592  1.00  0.00     0.060 A 
BRANCH  94  95
ATOM     95  S   UNL A   1      53.511  25.196  25.047  1.00  0.00     0.124 S 
ATOM     96  O   UNL A   1      53.273  23.766  25.205  1.00  0.00    -0.237 OA
ATOM     97  O   UNL A   1      53.604  25.676  23.673  1.00  0.00    -0.237 OA
ATOM     98  O   UNL A   1      54.477  25.778  25.975  1.00  0.00    -0.744 OA
ENDBRANCH  94  95
ENDBRANCH  62  87
ENDBRANCH  36  37
ENDBRANCH  28  31
ENDBRANCH  26  27
ENDBRANCH  25  26
ENDBRANCH  24  25
ENDBRANCH   1  24
TORSDOF 19
ENDMDL
MODEL 3
REMARK VINA RESULT:      -9.5      5.075     12.184
REMARK SMILES C[C@@H]1CC(NC(=O)NCCOCC(=O)NCCCCNC(=O)c2ccc(-c3c4nc(c(-c5c(F)cc(S(=O)(=O)[O-])cc5F)c5ccc([nH]5)c(-c5c(F)cc(S(=O)(=O)[O-])cc5F)c5nc(c(-c6c(F)cc(S(=O)(=O)[O-])cc6F)c6ccc3[nH]6)C=C5)C=C4)cc2)C[C@@H](C)C1
REMARK SMILES IDX 16 1 15 2 13 3 14 4 12 6 11 7 10 8 9 9 8 10 5 11 6 12 7 14
REMARK SMILES IDX 4 16 1 17 2 18 3 19 92 20 90 21 89 22 91 23 17 24 18 25
REMARK SMILES IDX 19 26 20 27 21 28 22 30 23 31 24 32 88 33 25 34 87 35 26 36
REMARK SMILES IDX 27 37 28 38 81 39 29 40 86 41 80 42 82 43 30 44 85 45 79 46
REMARK SMILES IDX 78 47 31 49 65 50 44 51 64 52 45 53 48 54 63 55 83 56 46 57
REMARK SMILES IDX 47 58 62 60 84 61 49 62 32 63 33 64 42 65 34 66 35 67 41 68
REMARK SMILES IDX 43 69 36 70 37 71 38 72 39 73 40 74 66 75 67 76 76 77 68 78
REMARK SMILES IDX 69 79 75 80 77 81 70 82 71 83 72 84 73 85 74 86 50 87 51 88
REMARK SMILES IDX 60 89 52 90 53 91 59 92 61 93 54 94 55 95 56 96 57 97 58 98
REMARK H PARENT 15 5 5 13 8 15 20 29 82 48 48 59
REMARK Flexibility Score: inf
ROOT
ATOM      1  C   UNL A   1      35.876  22.182  25.853  1.00  0.00     0.116 C 
ENDROOT
BRANCH   1   2
ATOM      2  N   UNL A   1      35.577  20.779  25.658  1.00  0.00    -0.354 N 
ATOM      3  C   UNL A   1      34.558  20.230  24.933  1.00  0.00     0.245 C 
ATOM      4  O   UNL A   1      34.460  19.004  24.876  1.00  0.00    -0.272 OA
ATOM      5  H   UNL A   1      36.182  20.143  26.104  1.00  0.00     0.163 HD
BRANCH   3   6
ATOM      6  C   UNL A   1      33.591  21.157  24.191  1.00  0.00     0.260 C 
BRANCH   6   7
ATOM      7  O   UNL A   1      32.213  21.006  24.499  1.00  0.00    -0.370 OA
BRANCH   7   8
ATOM      8  C   UNL A   1      31.669  22.061  25.303  1.00  0.00     0.182 C 
BRANCH   8   9
ATOM      9  C   UNL A   1      31.263  23.284  24.468  1.00  0.00     0.146 C 
BRANCH   9  10
ATOM     10  N   UNL A   1      30.277  24.129  25.118  1.00  0.00    -0.336 N 
ATOM     11  N   UNL A   1      31.498  25.921  26.055  1.00  0.00    -0.335 N 
ATOM     12  C   UNL A   1      30.371  25.213  25.899  1.00  0.00     0.315 C 
ATOM     13  H   UNL A   1      31.524  26.438  26.893  1.00  0.00     0.165 HD
ATOM     14  O   UNL A   1      29.361  25.578  26.501  1.00  0.00    -0.249 OA
ATOM     15  H   UNL A   1      29.350  23.846  24.950  1.00  0.00     0.165 HD
BRANCH  11  16
ATOM     16  C   UNL A   1      32.693  26.082  25.237  1.00  0.00     0.084 C 
ATOM     17  C   UNL A   1      30.868  28.779  24.488  1.00  0.00     0.008 C 
ATOM     18  C   UNL A   1      32.238  28.317  23.978  1.00  0.00    -0.012 C 
ATOM     19  C   UNL A   1      32.375  26.783  23.902  1.00  0.00     0.028 C 
ATOM     20  C   UNL A   1      33.391  28.940  24.773  1.00  0.00     0.006 C 
ATOM     21  C   UNL A   1      33.582  28.305  26.153  1.00  0.00    -0.012 C 
ATOM     22  C   UNL A   1      33.805  26.795  26.017  1.00  0.00     0.028 C 
ATOM     23  C   UNL A   1      34.767  28.951  26.873  1.00  0.00     0.008 C 
ENDBRANCH  11  16
ENDBRANCH   9  10
ENDBRANCH   8   9
ENDBRANCH   7   8
ENDBRANCH   6   7
ENDBRANCH   3   6
ENDBRANCH   1   2
BRANCH   1  24
ATOM     24  C   UNL A   1      37.338  22.500  25.550  1.00  0.00     0.023 C 
BRANCH  24  25
ATOM     25  C   UNL A   1      37.852  23.805  26.165  1.00  0.00     0.023 C 
BRANCH  25  26
ATOM     26  C   UNL A   1      39.175  23.701  26.917  1.00  0.00     0.116 C 
BRANCH  26  27
ATOM     27  N   UNL A   1      40.327  24.028  26.092  1.00  0.00    -0.352 N 
ATOM     28  C   UNL A   1      41.255  25.027  26.263  1.00  0.00     0.251 C 
ATOM     29  H   UNL A   1      40.461  23.454  25.303  1.00  0.00     0.163 HD
ATOM     30  O   UNL A   1      42.100  25.235  25.397  1.00  0.00    -0.269 OA
BRANCH  28  31
ATOM     31  C   UNL A   1      41.203  25.873  27.474  1.00  0.00     0.039 A 
ATOM     32  C   UNL A   1      42.188  26.845  27.662  1.00  0.00     0.014 A 
ATOM     33  C   UNL A   1      40.169  25.731  28.404  1.00  0.00     0.014 A 
ATOM     34  C   UNL A   1      42.097  27.721  28.744  1.00  0.00     0.010 A 
ATOM     35  C   UNL A   1      40.040  26.651  29.440  1.00  0.00     0.010 A 
ATOM     36  C   UNL A   1      41.001  27.658  29.620  1.00  0.00    -0.014 A 
BRANCH  36  37
ATOM     37  C   UNL A   1      40.837  28.642  30.721  1.00  0.00     0.031 A 
ATOM     38  C   UNL A   1      41.676  28.534  31.965  1.00  0.00     0.074 A 
ATOM     39  C   UNL A   1      39.887  29.596  30.626  1.00  0.00     0.049 A 
ATOM     40  N   UNL A   1      41.636  29.258  33.053  1.00  0.00    -0.248 NA
ATOM     41  C   UNL A   1      42.675  27.454  32.000  1.00  0.00     0.031 C 
ATOM     42  C   UNL A   1      38.975  29.772  29.494  1.00  0.00     0.029 A 
ATOM     43  N   UNL A   1      39.523  30.589  31.500  1.00  0.00    -0.354 N 
ATOM     44  C   UNL A   1      42.591  28.716  33.905  1.00  0.00     0.074 A 
ATOM     45  C   UNL A   1      43.155  27.567  33.230  1.00  0.00     0.031 C 
ATOM     46  C   UNL A   1      38.174  30.823  29.732  1.00  0.00     0.029 A 
ATOM     47  C   UNL A   1      38.486  31.371  31.048  1.00  0.00     0.049 A 
ATOM     48  H   UNL A   1      39.963  30.729  32.370  1.00  0.00     0.167 HD
ATOM     49  C   UNL A   1      42.979  29.149  35.129  1.00  0.00     0.037 A 
ATOM     50  C   UNL A   1      37.851  32.408  31.630  1.00  0.00     0.037 A 
ATOM     51  C   UNL A   1      42.426  30.305  35.787  1.00  0.00     0.049 A 
ATOM     52  C   UNL A   1      38.296  32.867  32.993  1.00  0.00     0.074 A 
ATOM     53  C   UNL A   1      42.792  30.860  37.001  1.00  0.00     0.029 A 
ATOM     54  N   UNL A   1      41.390  31.081  35.289  1.00  0.00    -0.354 N 
ATOM     55  N   UNL A   1      39.248  32.383  33.755  1.00  0.00    -0.248 NA
ATOM     56  C   UNL A   1      37.587  34.015  33.572  1.00  0.00     0.031 C 
ATOM     57  C   UNL A   1      41.945  31.942  37.260  1.00  0.00     0.029 A 
ATOM     58  C   UNL A   1      41.087  32.097  36.182  1.00  0.00     0.049 A 
ATOM     59  H   UNL A   1      40.936  30.933  34.428  1.00  0.00     0.167 HD
ATOM     60  C   UNL A   1      39.270  33.186  34.891  1.00  0.00     0.074 A 
ATOM     61  C   UNL A   1      38.245  34.193  34.710  1.00  0.00     0.031 C 
ATOM     62  C   UNL A   1      40.067  33.097  35.985  1.00  0.00     0.037 A 
BRANCH  49  63
ATOM     63  C   UNL A   1      44.056  28.371  35.835  1.00  0.00     0.058 A 
ATOM     64  C   UNL A   1      45.418  28.654  35.642  1.00  0.00     0.135 A 
ATOM     65  C   UNL A   1      43.724  27.351  36.742  1.00  0.00     0.135 A 
ATOM     66  F   UNL A   1      45.794  29.609  34.776  1.00  0.00    -0.206 F 
ATOM     67  C   UNL A   1      46.412  27.935  36.298  1.00  0.00     0.059 A 
ATOM     68  C   UNL A   1      44.702  26.639  37.432  1.00  0.00     0.059 A 
ATOM     69  F   UNL A   1      42.439  27.037  36.966  1.00  0.00    -0.206 F 
ATOM     70  C   UNL A   1      46.044  26.928  37.191  1.00  0.00     0.060 A 
BRANCH  70  71
ATOM     71  S   UNL A   1      47.347  26.008  38.035  1.00  0.00     0.124 S 
ATOM     72  O   UNL A   1      47.932  25.254  36.929  1.00  0.00    -0.237 OA
ATOM     73  O   UNL A   1      48.178  27.074  38.583  1.00  0.00    -0.237 OA
ATOM     74  O   UNL A   1      46.620  25.213  39.020  1.00  0.00    -0.744 OA
ENDBRANCH  70  71
ENDBRANCH  49  63
BRANCH  50  75
ATOM     75  C   UNL A   1      36.740  33.095  30.917  1.00  0.00     0.058 A 
ATOM     76  C   UNL A   1      35.412  32.948  31.341  1.00  0.00     0.135 A 
ATOM     77  C   UNL A   1      36.985  33.920  29.808  1.00  0.00     0.135 A 
ATOM     78  F   UNL A   1      35.125  32.164  32.393  1.00  0.00    -0.206 F 
ATOM     79  C   UNL A   1      34.361  33.582  30.684  1.00  0.00     0.059 A 
ATOM     80  C   UNL A   1      35.955  34.585  29.151  1.00  0.00     0.059 A 
ATOM     81  F   UNL A   1      38.240  34.107  29.372  1.00  0.00    -0.206 F 
ATOM     82  C   UNL A   1      34.645  34.402  29.589  1.00  0.00     0.060 A 
BRANCH  82  83
ATOM     83  S   UNL A   1      33.279  35.259  28.775  1.00  0.00     0.124 S 
ATOM     84  O   UNL A   1      32.521  35.754  29.917  1.00  0.00    -0.237 OA
ATOM     85  O   UNL A   1      33.979  36.268  27.985  1.00  0.00    -0.237 OA
ATOM     86  O   UNL A   1      32.637  34.203  27.999  1.00  0.00    -0.744 OA
ENDBRANCH  82  83
ENDBRANCH  50  75
BRANCH  62  87
ATOM     87  C   UNL A   1      39.890  34.136  37.058  1.00  0.00     0.058 A 
ATOM     88  C   UNL A   1      40.506  35.395  36.978  1.00  0.00     0.135 A 
ATOM     89  C   UNL A   1      39.050  33.886  38.157  1.00  0.00     0.135 A 
ATOM     90  F   UNL A   1      41.323  35.682  35.953  1.00  0.00    -0.206 F 
ATOM     91  C   UNL A   1      40.314  36.360  37.960  1.00  0.00     0.059 A 
ATOM     92  C   UNL A   1      38.822  34.848  39.136  1.00  0.00     0.059 A 
ATOM     93  F   UNL A   1      38.428  32.702  38.277  1.00  0.00    -0.206 F 
ATOM     94  C   UNL A   1      39.468  36.078  39.034  1.00  0.00     0.060 A 
BRANCH  94  95
ATOM     95  S   UNL A   1      39.201  37.354  40.284  1.00  0.00     0.124 S 
ATOM     96  O   UNL A   1      38.568  36.590  41.353  1.00  0.00    -0.237 OA
ATOM     97  O   UNL A   1      40.559  37.816  40.553  1.00  0.00    -0.237 OA
ATOM     98  O   UNL A   1      38.339  38.318  39.607  1.00  0.00    -0.744 OA
ENDBRANCH  94  95
ENDBRANCH  62  87
ENDBRANCH  36  37
ENDBRANCH  28  31
ENDBRANCH  26  27
ENDBRANCH  25  26
ENDBRANCH  24  25
ENDBRANCH   1  24
TORSDOF 19
ENDMDL
