MODEL 1
REMARK VINA RESULT:     -10.8      0.000      0.000
REMARK SMILES N#C[C@@H]1CN(C(=O)N[C@@H](Cc2cnc[nH]2)C(=O)NCCCCNC(=O)c2ccc(-c3c4nc(c(-c5c(F)cc(S(=O)(=O)[O-])cc5F)c5ccc([nH]5)c(-c5c(F)cc(S(=O)(=O)[O-])cc5F)c5nc(c(-c6c(F)cc(S(=O)(=O)[O-])cc6F)c6ccc3[nH]6)C=C5)C=C4)cc2)CCO1
REMARK SMILES IDX 20 1 19 2 18 3 16 4 17 5 9 7 8 8 6 9 7 10 5 12 3 13 4 14
REMARK SMILES IDX 94 15 93 16 92 17 2 18 1 19 10 20 11 21 12 22 15 23 13 24
REMARK SMILES IDX 14 25 21 27 22 28 23 29 24 30 25 32 26 33 27 34 91 35 28 36
REMARK SMILES IDX 90 37 29 38 30 39 31 40 84 41 32 42 89 43 83 44 85 45 33 46
REMARK SMILES IDX 88 47 82 48 81 49 34 51 68 52 47 53 67 54 48 55 51 56 66 57
REMARK SMILES IDX 86 58 49 59 50 60 65 62 87 63 52 64 35 65 36 66 45 67 37 68
REMARK SMILES IDX 38 69 44 70 46 71 39 72 40 73 41 74 42 75 43 76 69 77 70 78
REMARK SMILES IDX 79 79 71 80 72 81 78 82 80 83 73 84 74 85 75 86 76 87 77 88
REMARK SMILES IDX 53 89 54 90 63 91 55 92 56 93 62 94 64 95 57 96 58 97 59 98
REMARK SMILES IDX 60 99 61 100
REMARK H PARENT 18 6 8 11 15 26 23 31 85 50 51 61
REMARK Flexibility Score: inf
ROOT
ATOM      1  C   UNL A   1      32.053  26.708  26.545  1.00  0.00     0.023 C 
ENDROOT
BRANCH   1   2
ATOM      2  C   UNL A   1      30.640  26.326  26.146  1.00  0.00     0.116 C 
BRANCH   2   3
ATOM      3  N   UNL A   1      30.209  25.053  26.670  1.00  0.00    -0.354 N 
ATOM      4  C   UNL A   1      30.650  23.814  26.336  1.00  0.00     0.243 C 
ATOM      5  O   UNL A   1      30.483  22.906  27.160  1.00  0.00    -0.273 OA
ATOM      6  H   UNL A   1      29.504  25.087  27.356  1.00  0.00     0.163 HD
BRANCH   4   7
ATOM      7  C   UNL A   1      31.428  23.518  25.041  1.00  0.00     0.179 C 
BRANCH   7   8
ATOM      8  N   UNL A   1      32.194  22.266  25.003  1.00  0.00    -0.326 N 
ATOM      9  C   UNL A   1      33.472  21.869  24.976  1.00  0.00     0.318 C 
ATOM     10  O   UNL A   1      33.627  20.644  24.962  1.00  0.00    -0.249 OA
ATOM     11  H   UNL A   1      31.589  21.489  24.994  1.00  0.00     0.166 HD
BRANCH   9  12
ATOM     12  N   UNL A   1      34.539  22.709  24.961  1.00  0.00    -0.319 N 
ATOM     13  C   UNL A   1      36.879  22.380  25.559  1.00  0.00     0.240 C 
ATOM     14  C   UNL A   1      35.545  22.970  25.977  1.00  0.00     0.169 C 
ATOM     15  O   UNL A   1      37.294  23.162  24.384  1.00  0.00    -0.360 OA
ATOM     16  C   UNL A   1      36.356  23.014  23.289  1.00  0.00     0.183 C 
ATOM     17  C   UNL A   1      34.908  23.360  23.689  1.00  0.00     0.150 C 
BRANCH  13  18
ATOM     18  C   UNL A   1      36.981  20.907  25.198  1.00  0.00     0.096 C 
ATOM     19  N   UNL A   1      37.065  19.685  24.899  1.00  0.00    -0.195 NA
ENDBRANCH  13  18
ENDBRANCH   9  12
ENDBRANCH   7   8
BRANCH   7  20
ATOM     20  C   UNL A   1      30.696  23.840  23.727  1.00  0.00     0.090 C 
BRANCH  20  21
ATOM     21  C   UNL A   1      31.353  24.812  22.810  1.00  0.00     0.037 A 
ATOM     22  C   UNL A   1      31.289  26.185  22.698  1.00  0.00     0.134 A 
ATOM     23  N   UNL A   1      32.187  24.422  21.786  1.00  0.00    -0.348 N 
ATOM     24  N   UNL A   1      32.123  26.632  21.707  1.00  0.00    -0.245 NA
ATOM     25  C   UNL A   1      32.639  25.552  21.167  1.00  0.00     0.196 A 
ATOM     26  H   UNL A   1      32.416  23.496  21.544  1.00  0.00     0.167 HD
ENDBRANCH  20  21
ENDBRANCH   7  20
ENDBRANCH   4   7
ENDBRANCH   2   3
ENDBRANCH   1   2
BRANCH   1  27
ATOM     27  C   UNL A   1      32.324  28.207  26.578  1.00  0.00     0.023 C 
BRANCH  27  28
ATOM     28  C   UNL A   1      33.560  28.636  27.358  1.00  0.00     0.116 C 
BRANCH  28  29
ATOM     29  N   UNL A   1      33.578  30.050  27.714  1.00  0.00    -0.352 N 
ATOM     30  C   UNL A   1      34.615  30.795  28.226  1.00  0.00     0.251 C 
ATOM     31  H   UNL A   1      32.734  30.536  27.569  1.00  0.00     0.163 HD
ATOM     32  O   UNL A   1      34.448  31.967  28.547  1.00  0.00    -0.269 OA
BRANCH  30  33
ATOM     33  C   UNL A   1      35.928  30.150  28.421  1.00  0.00     0.039 A 
ATOM     34  C   UNL A   1      36.851  30.167  27.375  1.00  0.00     0.014 A 
ATOM     35  C   UNL A   1      36.270  29.612  29.664  1.00  0.00     0.014 A 
ATOM     36  C   UNL A   1      38.155  29.727  27.605  1.00  0.00     0.010 A 
ATOM     37  C   UNL A   1      37.590  29.259  29.915  1.00  0.00     0.010 A 
ATOM     38  C   UNL A   1      38.549  29.318  28.890  1.00  0.00    -0.014 A 
BRANCH  38  39
ATOM     39  C   UNL A   1      39.959  28.964  29.192  1.00  0.00     0.031 A 
ATOM     40  C   UNL A   1      40.878  29.988  29.800  1.00  0.00     0.074 A 
ATOM     41  C   UNL A   1      40.437  27.756  28.832  1.00  0.00     0.049 A 
ATOM     42  N   UNL A   1      42.158  29.900  30.058  1.00  0.00    -0.248 NA
ATOM     43  C   UNL A   1      40.290  31.298  30.123  1.00  0.00     0.031 C 
ATOM     44  C   UNL A   1      39.667  26.705  28.161  1.00  0.00     0.029 A 
ATOM     45  N   UNL A   1      41.690  27.214  28.964  1.00  0.00    -0.354 N 
ATOM     46  C   UNL A   1      42.532  31.146  30.544  1.00  0.00     0.074 A 
ATOM     47  C   UNL A   1      41.356  31.989  30.496  1.00  0.00     0.031 C 
ATOM     48  C   UNL A   1      40.460  25.642  27.953  1.00  0.00     0.029 A 
ATOM     49  C   UNL A   1      41.800  25.943  28.447  1.00  0.00     0.049 A 
ATOM     50  H   UNL A   1      42.441  27.689  29.387  1.00  0.00     0.167 HD
ATOM     51  C   UNL A   1      43.738  31.546  31.012  1.00  0.00     0.037 A 
ATOM     52  C   UNL A   1      42.861  25.116  28.373  1.00  0.00     0.037 A 
ATOM     53  C   UNL A   1      44.891  30.689  31.097  1.00  0.00     0.049 A 
ATOM     54  C   UNL A   1      44.177  25.560  28.948  1.00  0.00     0.074 A 
ATOM     55  C   UNL A   1      46.131  30.967  31.645  1.00  0.00     0.029 A 
ATOM     56  N   UNL A   1      44.947  29.387  30.620  1.00  0.00    -0.354 N 
ATOM     57  N   UNL A   1      44.491  26.711  29.493  1.00  0.00    -0.248 NA
ATOM     58  C   UNL A   1      45.281  24.590  28.913  1.00  0.00     0.031 C 
ATOM     59  C   UNL A   1      46.950  29.847  31.463  1.00  0.00     0.029 A 
ATOM     60  C   UNL A   1      46.206  28.855  30.843  1.00  0.00     0.049 A 
ATOM     61  H   UNL A   1      44.201  28.911  30.189  1.00  0.00     0.167 HD
ATOM     62  C   UNL A   1      45.822  26.600  29.881  1.00  0.00     0.074 A 
ATOM     63  C   UNL A   1      46.249  25.262  29.522  1.00  0.00     0.031 C 
ATOM     64  C   UNL A   1      46.617  27.521  30.479  1.00  0.00     0.037 A 
BRANCH  51  65
ATOM     65  C   UNL A   1      43.865  32.973  31.467  1.00  0.00     0.058 A 
ATOM     66  C   UNL A   1      44.102  34.020  30.562  1.00  0.00     0.135 A 
ATOM     67  C   UNL A   1      43.743  33.300  32.827  1.00  0.00     0.135 A 
ATOM     68  F   UNL A   1      44.241  33.762  29.252  1.00  0.00    -0.206 F 
ATOM     69  C   UNL A   1      44.257  35.334  30.992  1.00  0.00     0.059 A 
ATOM     70  C   UNL A   1      43.865  34.612  33.277  1.00  0.00     0.059 A 
ATOM     71  F   UNL A   1      43.515  32.340  33.737  1.00  0.00    -0.206 F 
ATOM     72  C   UNL A   1      44.143  35.619  32.354  1.00  0.00     0.060 A 
BRANCH  72  73
ATOM     73  S   UNL A   1      44.368  37.324  32.900  1.00  0.00     0.124 S 
ATOM     74  O   UNL A   1      45.376  37.163  33.944  1.00  0.00    -0.237 OA
ATOM     75  O   UNL A   1      44.819  37.988  31.681  1.00  0.00    -0.237 OA
ATOM     76  O   UNL A   1      43.039  37.709  33.365  1.00  0.00    -0.744 OA
ENDBRANCH  72  73
ENDBRANCH  51  65
BRANCH  52  77
ATOM     77  C   UNL A   1      42.705  23.774  27.753  1.00  0.00     0.058 A 
ATOM     78  C   UNL A   1      42.855  23.596  26.370  1.00  0.00     0.135 A 
ATOM     79  C   UNL A   1      42.445  22.638  28.535  1.00  0.00     0.135 A 
ATOM     80  F   UNL A   1      43.098  24.653  25.580  1.00  0.00    -0.206 F 
ATOM     81  C   UNL A   1      42.748  22.340  25.782  1.00  0.00     0.059 A 
ATOM     82  C   UNL A   1      42.355  21.368  27.972  1.00  0.00     0.059 A 
ATOM     83  F   UNL A   1      42.310  22.754  29.864  1.00  0.00    -0.206 F 
ATOM     84  C   UNL A   1      42.504  21.230  26.592  1.00  0.00     0.060 A 
BRANCH  84  85
ATOM     85  S   UNL A   1      42.439  19.595  25.827  1.00  0.00     0.124 S 
ATOM     86  O   UNL A   1      41.037  19.507  25.439  1.00  0.00    -0.237 OA
ATOM     87  O   UNL A   1      43.397  19.731  24.735  1.00  0.00    -0.237 OA
ATOM     88  O   UNL A   1      42.854  18.704  26.907  1.00  0.00    -0.744 OA
ENDBRANCH  84  85
ENDBRANCH  52  77
BRANCH  64  89
ATOM     89  C   UNL A   1      48.025  27.111  30.805  1.00  0.00     0.058 A 
ATOM     90  C   UNL A   1      48.332  26.397  31.974  1.00  0.00     0.135 A 
ATOM     91  C   UNL A   1      49.071  27.386  29.909  1.00  0.00     0.135 A 
ATOM     92  F   UNL A   1      47.369  26.113  32.865  1.00  0.00    -0.206 F 
ATOM     93  C   UNL A   1      49.632  25.990  32.255  1.00  0.00     0.059 A 
ATOM     94  C   UNL A   1      50.373  26.966  30.158  1.00  0.00     0.059 A 
ATOM     95  F   UNL A   1      48.828  28.056  28.771  1.00  0.00    -0.206 F 
ATOM     96  C   UNL A   1      50.646  26.278  31.340  1.00  0.00     0.060 A 
BRANCH  96  97
ATOM     97  S   UNL A   1      52.323  25.714  31.698  1.00  0.00     0.124 S 
ATOM     98  O   UNL A   1      52.090  24.327  32.086  1.00  0.00    -0.237 OA
ATOM     99  O   UNL A   1      53.001  25.910  30.420  1.00  0.00    -0.237 OA
ATOM    100  O   UNL A   1      52.758  26.602  32.772  1.00  0.00    -0.744 OA
ENDBRANCH  96  97
ENDBRANCH  64  89
ENDBRANCH  38  39
ENDBRANCH  30  33
ENDBRANCH  28  29
ENDBRANCH  27  28
ENDBRANCH   1  27
TORSDOF 19
ENDMDL
MODEL 2
REMARK VINA RESULT:     -10.8      4.807     10.546
REMARK SMILES N#C[C@@H]1CN(C(=O)N[C@@H](Cc2cnc[nH]2)C(=O)NCCCCNC(=O)c2ccc(-c3c4nc(c(-c5c(F)cc(S(=O)(=O)[O-])cc5F)c5ccc([nH]5)c(-c5c(F)cc(S(=O)(=O)[O-])cc5F)c5nc(c(-c6c(F)cc(S(=O)(=O)[O-])cc6F)c6ccc3[nH]6)C=C5)C=C4)cc2)CCO1
REMARK SMILES IDX 20 1 19 2 18 3 16 4 17 5 9 7 8 8 6 9 7 10 5 12 3 13 4 14
REMARK SMILES IDX 94 15 93 16 92 17 2 18 1 19 10 20 11 21 12 22 15 23 13 24
REMARK SMILES IDX 14 25 21 27 22 28 23 29 24 30 25 32 26 33 27 34 91 35 28 36
REMARK SMILES IDX 90 37 29 38 30 39 31 40 84 41 32 42 89 43 83 44 85 45 33 46
REMARK SMILES IDX 88 47 82 48 81 49 34 51 68 52 47 53 67 54 48 55 51 56 66 57
REMARK SMILES IDX 86 58 49 59 50 60 65 62 87 63 52 64 35 65 36 66 45 67 37 68
REMARK SMILES IDX 38 69 44 70 46 71 39 72 40 73 41 74 42 75 43 76 69 77 70 78
REMARK SMILES IDX 79 79 71 80 72 81 78 82 80 83 73 84 74 85 75 86 76 87 77 88
REMARK SMILES IDX 53 89 54 90 63 91 55 92 56 93 62 94 64 95 57 96 58 97 59 98
REMARK SMILES IDX 60 99 61 100
REMARK H PARENT 18 6 8 11 15 26 23 31 85 50 51 61
REMARK Flexibility Score: inf
ROOT
ATOM      1  C   UNL A   1      36.179  22.850  26.177  1.00  0.00     0.023 C 
ENDROOT
BRANCH   1   2
ATOM      2  C   UNL A   1      35.066  23.744  25.663  1.00  0.00     0.116 C 
BRANCH   2   3
ATOM      3  N   UNL A   1      35.134  24.007  24.246  1.00  0.00    -0.354 N 
ATOM      4  C   UNL A   1      34.119  24.025  23.345  1.00  0.00     0.243 C 
ATOM      5  O   UNL A   1      34.293  24.668  22.302  1.00  0.00    -0.273 OA
ATOM      6  H   UNL A   1      36.030  24.198  23.887  1.00  0.00     0.163 HD
BRANCH   4   7
ATOM      7  C   UNL A   1      32.748  23.377  23.608  1.00  0.00     0.179 C 
BRANCH   7   8
ATOM      8  N   UNL A   1      31.582  24.269  23.588  1.00  0.00    -0.326 N 
ATOM      9  C   UNL A   1      31.243  25.491  24.017  1.00  0.00     0.318 C 
ATOM     10  O   UNL A   1      30.089  25.829  23.736  1.00  0.00    -0.249 OA
ATOM     11  H   UNL A   1      30.826  23.841  23.124  1.00  0.00     0.166 HD
BRANCH   9  12
ATOM     12  N   UNL A   1      32.066  26.321  24.708  1.00  0.00    -0.319 N 
ATOM     13  C   UNL A   1      32.431  28.727  24.585  1.00  0.00     0.240 C 
ATOM     14  C   UNL A   1      32.973  27.353  24.237  1.00  0.00     0.169 C 
ATOM     15  O   UNL A   1      32.480  28.800  26.053  1.00  0.00    -0.360 OA
ATOM     16  C   UNL A   1      31.632  27.797  26.664  1.00  0.00     0.183 C 
ATOM     17  C   UNL A   1      31.948  26.368  26.179  1.00  0.00     0.150 C 
BRANCH  13  18
ATOM     18  C   UNL A   1      31.032  29.127  24.144  1.00  0.00     0.096 C 
ATOM     19  N   UNL A   1      29.872  29.459  23.779  1.00  0.00    -0.195 NA
ENDBRANCH  13  18
ENDBRANCH   9  12
ENDBRANCH   7   8
BRANCH   7  20
ATOM     20  C   UNL A   1      32.505  22.018  22.929  1.00  0.00     0.090 C 
BRANCH  20  21
ATOM     21  C   UNL A   1      32.567  20.810  23.797  1.00  0.00     0.037 A 
ATOM     22  C   UNL A   1      32.246  19.486  23.585  1.00  0.00     0.134 A 
ATOM     23  N   UNL A   1      32.959  20.862  25.116  1.00  0.00    -0.348 N 
ATOM     24  N   UNL A   1      32.520  18.735  24.697  1.00  0.00    -0.245 NA
ATOM     25  C   UNL A   1      32.933  19.587  25.606  1.00  0.00     0.196 A 
ATOM     26  H   UNL A   1      33.212  21.671  25.616  1.00  0.00     0.167 HD
ENDBRANCH  20  21
ENDBRANCH   7  20
ENDBRANCH   4   7
ENDBRANCH   2   3
ENDBRANCH   1   2
BRANCH   1  27
ATOM     27  C   UNL A   1      37.552  23.133  25.579  1.00  0.00     0.023 C 
BRANCH  27  28
ATOM     28  C   UNL A   1      38.425  24.103  26.364  1.00  0.00     0.116 C 
BRANCH  28  29
ATOM     29  N   UNL A   1      39.857  23.894  26.186  1.00  0.00    -0.352 N 
ATOM     30  C   UNL A   1      40.904  24.626  26.696  1.00  0.00     0.251 C 
ATOM     31  H   UNL A   1      40.108  23.124  25.624  1.00  0.00     0.163 HD
ATOM     32  O   UNL A   1      42.062  24.364  26.389  1.00  0.00    -0.269 OA
BRANCH  30  33
ATOM     33  C   UNL A   1      40.611  25.762  27.591  1.00  0.00     0.039 A 
ATOM     34  C   UNL A   1      39.617  25.619  28.560  1.00  0.00     0.014 A 
ATOM     35  C   UNL A   1      41.378  26.927  27.524  1.00  0.00     0.014 A 
ATOM     36  C   UNL A   1      39.455  26.612  29.527  1.00  0.00     0.010 A 
ATOM     37  C   UNL A   1      41.276  27.870  28.539  1.00  0.00     0.010 A 
ATOM     38  C   UNL A   1      40.318  27.721  29.555  1.00  0.00    -0.014 A 
BRANCH  38  39
ATOM     39  C   UNL A   1      40.251  28.728  30.645  1.00  0.00     0.031 A 
ATOM     40  C   UNL A   1      41.110  28.571  31.869  1.00  0.00     0.074 A 
ATOM     41  C   UNL A   1      39.349  29.728  30.575  1.00  0.00     0.049 A 
ATOM     42  N   UNL A   1      41.134  29.292  32.960  1.00  0.00    -0.248 NA
ATOM     43  C   UNL A   1      42.037  27.426  31.886  1.00  0.00     0.031 C 
ATOM     44  C   UNL A   1      38.401  29.941  29.478  1.00  0.00     0.029 A 
ATOM     45  N   UNL A   1      39.069  30.743  31.455  1.00  0.00    -0.354 N 
ATOM     46  C   UNL A   1      42.052  28.675  33.801  1.00  0.00     0.074 A 
ATOM     47  C   UNL A   1      42.524  27.492  33.115  1.00  0.00     0.031 C 
ATOM     48  C   UNL A   1      37.656  31.026  29.744  1.00  0.00     0.029 A 
ATOM     49  C   UNL A   1      38.050  31.568  31.041  1.00  0.00     0.049 A 
ATOM     50  H   UNL A   1      39.552  30.869  32.304  1.00  0.00     0.167 HD
ATOM     51  C   UNL A   1      42.482  29.072  35.022  1.00  0.00     0.037 A 
ATOM     52  C   UNL A   1      37.490  32.637  31.640  1.00  0.00     0.037 A 
ATOM     53  C   UNL A   1      42.039  30.274  35.678  1.00  0.00     0.049 A 
ATOM     54  C   UNL A   1      38.019  33.093  32.971  1.00  0.00     0.074 A 
ATOM     55  C   UNL A   1      42.484  30.816  36.871  1.00  0.00     0.029 A 
ATOM     56  N   UNL A   1      41.049  31.119  35.199  1.00  0.00    -0.354 N 
ATOM     57  N   UNL A   1      38.957  32.552  33.711  1.00  0.00    -0.248 NA
ATOM     58  C   UNL A   1      37.427  34.310  33.542  1.00  0.00     0.031 C 
ATOM     59  C   UNL A   1      41.734  31.969  37.133  1.00  0.00     0.029 A 
ATOM     60  C   UNL A   1      40.854  32.169  36.081  1.00  0.00     0.049 A 
ATOM     61  H   UNL A   1      40.558  30.992  34.355  1.00  0.00     0.167 HD
ATOM     62  C   UNL A   1      39.080  33.371  34.829  1.00  0.00     0.074 A 
ATOM     63  C   UNL A   1      38.132  34.453  34.658  1.00  0.00     0.031 C 
ATOM     64  C   UNL A   1      39.904  33.239  35.897  1.00  0.00     0.037 A 
BRANCH  51  65
ATOM     65  C   UNL A   1      43.482  28.195  35.721  1.00  0.00     0.058 A 
ATOM     66  C   UNL A   1      43.086  27.202  36.633  1.00  0.00     0.135 A 
ATOM     67  C   UNL A   1      44.856  28.343  35.474  1.00  0.00     0.135 A 
ATOM     68  F   UNL A   1      41.786  27.027  36.918  1.00  0.00    -0.206 F 
ATOM     69  C   UNL A   1      44.018  26.419  37.307  1.00  0.00     0.059 A 
ATOM     70  C   UNL A   1      45.804  27.551  36.115  1.00  0.00     0.059 A 
ATOM     71  F   UNL A   1      45.291  29.275  34.610  1.00  0.00    -0.206 F 
ATOM     72  C   UNL A   1      45.376  26.606  37.046  1.00  0.00     0.060 A 
BRANCH  72  73
ATOM     73  S   UNL A   1      46.573  25.598  37.943  1.00  0.00     0.124 S 
ATOM     74  O   UNL A   1      45.868  24.322  38.033  1.00  0.00    -0.237 OA
ATOM     75  O   UNL A   1      47.732  25.620  37.057  1.00  0.00    -0.237 OA
ATOM     76  O   UNL A   1      46.740  26.312  39.206  1.00  0.00    -0.744 OA
ENDBRANCH  72  73
ENDBRANCH  51  65
BRANCH  52  77
ATOM     77  C   UNL A   1      36.382  33.362  30.963  1.00  0.00     0.058 A 
ATOM     78  C   UNL A   1      35.072  33.307  31.461  1.00  0.00     0.135 A 
ATOM     79  C   UNL A   1      36.618  34.157  29.830  1.00  0.00     0.135 A 
ATOM     80  F   UNL A   1      34.795  32.556  32.538  1.00  0.00    -0.206 F 
ATOM     81  C   UNL A   1      34.034  34.010  30.859  1.00  0.00     0.059 A 
ATOM     82  C   UNL A   1      35.600  34.886  29.224  1.00  0.00     0.059 A 
ATOM     83  F   UNL A   1      37.857  34.256  29.325  1.00  0.00    -0.206 F 
ATOM     84  C   UNL A   1      34.309  34.802  29.743  1.00  0.00     0.060 A 
BRANCH  84  85
ATOM     85  S   UNL A   1      32.968  35.768  29.014  1.00  0.00     0.124 S 
ATOM     86  O   UNL A   1      32.347  34.788  28.131  1.00  0.00    -0.237 OA
ATOM     87  O   UNL A   1      32.192  36.151  30.190  1.00  0.00    -0.237 OA
ATOM     88  O   UNL A   1      33.667  36.864  28.351  1.00  0.00    -0.744 OA
ENDBRANCH  84  85
ENDBRANCH  52  77
BRANCH  64  89
ATOM     89  C   UNL A   1      39.834  34.300  36.959  1.00  0.00     0.058 A 
ATOM     90  C   UNL A   1      40.507  35.524  36.822  1.00  0.00     0.135 A 
ATOM     91  C   UNL A   1      39.038  34.111  38.100  1.00  0.00     0.135 A 
ATOM     92  F   UNL A   1      41.285  35.751  35.752  1.00  0.00    -0.206 F 
ATOM     93  C   UNL A   1      40.412  36.517  37.791  1.00  0.00     0.059 A 
ATOM     94  C   UNL A   1      38.909  35.101  39.070  1.00  0.00     0.059 A 
ATOM     95  F   UNL A   1      38.364  32.963  38.274  1.00  0.00    -0.206 F 
ATOM     96  C   UNL A   1      39.609  36.296  38.912  1.00  0.00     0.060 A 
BRANCH  96  97
ATOM     97  S   UNL A   1      39.464  37.605  40.147  1.00  0.00     0.124 S 
ATOM     98  O   UNL A   1      38.511  38.507  39.508  1.00  0.00    -0.237 OA
ATOM     99  O   UNL A   1      38.969  36.883  41.314  1.00  0.00    -0.237 OA
ATOM    100  O   UNL A   1      40.828  38.112  40.264  1.00  0.00    -0.744 OA
ENDBRANCH  96  97
ENDBRANCH  64  89
ENDBRANCH  38  39
ENDBRANCH  30  33
ENDBRANCH  28  29
ENDBRANCH  27  28
ENDBRANCH   1  27
TORSDOF 19
ENDMDL
MODEL 3
REMARK VINA RESULT:     -10.7      1.828      3.089
REMARK SMILES N#C[C@@H]1CN(C(=O)N[C@@H](Cc2cnc[nH]2)C(=O)NCCCCNC(=O)c2ccc(-c3c4nc(c(-c5c(F)cc(S(=O)(=O)[O-])cc5F)c5ccc([nH]5)c(-c5c(F)cc(S(=O)(=O)[O-])cc5F)c5nc(c(-c6c(F)cc(S(=O)(=O)[O-])cc6F)c6ccc3[nH]6)C=C5)C=C4)cc2)CCO1
REMARK SMILES IDX 20 1 19 2 18 3 16 4 17 5 9 7 8 8 6 9 7 10 5 12 3 13 4 14
REMARK SMILES IDX 94 15 93 16 92 17 2 18 1 19 10 20 11 21 12 22 15 23 13 24
REMARK SMILES IDX 14 25 21 27 22 28 23 29 24 30 25 32 26 33 27 34 91 35 28 36
REMARK SMILES IDX 90 37 29 38 30 39 31 40 84 41 32 42 89 43 83 44 85 45 33 46
REMARK SMILES IDX 88 47 82 48 81 49 34 51 68 52 47 53 67 54 48 55 51 56 66 57
REMARK SMILES IDX 86 58 49 59 50 60 65 62 87 63 52 64 35 65 36 66 45 67 37 68
REMARK SMILES IDX 38 69 44 70 46 71 39 72 40 73 41 74 42 75 43 76 69 77 70 78
REMARK SMILES IDX 79 79 71 80 72 81 78 82 80 83 73 84 74 85 75 86 76 87 77 88
REMARK SMILES IDX 53 89 54 90 63 91 55 92 56 93 62 94 64 95 57 96 58 97 59 98
REMARK SMILES IDX 60 99 61 100
REMARK H PARENT 18 6 8 11 15 26 23 31 85 50 51 61
REMARK Flexibility Score: inf
ROOT
ATOM      1  C   UNL A   1      31.430  29.278  26.568  1.00  0.00     0.023 C 
ENDROOT
BRANCH   1   2
ATOM      2  C   UNL A   1      31.735  30.039  25.291  1.00  0.00     0.116 C 
BRANCH   2   3
ATOM      3  N   UNL A   1      32.715  29.398  24.448  1.00  0.00    -0.354 N 
ATOM      4  C   UNL A   1      32.536  28.842  23.223  1.00  0.00     0.243 C 
ATOM      5  O   UNL A   1      33.531  28.732  22.495  1.00  0.00    -0.273 OA
ATOM      6  H   UNL A   1      33.631  29.358  24.808  1.00  0.00     0.163 HD
BRANCH   4   7
ATOM      7  C   UNL A   1      31.154  28.446  22.672  1.00  0.00     0.179 C 
BRANCH   7   8
ATOM      8  N   UNL A   1      30.300  27.640  23.552  1.00  0.00    -0.326 N 
ATOM      9  C   UNL A   1      30.321  26.446  24.157  1.00  0.00     0.318 C 
ATOM     10  O   UNL A   1      29.324  26.201  24.842  1.00  0.00    -0.249 OA
ATOM     11  H   UNL A   1      29.464  28.118  23.757  1.00  0.00     0.166 HD
BRANCH   9  12
ATOM     12  N   UNL A   1      31.334  25.547  24.051  1.00  0.00    -0.319 N 
ATOM     13  C   UNL A   1      32.307  23.992  25.656  1.00  0.00     0.240 C 
ATOM     14  C   UNL A   1      32.475  25.308  24.919  1.00  0.00     0.169 C 
ATOM     15  O   UNL A   1      32.380  22.956  24.615  1.00  0.00    -0.360 OA
ATOM     16  C   UNL A   1      31.304  23.091  23.653  1.00  0.00     0.183 C 
ATOM     17  C   UNL A   1      31.239  24.495  23.020  1.00  0.00     0.150 C 
BRANCH  13  18
ATOM     18  C   UNL A   1      31.056  23.736  26.481  1.00  0.00     0.096 C 
ATOM     19  N   UNL A   1      30.019  23.524  27.166  1.00  0.00    -0.195 NA
ENDBRANCH  13  18
ENDBRANCH   9  12
ENDBRANCH   7   8
BRANCH   7  20
ATOM     20  C   UNL A   1      30.397  29.543  21.903  1.00  0.00     0.090 C 
BRANCH  20  21
ATOM     21  C   UNL A   1      29.161  30.079  22.536  1.00  0.00     0.037 A 
ATOM     22  C   UNL A   1      27.902  29.550  22.728  1.00  0.00     0.134 A 
ATOM     23  N   UNL A   1      29.078  31.357  23.041  1.00  0.00    -0.348 N 
ATOM     24  N   UNL A   1      27.103  30.430  23.409  1.00  0.00    -0.245 NA
ATOM     25  C   UNL A   1      27.829  31.512  23.572  1.00  0.00     0.196 A 
ATOM     26  H   UNL A   1      29.789  32.036  23.023  1.00  0.00     0.167 HD
ENDBRANCH  20  21
ENDBRANCH   7  20
ENDBRANCH   4   7
ENDBRANCH   2   3
ENDBRANCH   1   2
BRANCH   1  27
ATOM     27  C   UNL A   1      32.458  28.217  26.941  1.00  0.00     0.023 C 
BRANCH  27  28
ATOM     28  C   UNL A   1      33.831  28.742  27.340  1.00  0.00     0.116 C 
BRANCH  28  29
ATOM     29  N   UNL A   1      33.823  30.116  27.830  1.00  0.00    -0.352 N 
ATOM     30  C   UNL A   1      34.838  30.818  28.439  1.00  0.00     0.251 C 
ATOM     31  H   UNL A   1      32.978  30.607  27.709  1.00  0.00     0.163 HD
ATOM     32  O   UNL A   1      34.648  31.952  28.866  1.00  0.00    -0.269 OA
BRANCH  30  33
ATOM     33  C   UNL A   1      36.152  30.170  28.608  1.00  0.00     0.039 A 
ATOM     34  C   UNL A   1      37.068  30.216  27.556  1.00  0.00     0.014 A 
ATOM     35  C   UNL A   1      36.503  29.598  29.833  1.00  0.00     0.014 A 
ATOM     36  C   UNL A   1      38.374  29.770  27.765  1.00  0.00     0.010 A 
ATOM     37  C   UNL A   1      37.824  29.240  30.065  1.00  0.00     0.010 A 
ATOM     38  C   UNL A   1      38.776  29.327  29.037  1.00  0.00    -0.014 A 
BRANCH  38  39
ATOM     39  C   UNL A   1      40.189  28.967  29.320  1.00  0.00     0.031 A 
ATOM     40  C   UNL A   1      41.116  29.979  29.935  1.00  0.00     0.074 A 
ATOM     41  C   UNL A   1      40.661  27.763  28.936  1.00  0.00     0.049 A 
ATOM     42  N   UNL A   1      42.397  29.885  30.180  1.00  0.00    -0.248 NA
ATOM     43  C   UNL A   1      40.533  31.285  30.284  1.00  0.00     0.031 C 
ATOM     44  C   UNL A   1      39.883  26.725  28.255  1.00  0.00     0.029 A 
ATOM     45  N   UNL A   1      41.915  27.217  29.047  1.00  0.00    -0.354 N 
ATOM     46  C   UNL A   1      42.778  31.123  30.681  1.00  0.00     0.074 A 
ATOM     47  C   UNL A   1      41.603  31.968  30.658  1.00  0.00     0.031 C 
ATOM     48  C   UNL A   1      40.673  25.664  28.024  1.00  0.00     0.029 A 
ATOM     49  C   UNL A   1      42.018  25.955  28.510  1.00  0.00     0.049 A 
ATOM     50  H   UNL A   1      42.671  27.684  29.471  1.00  0.00     0.167 HD
ATOM     51  C   UNL A   1      43.989  31.514  31.144  1.00  0.00     0.037 A 
ATOM     52  C   UNL A   1      43.077  25.128  28.413  1.00  0.00     0.037 A 
ATOM     53  C   UNL A   1      45.142  30.654  31.205  1.00  0.00     0.049 A 
ATOM     54  C   UNL A   1      44.399  25.560  28.982  1.00  0.00     0.074 A 
ATOM     55  C   UNL A   1      46.387  30.921  31.745  1.00  0.00     0.029 A 
ATOM     56  N   UNL A   1      45.191  29.360  30.707  1.00  0.00    -0.354 N 
ATOM     57  N   UNL A   1      44.720  26.703  29.542  1.00  0.00    -0.248 NA
ATOM     58  C   UNL A   1      45.500  24.589  28.921  1.00  0.00     0.031 C 
ATOM     59  C   UNL A   1      47.202  29.803  31.538  1.00  0.00     0.029 A 
ATOM     60  C   UNL A   1      46.451  28.822  30.910  1.00  0.00     0.049 A 
ATOM     61  H   UNL A   1      44.440  28.892  30.275  1.00  0.00     0.167 HD
ATOM     62  C   UNL A   1      46.054  26.583  29.915  1.00  0.00     0.074 A 
ATOM     63  C   UNL A   1      46.476  25.251  29.532  1.00  0.00     0.031 C 
ATOM     64  C   UNL A   1      46.856  27.493  30.521  1.00  0.00     0.037 A 
BRANCH  51  65
ATOM     65  C   UNL A   1      44.122  32.933  31.621  1.00  0.00     0.058 A 
ATOM     66  C   UNL A   1      43.808  33.303  32.939  1.00  0.00     0.135 A 
ATOM     67  C   UNL A   1      44.575  33.938  30.751  1.00  0.00     0.135 A 
ATOM     68  F   UNL A   1      43.356  32.385  33.809  1.00  0.00    -0.206 F 
ATOM     69  C   UNL A   1      43.895  34.624  33.365  1.00  0.00     0.059 A 
ATOM     70  C   UNL A   1      44.699  35.261  31.164  1.00  0.00     0.059 A 
ATOM     71  F   UNL A   1      44.892  33.640  29.481  1.00  0.00    -0.206 F 
ATOM     72  C   UNL A   1      44.336  35.598  32.468  1.00  0.00     0.060 A 
BRANCH  72  73
ATOM     73  S   UNL A   1      44.424  37.311  33.028  1.00  0.00     0.124 S 
ATOM     74  O   UNL A   1      43.766  37.224  34.328  1.00  0.00    -0.237 OA
ATOM     75  O   UNL A   1      45.861  37.559  33.061  1.00  0.00    -0.237 OA
ATOM     76  O   UNL A   1      43.689  38.042  32.000  1.00  0.00    -0.744 OA
ENDBRANCH  72  73
ENDBRANCH  51  65
BRANCH  52  77
ATOM     77  C   UNL A   1      42.913  23.796  27.772  1.00  0.00     0.058 A 
ATOM     78  C   UNL A   1      43.154  23.618  26.402  1.00  0.00     0.135 A 
ATOM     79  C   UNL A   1      42.552  22.668  28.525  1.00  0.00     0.135 A 
ATOM     80  F   UNL A   1      43.496  24.668  25.640  1.00  0.00    -0.206 F 
ATOM     81  C   UNL A   1      43.041  22.370  25.799  1.00  0.00     0.059 A 
ATOM     82  C   UNL A   1      42.453  21.405  27.948  1.00  0.00     0.059 A 
ATOM     83  F   UNL A   1      42.327  22.782  29.843  1.00  0.00    -0.206 F 
ATOM     84  C   UNL A   1      42.695  21.267  26.581  1.00  0.00     0.060 A 
BRANCH  84  85
ATOM     85  S   UNL A   1      42.621  19.640  25.802  1.00  0.00     0.124 S 
ATOM     86  O   UNL A   1      43.052  18.772  26.891  1.00  0.00    -0.237 OA
ATOM     87  O   UNL A   1      41.214  19.543  25.427  1.00  0.00    -0.237 OA
ATOM     88  O   UNL A   1      43.552  19.762  24.683  1.00  0.00    -0.744 OA
ENDBRANCH  84  85
ENDBRANCH  52  77
BRANCH  64  89
ATOM     89  C   UNL A   1      48.267  27.076  30.827  1.00  0.00     0.058 A 
ATOM     90  C   UNL A   1      48.594  26.403  32.014  1.00  0.00     0.135 A 
ATOM     91  C   UNL A   1      49.292  27.302  29.895  1.00  0.00     0.135 A 
ATOM     92  F   UNL A   1      47.650  26.167  32.940  1.00  0.00    -0.206 F 
ATOM     93  C   UNL A   1      49.895  25.988  32.278  1.00  0.00     0.059 A 
ATOM     94  C   UNL A   1      50.595  26.873  30.128  1.00  0.00     0.059 A 
ATOM     95  F   UNL A   1      49.030  27.931  28.738  1.00  0.00    -0.206 F 
ATOM     96  C   UNL A   1      50.889  26.228  31.327  1.00  0.00     0.060 A 
BRANCH  96  97
ATOM     97  S   UNL A   1      52.568  25.654  31.664  1.00  0.00     0.124 S 
ATOM     98  O   UNL A   1      52.329  24.273  32.072  1.00  0.00    -0.237 OA
ATOM     99  O   UNL A   1      53.226  25.829  30.374  1.00  0.00    -0.237 OA
ATOM    100  O   UNL A   1      53.027  26.550  32.721  1.00  0.00    -0.744 OA
ENDBRANCH  96  97
ENDBRANCH  64  89
ENDBRANCH  38  39
ENDBRANCH  30  33
ENDBRANCH  28  29
ENDBRANCH  27  28
ENDBRANCH   1  27
TORSDOF 19
ENDMDL
