MODEL 1
REMARK VINA RESULT:     -13.4      0.000      0.000
REMARK SMILES Cc1ccccc1[C@@H](Cc1ncnn1C(C)C)C(=O)NCCCCNC(=O)c1ccc(-c2c3nc(c(-c4c(F)cc(S(=O)(=O)[O-])cc4F)c4ccc([nH]4)c(-c4c(F)cc(S(=O)(=O)[O-])cc4F)c4nc(c(-c5c(F)cc(S(=O)(=O)[O-])cc5F)c5ccc2[nH]5)C=C4)C=C3)cc1
REMARK SMILES IDX 22 1 21 2 20 3 18 4 19 5 8 7 7 8 1 9 2 10 3 11 4 12 6 13
REMARK SMILES IDX 5 14 9 15 10 16 11 17 14 18 12 19 13 20 15 21 16 22 17 23
REMARK SMILES IDX 23 24 24 25 25 26 26 27 27 29 28 30 29 31 93 32 30 33 92 34
REMARK SMILES IDX 31 35 32 36 33 37 86 38 34 39 91 40 85 41 87 42 35 43 90 44
REMARK SMILES IDX 84 45 83 46 36 48 70 49 49 50 69 51 50 52 53 53 68 54 88 55
REMARK SMILES IDX 51 56 52 57 67 59 89 60 54 61 37 62 38 63 47 64 39 65 40 66
REMARK SMILES IDX 46 67 48 68 41 69 42 70 43 71 44 72 45 73 71 74 72 75 81 76
REMARK SMILES IDX 73 77 74 78 80 79 82 80 75 81 76 82 77 83 78 84 79 85 55 86
REMARK SMILES IDX 56 87 65 88 57 89 58 90 64 91 66 92 59 93 60 94 61 95 62 96
REMARK SMILES IDX 63 97
REMARK H PARENT 20 6 25 28 87 47 53 58
REMARK Flexibility Score: inf
ROOT
ATOM      1  C   UNL A   1      33.491  27.411  26.160  1.00  0.00     0.023 C 
ENDROOT
BRANCH   1   2
ATOM      2  C   UNL A   1      31.982  27.155  26.221  1.00  0.00     0.116 C 
BRANCH   2   3
ATOM      3  N   UNL A   1      31.580  25.931  26.889  1.00  0.00    -0.356 N 
ATOM      4  C   UNL A   1      31.607  24.633  26.480  1.00  0.00     0.228 C 
ATOM      5  O   UNL A   1      31.438  23.784  27.368  1.00  0.00    -0.274 OA
ATOM      6  H   UNL A   1      31.224  26.063  27.797  1.00  0.00     0.163 HD
BRANCH   4   7
ATOM      7  C   UNL A   1      31.818  24.160  25.027  1.00  0.00     0.116 C 
BRANCH   7   8
ATOM      8  C   UNL A   1      32.713  22.920  24.913  1.00  0.00    -0.032 A 
ATOM      9  C   UNL A   1      34.882  24.315  24.755  1.00  0.00     0.044 C 
ATOM     10  C   UNL A   1      34.131  23.012  24.868  1.00  0.00    -0.047 A 
ATOM     11  C   UNL A   1      34.907  21.834  24.844  1.00  0.00     0.004 A 
ATOM     12  C   UNL A   1      34.314  20.577  24.888  1.00  0.00     0.000 A 
ATOM     13  C   UNL A   1      32.152  21.633  24.905  1.00  0.00     0.005 A 
ATOM     14  C   UNL A   1      32.934  20.478  24.914  1.00  0.00     0.000 A 
ENDBRANCH   7   8
BRANCH   7  15
ATOM     15  C   UNL A   1      30.650  24.377  24.037  1.00  0.00     0.095 C 
BRANCH  15  16
ATOM     16  C   UNL A   1      30.370  25.755  23.556  1.00  0.00     0.128 A 
ATOM     17  N   UNL A   1      29.214  26.382  23.661  1.00  0.00    -0.220 NA
ATOM     18  N   UNL A   1      31.248  26.582  22.894  1.00  0.00    -0.248 N 
ATOM     19  C   UNL A   1      29.467  27.630  23.171  1.00  0.00     0.246 A 
ATOM     20  N   UNL A   1      30.705  27.805  22.712  1.00  0.00    -0.159 NA
BRANCH  18  21
ATOM     21  C   UNL A   1      32.567  26.293  22.344  1.00  0.00     0.103 C 
ATOM     22  C   UNL A   1      32.429  25.689  20.947  1.00  0.00     0.033 C 
ATOM     23  C   UNL A   1      33.480  27.518  22.365  1.00  0.00     0.033 C 
ENDBRANCH  18  21
ENDBRANCH  15  16
ENDBRANCH   7  15
ENDBRANCH   4   7
ENDBRANCH   2   3
ENDBRANCH   1   2
BRANCH   1  24
ATOM     24  C   UNL A   1      33.911  28.875  26.043  1.00  0.00     0.023 C 
BRANCH  24  25
ATOM     25  C   UNL A   1      34.318  29.527  27.361  1.00  0.00     0.116 C 
BRANCH  25  26
ATOM     26  N   UNL A   1      35.114  30.732  27.270  1.00  0.00    -0.352 N 
ATOM     27  C   UNL A   1      36.299  30.987  27.966  1.00  0.00     0.251 C 
ATOM     28  H   UNL A   1      34.793  31.436  26.661  1.00  0.00     0.163 HD
ATOM     29  O   UNL A   1      36.614  32.100  28.312  1.00  0.00    -0.269 OA
BRANCH  27  30
ATOM     30  C   UNL A   1      37.242  29.842  28.120  1.00  0.00     0.039 A 
ATOM     31  C   UNL A   1      37.295  29.195  29.362  1.00  0.00     0.014 A 
ATOM     32  C   UNL A   1      38.196  29.565  27.149  1.00  0.00     0.014 A 
ATOM     33  C   UNL A   1      38.394  28.389  29.679  1.00  0.00     0.010 A 
ATOM     34  C   UNL A   1      39.335  28.871  27.506  1.00  0.00     0.010 A 
ATOM     35  C   UNL A   1      39.450  28.291  28.775  1.00  0.00    -0.014 A 
BRANCH  35  36
ATOM     36  C   UNL A   1      40.744  27.673  29.057  1.00  0.00     0.031 A 
ATOM     37  C   UNL A   1      41.047  26.294  28.586  1.00  0.00     0.074 A 
ATOM     38  C   UNL A   1      41.751  28.424  29.560  1.00  0.00     0.049 A 
ATOM     39  N   UNL A   1      42.019  25.569  29.038  1.00  0.00    -0.248 NA
ATOM     40  C   UNL A   1      40.272  25.611  27.553  1.00  0.00     0.031 C 
ATOM     41  C   UNL A   1      43.176  28.104  29.497  1.00  0.00     0.029 A 
ATOM     42  N   UNL A   1      41.687  29.561  30.377  1.00  0.00    -0.354 N 
ATOM     43  C   UNL A   1      42.185  24.502  28.183  1.00  0.00     0.074 A 
ATOM     44  C   UNL A   1      41.038  24.543  27.306  1.00  0.00     0.031 C 
ATOM     45  C   UNL A   1      43.822  28.810  30.432  1.00  0.00     0.029 A 
ATOM     46  C   UNL A   1      42.819  29.499  31.221  1.00  0.00     0.049 A 
ATOM     47  H   UNL A   1      40.996  30.261  30.365  1.00  0.00     0.167 HD
ATOM     48  C   UNL A   1      43.341  23.778  28.209  1.00  0.00     0.037 A 
ATOM     49  C   UNL A   1      42.718  29.420  32.579  1.00  0.00     0.037 A 
ATOM     50  C   UNL A   1      44.267  24.284  29.218  1.00  0.00     0.049 A 
ATOM     51  C   UNL A   1      43.391  28.204  33.164  1.00  0.00     0.074 A 
ATOM     52  C   UNL A   1      45.365  25.127  29.136  1.00  0.00     0.029 A 
ATOM     53  N   UNL A   1      43.959  24.171  30.569  1.00  0.00    -0.354 N 
ATOM     54  N   UNL A   1      43.709  27.152  32.463  1.00  0.00    -0.248 NA
ATOM     55  C   UNL A   1      43.767  28.064  34.569  1.00  0.00     0.031 C 
ATOM     56  C   UNL A   1      45.701  25.545  30.443  1.00  0.00     0.029 A 
ATOM     57  C   UNL A   1      44.810  24.956  31.323  1.00  0.00     0.049 A 
ATOM     58  H   UNL A   1      43.237  23.613  30.936  1.00  0.00     0.167 HD
ATOM     59  C   UNL A   1      44.294  26.214  33.269  1.00  0.00     0.074 A 
ATOM     60  C   UNL A   1      44.319  26.836  34.578  1.00  0.00     0.031 C 
ATOM     61  C   UNL A   1      44.707  25.009  32.775  1.00  0.00     0.037 A 
BRANCH  48  62
ATOM     62  C   UNL A   1      43.741  22.803  27.120  1.00  0.00     0.058 A 
ATOM     63  C   UNL A   1      42.992  21.631  26.875  1.00  0.00     0.135 A 
ATOM     64  C   UNL A   1      44.877  22.957  26.299  1.00  0.00     0.135 A 
ATOM     65  F   UNL A   1      41.840  21.383  27.510  1.00  0.00    -0.206 F 
ATOM     66  C   UNL A   1      43.395  20.641  25.977  1.00  0.00     0.059 A 
ATOM     67  C   UNL A   1      45.329  21.958  25.429  1.00  0.00     0.059 A 
ATOM     68  F   UNL A   1      45.573  24.104  26.292  1.00  0.00    -0.206 F 
ATOM     69  C   UNL A   1      44.586  20.794  25.283  1.00  0.00     0.060 A 
BRANCH  69  70
ATOM     70  S   UNL A   1      45.137  19.452  24.213  1.00  0.00     0.124 S 
ATOM     71  O   UNL A   1      46.579  19.675  24.157  1.00  0.00    -0.237 OA
ATOM     72  O   UNL A   1      44.704  18.274  24.956  1.00  0.00    -0.237 OA
ATOM     73  O   UNL A   1      44.426  19.703  22.962  1.00  0.00    -0.744 OA
ENDBRANCH  69  70
ENDBRANCH  48  62
BRANCH  49  74
ATOM     74  C   UNL A   1      41.517  30.110  33.115  1.00  0.00     0.058 A 
ATOM     75  C   UNL A   1      41.586  31.509  33.255  1.00  0.00     0.135 A 
ATOM     76  C   UNL A   1      40.246  29.529  33.007  1.00  0.00     0.135 A 
ATOM     77  F   UNL A   1      42.779  32.113  33.390  1.00  0.00    -0.206 F 
ATOM     78  C   UNL A   1      40.463  32.313  33.102  1.00  0.00     0.059 A 
ATOM     79  C   UNL A   1      39.104  30.318  32.855  1.00  0.00     0.059 A 
ATOM     80  F   UNL A   1      40.119  28.199  32.887  1.00  0.00    -0.206 F 
ATOM     81  C   UNL A   1      39.241  31.706  32.817  1.00  0.00     0.060 A 
BRANCH  81  82
ATOM     82  S   UNL A   1      37.901  32.759  32.212  1.00  0.00     0.124 S 
ATOM     83  O   UNL A   1      38.340  33.066  30.855  1.00  0.00    -0.237 OA
ATOM     84  O   UNL A   1      36.750  31.860  32.311  1.00  0.00    -0.237 OA
ATOM     85  O   UNL A   1      37.907  33.880  33.145  1.00  0.00    -0.744 OA
ENDBRANCH  81  82
ENDBRANCH  49  74
BRANCH  61  86
ATOM     86  C   UNL A   1      45.156  23.813  33.580  1.00  0.00     0.058 A 
ATOM     87  C   UNL A   1      46.369  23.753  34.285  1.00  0.00     0.135 A 
ATOM     88  C   UNL A   1      44.277  22.720  33.788  1.00  0.00     0.135 A 
ATOM     89  F   UNL A   1      47.242  24.770  34.261  1.00  0.00    -0.206 F 
ATOM     90  C   UNL A   1      46.716  22.664  35.088  1.00  0.00     0.059 A 
ATOM     91  C   UNL A   1      44.580  21.650  34.624  1.00  0.00     0.059 A 
ATOM     92  F   UNL A   1      43.077  22.659  33.191  1.00  0.00    -0.206 F 
ATOM     93  C   UNL A   1      45.814  21.617  35.254  1.00  0.00     0.060 A 
BRANCH  93  94
ATOM     94  S   UNL A   1      46.220  20.242  36.346  1.00  0.00     0.124 S 
ATOM     95  O   UNL A   1      45.919  20.812  37.655  1.00  0.00    -0.237 OA
ATOM     96  O   UNL A   1      45.314  19.189  35.894  1.00  0.00    -0.237 OA
ATOM     97  O   UNL A   1      47.632  20.003  36.065  1.00  0.00    -0.744 OA
ENDBRANCH  93  94
ENDBRANCH  61  86
ENDBRANCH  35  36
ENDBRANCH  27  30
ENDBRANCH  25  26
ENDBRANCH  24  25
ENDBRANCH   1  24
TORSDOF 18
ENDMDL
MODEL 2
REMARK VINA RESULT:     -13.3      1.079      2.793
REMARK SMILES Cc1ccccc1[C@@H](Cc1ncnn1C(C)C)C(=O)NCCCCNC(=O)c1ccc(-c2c3nc(c(-c4c(F)cc(S(=O)(=O)[O-])cc4F)c4ccc([nH]4)c(-c4c(F)cc(S(=O)(=O)[O-])cc4F)c4nc(c(-c5c(F)cc(S(=O)(=O)[O-])cc5F)c5ccc2[nH]5)C=C4)C=C3)cc1
REMARK SMILES IDX 22 1 21 2 20 3 18 4 19 5 8 7 7 8 1 9 2 10 3 11 4 12 6 13
REMARK SMILES IDX 5 14 9 15 10 16 11 17 14 18 12 19 13 20 15 21 16 22 17 23
REMARK SMILES IDX 23 24 24 25 25 26 26 27 27 29 28 30 29 31 93 32 30 33 92 34
REMARK SMILES IDX 31 35 32 36 33 37 86 38 34 39 91 40 85 41 87 42 35 43 90 44
REMARK SMILES IDX 84 45 83 46 36 48 70 49 49 50 69 51 50 52 53 53 68 54 88 55
REMARK SMILES IDX 51 56 52 57 67 59 89 60 54 61 37 62 38 63 47 64 39 65 40 66
REMARK SMILES IDX 46 67 48 68 41 69 42 70 43 71 44 72 45 73 71 74 72 75 81 76
REMARK SMILES IDX 73 77 74 78 80 79 82 80 75 81 76 82 77 83 78 84 79 85 55 86
REMARK SMILES IDX 56 87 65 88 57 89 58 90 64 91 66 92 59 93 60 94 61 95 62 96
REMARK SMILES IDX 63 97
REMARK H PARENT 20 6 25 28 87 47 53 58
REMARK Flexibility Score: inf
ROOT
ATOM      1  C   UNL A   1      33.449  27.615  26.465  1.00  0.00     0.023 C 
ENDROOT
BRANCH   1   2
ATOM      2  C   UNL A   1      32.017  28.079  26.748  1.00  0.00     0.116 C 
BRANCH   2   3
ATOM      3  N   UNL A   1      31.025  27.026  26.855  1.00  0.00    -0.356 N 
ATOM      4  C   UNL A   1      30.625  26.075  25.968  1.00  0.00     0.228 C 
ATOM      5  O   UNL A   1      29.940  25.153  26.437  1.00  0.00    -0.274 OA
ATOM      6  H   UNL A   1      30.558  26.994  27.722  1.00  0.00     0.163 HD
BRANCH   4   7
ATOM      7  C   UNL A   1      30.948  26.070  24.460  1.00  0.00     0.116 C 
BRANCH   7   8
ATOM      8  C   UNL A   1      30.332  27.253  23.700  1.00  0.00    -0.032 A 
ATOM      9  C   UNL A   1      27.919  26.377  23.991  1.00  0.00     0.044 C 
ATOM     10  C   UNL A   1      28.927  27.415  23.564  1.00  0.00    -0.047 A 
ATOM     11  C   UNL A   1      28.415  28.563  22.924  1.00  0.00     0.004 A 
ATOM     12  C   UNL A   1      29.259  29.559  22.443  1.00  0.00     0.000 A 
ATOM     13  C   UNL A   1      31.151  28.254  23.155  1.00  0.00     0.005 A 
ATOM     14  C   UNL A   1      30.629  29.400  22.555  1.00  0.00     0.000 A 
ENDBRANCH   7   8
BRANCH   7  15
ATOM     15  C   UNL A   1      32.317  25.492  24.032  1.00  0.00     0.095 C 
BRANCH  15  16
ATOM     16  C   UNL A   1      32.512  24.020  24.069  1.00  0.00     0.128 A 
ATOM     17  N   UNL A   1      31.555  23.123  24.210  1.00  0.00    -0.220 NA
ATOM     18  N   UNL A   1      33.715  23.354  24.001  1.00  0.00    -0.248 N 
ATOM     19  C   UNL A   1      32.199  21.927  24.092  1.00  0.00     0.246 A 
ATOM     20  N   UNL A   1      33.518  22.020  23.940  1.00  0.00    -0.159 NA
BRANCH  18  21
ATOM     21  C   UNL A   1      35.075  23.878  24.057  1.00  0.00     0.103 C 
ATOM     22  C   UNL A   1      35.477  24.133  25.510  1.00  0.00     0.033 C 
ATOM     23  C   UNL A   1      36.068  22.978  23.324  1.00  0.00     0.033 C 
ENDBRANCH  18  21
ENDBRANCH  15  16
ENDBRANCH   7  15
ENDBRANCH   4   7
ENDBRANCH   2   3
ENDBRANCH   1   2
BRANCH   1  24
ATOM     24  C   UNL A   1      34.513  28.710  26.465  1.00  0.00     0.023 C 
BRANCH  24  25
ATOM     25  C   UNL A   1      34.399  29.709  27.612  1.00  0.00     0.116 C 
BRANCH  25  26
ATOM     26  N   UNL A   1      35.214  30.901  27.518  1.00  0.00    -0.352 N 
ATOM     27  C   UNL A   1      36.425  31.121  28.179  1.00  0.00     0.251 C 
ATOM     28  H   UNL A   1      34.885  31.623  26.934  1.00  0.00     0.163 HD
ATOM     29  O   UNL A   1      36.771  32.221  28.537  1.00  0.00    -0.269 OA
BRANCH  27  30
ATOM     30  C   UNL A   1      37.352  29.957  28.279  1.00  0.00     0.039 A 
ATOM     31  C   UNL A   1      37.387  29.244  29.486  1.00  0.00     0.014 A 
ATOM     32  C   UNL A   1      38.309  29.718  27.301  1.00  0.00     0.014 A 
ATOM     33  C   UNL A   1      38.473  28.408  29.768  1.00  0.00     0.010 A 
ATOM     34  C   UNL A   1      39.436  28.991  27.629  1.00  0.00     0.010 A 
ATOM     35  C   UNL A   1      39.534  28.344  28.867  1.00  0.00    -0.014 A 
BRANCH  35  36
ATOM     36  C   UNL A   1      40.818  27.694  29.125  1.00  0.00     0.031 A 
ATOM     37  C   UNL A   1      41.080  26.310  28.644  1.00  0.00     0.074 A 
ATOM     38  C   UNL A   1      41.850  28.419  29.613  1.00  0.00     0.049 A 
ATOM     39  N   UNL A   1      42.042  25.560  29.077  1.00  0.00    -0.248 NA
ATOM     40  C   UNL A   1      40.271  25.650  27.622  1.00  0.00     0.031 C 
ATOM     41  C   UNL A   1      43.266  28.066  29.525  1.00  0.00     0.029 A 
ATOM     42  N   UNL A   1      41.828  29.554  30.435  1.00  0.00    -0.354 N 
ATOM     43  C   UNL A   1      42.168  24.493  28.215  1.00  0.00     0.074 A 
ATOM     44  C   UNL A   1      41.008  24.565  27.358  1.00  0.00     0.031 C 
ATOM     45  C   UNL A   1      43.945  28.753  30.451  1.00  0.00     0.029 A 
ATOM     46  C   UNL A   1      42.972  29.462  31.260  1.00  0.00     0.049 A 
ATOM     47  H   UNL A   1      41.153  30.270  30.437  1.00  0.00     0.167 HD
ATOM     48  C   UNL A   1      43.308  23.742  28.219  1.00  0.00     0.037 A 
ATOM     49  C   UNL A   1      42.892  29.380  32.619  1.00  0.00     0.037 A 
ATOM     50  C   UNL A   1      44.262  24.223  29.215  1.00  0.00     0.049 A 
ATOM     51  C   UNL A   1      43.546  28.147  33.188  1.00  0.00     0.074 A 
ATOM     52  C   UNL A   1      45.377  25.039  29.117  1.00  0.00     0.029 A 
ATOM     53  N   UNL A   1      43.974  24.111  30.570  1.00  0.00    -0.354 N 
ATOM     54  N   UNL A   1      43.826  27.090  32.478  1.00  0.00    -0.248 NA
ATOM     55  C   UNL A   1      43.941  27.993  34.586  1.00  0.00     0.031 C 
ATOM     56  C   UNL A   1      45.746  25.444  30.419  1.00  0.00     0.029 A 
ATOM     57  C   UNL A   1      44.856  24.873  31.312  1.00  0.00     0.049 A 
ATOM     58  H   UNL A   1      43.245  23.569  30.947  1.00  0.00     0.167 HD
ATOM     59  C   UNL A   1      44.403  26.135  33.271  1.00  0.00     0.074 A 
ATOM     60  C   UNL A   1      44.464  26.752  34.582  1.00  0.00     0.031 C 
ATOM     61  C   UNL A   1      44.779  24.923  32.765  1.00  0.00     0.037 A 
BRANCH  48  62
ATOM     62  C   UNL A   1      43.666  22.762  27.120  1.00  0.00     0.058 A 
ATOM     63  C   UNL A   1      42.925  21.574  26.928  1.00  0.00     0.135 A 
ATOM     64  C   UNL A   1      44.752  22.927  26.238  1.00  0.00     0.135 A 
ATOM     65  F   UNL A   1      41.814  21.313  27.628  1.00  0.00    -0.206 F 
ATOM     66  C   UNL A   1      43.298  20.582  26.020  1.00  0.00     0.059 A 
ATOM     67  C   UNL A   1      45.175  21.926  25.355  1.00  0.00     0.059 A 
ATOM     68  F   UNL A   1      45.426  24.085  26.181  1.00  0.00    -0.206 F 
ATOM     69  C   UNL A   1      44.446  20.748  25.261  1.00  0.00     0.060 A 
BRANCH  69  70
ATOM     70  S   UNL A   1      44.964  19.404  24.177  1.00  0.00     0.124 S 
ATOM     71  O   UNL A   1      44.449  19.838  22.881  1.00  0.00    -0.237 OA
ATOM     72  O   UNL A   1      46.415  19.435  24.326  1.00  0.00    -0.237 OA
ATOM     73  O   UNL A   1      44.298  18.234  24.745  1.00  0.00    -0.744 OA
ENDBRANCH  69  70
ENDBRANCH  48  62
BRANCH  49  74
ATOM     74  C   UNL A   1      41.717  30.096  33.178  1.00  0.00     0.058 A 
ATOM     75  C   UNL A   1      41.788  31.501  33.241  1.00  0.00     0.135 A 
ATOM     76  C   UNL A   1      40.444  29.510  33.163  1.00  0.00     0.135 A 
ATOM     77  F   UNL A   1      42.984  32.112  33.284  1.00  0.00    -0.206 F 
ATOM     78  C   UNL A   1      40.656  32.295  33.102  1.00  0.00     0.059 A 
ATOM     79  C   UNL A   1      39.293  30.289  33.027  1.00  0.00     0.059 A 
ATOM     80  F   UNL A   1      40.316  28.176  33.119  1.00  0.00    -0.206 F 
ATOM     81  C   UNL A   1      39.424  31.674  32.910  1.00  0.00     0.060 A 
BRANCH  81  82
ATOM     82  S   UNL A   1      38.051  32.692  32.319  1.00  0.00     0.124 S 
ATOM     83  O   UNL A   1      37.032  31.691  32.023  1.00  0.00    -0.237 OA
ATOM     84  O   UNL A   1      37.783  33.534  33.485  1.00  0.00    -0.237 OA
ATOM     85  O   UNL A   1      38.615  33.378  31.162  1.00  0.00    -0.744 OA
ENDBRANCH  81  82
ENDBRANCH  49  74
BRANCH  61  86
ATOM     86  C   UNL A   1      45.213  23.714  33.559  1.00  0.00     0.058 A 
ATOM     87  C   UNL A   1      46.523  23.508  34.021  1.00  0.00     0.135 A 
ATOM     88  C   UNL A   1      44.252  22.775  34.014  1.00  0.00     0.135 A 
ATOM     89  F   UNL A   1      47.503  24.381  33.752  1.00  0.00    -0.206 F 
ATOM     90  C   UNL A   1      46.872  22.419  34.823  1.00  0.00     0.059 A 
ATOM     91  C   UNL A   1      44.569  21.713  34.857  1.00  0.00     0.059 A 
ATOM     92  F   UNL A   1      42.960  22.865  33.666  1.00  0.00    -0.206 F 
ATOM     93  C   UNL A   1      45.888  21.527  35.239  1.00  0.00     0.060 A 
BRANCH  93  94
ATOM     94  S   UNL A   1      46.312  20.161  36.335  1.00  0.00     0.124 S 
ATOM     95  O   UNL A   1      45.713  20.600  37.592  1.00  0.00    -0.237 OA
ATOM     96  O   UNL A   1      45.668  19.017  35.695  1.00  0.00    -0.237 OA
ATOM     97  O   UNL A   1      47.771  20.148  36.297  1.00  0.00    -0.744 OA
ENDBRANCH  93  94
ENDBRANCH  61  86
ENDBRANCH  35  36
ENDBRANCH  27  30
ENDBRANCH  25  26
ENDBRANCH  24  25
ENDBRANCH   1  24
TORSDOF 18
ENDMDL
MODEL 3
REMARK VINA RESULT:     -13.3      1.249      2.666
REMARK SMILES Cc1ccccc1[C@@H](Cc1ncnn1C(C)C)C(=O)NCCCCNC(=O)c1ccc(-c2c3nc(c(-c4c(F)cc(S(=O)(=O)[O-])cc4F)c4ccc([nH]4)c(-c4c(F)cc(S(=O)(=O)[O-])cc4F)c4nc(c(-c5c(F)cc(S(=O)(=O)[O-])cc5F)c5ccc2[nH]5)C=C4)C=C3)cc1
REMARK SMILES IDX 22 1 21 2 20 3 18 4 19 5 8 7 7 8 1 9 2 10 3 11 4 12 6 13
REMARK SMILES IDX 5 14 9 15 10 16 11 17 14 18 12 19 13 20 15 21 16 22 17 23
REMARK SMILES IDX 23 24 24 25 25 26 26 27 27 29 28 30 29 31 93 32 30 33 92 34
REMARK SMILES IDX 31 35 32 36 33 37 86 38 34 39 91 40 85 41 87 42 35 43 90 44
REMARK SMILES IDX 84 45 83 46 36 48 70 49 49 50 69 51 50 52 53 53 68 54 88 55
REMARK SMILES IDX 51 56 52 57 67 59 89 60 54 61 37 62 38 63 47 64 39 65 40 66
REMARK SMILES IDX 46 67 48 68 41 69 42 70 43 71 44 72 45 73 71 74 72 75 81 76
REMARK SMILES IDX 73 77 74 78 80 79 82 80 75 81 76 82 77 83 78 84 79 85 55 86
REMARK SMILES IDX 56 87 65 88 57 89 58 90 64 91 66 92 59 93 60 94 61 95 62 96
REMARK SMILES IDX 63 97
REMARK H PARENT 20 6 25 28 87 47 53 58
REMARK Flexibility Score: inf
ROOT
ATOM      1  C   UNL A   1      31.937  29.106  27.256  1.00  0.00     0.023 C 
ENDROOT
BRANCH   1   2
ATOM      2  C   UNL A   1      32.214  27.599  27.259  1.00  0.00     0.116 C 
BRANCH   2   3
ATOM      3  N   UNL A   1      31.160  26.766  26.712  1.00  0.00    -0.356 N 
ATOM      4  C   UNL A   1      31.209  25.599  26.014  1.00  0.00     0.228 C 
ATOM      5  O   UNL A   1      30.134  24.990  25.905  1.00  0.00    -0.274 OA
ATOM      6  H   UNL A   1      30.250  27.105  26.873  1.00  0.00     0.163 HD
BRANCH   4   7
ATOM      7  C   UNL A   1      32.472  25.003  25.360  1.00  0.00     0.116 C 
BRANCH   7   8
ATOM      8  C   UNL A   1      32.731  25.528  23.941  1.00  0.00    -0.032 A 
ATOM      9  C   UNL A   1      32.613  23.172  22.887  1.00  0.00     0.044 C 
ATOM     10  C   UNL A   1      32.713  24.675  22.804  1.00  0.00    -0.047 A 
ATOM     11  C   UNL A   1      32.878  25.225  21.516  1.00  0.00     0.004 A 
ATOM     12  C   UNL A   1      33.033  26.595  21.330  1.00  0.00     0.000 A 
ATOM     13  C   UNL A   1      32.941  26.897  23.715  1.00  0.00     0.005 A 
ATOM     14  C   UNL A   1      33.069  27.430  22.432  1.00  0.00     0.000 A 
ENDBRANCH   7   8
BRANCH   7  15
ATOM     15  C   UNL A   1      33.655  24.656  26.294  1.00  0.00     0.095 C 
BRANCH  15  16
ATOM     16  C   UNL A   1      34.160  23.259  26.315  1.00  0.00     0.128 A 
ATOM     17  N   UNL A   1      33.626  22.261  26.992  1.00  0.00    -0.220 NA
ATOM     18  N   UNL A   1      35.280  22.787  25.668  1.00  0.00    -0.248 N 
ATOM     19  C   UNL A   1      34.370  21.177  26.629  1.00  0.00     0.246 A 
ATOM     20  N   UNL A   1      35.378  21.447  25.802  1.00  0.00    -0.159 NA
BRANCH  18  21
ATOM     21  C   UNL A   1      36.331  23.518  24.970  1.00  0.00     0.103 C 
ATOM     22  C   UNL A   1      37.640  23.426  25.754  1.00  0.00     0.033 C 
ATOM     23  C   UNL A   1      36.484  23.061  23.520  1.00  0.00     0.033 C 
ENDBRANCH  18  21
ENDBRANCH  15  16
ENDBRANCH   7  15
ENDBRANCH   4   7
ENDBRANCH   2   3
ENDBRANCH   1   2
BRANCH   1  24
ATOM     24  C   UNL A   1      33.014  29.977  26.610  1.00  0.00     0.023 C 
BRANCH  24  25
ATOM     25  C   UNL A   1      34.417  29.774  27.172  1.00  0.00     0.116 C 
BRANCH  25  26
ATOM     26  N   UNL A   1      35.205  30.967  27.394  1.00  0.00    -0.352 N 
ATOM     27  C   UNL A   1      36.280  31.089  28.278  1.00  0.00     0.251 C 
ATOM     28  H   UNL A   1      34.962  31.767  26.873  1.00  0.00     0.163 HD
ATOM     29  O   UNL A   1      36.533  32.124  28.845  1.00  0.00    -0.269 OA
BRANCH  27  30
ATOM     30  C   UNL A   1      37.207  29.923  28.366  1.00  0.00     0.039 A 
ATOM     31  C   UNL A   1      37.256  29.211  29.572  1.00  0.00     0.014 A 
ATOM     32  C   UNL A   1      38.150  29.681  27.375  1.00  0.00     0.014 A 
ATOM     33  C   UNL A   1      38.344  28.372  29.840  1.00  0.00     0.010 A 
ATOM     34  C   UNL A   1      39.279  28.952  27.688  1.00  0.00     0.010 A 
ATOM     35  C   UNL A   1      39.393  28.306  28.925  1.00  0.00    -0.014 A 
BRANCH  35  36
ATOM     36  C   UNL A   1      40.679  27.654  29.166  1.00  0.00     0.031 A 
ATOM     37  C   UNL A   1      40.926  26.262  28.698  1.00  0.00     0.074 A 
ATOM     38  C   UNL A   1      41.724  28.380  29.624  1.00  0.00     0.049 A 
ATOM     39  N   UNL A   1      41.893  25.514  29.121  1.00  0.00    -0.248 NA
ATOM     40  C   UNL A   1      40.095  25.593  27.700  1.00  0.00     0.031 C 
ATOM     41  C   UNL A   1      43.136  28.020  29.513  1.00  0.00     0.029 A 
ATOM     42  N   UNL A   1      41.722  29.525  30.432  1.00  0.00    -0.354 N 
ATOM     43  C   UNL A   1      41.997  24.436  28.271  1.00  0.00     0.074 A 
ATOM     44  C   UNL A   1      40.821  24.501  27.435  1.00  0.00     0.031 C 
ATOM     45  C   UNL A   1      43.836  28.715  30.417  1.00  0.00     0.029 A 
ATOM     46  C   UNL A   1      42.882  29.439  31.235  1.00  0.00     0.049 A 
ATOM     47  H   UNL A   1      41.050  30.245  30.438  1.00  0.00     0.167 HD
ATOM     48  C   UNL A   1      43.134  23.680  28.262  1.00  0.00     0.037 A 
ATOM     49  C   UNL A   1      42.829  29.374  32.597  1.00  0.00     0.037 A 
ATOM     50  C   UNL A   1      44.110  24.168  29.232  1.00  0.00     0.049 A 
ATOM     51  C   UNL A   1      43.489  28.145  33.169  1.00  0.00     0.074 A 
ATOM     52  C   UNL A   1      45.227  24.979  29.102  1.00  0.00     0.029 A 
ATOM     53  N   UNL A   1      43.848  24.075  30.594  1.00  0.00    -0.354 N 
ATOM     54  N   UNL A   1      43.750  27.079  32.466  1.00  0.00    -0.248 NA
ATOM     55  C   UNL A   1      43.911  28.007  34.560  1.00  0.00     0.031 C 
ATOM     56  C   UNL A   1      45.622  25.399  30.391  1.00  0.00     0.029 A 
ATOM     57  C   UNL A   1      44.748  24.842  31.309  1.00  0.00     0.049 A 
ATOM     58  H   UNL A   1      43.124  23.541  30.992  1.00  0.00     0.167 HD
ATOM     59  C   UNL A   1      44.339  26.131  33.260  1.00  0.00     0.074 A 
ATOM     60  C   UNL A   1      44.429  26.764  34.561  1.00  0.00     0.031 C 
ATOM     61  C   UNL A   1      44.699  24.911  32.762  1.00  0.00     0.037 A 
BRANCH  48  62
ATOM     62  C   UNL A   1      43.466  22.684  27.168  1.00  0.00     0.058 A 
ATOM     63  C   UNL A   1      42.756  21.469  27.043  1.00  0.00     0.135 A 
ATOM     64  C   UNL A   1      44.500  22.861  26.226  1.00  0.00     0.135 A 
ATOM     65  F   UNL A   1      41.691  21.191  27.806  1.00  0.00    -0.206 F 
ATOM     66  C   UNL A   1      43.113  20.467  26.140  1.00  0.00     0.059 A 
ATOM     67  C   UNL A   1      44.909  21.852  25.346  1.00  0.00     0.059 A 
ATOM     68  F   UNL A   1      45.131  24.038  26.108  1.00  0.00    -0.206 F 
ATOM     69  C   UNL A   1      44.214  20.650  25.318  1.00  0.00     0.060 A 
BRANCH  69  70
ATOM     70  S   UNL A   1      44.718  19.296  24.239  1.00  0.00     0.124 S 
ATOM     71  O   UNL A   1      43.831  18.217  24.663  1.00  0.00    -0.237 OA
ATOM     72  O   UNL A   1      44.456  19.850  22.915  1.00  0.00    -0.237 OA
ATOM     73  O   UNL A   1      46.127  19.103  24.572  1.00  0.00    -0.744 OA
ENDBRANCH  69  70
ENDBRANCH  48  62
BRANCH  49  74
ATOM     74  C   UNL A   1      41.668  30.103  33.169  1.00  0.00     0.058 A 
ATOM     75  C   UNL A   1      41.735  31.509  33.190  1.00  0.00     0.135 A 
ATOM     76  C   UNL A   1      40.397  29.512  33.209  1.00  0.00     0.135 A 
ATOM     77  F   UNL A   1      42.929  32.125  33.180  1.00  0.00    -0.206 F 
ATOM     78  C   UNL A   1      40.596  32.295  33.062  1.00  0.00     0.059 A 
ATOM     79  C   UNL A   1      39.239  30.284  33.085  1.00  0.00     0.059 A 
ATOM     80  F   UNL A   1      40.273  28.177  33.208  1.00  0.00    -0.206 F 
ATOM     81  C   UNL A   1      39.362  31.664  32.925  1.00  0.00     0.060 A 
BRANCH  81  82
ATOM     82  S   UNL A   1      37.968  32.661  32.346  1.00  0.00     0.124 S 
ATOM     83  O   UNL A   1      36.971  31.643  32.035  1.00  0.00    -0.237 OA
ATOM     84  O   UNL A   1      37.681  33.482  33.523  1.00  0.00    -0.237 OA
ATOM     85  O   UNL A   1      38.518  33.375  31.199  1.00  0.00    -0.744 OA
ENDBRANCH  81  82
ENDBRANCH  49  74
BRANCH  61  86
ATOM     86  C   UNL A   1      45.144  23.710  33.562  1.00  0.00     0.058 A 
ATOM     87  C   UNL A   1      46.459  23.512  34.015  1.00  0.00     0.135 A 
ATOM     88  C   UNL A   1      44.191  22.772  34.034  1.00  0.00     0.135 A 
ATOM     89  F   UNL A   1      47.434  24.386  33.730  1.00  0.00    -0.206 F 
ATOM     90  C   UNL A   1      46.818  22.431  34.824  1.00  0.00     0.059 A 
ATOM     91  C   UNL A   1      44.517  21.719  34.883  1.00  0.00     0.059 A 
ATOM     92  F   UNL A   1      42.895  22.856  33.696  1.00  0.00    -0.206 F 
ATOM     93  C   UNL A   1      45.840  21.540  35.255  1.00  0.00     0.060 A 
BRANCH  93  94
ATOM     94  S   UNL A   1      46.279  20.185  36.359  1.00  0.00     0.124 S 
ATOM     95  O   UNL A   1      45.565  19.069  35.747  1.00  0.00    -0.237 OA
ATOM     96  O   UNL A   1      47.734  20.136  36.253  1.00  0.00    -0.237 OA
ATOM     97  O   UNL A   1      45.769  20.633  37.651  1.00  0.00    -0.744 OA
ENDBRANCH  93  94
ENDBRANCH  61  86
ENDBRANCH  35  36
ENDBRANCH  27  30
ENDBRANCH  25  26
ENDBRANCH  24  25
ENDBRANCH   1  24
TORSDOF 18
ENDMDL
