MODEL 1
REMARK VINA RESULT:     -10.7      0.000      0.000
REMARK SMILES CCCCCCNC(=O)Oc1cccc(-c2ccc([C@@H](C)C(=O)NCCCCNC(=O)c3ccc(-c4c5nc(c(-c6c(F)cc(S(=O)(=O)[O-])cc6F)c6ccc([nH]6)c(-c6c(F)cc(S(=O)(=O)[O-])cc6F)c6nc(c(-c7c(F)cc(S(=O)(=O)[O-])cc7F)c7ccc4[nH]7)C=C6)C=C5)cc3)cc2F)c1
REMARK SMILES IDX 20 1 21 2 19 3 16 4 17 5 99 6 18 7 98 8 100 9 15 10 11 11
REMARK SMILES IDX 12 12 101 13 13 14 14 15 10 16 8 17 7 18 9 20 6 21 5 22 4 23
REMARK SMILES IDX 3 24 2 25 1 26 22 27 23 28 24 29 25 31 26 32 27 33 28 34
REMARK SMILES IDX 29 35 30 36 31 38 32 39 33 40 97 41 34 42 96 43 35 44 36 45
REMARK SMILES IDX 37 46 90 47 38 48 95 49 89 50 91 51 39 52 94 53 88 54 87 55
REMARK SMILES IDX 40 57 74 58 53 59 73 60 54 61 57 62 72 63 92 64 55 65 56 66
REMARK SMILES IDX 71 68 93 69 58 70 41 71 42 72 51 73 43 74 44 75 50 76 52 77
REMARK SMILES IDX 45 78 46 79 47 80 48 81 49 82 75 83 76 84 85 85 77 86 78 87
REMARK SMILES IDX 84 88 86 89 79 90 80 91 81 92 82 93 83 94 59 95 60 96 69 97
REMARK SMILES IDX 61 98 62 99 68 100 70 101 63 102 64 103 65 104 66 105 67 106
REMARK H PARENT 7 19 24 30 29 37 91 56 57 67
REMARK Flexibility Score: inf
ROOT
ATOM      1  C   UNL A   1      35.160  33.359  28.427  1.00  0.00     0.105 C 
ATOM      2  C   UNL A   1      34.587  34.562  27.680  1.00  0.00     0.023 C 
ENDROOT
BRANCH   1   3
ATOM      3  C   UNL A   1      34.595  32.001  28.038  1.00  0.00    -0.033 A 
ATOM      4  C   UNL A   1      33.526  29.541  27.037  1.00  0.00     0.018 A 
ATOM      5  C   UNL A   1      34.850  29.641  27.493  1.00  0.00     0.012 A 
ATOM      6  C   UNL A   1      32.737  30.695  27.157  1.00  0.00     0.131 A 
ATOM      7  C   UNL A   1      35.360  30.834  28.023  1.00  0.00     0.005 A 
ATOM      8  C   UNL A   1      33.260  31.906  27.622  1.00  0.00     0.044 A 
ATOM      9  F   UNL A   1      31.437  30.672  26.820  1.00  0.00    -0.206 F 
BRANCH   4  10
ATOM     10  C   UNL A   1      33.024  28.285  26.437  1.00  0.00    -0.012 A 
ATOM     11  C   UNL A   1      33.036  26.622  24.659  1.00  0.00     0.133 A 
ATOM     12  C   UNL A   1      32.104  25.840  25.334  1.00  0.00     0.047 A 
ATOM     13  C   UNL A   1      33.491  27.830  25.192  1.00  0.00     0.056 A 
ATOM     14  C   UNL A   1      31.632  26.267  26.568  1.00  0.00     0.004 A 
ATOM     15  C   UNL A   1      32.081  27.477  27.108  1.00  0.00     0.009 A 
BRANCH  11  16
ATOM     16  O   UNL A   1      33.398  26.207  23.370  1.00  0.00    -0.410 OA
BRANCH  16  17
ATOM     17  C   UNL A   1      32.398  26.082  22.417  1.00  0.00     0.412 C 
ATOM     18  N   UNL A   1      32.290  24.809  21.927  1.00  0.00    -0.321 N 
ATOM     19  H   UNL A   1      31.608  24.659  21.233  1.00  0.00     0.167 HD
ATOM     20  O   UNL A   1      31.670  26.979  22.013  1.00  0.00    -0.224 OA
BRANCH  18  21
ATOM     21  C   UNL A   1      33.079  23.661  22.324  1.00  0.00     0.119 C 
BRANCH  21  22
ATOM     22  C   UNL A   1      32.308  22.737  23.265  1.00  0.00     0.021 C 
BRANCH  22  23
ATOM     23  C   UNL A   1      32.460  21.241  22.961  1.00  0.00     0.002 C 
BRANCH  23  24
ATOM     24  C   UNL A   1      32.201  20.300  24.143  1.00  0.00    -0.000 C 
BRANCH  24  25
ATOM     25  C   UNL A   1      33.207  19.158  24.307  1.00  0.00    -0.003 C 
ATOM     26  C   UNL A   1      32.844  18.194  25.425  1.00  0.00     0.004 C 
ENDBRANCH  24  25
ENDBRANCH  23  24
ENDBRANCH  22  23
ENDBRANCH  21  22
ENDBRANCH  18  21
ENDBRANCH  16  17
ENDBRANCH  11  16
ENDBRANCH   4  10
ENDBRANCH   1   3
BRANCH   1  27
ATOM     27  C   UNL A   1      35.279  33.562  29.947  1.00  0.00     0.227 C 
ATOM     28  O   UNL A   1      34.277  33.431  30.660  1.00  0.00    -0.274 OA
ATOM     29  N   UNL A   1      36.442  33.869  30.583  1.00  0.00    -0.356 N 
ATOM     30  H   UNL A   1      36.368  33.902  31.564  1.00  0.00     0.163 HD
BRANCH  29  31
ATOM     31  C   UNL A   1      37.768  34.156  30.078  1.00  0.00     0.116 C 
BRANCH  31  32
ATOM     32  C   UNL A   1      38.864  33.618  30.998  1.00  0.00     0.023 C 
BRANCH  32  33
ATOM     33  C   UNL A   1      38.506  33.597  32.481  1.00  0.00     0.023 C 
BRANCH  33  34
ATOM     34  C   UNL A   1      38.395  32.210  33.101  1.00  0.00     0.116 C 
BRANCH  34  35
ATOM     35  N   UNL A   1      37.164  31.506  32.764  1.00  0.00    -0.352 N 
ATOM     36  C   UNL A   1      36.997  30.487  31.852  1.00  0.00     0.251 C 
ATOM     37  H   UNL A   1      36.355  31.790  33.248  1.00  0.00     0.163 HD
ATOM     38  O   UNL A   1      35.880  30.044  31.609  1.00  0.00    -0.269 OA
BRANCH  36  39
ATOM     39  C   UNL A   1      38.184  29.977  31.136  1.00  0.00     0.039 A 
ATOM     40  C   UNL A   1      38.351  30.291  29.786  1.00  0.00     0.014 A 
ATOM     41  C   UNL A   1      39.171  29.268  31.827  1.00  0.00     0.014 A 
ATOM     42  C   UNL A   1      39.550  29.964  29.150  1.00  0.00     0.010 A 
ATOM     43  C   UNL A   1      40.394  29.023  31.216  1.00  0.00     0.010 A 
ATOM     44  C   UNL A   1      40.599  29.370  29.872  1.00  0.00    -0.014 A 
BRANCH  44  45
ATOM     45  C   UNL A   1      41.915  29.094  29.242  1.00  0.00     0.031 A 
ATOM     46  C   UNL A   1      42.218  27.715  28.719  1.00  0.00     0.074 A 
ATOM     47  C   UNL A   1      42.855  30.062  29.194  1.00  0.00     0.049 A 
ATOM     48  N   UNL A   1      43.332  27.248  28.220  1.00  0.00    -0.248 NA
ATOM     49  C   UNL A   1      41.133  26.722  28.794  1.00  0.00     0.031 C 
ATOM     50  C   UNL A   1      42.697  31.425  29.710  1.00  0.00     0.029 A 
ATOM     51  N   UNL A   1      44.134  30.046  28.695  1.00  0.00    -0.354 N 
ATOM     52  C   UNL A   1      43.083  25.913  27.922  1.00  0.00     0.074 A 
ATOM     53  C   UNL A   1      41.737  25.624  28.363  1.00  0.00     0.031 C 
ATOM     54  C   UNL A   1      43.823  32.118  29.476  1.00  0.00     0.029 A 
ATOM     55  C   UNL A   1      44.797  31.243  28.832  1.00  0.00     0.049 A 
ATOM     56  H   UNL A   1      44.537  29.252  28.278  1.00  0.00     0.167 HD
ATOM     57  C   UNL A   1      43.888  25.018  27.302  1.00  0.00     0.037 A 
ATOM     58  C   UNL A   1      46.053  31.591  28.485  1.00  0.00     0.037 A 
ATOM     59  C   UNL A   1      45.218  25.316  26.842  1.00  0.00     0.049 A 
ATOM     60  C   UNL A   1      46.937  30.565  27.822  1.00  0.00     0.074 A 
ATOM     61  C   UNL A   1      46.106  24.485  26.184  1.00  0.00     0.029 A 
ATOM     62  N   UNL A   1      45.847  26.545  26.983  1.00  0.00    -0.354 N 
ATOM     63  N   UNL A   1      46.665  29.320  27.509  1.00  0.00    -0.248 NA
ATOM     64  C   UNL A   1      48.296  30.992  27.460  1.00  0.00     0.031 C 
ATOM     65  C   UNL A   1      47.285  25.202  25.954  1.00  0.00     0.029 A 
ATOM     66  C   UNL A   1      47.113  26.491  26.428  1.00  0.00     0.049 A 
ATOM     67  H   UNL A   1      45.450  27.336  27.412  1.00  0.00     0.167 HD
ATOM     68  C   UNL A   1      47.805  28.830  26.880  1.00  0.00     0.074 A 
ATOM     69  C   UNL A   1      48.763  29.915  26.846  1.00  0.00     0.031 C 
ATOM     70  C   UNL A   1      48.041  27.593  26.377  1.00  0.00     0.037 A 
BRANCH  57  71
ATOM     71  C   UNL A   1      43.340  23.640  27.054  1.00  0.00     0.058 A 
ATOM     72  C   UNL A   1      42.903  23.250  25.778  1.00  0.00     0.135 A 
ATOM     73  C   UNL A   1      43.304  22.681  28.080  1.00  0.00     0.135 A 
ATOM     74  F   UNL A   1      42.896  24.133  24.766  1.00  0.00    -0.206 F 
ATOM     75  C   UNL A   1      42.436  21.964  25.529  1.00  0.00     0.059 A 
ATOM     76  C   UNL A   1      42.867  21.380  27.847  1.00  0.00     0.059 A 
ATOM     77  F   UNL A   1      43.705  23.003  29.319  1.00  0.00    -0.206 F 
ATOM     78  C   UNL A   1      42.428  21.034  26.569  1.00  0.00     0.060 A 
BRANCH  78  79
ATOM     79  S   UNL A   1      41.852  19.361  26.218  1.00  0.00     0.124 S 
ATOM     80  O   UNL A   1      42.700  18.991  25.088  1.00  0.00    -0.237 OA
ATOM     81  O   UNL A   1      42.130  18.667  27.471  1.00  0.00    -0.237 OA
ATOM     82  O   UNL A   1      40.438  19.546  25.906  1.00  0.00    -0.744 OA
ENDBRANCH  78  79
ENDBRANCH  57  71
BRANCH  58  83
ATOM     83  C   UNL A   1      46.559  32.968  28.737  1.00  0.00     0.058 A 
ATOM     84  C   UNL A   1      46.414  33.979  27.774  1.00  0.00     0.135 A 
ATOM     85  C   UNL A   1      47.240  33.292  29.921  1.00  0.00     0.135 A 
ATOM     86  F   UNL A   1      45.771  33.720  26.623  1.00  0.00    -0.206 F 
ATOM     87  C   UNL A   1      46.965  35.243  27.952  1.00  0.00     0.059 A 
ATOM     88  C   UNL A   1      47.775  34.559  30.136  1.00  0.00     0.059 A 
ATOM     89  F   UNL A   1      47.391  32.370  30.885  1.00  0.00    -0.206 F 
ATOM     90  C   UNL A   1      47.653  35.521  29.133  1.00  0.00     0.060 A 
BRANCH  90  91
ATOM     91  S   UNL A   1      48.378  37.161  29.350  1.00  0.00     0.124 S 
ATOM     92  O   UNL A   1      49.704  36.972  28.773  1.00  0.00    -0.237 OA
ATOM     93  O   UNL A   1      47.465  38.006  28.588  1.00  0.00    -0.237 OA
ATOM     94  O   UNL A   1      48.341  37.355  30.797  1.00  0.00    -0.744 OA
ENDBRANCH  90  91
ENDBRANCH  58  83
BRANCH  70  95
ATOM     95  C   UNL A   1      49.362  27.361  25.697  1.00  0.00     0.058 A 
ATOM     96  C   UNL A   1      50.540  27.134  26.425  1.00  0.00     0.135 A 
ATOM     97  C   UNL A   1      49.436  27.312  24.295  1.00  0.00     0.135 A 
ATOM     98  F   UNL A   1      50.524  27.176  27.766  1.00  0.00    -0.206 F 
ATOM     99  C   UNL A   1      51.751  26.892  25.787  1.00  0.00     0.059 A 
ATOM    100  C   UNL A   1      50.630  27.042  23.637  1.00  0.00     0.059 A 
ATOM    101  F   UNL A   1      48.336  27.510  23.552  1.00  0.00    -0.206 F 
ATOM    102  C   UNL A   1      51.786  26.846  24.392  1.00  0.00     0.060 A 
BRANCH 102 103
ATOM    103  S   UNL A   1      53.359  26.494  23.578  1.00  0.00     0.124 S 
ATOM    104  O   UNL A   1      53.742  25.237  24.210  1.00  0.00    -0.237 OA
ATOM    105  O   UNL A   1      52.971  26.406  22.174  1.00  0.00    -0.237 OA
ATOM    106  O   UNL A   1      54.185  27.648  23.922  1.00  0.00    -0.744 OA
ENDBRANCH 102 103
ENDBRANCH  70  95
ENDBRANCH  44  45
ENDBRANCH  36  39
ENDBRANCH  34  35
ENDBRANCH  33  34
ENDBRANCH  32  33
ENDBRANCH  31  32
ENDBRANCH  29  31
ENDBRANCH   1  27
TORSDOF 23
ENDMDL
MODEL 2
REMARK VINA RESULT:     -10.5      5.579     11.936
REMARK SMILES CCCCCCNC(=O)Oc1cccc(-c2ccc([C@@H](C)C(=O)NCCCCNC(=O)c3ccc(-c4c5nc(c(-c6c(F)cc(S(=O)(=O)[O-])cc6F)c6ccc([nH]6)c(-c6c(F)cc(S(=O)(=O)[O-])cc6F)c6nc(c(-c7c(F)cc(S(=O)(=O)[O-])cc7F)c7ccc4[nH]7)C=C6)C=C5)cc3)cc2F)c1
REMARK SMILES IDX 20 1 21 2 19 3 16 4 17 5 99 6 18 7 98 8 100 9 15 10 11 11
REMARK SMILES IDX 12 12 101 13 13 14 14 15 10 16 8 17 7 18 9 20 6 21 5 22 4 23
REMARK SMILES IDX 3 24 2 25 1 26 22 27 23 28 24 29 25 31 26 32 27 33 28 34
REMARK SMILES IDX 29 35 30 36 31 38 32 39 33 40 97 41 34 42 96 43 35 44 36 45
REMARK SMILES IDX 37 46 90 47 38 48 95 49 89 50 91 51 39 52 94 53 88 54 87 55
REMARK SMILES IDX 40 57 74 58 53 59 73 60 54 61 57 62 72 63 92 64 55 65 56 66
REMARK SMILES IDX 71 68 93 69 58 70 41 71 42 72 51 73 43 74 44 75 50 76 52 77
REMARK SMILES IDX 45 78 46 79 47 80 48 81 49 82 75 83 76 84 85 85 77 86 78 87
REMARK SMILES IDX 84 88 86 89 79 90 80 91 81 92 82 93 83 94 59 95 60 96 69 97
REMARK SMILES IDX 61 98 62 99 68 100 70 101 63 102 64 103 65 104 66 105 67 106
REMARK H PARENT 7 19 24 30 29 37 91 56 57 67
REMARK Flexibility Score: inf
ROOT
ATOM      1  C   UNL A   1      41.660  22.649  27.511  1.00  0.00     0.105 C 
ATOM      2  C   UNL A   1      41.669  21.645  28.663  1.00  0.00     0.023 C 
ENDROOT
BRANCH   1   3
ATOM      3  C   UNL A   1      40.323  22.853  26.816  1.00  0.00    -0.033 A 
ATOM      4  C   UNL A   1      37.691  23.077  25.712  1.00  0.00     0.018 A 
ATOM      5  C   UNL A   1      38.326  24.163  26.336  1.00  0.00     0.012 A 
ATOM      6  C   UNL A   1      38.440  21.896  25.603  1.00  0.00     0.131 A 
ATOM      7  C   UNL A   1      39.631  24.065  26.837  1.00  0.00     0.005 A 
ATOM      8  C   UNL A   1      39.716  21.773  26.161  1.00  0.00     0.044 A 
ATOM      9  F   UNL A   1      37.944  20.831  24.952  1.00  0.00    -0.206 F 
BRANCH   4  10
ATOM     10  C   UNL A   1      36.295  23.190  25.233  1.00  0.00    -0.012 A 
ATOM     11  C   UNL A   1      33.895  23.075  25.623  1.00  0.00     0.133 A 
ATOM     12  C   UNL A   1      33.626  23.478  24.319  1.00  0.00     0.047 A 
ATOM     13  C   UNL A   1      35.206  22.925  26.080  1.00  0.00     0.056 A 
ATOM     14  C   UNL A   1      34.687  23.750  23.464  1.00  0.00     0.004 A 
ATOM     15  C   UNL A   1      36.003  23.601  23.915  1.00  0.00     0.009 A 
BRANCH  11  16
ATOM     16  O   UNL A   1      32.796  22.706  26.412  1.00  0.00    -0.410 OA
BRANCH  16  17
ATOM     17  C   UNL A   1      31.632  22.313  25.770  1.00  0.00     0.412 C 
ATOM     18  N   UNL A   1      31.640  20.990  25.421  1.00  0.00    -0.321 N 
ATOM     19  H   UNL A   1      30.846  20.653  24.945  1.00  0.00     0.167 HD
ATOM     20  O   UNL A   1      30.676  23.030  25.507  1.00  0.00    -0.224 OA
BRANCH  18  21
ATOM     21  C   UNL A   1      32.698  20.035  25.679  1.00  0.00     0.119 C 
BRANCH  21  22
ATOM     22  C   UNL A   1      33.549  19.776  24.438  1.00  0.00     0.021 C 
BRANCH  22  23
ATOM     23  C   UNL A   1      33.794  18.295  24.126  1.00  0.00     0.002 C 
BRANCH  23  24
ATOM     24  C   UNL A   1      32.939  17.305  24.927  1.00  0.00    -0.000 C 
BRANCH  24  25
ATOM     25  C   UNL A   1      33.080  15.836  24.520  1.00  0.00    -0.003 C 
ATOM     26  C   UNL A   1      32.896  14.872  25.681  1.00  0.00     0.004 C 
ENDBRANCH  24  25
ENDBRANCH  23  24
ENDBRANCH  22  23
ENDBRANCH  21  22
ENDBRANCH  18  21
ENDBRANCH  16  17
ENDBRANCH  11  16
ENDBRANCH   4  10
ENDBRANCH   1   3
BRANCH   1  27
ATOM     27  C   UNL A   1      42.842  22.498  26.538  1.00  0.00     0.227 C 
ATOM     28  O   UNL A   1      42.640  22.073  25.394  1.00  0.00    -0.274 OA
ATOM     29  N   UNL A   1      44.127  22.822  26.849  1.00  0.00    -0.356 N 
ATOM     30  H   UNL A   1      44.758  22.731  26.099  1.00  0.00     0.163 HD
BRANCH  29  31
ATOM     31  C   UNL A   1      44.732  23.277  28.082  1.00  0.00     0.116 C 
BRANCH  31  32
ATOM     32  C   UNL A   1      45.615  24.508  27.872  1.00  0.00     0.023 C 
BRANCH  32  33
ATOM     33  C   UNL A   1      46.020  24.767  26.423  1.00  0.00     0.023 C 
BRANCH  33  34
ATOM     34  C   UNL A   1      45.405  26.009  25.791  1.00  0.00     0.116 C 
BRANCH  34  35
ATOM     35  N   UNL A   1      44.122  25.770  25.142  1.00  0.00    -0.352 N 
ATOM     36  C   UNL A   1      42.868  26.116  25.597  1.00  0.00     0.251 C 
ATOM     37  H   UNL A   1      44.154  25.308  24.274  1.00  0.00     0.163 HD
ATOM     38  O   UNL A   1      41.865  25.775  24.981  1.00  0.00    -0.269 OA
BRANCH  36  39
ATOM     39  C   UNL A   1      42.758  26.863  26.867  1.00  0.00     0.039 A 
ATOM     40  C   UNL A   1      43.143  28.205  26.901  1.00  0.00     0.014 A 
ATOM     41  C   UNL A   1      42.188  26.260  27.991  1.00  0.00     0.014 A 
ATOM     42  C   UNL A   1      42.879  28.964  28.042  1.00  0.00     0.010 A 
ATOM     43  C   UNL A   1      41.849  27.038  29.090  1.00  0.00     0.010 A 
ATOM     44  C   UNL A   1      42.189  28.400  29.128  1.00  0.00    -0.014 A 
BRANCH  44  45
ATOM     45  C   UNL A   1      41.816  29.209  30.316  1.00  0.00     0.031 A 
ATOM     46  C   UNL A   1      42.638  29.109  31.574  1.00  0.00     0.074 A 
ATOM     47  C   UNL A   1      40.713  29.985  30.284  1.00  0.00     0.049 A 
ATOM     48  N   UNL A   1      42.430  29.659  32.742  1.00  0.00    -0.248 NA
ATOM     49  C   UNL A   1      43.835  28.254  31.521  1.00  0.00     0.031 C 
ATOM     50  C   UNL A   1      39.809  30.130  29.138  1.00  0.00     0.029 A 
ATOM     51  N   UNL A   1      40.156  30.793  31.244  1.00  0.00    -0.354 N 
ATOM     52  C   UNL A   1      43.466  29.219  33.558  1.00  0.00     0.074 A 
ATOM     53  C   UNL A   1      44.260  28.299  32.775  1.00  0.00     0.031 C 
ATOM     54  C   UNL A   1      38.831  30.993  29.454  1.00  0.00     0.029 A 
ATOM     55  C   UNL A   1      39.010  31.434  30.833  1.00  0.00     0.049 A 
ATOM     56  H   UNL A   1      40.542  30.903  32.142  1.00  0.00     0.167 HD
ATOM     57  C   UNL A   1      43.752  29.577  34.831  1.00  0.00     0.037 A 
ATOM     58  C   UNL A   1      38.192  32.274  31.499  1.00  0.00     0.037 A 
ATOM     59  C   UNL A   1      42.974  30.512  35.599  1.00  0.00     0.049 A 
ATOM     60  C   UNL A   1      38.521  32.632  32.926  1.00  0.00     0.074 A 
ATOM     61  C   UNL A   1      43.193  30.957  36.890  1.00  0.00     0.029 A 
ATOM     62  N   UNL A   1      41.832  31.153  35.141  1.00  0.00    -0.354 N 
ATOM     63  N   UNL A   1      39.532  32.239  33.665  1.00  0.00    -0.248 NA
ATOM     64  C   UNL A   1      37.601  33.553  33.609  1.00  0.00     0.031 C 
ATOM     65  C   UNL A   1      42.165  31.845  37.225  1.00  0.00     0.029 A 
ATOM     66  C   UNL A   1      41.333  31.986  36.127  1.00  0.00     0.049 A 
ATOM     67  H   UNL A   1      41.436  31.033  34.248  1.00  0.00     0.167 HD
ATOM     68  C   UNL A   1      39.388  32.895  34.883  1.00  0.00     0.074 A 
ATOM     69  C   UNL A   1      38.202  33.719  34.778  1.00  0.00     0.031 C 
ATOM     70  C   UNL A   1      40.166  32.822  35.992  1.00  0.00     0.037 A 
BRANCH  57  71
ATOM     71  C   UNL A   1      44.980  28.982  35.464  1.00  0.00     0.058 A 
ATOM     72  C   UNL A   1      46.225  29.623  35.379  1.00  0.00     0.135 A 
ATOM     73  C   UNL A   1      44.904  27.796  36.213  1.00  0.00     0.135 A 
ATOM     74  F   UNL A   1      46.359  30.750  34.659  1.00  0.00    -0.206 F 
ATOM     75  C   UNL A   1      47.356  29.104  35.999  1.00  0.00     0.059 A 
ATOM     76  C   UNL A   1      46.017  27.272  36.864  1.00  0.00     0.059 A 
ATOM     77  F   UNL A   1      43.738  27.139  36.322  1.00  0.00    -0.206 F 
ATOM     78  C   UNL A   1      47.240  27.931  36.745  1.00  0.00     0.060 A 
BRANCH  78  79
ATOM     79  S   UNL A   1      48.712  27.292  37.571  1.00  0.00     0.124 S 
ATOM     80  O   UNL A   1      48.280  25.946  37.937  1.00  0.00    -0.237 OA
ATOM     81  O   UNL A   1      49.718  27.369  36.517  1.00  0.00    -0.237 OA
ATOM     82  O   UNL A   1      48.903  28.213  38.687  1.00  0.00    -0.744 OA
ENDBRANCH  78  79
ENDBRANCH  57  71
BRANCH  58  83
ATOM     83  C   UNL A   1      36.990  32.851  30.837  1.00  0.00     0.058 A 
ATOM     84  C   UNL A   1      37.085  34.012  30.053  1.00  0.00     0.135 A 
ATOM     85  C   UNL A   1      35.717  32.288  31.012  1.00  0.00     0.135 A 
ATOM     86  F   UNL A   1      38.281  34.592  29.857  1.00  0.00    -0.206 F 
ATOM     87  C   UNL A   1      35.960  34.620  29.507  1.00  0.00     0.059 A 
ATOM     88  C   UNL A   1      34.579  32.861  30.450  1.00  0.00     0.059 A 
ATOM     89  F   UNL A   1      35.570  31.166  31.734  1.00  0.00    -0.206 F 
ATOM     90  C   UNL A   1      34.709  34.042  29.720  1.00  0.00     0.060 A 
BRANCH  90  91
ATOM     91  S   UNL A   1      33.251  34.846  29.020  1.00  0.00     0.124 S 
ATOM     92  O   UNL A   1      32.472  35.132  30.218  1.00  0.00    -0.237 OA
ATOM     93  O   UNL A   1      33.831  36.001  28.343  1.00  0.00    -0.237 OA
ATOM     94  O   UNL A   1      32.697  33.824  28.136  1.00  0.00    -0.744 OA
ENDBRANCH  90  91
ENDBRANCH  58  83
BRANCH  70  95
ATOM     95  C   UNL A   1      39.795  33.694  37.158  1.00  0.00     0.058 A 
ATOM     96  C   UNL A   1      38.790  33.329  38.066  1.00  0.00     0.135 A 
ATOM     97  C   UNL A   1      40.496  34.888  37.400  1.00  0.00     0.135 A 
ATOM     98  F   UNL A   1      38.087  32.201  37.878  1.00  0.00    -0.206 F 
ATOM     99  C   UNL A   1      38.473  34.129  39.159  1.00  0.00     0.059 A 
ATOM    100  C   UNL A   1      40.216  35.688  38.502  1.00  0.00     0.059 A 
ATOM    101  F   UNL A   1      41.475  35.278  36.568  1.00  0.00    -0.206 F 
ATOM    102  C   UNL A   1      39.194  35.306  39.370  1.00  0.00     0.060 A 
BRANCH 102 103
ATOM    103  S   UNL A   1      38.797  36.316  40.812  1.00  0.00     0.124 S 
ATOM    104  O   UNL A   1      38.268  37.524  40.189  1.00  0.00    -0.237 OA
ATOM    105  O   UNL A   1      37.824  35.486  41.515  1.00  0.00    -0.237 OA
ATOM    106  O   UNL A   1      40.084  36.468  41.485  1.00  0.00    -0.744 OA
ENDBRANCH 102 103
ENDBRANCH  70  95
ENDBRANCH  44  45
ENDBRANCH  36  39
ENDBRANCH  34  35
ENDBRANCH  33  34
ENDBRANCH  32  33
ENDBRANCH  31  32
ENDBRANCH  29  31
ENDBRANCH   1  27
TORSDOF 23
ENDMDL
MODEL 3
REMARK VINA RESULT:      -9.9      2.699      9.848
REMARK SMILES CCCCCCNC(=O)Oc1cccc(-c2ccc([C@@H](C)C(=O)NCCCCNC(=O)c3ccc(-c4c5nc(c(-c6c(F)cc(S(=O)(=O)[O-])cc6F)c6ccc([nH]6)c(-c6c(F)cc(S(=O)(=O)[O-])cc6F)c6nc(c(-c7c(F)cc(S(=O)(=O)[O-])cc7F)c7ccc4[nH]7)C=C6)C=C5)cc3)cc2F)c1
REMARK SMILES IDX 20 1 21 2 19 3 16 4 17 5 99 6 18 7 98 8 100 9 15 10 11 11
REMARK SMILES IDX 12 12 101 13 13 14 14 15 10 16 8 17 7 18 9 20 6 21 5 22 4 23
REMARK SMILES IDX 3 24 2 25 1 26 22 27 23 28 24 29 25 31 26 32 27 33 28 34
REMARK SMILES IDX 29 35 30 36 31 38 32 39 33 40 97 41 34 42 96 43 35 44 36 45
REMARK SMILES IDX 37 46 90 47 38 48 95 49 89 50 91 51 39 52 94 53 88 54 87 55
REMARK SMILES IDX 40 57 74 58 53 59 73 60 54 61 57 62 72 63 92 64 55 65 56 66
REMARK SMILES IDX 71 68 93 69 58 70 41 71 42 72 51 73 43 74 44 75 50 76 52 77
REMARK SMILES IDX 45 78 46 79 47 80 48 81 49 82 75 83 76 84 85 85 77 86 78 87
REMARK SMILES IDX 84 88 86 89 79 90 80 91 81 92 82 93 83 94 59 95 60 96 69 97
REMARK SMILES IDX 61 98 62 99 68 100 70 101 63 102 64 103 65 104 66 105 67 106
REMARK H PARENT 7 19 24 30 29 37 91 56 57 67
REMARK Flexibility Score: inf
ROOT
ATOM      1  C   UNL A   1      33.147  23.794  24.260  1.00  0.00     0.105 C 
ATOM      2  C   UNL A   1      34.162  23.575  23.141  1.00  0.00     0.023 C 
ENDROOT
BRANCH   1   3
ATOM      3  C   UNL A   1      33.130  25.181  24.883  1.00  0.00    -0.033 A 
ATOM      4  C   UNL A   1      32.921  27.870  25.845  1.00  0.00     0.018 A 
ATOM      5  C   UNL A   1      32.328  26.793  26.523  1.00  0.00     0.012 A 
ATOM      6  C   UNL A   1      33.675  27.549  24.707  1.00  0.00     0.131 A 
ATOM      7  C   UNL A   1      32.466  25.472  26.076  1.00  0.00     0.005 A 
ATOM      8  C   UNL A   1      33.761  26.242  24.218  1.00  0.00     0.044 A 
ATOM      9  F   UNL A   1      34.344  28.503  24.039  1.00  0.00    -0.206 F 
BRANCH   4  10
ATOM     10  C   UNL A   1      32.721  29.261  26.310  1.00  0.00    -0.012 A 
ATOM     11  C   UNL A   1      33.403  31.178  27.645  1.00  0.00     0.133 A 
ATOM     12  C   UNL A   1      32.363  31.949  27.137  1.00  0.00     0.047 A 
ATOM     13  C   UNL A   1      33.584  29.852  27.247  1.00  0.00     0.056 A 
ATOM     14  C   UNL A   1      31.498  31.387  26.206  1.00  0.00     0.004 A 
ATOM     15  C   UNL A   1      31.672  30.059  25.804  1.00  0.00     0.009 A 
BRANCH  11  16
ATOM     16  O   UNL A   1      34.179  31.751  28.662  1.00  0.00    -0.410 OA
BRANCH  16  17
ATOM     17  C   UNL A   1      35.142  32.683  28.304  1.00  0.00     0.412 C 
ATOM     18  N   UNL A   1      34.980  33.883  28.943  1.00  0.00    -0.321 N 
ATOM     19  H   UNL A   1      35.623  34.594  28.719  1.00  0.00     0.167 HD
ATOM     20  O   UNL A   1      36.050  32.511  27.503  1.00  0.00    -0.224 OA
BRANCH  18  21
ATOM     21  C   UNL A   1      33.957  34.213  29.915  1.00  0.00     0.119 C 
BRANCH  21  22
ATOM     22  C   UNL A   1      33.325  35.575  29.637  1.00  0.00     0.021 C 
BRANCH  22  23
ATOM     23  C   UNL A   1      32.544  36.170  30.815  1.00  0.00     0.002 C 
BRANCH  23  24
ATOM     24  C   UNL A   1      33.259  37.292  31.577  1.00  0.00    -0.000 C 
BRANCH  24  25
ATOM     25  C   UNL A   1      34.361  36.837  32.537  1.00  0.00    -0.003 C 
ATOM     26  C   UNL A   1      33.842  36.477  33.920  1.00  0.00     0.004 C 
ENDBRANCH  24  25
ENDBRANCH  23  24
ENDBRANCH  22  23
ENDBRANCH  21  22
ENDBRANCH  18  21
ENDBRANCH  16  17
ENDBRANCH  11  16
ENDBRANCH   4  10
ENDBRANCH   1   3
BRANCH   1  27
ATOM     27  C   UNL A   1      33.098  22.656  25.295  1.00  0.00     0.227 C 
ATOM     28  O   UNL A   1      32.027  22.078  25.516  1.00  0.00    -0.274 OA
ATOM     29  N   UNL A   1      34.181  22.217  25.992  1.00  0.00    -0.356 N 
ATOM     30  H   UNL A   1      34.002  21.439  26.568  1.00  0.00     0.163 HD
BRANCH  29  31
ATOM     31  C   UNL A   1      35.549  22.688  26.040  1.00  0.00     0.116 C 
BRANCH  31  32
ATOM     32  C   UNL A   1      36.549  21.592  25.670  1.00  0.00     0.023 C 
BRANCH  32  33
ATOM     33  C   UNL A   1      37.917  22.096  25.220  1.00  0.00     0.023 C 
BRANCH  33  34
ATOM     34  C   UNL A   1      39.053  21.859  26.207  1.00  0.00     0.116 C 
BRANCH  34  35
ATOM     35  N   UNL A   1      39.744  20.589  26.023  1.00  0.00    -0.352 N 
ATOM     36  C   UNL A   1      41.097  20.345  26.107  1.00  0.00     0.251 C 
ATOM     37  H   UNL A   1      39.176  19.813  25.815  1.00  0.00     0.163 HD
ATOM     38  O   UNL A   1      41.548  19.236  25.843  1.00  0.00    -0.269 OA
BRANCH  36  39
ATOM     39  C   UNL A   1      41.996  21.459  26.473  1.00  0.00     0.039 A 
ATOM     40  C   UNL A   1      42.341  22.400  25.501  1.00  0.00     0.014 A 
ATOM     41  C   UNL A   1      42.416  21.618  27.796  1.00  0.00     0.014 A 
ATOM     42  C   UNL A   1      43.042  23.547  25.878  1.00  0.00     0.010 A 
ATOM     43  C   UNL A   1      43.036  22.800  28.182  1.00  0.00     0.010 A 
ATOM     44  C   UNL A   1      43.354  23.779  27.228  1.00  0.00    -0.014 A 
BRANCH  44  45
ATOM     45  C   UNL A   1      44.019  25.032  27.667  1.00  0.00     0.031 A 
ATOM     46  C   UNL A   1      43.208  26.115  28.329  1.00  0.00     0.074 A 
ATOM     47  C   UNL A   1      45.332  25.221  27.418  1.00  0.00     0.049 A 
ATOM     48  N   UNL A   1      43.577  27.312  28.701  1.00  0.00    -0.248 NA
ATOM     49  C   UNL A   1      41.786  25.822  28.578  1.00  0.00     0.031 C 
ATOM     50  C   UNL A   1      46.215  24.266  26.742  1.00  0.00     0.029 A 
ATOM     51  N   UNL A   1      46.153  26.285  27.697  1.00  0.00    -0.354 N 
ATOM     52  C   UNL A   1      42.439  27.913  29.227  1.00  0.00     0.074 A 
ATOM     53  C   UNL A   1      41.349  26.977  29.060  1.00  0.00     0.031 C 
ATOM     54  C   UNL A   1      47.455  24.776  26.685  1.00  0.00     0.029 A 
ATOM     55  C   UNL A   1      47.452  26.107  27.280  1.00  0.00     0.049 A 
ATOM     56  H   UNL A   1      45.841  27.099  28.154  1.00  0.00     0.167 HD
ATOM     57  C   UNL A   1      42.319  29.118  29.830  1.00  0.00     0.037 A 
ATOM     58  C   UNL A   1      48.517  26.931  27.363  1.00  0.00     0.037 A 
ATOM     59  C   UNL A   1      43.410  30.037  30.018  1.00  0.00     0.049 A 
ATOM     60  C   UNL A   1      48.346  28.280  28.014  1.00  0.00     0.074 A 
ATOM     61  C   UNL A   1      43.396  31.274  30.635  1.00  0.00     0.029 A 
ATOM     62  N   UNL A   1      44.713  29.812  29.598  1.00  0.00    -0.354 N 
ATOM     63  N   UNL A   1      47.270  28.810  28.545  1.00  0.00    -0.248 NA
ATOM     64  C   UNL A   1      49.535  29.141  28.081  1.00  0.00     0.031 C 
ATOM     65  C   UNL A   1      44.685  31.813  30.562  1.00  0.00     0.029 A 
ATOM     66  C   UNL A   1      45.510  30.891  29.940  1.00  0.00     0.049 A 
ATOM     67  H   UNL A   1      45.024  29.005  29.129  1.00  0.00     0.167 HD
ATOM     68  C   UNL A   1      47.664  30.048  29.044  1.00  0.00     0.074 A 
ATOM     69  C   UNL A   1      49.078  30.182  28.761  1.00  0.00     0.031 C 
ATOM     70  C   UNL A   1      46.923  30.992  29.676  1.00  0.00     0.037 A 
BRANCH  57  71
ATOM     71  C   UNL A   1      40.966  29.501  30.364  1.00  0.00     0.058 A 
ATOM     72  C   UNL A   1      40.596  29.208  31.686  1.00  0.00     0.135 A 
ATOM     73  C   UNL A   1      40.053  30.217  29.571  1.00  0.00     0.135 A 
ATOM     74  F   UNL A   1      41.421  28.508  32.481  1.00  0.00    -0.206 F 
ATOM     75  C   UNL A   1      39.364  29.597  32.201  1.00  0.00     0.059 A 
ATOM     76  C   UNL A   1      38.826  30.641  30.074  1.00  0.00     0.059 A 
ATOM     77  F   UNL A   1      40.354  30.518  28.299  1.00  0.00    -0.206 F 
ATOM     78  C   UNL A   1      38.489  30.319  31.389  1.00  0.00     0.060 A 
BRANCH  78  79
ATOM     79  S   UNL A   1      36.910  30.846  32.087  1.00  0.00     0.124 S 
ATOM     80  O   UNL A   1      36.075  29.675  31.836  1.00  0.00    -0.237 OA
ATOM     81  O   UNL A   1      37.254  31.090  33.484  1.00  0.00    -0.237 OA
ATOM     82  O   UNL A   1      36.573  32.034  31.309  1.00  0.00    -0.744 OA
ENDBRANCH  78  79
ENDBRANCH  57  71
BRANCH  58  83
ATOM     83  C   UNL A   1      49.844  26.514  26.832  1.00  0.00     0.058 A 
ATOM     84  C   UNL A   1      50.211  26.792  25.506  1.00  0.00     0.135 A 
ATOM     85  C   UNL A   1      50.751  25.789  27.619  1.00  0.00     0.135 A 
ATOM     86  F   UNL A   1      49.377  27.481  24.711  1.00  0.00    -0.206 F 
ATOM     87  C   UNL A   1      51.405  26.327  24.965  1.00  0.00     0.059 A 
ATOM     88  C   UNL A   1      51.966  25.338  27.110  1.00  0.00     0.059 A 
ATOM     89  F   UNL A   1      50.462  25.512  28.901  1.00  0.00    -0.206 F 
ATOM     90  C   UNL A   1      52.272  25.591  25.773  1.00  0.00     0.060 A 
BRANCH  90  91
ATOM     91  S   UNL A   1      53.813  24.978  25.058  1.00  0.00     0.124 S 
ATOM     92  O   UNL A   1      53.568  23.542  25.024  1.00  0.00    -0.237 OA
ATOM     93  O   UNL A   1      53.843  25.652  23.764  1.00  0.00    -0.237 OA
ATOM     94  O   UNL A   1      54.825  25.423  26.012  1.00  0.00    -0.744 OA
ENDBRANCH  90  91
ENDBRANCH  58  83
BRANCH  70  95
ATOM     95  C   UNL A   1      47.636  32.225  30.156  1.00  0.00     0.058 A 
ATOM     96  C   UNL A   1      47.732  33.380  29.366  1.00  0.00     0.135 A 
ATOM     97  C   UNL A   1      48.182  32.267  31.450  1.00  0.00     0.135 A 
ATOM     98  F   UNL A   1      47.231  33.390  28.121  1.00  0.00    -0.206 F 
ATOM     99  C   UNL A   1      48.368  34.526  29.830  1.00  0.00     0.059 A 
ATOM    100  C   UNL A   1      48.796  33.412  31.946  1.00  0.00     0.059 A 
ATOM    101  F   UNL A   1      48.107  31.193  32.252  1.00  0.00    -0.206 F 
ATOM    102  C   UNL A   1      48.895  34.533  31.123  1.00  0.00     0.060 A 
BRANCH 102 103
ATOM    103  S   UNL A   1      49.686  36.040  31.726  1.00  0.00     0.124 S 
ATOM    104  O   UNL A   1      50.831  36.150  30.831  1.00  0.00    -0.237 OA
ATOM    105  O   UNL A   1      48.637  37.038  31.540  1.00  0.00    -0.237 OA
ATOM    106  O   UNL A   1      50.003  35.725  33.117  1.00  0.00    -0.744 OA
ENDBRANCH 102 103
ENDBRANCH  70  95
ENDBRANCH  44  45
ENDBRANCH  36  39
ENDBRANCH  34  35
ENDBRANCH  33  34
ENDBRANCH  32  33
ENDBRANCH  31  32
ENDBRANCH  29  31
ENDBRANCH   1  27
TORSDOF 23
ENDMDL
