MODEL 1
REMARK VINA RESULT:     -13.0      0.000      0.000
REMARK SMILES N#Cc1cccnc1N1CC[NH+]([C@@H](C(=O)NCCCCNC(=O)c2ccc(-c3c4nc(c(-c5c(F)cc(S(=O)(=O)[O-])cc5F)c5ccc([nH]5)c(-c5c(F)cc(S(=O)(=O)[O-])cc5F)c5nc(c(-c6c(F)cc(S(=O)(=O)[O-])cc6F)c6ccc3[nH]6)C=C5)C=C4)cc2)c2c[nH]c3cc(CO)ccc23)CC1
REMARK SMILES IDX 18 1 17 2 16 3 14 4 15 5 13 7 12 8 9 9 10 10 102 11 11 12
REMARK SMILES IDX 101 13 8 15 3 16 4 17 5 18 7 19 6 20 2 21 1 22 90 23 91 24
REMARK SMILES IDX 100 25 92 26 93 27 99 28 94 30 98 31 95 32 96 33 97 34 19 36
REMARK SMILES IDX 20 37 21 38 22 39 23 41 24 42 25 43 89 44 26 45 88 46 27 47
REMARK SMILES IDX 28 48 29 49 82 50 30 51 87 52 81 53 83 54 31 55 86 56 80 57
REMARK SMILES IDX 79 58 32 60 66 61 45 62 65 63 46 64 49 65 64 66 84 67 47 68
REMARK SMILES IDX 48 69 63 71 85 72 50 73 33 74 34 75 43 76 35 77 36 78 42 79
REMARK SMILES IDX 44 80 37 81 38 82 39 83 40 84 41 85 67 86 68 87 77 88 69 89
REMARK SMILES IDX 70 90 76 91 78 92 71 93 72 94 73 95 74 96 75 97 51 98 52 99
REMARK SMILES IDX 61 100 53 101 54 102 60 103 62 104 55 105 56 106 57 107
REMARK SMILES IDX 58 108 59 109
REMARK H PARENT 16 6 12 14 92 29 97 35 21 40 83 59 49 70
REMARK Flexibility Score: inf
ROOT
ATOM      1  C   UNL A   1      33.378  30.411  26.912  1.00  0.00     0.023 C 
ENDROOT
BRANCH   1   2
ATOM      2  C   UNL A   1      32.625  29.626  25.801  1.00  0.00     0.116 C 
BRANCH   2   3
ATOM      3  N   UNL A   1      31.728  28.559  26.243  1.00  0.00    -0.351 N 
ATOM      4  C   UNL A   1      31.387  27.294  25.822  1.00  0.00     0.283 C 
ATOM      5  O   UNL A   1      30.667  26.695  26.629  1.00  0.00    -0.268 OA
ATOM      6  H   UNL A   1      31.240  28.812  27.059  1.00  0.00     0.163 HD
BRANCH   4   7
ATOM      7  C   UNL A   1      31.893  26.647  24.497  1.00  0.00     0.307 C 
BRANCH   7   8
ATOM      8  N   UNL A   1      33.379  26.323  24.390  1.00  0.00    -0.318 N 
ATOM      9  N   UNL A   1      34.038  23.429  24.647  1.00  0.00    -0.344 N 
ATOM     10  C   UNL A   1      33.692  24.244  25.817  1.00  0.00     0.179 C 
ATOM     11  C   UNL A   1      33.569  23.985  23.367  1.00  0.00     0.179 C 
ATOM     12  C   UNL A   1      34.085  25.700  25.531  1.00  0.00     0.284 C 
ATOM     13  C   UNL A   1      33.793  25.519  23.239  1.00  0.00     0.284 C 
ATOM     14  H   UNL A   1      33.655  27.302  24.317  1.00  0.00     0.349 HD
BRANCH   9  15
ATOM     15  C   UNL A   1      33.774  22.056  24.788  1.00  0.00     0.146 A 
ATOM     16  C   UNL A   1      34.808  21.111  24.794  1.00  0.00     0.095 A 
ATOM     17  C   UNL A   1      34.493  19.748  24.840  1.00  0.00     0.025 A 
ATOM     18  C   UNL A   1      33.164  19.353  24.888  1.00  0.00     0.022 A 
ATOM     19  N   UNL A   1      32.477  21.664  24.872  1.00  0.00    -0.238 NA
ATOM     20  C   UNL A   1      32.198  20.340  24.908  1.00  0.00     0.113 A 
BRANCH  16  21
ATOM     21  C   UNL A   1      36.188  21.515  24.775  1.00  0.00     0.103 C 
ATOM     22  N   UNL A   1      37.293  21.840  24.731  1.00  0.00    -0.192 NA
ENDBRANCH  16  21
ENDBRANCH   9  15
ENDBRANCH   7   8
BRANCH   7  23
ATOM     23  C   UNL A   1      31.474  27.375  23.188  1.00  0.00     0.044 A 
ATOM     24  C   UNL A   1      32.366  27.961  22.295  1.00  0.00     0.094 A 
ATOM     25  C   UNL A   1      30.214  27.988  22.838  1.00  0.00     0.009 A 
ATOM     26  N   UNL A   1      31.888  29.246  22.134  1.00  0.00    -0.361 N 
ATOM     27  C   UNL A   1      30.568  29.303  22.522  1.00  0.00     0.046 A 
ATOM     28  C   UNL A   1      28.848  27.713  23.031  1.00  0.00     0.011 A 
ATOM     29  H   UNL A   1      32.411  30.007  21.793  1.00  0.00     0.166 HD
ATOM     30  C   UNL A   1      29.711  30.388  22.780  1.00  0.00     0.032 A 
ATOM     31  C   UNL A   1      27.944  28.772  23.156  1.00  0.00     0.007 A 
ATOM     32  C   UNL A   1      28.401  30.093  23.199  1.00  0.00    -0.021 A 
BRANCH  32  33
ATOM     33  C   UNL A   1      27.504  31.174  23.753  1.00  0.00     0.191 C 
BRANCH  33  34
ATOM     34  O   UNL A   1      27.564  32.367  22.972  1.00  0.00    -0.392 OA
ATOM     35  H   UNL A   1      26.708  32.515  22.539  1.00  0.00     0.211 HD
ENDBRANCH  33  34
ENDBRANCH  32  33
ENDBRANCH   7  23
ENDBRANCH   4   7
ENDBRANCH   2   3
ENDBRANCH   1   2
BRANCH   1  36
ATOM     36  C   UNL A   1      34.623  29.756  27.525  1.00  0.00     0.023 C 
BRANCH  36  37
ATOM     37  C   UNL A   1      35.579  30.731  28.180  1.00  0.00     0.116 C 
BRANCH  37  38
ATOM     38  N   UNL A   1      35.507  30.699  29.632  1.00  0.00    -0.352 N 
ATOM     39  C   UNL A   1      36.438  30.234  30.534  1.00  0.00     0.251 C 
ATOM     40  H   UNL A   1      34.679  31.059  30.024  1.00  0.00     0.163 HD
ATOM     41  O   UNL A   1      36.148  30.172  31.725  1.00  0.00    -0.269 OA
BRANCH  39  42
ATOM     42  C   UNL A   1      37.770  29.776  30.066  1.00  0.00     0.039 A 
ATOM     43  C   UNL A   1      38.114  29.950  28.722  1.00  0.00     0.014 A 
ATOM     44  C   UNL A   1      38.680  29.181  30.942  1.00  0.00     0.014 A 
ATOM     45  C   UNL A   1      39.382  29.570  28.275  1.00  0.00     0.010 A 
ATOM     46  C   UNL A   1      39.976  28.907  30.524  1.00  0.00     0.010 A 
ATOM     47  C   UNL A   1      40.332  29.070  29.179  1.00  0.00    -0.014 A 
BRANCH  47  48
ATOM     48  C   UNL A   1      41.692  28.674  28.738  1.00  0.00     0.031 A 
ATOM     49  C   UNL A   1      42.799  29.694  28.717  1.00  0.00     0.074 A 
ATOM     50  C   UNL A   1      41.909  27.420  28.298  1.00  0.00     0.049 A 
ATOM     51  N   UNL A   1      44.043  29.559  28.337  1.00  0.00    -0.248 NA
ATOM     52  C   UNL A   1      42.453  31.061  29.143  1.00  0.00     0.031 C 
ATOM     53  C   UNL A   1      40.895  26.367  28.213  1.00  0.00     0.029 A 
ATOM     54  N   UNL A   1      43.053  26.816  27.844  1.00  0.00    -0.354 N 
ATOM     55  C   UNL A   1      44.616  30.820  28.456  1.00  0.00     0.074 A 
ATOM     56  C   UNL A   1      43.568  31.721  28.879  1.00  0.00     0.031 C 
ATOM     57  C   UNL A   1      41.472  25.234  27.781  1.00  0.00     0.029 A 
ATOM     58  C   UNL A   1      42.886  25.489  27.526  1.00  0.00     0.049 A 
ATOM     59  H   UNL A   1      43.912  27.288  27.755  1.00  0.00     0.167 HD
ATOM     60  C   UNL A   1      45.904  31.188  28.260  1.00  0.00     0.037 A 
ATOM     61  C   UNL A   1      43.779  24.580  27.090  1.00  0.00     0.037 A 
ATOM     62  C   UNL A   1      46.943  30.271  27.875  1.00  0.00     0.049 A 
ATOM     63  C   UNL A   1      45.210  25.001  26.906  1.00  0.00     0.074 A 
ATOM     64  C   UNL A   1      48.297  30.510  27.725  1.00  0.00     0.029 A 
ATOM     65  N   UNL A   1      46.739  28.930  27.574  1.00  0.00    -0.354 N 
ATOM     66  N   UNL A   1      45.753  26.180  27.099  1.00  0.00    -0.248 NA
ATOM     67  C   UNL A   1      46.150  23.969  26.451  1.00  0.00     0.031 C 
ATOM     68  C   UNL A   1      48.904  29.327  27.289  1.00  0.00     0.029 A 
ATOM     69  C   UNL A   1      47.937  28.337  27.214  1.00  0.00     0.049 A 
ATOM     70  H   UNL A   1      45.870  28.470  27.610  1.00  0.00     0.167 HD
ATOM     71  C   UNL A   1      47.105  26.027  26.810  1.00  0.00     0.074 A 
ATOM     72  C   UNL A   1      47.296  24.637  26.444  1.00  0.00     0.031 C 
ATOM     73  C   UNL A   1      48.098  26.951  26.844  1.00  0.00     0.037 A 
BRANCH  60  74
ATOM     74  C   UNL A   1      46.247  32.642  28.457  1.00  0.00     0.058 A 
ATOM     75  C   UNL A   1      46.632  33.151  29.710  1.00  0.00     0.135 A 
ATOM     76  C   UNL A   1      46.173  33.545  27.384  1.00  0.00     0.135 A 
ATOM     77  F   UNL A   1      46.707  32.338  30.776  1.00  0.00    -0.206 F 
ATOM     78  C   UNL A   1      46.875  34.507  29.903  1.00  0.00     0.059 A 
ATOM     79  C   UNL A   1      46.445  34.901  27.547  1.00  0.00     0.059 A 
ATOM     80  F   UNL A   1      45.814  33.116  26.164  1.00  0.00    -0.206 F 
ATOM     81  C   UNL A   1      46.770  35.376  28.816  1.00  0.00     0.060 A 
BRANCH  81  82
ATOM     82  S   UNL A   1      47.053  37.138  29.090  1.00  0.00     0.124 S 
ATOM     83  O   UNL A   1      48.485  37.245  28.826  1.00  0.00    -0.237 OA
ATOM     84  O   UNL A   1      46.179  37.755  28.098  1.00  0.00    -0.237 OA
ATOM     85  O   UNL A   1      46.655  37.333  30.481  1.00  0.00    -0.744 OA
ENDBRANCH  81  82
ENDBRANCH  60  74
BRANCH  61  86
ATOM     86  C   UNL A   1      43.347  23.176  26.864  1.00  0.00     0.058 A 
ATOM     87  C   UNL A   1      43.257  22.656  25.564  1.00  0.00     0.135 A 
ATOM     88  C   UNL A   1      43.072  22.310  27.934  1.00  0.00     0.135 A 
ATOM     89  F   UNL A   1      43.507  23.445  24.509  1.00  0.00    -0.206 F 
ATOM     90  C   UNL A   1      42.911  21.329  25.331  1.00  0.00     0.059 A 
ATOM     91  C   UNL A   1      42.744  20.974  27.727  1.00  0.00     0.059 A 
ATOM     92  F   UNL A   1      43.162  22.753  29.198  1.00  0.00    -0.206 F 
ATOM     93  C   UNL A   1      42.665  20.492  26.420  1.00  0.00     0.060 A 
BRANCH  93  94
ATOM     94  S   UNL A   1      42.304  18.750  26.109  1.00  0.00     0.124 S 
ATOM     95  O   UNL A   1      40.891  18.803  25.749  1.00  0.00    -0.237 OA
ATOM     96  O   UNL A   1      43.229  18.436  25.026  1.00  0.00    -0.237 OA
ATOM     97  O   UNL A   1      42.608  18.113  27.387  1.00  0.00    -0.744 OA
ENDBRANCH  93  94
ENDBRANCH  61  86
BRANCH  73  98
ATOM     98  C   UNL A   1      49.480  26.479  26.488  1.00  0.00     0.058 A 
ATOM     99  C   UNL A   1      49.980  26.589  25.181  1.00  0.00     0.135 A 
ATOM    100  C   UNL A   1      50.324  25.942  27.472  1.00  0.00     0.135 A 
ATOM    101  F   UNL A   1      49.211  27.091  24.201  1.00  0.00    -0.206 F 
ATOM    102  C   UNL A   1      51.259  26.151  24.856  1.00  0.00     0.059 A 
ATOM    103  C   UNL A   1      51.617  25.525  27.175  1.00  0.00     0.059 A 
ATOM    104  F   UNL A   1      49.898  25.827  28.740  1.00  0.00    -0.206 F 
ATOM    105  C   UNL A   1      52.070  25.619  25.860  1.00  0.00     0.060 A 
BRANCH 105 106
ATOM    106  S   UNL A   1      53.733  25.068  25.428  1.00  0.00     0.124 S 
ATOM    107  O   UNL A   1      53.526  23.638  25.232  1.00  0.00    -0.237 OA
ATOM    108  O   UNL A   1      54.015  25.839  24.222  1.00  0.00    -0.237 OA
ATOM    109  O   UNL A   1      54.526  25.434  26.599  1.00  0.00    -0.744 OA
ENDBRANCH 105 106
ENDBRANCH  73  98
ENDBRANCH  47  48
ENDBRANCH  39  42
ENDBRANCH  37  38
ENDBRANCH  36  37
ENDBRANCH   1  36
TORSDOF 20
ENDMDL
MODEL 2
REMARK VINA RESULT:     -12.7      6.290     11.799
REMARK SMILES N#Cc1cccnc1N1CC[NH+]([C@@H](C(=O)NCCCCNC(=O)c2ccc(-c3c4nc(c(-c5c(F)cc(S(=O)(=O)[O-])cc5F)c5ccc([nH]5)c(-c5c(F)cc(S(=O)(=O)[O-])cc5F)c5nc(c(-c6c(F)cc(S(=O)(=O)[O-])cc6F)c6ccc3[nH]6)C=C5)C=C4)cc2)c2c[nH]c3cc(CO)ccc23)CC1
REMARK SMILES IDX 18 1 17 2 16 3 14 4 15 5 13 7 12 8 9 9 10 10 102 11 11 12
REMARK SMILES IDX 101 13 8 15 3 16 4 17 5 18 7 19 6 20 2 21 1 22 90 23 91 24
REMARK SMILES IDX 100 25 92 26 93 27 99 28 94 30 98 31 95 32 96 33 97 34 19 36
REMARK SMILES IDX 20 37 21 38 22 39 23 41 24 42 25 43 89 44 26 45 88 46 27 47
REMARK SMILES IDX 28 48 29 49 82 50 30 51 87 52 81 53 83 54 31 55 86 56 80 57
REMARK SMILES IDX 79 58 32 60 66 61 45 62 65 63 46 64 49 65 64 66 84 67 47 68
REMARK SMILES IDX 48 69 63 71 85 72 50 73 33 74 34 75 43 76 35 77 36 78 42 79
REMARK SMILES IDX 44 80 37 81 38 82 39 83 40 84 41 85 67 86 68 87 77 88 69 89
REMARK SMILES IDX 70 90 76 91 78 92 71 93 72 94 73 95 74 96 75 97 51 98 52 99
REMARK SMILES IDX 61 100 53 101 54 102 60 103 62 104 55 105 56 106 57 107
REMARK SMILES IDX 58 108 59 109
REMARK H PARENT 16 6 12 14 92 29 97 35 21 40 83 59 49 70
REMARK Flexibility Score: inf
ROOT
ATOM      1  C   UNL A   1      37.749  23.074  26.044  1.00  0.00     0.023 C 
ENDROOT
BRANCH   1   2
ATOM      2  C   UNL A   1      36.708  22.045  25.518  1.00  0.00     0.116 C 
BRANCH   2   3
ATOM      3  N   UNL A   1      36.125  22.311  24.205  1.00  0.00    -0.351 N 
ATOM      4  C   UNL A   1      34.933  22.791  23.713  1.00  0.00     0.283 C 
ATOM      5  O   UNL A   1      34.958  22.984  22.492  1.00  0.00    -0.268 OA
ATOM      6  H   UNL A   1      36.752  22.090  23.479  1.00  0.00     0.163 HD
BRANCH   4   7
ATOM      7  C   UNL A   1      33.691  23.119  24.596  1.00  0.00     0.307 C 
BRANCH   7   8
ATOM      8  N   UNL A   1      33.843  24.202  25.659  1.00  0.00    -0.318 N 
ATOM      9  N   UNL A   1      32.491  26.776  25.006  1.00  0.00    -0.344 N 
ATOM     10  C   UNL A   1      33.756  26.390  24.368  1.00  0.00     0.179 C 
ATOM     11  C   UNL A   1      31.733  25.647  25.569  1.00  0.00     0.179 C 
ATOM     12  C   UNL A   1      34.526  25.473  25.327  1.00  0.00     0.284 C 
ATOM     13  C   UNL A   1      32.620  24.628  26.340  1.00  0.00     0.284 C 
ATOM     14  H   UNL A   1      34.455  23.635  26.245  1.00  0.00     0.349 HD
BRANCH   9  15
ATOM     15  C   UNL A   1      31.700  27.659  24.253  1.00  0.00     0.146 A 
ATOM     16  C   UNL A   1      31.276  28.887  24.778  1.00  0.00     0.095 A 
ATOM     17  C   UNL A   1      30.410  29.692  24.030  1.00  0.00     0.025 A 
ATOM     18  C   UNL A   1      29.989  29.267  22.778  1.00  0.00     0.022 A 
ATOM     19  N   UNL A   1      31.313  27.267  23.013  1.00  0.00    -0.238 NA
ATOM     20  C   UNL A   1      30.469  28.059  22.312  1.00  0.00     0.113 A 
BRANCH  16  21
ATOM     21  C   UNL A   1      31.733  29.347  26.062  1.00  0.00     0.103 C 
ATOM     22  N   UNL A   1      32.125  29.706  27.084  1.00  0.00    -0.192 NA
ENDBRANCH  16  21
ENDBRANCH   9  15
ENDBRANCH   7   8
BRANCH   7  23
ATOM     23  C   UNL A   1      32.998  21.897  25.265  1.00  0.00     0.044 A 
ATOM     24  C   UNL A   1      33.033  21.625  26.629  1.00  0.00     0.094 A 
ATOM     25  C   UNL A   1      32.608  20.631  24.690  1.00  0.00     0.009 A 
ATOM     26  N   UNL A   1      33.466  20.316  26.702  1.00  0.00    -0.361 N 
ATOM     27  C   UNL A   1      33.269  19.693  25.490  1.00  0.00     0.046 A 
ATOM     28  C   UNL A   1      32.062  20.178  23.476  1.00  0.00     0.011 A 
ATOM     29  H   UNL A   1      33.858  19.892  27.499  1.00  0.00     0.166 HD
ATOM     30  C   UNL A   1      33.744  18.476  24.970  1.00  0.00     0.032 A 
ATOM     31  C   UNL A   1      32.408  18.911  22.996  1.00  0.00     0.007 A 
ATOM     32  C   UNL A   1      33.372  18.142  23.656  1.00  0.00    -0.021 A 
BRANCH  32  33
ATOM     33  C   UNL A   1      34.043  17.003  22.926  1.00  0.00     0.191 C 
BRANCH  33  34
ATOM     34  O   UNL A   1      34.220  15.864  23.767  1.00  0.00    -0.392 OA
ATOM     35  H   UNL A   1      34.095  15.055  23.246  1.00  0.00     0.211 HD
ENDBRANCH  33  34
ENDBRANCH  32  33
ENDBRANCH   7  23
ENDBRANCH   4   7
ENDBRANCH   2   3
ENDBRANCH   1   2
BRANCH   1  36
ATOM     36  C   UNL A   1      39.111  22.535  26.504  1.00  0.00     0.023 C 
BRANCH  36  37
ATOM     37  C   UNL A   1      40.037  23.592  27.069  1.00  0.00     0.116 C 
BRANCH  37  38
ATOM     38  N   UNL A   1      40.820  24.261  26.042  1.00  0.00    -0.352 N 
ATOM     39  C   UNL A   1      41.272  25.560  26.009  1.00  0.00     0.251 C 
ATOM     40  H   UNL A   1      41.060  23.708  25.264  1.00  0.00     0.163 HD
ATOM     41  O   UNL A   1      41.816  25.986  24.994  1.00  0.00    -0.269 OA
BRANCH  39  42
ATOM     42  C   UNL A   1      41.073  26.453  27.178  1.00  0.00     0.039 A 
ATOM     43  C   UNL A   1      40.146  26.089  28.159  1.00  0.00     0.014 A 
ATOM     44  C   UNL A   1      41.794  27.641  27.313  1.00  0.00     0.014 A 
ATOM     45  C   UNL A   1      39.981  26.893  29.291  1.00  0.00     0.010 A 
ATOM     46  C   UNL A   1      41.711  28.379  28.488  1.00  0.00     0.010 A 
ATOM     47  C   UNL A   1      40.783  28.030  29.476  1.00  0.00    -0.014 A 
BRANCH  47  48
ATOM     48  C   UNL A   1      40.642  28.893  30.674  1.00  0.00     0.031 A 
ATOM     49  C   UNL A   1      39.563  29.943  30.717  1.00  0.00     0.074 A 
ATOM     50  C   UNL A   1      41.520  28.772  31.687  1.00  0.00     0.049 A 
ATOM     51  N   UNL A   1      39.294  30.815  31.654  1.00  0.00    -0.248 NA
ATOM     52  C   UNL A   1      38.695  30.054  29.533  1.00  0.00     0.031 C 
ATOM     53  C   UNL A   1      42.644  27.834  31.724  1.00  0.00     0.029 A 
ATOM     54  N   UNL A   1      41.605  29.439  32.882  1.00  0.00    -0.354 N 
ATOM     55  C   UNL A   1      38.248  31.589  31.163  1.00  0.00     0.074 A 
ATOM     56  C   UNL A   1      37.976  31.127  29.821  1.00  0.00     0.031 C 
ATOM     57  C   UNL A   1      43.277  27.952  32.902  1.00  0.00     0.029 A 
ATOM     58  C   UNL A   1      42.627  28.996  33.688  1.00  0.00     0.049 A 
ATOM     59  H   UNL A   1      40.993  30.165  33.138  1.00  0.00     0.167 HD
ATOM     60  C   UNL A   1      37.557  32.573  31.784  1.00  0.00     0.037 A 
ATOM     61  C   UNL A   1      42.988  29.381  34.927  1.00  0.00     0.037 A 
ATOM     62  C   UNL A   1      37.816  32.995  33.135  1.00  0.00     0.049 A 
ATOM     63  C   UNL A   1      42.191  30.457  35.611  1.00  0.00     0.074 A 
ATOM     64  C   UNL A   1      37.132  33.924  33.897  1.00  0.00     0.029 A 
ATOM     65  N   UNL A   1      38.852  32.514  33.926  1.00  0.00    -0.354 N 
ATOM     66  N   UNL A   1      41.153  31.124  35.164  1.00  0.00    -0.248 NA
ATOM     67  C   UNL A   1      42.609  30.826  36.969  1.00  0.00     0.031 C 
ATOM     68  C   UNL A   1      37.780  34.039  35.132  1.00  0.00     0.029 A 
ATOM     69  C   UNL A   1      38.840  33.145  35.158  1.00  0.00     0.049 A 
ATOM     70  H   UNL A   1      39.499  31.826  33.651  1.00  0.00     0.167 HD
ATOM     71  C   UNL A   1      40.779  31.979  36.194  1.00  0.00     0.074 A 
ATOM     72  C   UNL A   1      41.694  31.731  37.292  1.00  0.00     0.031 C 
ATOM     73  C   UNL A   1      39.771  32.887  36.231  1.00  0.00     0.037 A 
BRANCH  60  74
ATOM     74  C   UNL A   1      36.463  33.253  31.002  1.00  0.00     0.058 A 
ATOM     75  C   UNL A   1      36.746  34.142  29.950  1.00  0.00     0.135 A 
ATOM     76  C   UNL A   1      35.114  33.029  31.319  1.00  0.00     0.135 A 
ATOM     77  F   UNL A   1      38.017  34.407  29.611  1.00  0.00    -0.206 F 
ATOM     78  C   UNL A   1      35.735  34.824  29.281  1.00  0.00     0.059 A 
ATOM     79  C   UNL A   1      34.084  33.675  30.639  1.00  0.00     0.059 A 
ATOM     80  F   UNL A   1      34.783  32.188  32.312  1.00  0.00    -0.206 F 
ATOM     81  C   UNL A   1      34.406  34.590  29.639  1.00  0.00     0.060 A 
BRANCH  81  82
ATOM     82  S   UNL A   1      33.108  35.510  28.786  1.00  0.00     0.124 S 
ATOM     83  O   UNL A   1      32.466  34.452  28.011  1.00  0.00    -0.237 OA
ATOM     84  O   UNL A   1      32.324  36.048  29.893  1.00  0.00    -0.237 OA
ATOM     85  O   UNL A   1      33.848  36.498  28.007  1.00  0.00    -0.744 OA
ENDBRANCH  81  82
ENDBRANCH  60  74
BRANCH  61  86
ATOM     86  C   UNL A   1      44.117  28.697  35.610  1.00  0.00     0.058 A 
ATOM     87  C   UNL A   1      45.433  29.157  35.451  1.00  0.00     0.135 A 
ATOM     88  C   UNL A   1      43.903  27.614  36.477  1.00  0.00     0.135 A 
ATOM     89  F   UNL A   1      45.687  30.188  34.631  1.00  0.00    -0.206 F 
ATOM     90  C   UNL A   1      46.498  28.568  36.125  1.00  0.00     0.059 A 
ATOM     91  C   UNL A   1      44.950  27.022  37.178  1.00  0.00     0.059 A 
ATOM     92  F   UNL A   1      42.661  27.148  36.678  1.00  0.00    -0.206 F 
ATOM     93  C   UNL A   1      46.244  27.507  36.995  1.00  0.00     0.060 A 
BRANCH  93  94
ATOM     94  S   UNL A   1      47.622  26.809  37.932  1.00  0.00     0.124 S 
ATOM     95  O   UNL A   1      46.965  26.423  39.176  1.00  0.00    -0.237 OA
ATOM     96  O   UNL A   1      48.053  25.713  37.069  1.00  0.00    -0.237 OA
ATOM     97  O   UNL A   1      48.558  27.924  38.029  1.00  0.00    -0.744 OA
ENDBRANCH  93  94
ENDBRANCH  61  86
BRANCH  73  98
ATOM     98  C   UNL A   1      39.601  33.667  37.505  1.00  0.00     0.058 A 
ATOM     99  C   UNL A   1      40.284  34.873  37.725  1.00  0.00     0.135 A 
ATOM    100  C   UNL A   1      38.722  33.217  38.502  1.00  0.00     0.135 A 
ATOM    101  F   UNL A   1      41.141  35.343  36.804  1.00  0.00    -0.206 F 
ATOM    102  C   UNL A   1      40.124  35.591  38.905  1.00  0.00     0.059 A 
ATOM    103  C   UNL A   1      38.525  33.934  39.677  1.00  0.00     0.059 A 
ATOM    104  F   UNL A   1      38.036  32.075  38.336  1.00  0.00    -0.206 F 
ATOM    105  C   UNL A   1      39.244  35.112  39.876  1.00  0.00     0.060 A 
BRANCH 105 106
ATOM    106  S   UNL A   1      39.034  36.061  41.397  1.00  0.00     0.124 S 
ATOM    107  O   UNL A   1      37.805  35.487  41.933  1.00  0.00    -0.237 OA
ATOM    108  O   UNL A   1      40.255  35.747  42.132  1.00  0.00    -0.237 OA
ATOM    109  O   UNL A   1      38.931  37.439  40.925  1.00  0.00    -0.744 OA
ENDBRANCH 105 106
ENDBRANCH  73  98
ENDBRANCH  47  48
ENDBRANCH  39  42
ENDBRANCH  37  38
ENDBRANCH  36  37
ENDBRANCH   1  36
TORSDOF 20
ENDMDL
MODEL 3
REMARK VINA RESULT:     -12.6      0.629      7.905
REMARK SMILES N#Cc1cccnc1N1CC[NH+]([C@@H](C(=O)NCCCCNC(=O)c2ccc(-c3c4nc(c(-c5c(F)cc(S(=O)(=O)[O-])cc5F)c5ccc([nH]5)c(-c5c(F)cc(S(=O)(=O)[O-])cc5F)c5nc(c(-c6c(F)cc(S(=O)(=O)[O-])cc6F)c6ccc3[nH]6)C=C5)C=C4)cc2)c2c[nH]c3cc(CO)ccc23)CC1
REMARK SMILES IDX 18 1 17 2 16 3 14 4 15 5 13 7 12 8 9 9 10 10 102 11 11 12
REMARK SMILES IDX 101 13 8 15 3 16 4 17 5 18 7 19 6 20 2 21 1 22 90 23 91 24
REMARK SMILES IDX 100 25 92 26 93 27 99 28 94 30 98 31 95 32 96 33 97 34 19 36
REMARK SMILES IDX 20 37 21 38 22 39 23 41 24 42 25 43 89 44 26 45 88 46 27 47
REMARK SMILES IDX 28 48 29 49 82 50 30 51 87 52 81 53 83 54 31 55 86 56 80 57
REMARK SMILES IDX 79 58 32 60 66 61 45 62 65 63 46 64 49 65 64 66 84 67 47 68
REMARK SMILES IDX 48 69 63 71 85 72 50 73 33 74 34 75 43 76 35 77 36 78 42 79
REMARK SMILES IDX 44 80 37 81 38 82 39 83 40 84 41 85 67 86 68 87 77 88 69 89
REMARK SMILES IDX 70 90 76 91 78 92 71 93 72 94 73 95 74 96 75 97 51 98 52 99
REMARK SMILES IDX 61 100 53 101 54 102 60 103 62 104 55 105 56 106 57 107
REMARK SMILES IDX 58 108 59 109
REMARK H PARENT 16 6 12 14 92 29 97 35 21 40 83 59 49 70
REMARK Flexibility Score: inf
ROOT
ATOM      1  C   UNL A   1      33.098  29.809  27.154  1.00  0.00     0.023 C 
ENDROOT
BRANCH   1   2
ATOM      2  C   UNL A   1      32.072  29.399  26.059  1.00  0.00     0.116 C 
BRANCH   2   3
ATOM      3  N   UNL A   1      31.236  28.235  26.344  1.00  0.00    -0.351 N 
ATOM      4  C   UNL A   1      31.047  26.979  25.813  1.00  0.00     0.283 C 
ATOM      5  O   UNL A   1      30.311  26.268  26.507  1.00  0.00    -0.268 OA
ATOM      6  H   UNL A   1      30.653  28.389  27.122  1.00  0.00     0.163 HD
BRANCH   4   7
ATOM      7  C   UNL A   1      31.730  26.469  24.508  1.00  0.00     0.307 C 
BRANCH   7   8
ATOM      8  N   UNL A   1      33.233  26.220  24.545  1.00  0.00    -0.318 N 
ATOM      9  N   UNL A   1      34.009  23.346  24.675  1.00  0.00    -0.344 N 
ATOM     10  C   UNL A   1      33.497  24.057  25.853  1.00  0.00     0.179 C 
ATOM     11  C   UNL A   1      33.653  23.974  23.393  1.00  0.00     0.179 C 
ATOM     12  C   UNL A   1      33.842  25.546  25.713  1.00  0.00     0.284 C 
ATOM     13  C   UNL A   1      33.810  25.522  23.395  1.00  0.00     0.284 C 
ATOM     14  H   UNL A   1      33.465  27.213  24.571  1.00  0.00     0.349 HD
BRANCH   9  15
ATOM     15  C   UNL A   1      33.803  21.957  24.692  1.00  0.00     0.146 A 
ATOM     16  C   UNL A   1      34.858  21.065  24.922  1.00  0.00     0.095 A 
ATOM     17  C   UNL A   1      34.626  19.688  24.835  1.00  0.00     0.025 A 
ATOM     18  C   UNL A   1      33.353  19.225  24.530  1.00  0.00     0.022 A 
ATOM     19  N   UNL A   1      32.552  21.497  24.431  1.00  0.00    -0.238 NA
ATOM     20  C   UNL A   1      32.355  20.161  24.344  1.00  0.00     0.113 A 
BRANCH  16  21
ATOM     21  C   UNL A   1      36.171  21.537  25.268  1.00  0.00     0.103 C 
ATOM     22  N   UNL A   1      37.212  21.933  25.566  1.00  0.00    -0.192 NA
ENDBRANCH  16  21
ENDBRANCH   9  15
ENDBRANCH   7   8
BRANCH   7  23
ATOM     23  C   UNL A   1      31.420  27.289  23.221  1.00  0.00     0.044 A 
ATOM     24  C   UNL A   1      32.385  27.903  22.430  1.00  0.00     0.094 A 
ATOM     25  C   UNL A   1      30.202  27.958  22.827  1.00  0.00     0.009 A 
ATOM     26  N   UNL A   1      31.951  29.209  22.318  1.00  0.00    -0.361 N 
ATOM     27  C   UNL A   1      30.609  29.279  22.619  1.00  0.00     0.046 A 
ATOM     28  C   UNL A   1      28.820  27.710  22.910  1.00  0.00     0.011 A 
ATOM     29  H   UNL A   1      32.515  29.974  22.063  1.00  0.00     0.166 HD
ATOM     30  C   UNL A   1      29.762  30.369  22.887  1.00  0.00     0.032 A 
ATOM     31  C   UNL A   1      27.935  28.784  23.039  1.00  0.00     0.007 A 
ATOM     32  C   UNL A   1      28.420  30.087  23.197  1.00  0.00    -0.021 A 
BRANCH  32  33
ATOM     33  C   UNL A   1      27.512  31.156  23.756  1.00  0.00     0.191 C 
BRANCH  33  34
ATOM     34  O   UNL A   1      27.609  32.374  23.018  1.00  0.00    -0.392 OA
ATOM     35  H   UNL A   1      28.224  32.976  23.467  1.00  0.00     0.211 HD
ENDBRANCH  33  34
ENDBRANCH  32  33
ENDBRANCH   7  23
ENDBRANCH   4   7
ENDBRANCH   2   3
ENDBRANCH   1   2
BRANCH   1  36
ATOM     36  C   UNL A   1      34.357  28.944  27.307  1.00  0.00     0.023 C 
BRANCH  36  37
ATOM     37  C   UNL A   1      35.561  29.691  27.841  1.00  0.00     0.116 C 
BRANCH  37  38
ATOM     38  N   UNL A   1      35.486  29.926  29.275  1.00  0.00    -0.352 N 
ATOM     39  C   UNL A   1      36.490  29.866  30.214  1.00  0.00     0.251 C 
ATOM     40  H   UNL A   1      34.594  30.159  29.620  1.00  0.00     0.163 HD
ATOM     41  O   UNL A   1      36.212  29.973  31.405  1.00  0.00    -0.269 OA
BRANCH  39  42
ATOM     42  C   UNL A   1      37.896  29.639  29.795  1.00  0.00     0.039 A 
ATOM     43  C   UNL A   1      38.792  29.069  30.705  1.00  0.00     0.014 A 
ATOM     44  C   UNL A   1      38.334  29.981  28.514  1.00  0.00     0.014 A 
ATOM     45  C   UNL A   1      40.107  28.804  30.311  1.00  0.00     0.010 A 
ATOM     46  C   UNL A   1      39.605  29.615  28.089  1.00  0.00     0.010 A 
ATOM     47  C   UNL A   1      40.515  29.050  28.991  1.00  0.00    -0.014 A 
BRANCH  47  48
ATOM     48  C   UNL A   1      41.898  28.763  28.540  1.00  0.00     0.031 A 
ATOM     49  C   UNL A   1      42.263  27.376  28.081  1.00  0.00     0.074 A 
ATOM     50  C   UNL A   1      42.833  29.730  28.605  1.00  0.00     0.049 A 
ATOM     51  N   UNL A   1      43.419  26.914  27.680  1.00  0.00    -0.248 NA
ATOM     52  C   UNL A   1      41.195  26.361  28.115  1.00  0.00     0.031 C 
ATOM     53  C   UNL A   1      42.608  31.092  29.094  1.00  0.00     0.029 A 
ATOM     54  N   UNL A   1      44.158  29.718  28.255  1.00  0.00    -0.354 N 
ATOM     55  C   UNL A   1      43.222  25.558  27.438  1.00  0.00     0.074 A 
ATOM     56  C   UNL A   1      41.856  25.259  27.800  1.00  0.00     0.031 C 
ATOM     57  C   UNL A   1      43.743  31.798  28.969  1.00  0.00     0.029 A 
ATOM     58  C   UNL A   1      44.783  30.931  28.424  1.00  0.00     0.049 A 
ATOM     59  H   UNL A   1      44.619  28.918  27.914  1.00  0.00     0.167 HD
ATOM     60  C   UNL A   1      44.092  24.653  26.930  1.00  0.00     0.037 A 
ATOM     61  C   UNL A   1      46.050  31.302  28.158  1.00  0.00     0.037 A 
ATOM     62  C   UNL A   1      45.438  24.976  26.539  1.00  0.00     0.049 A 
ATOM     63  C   UNL A   1      46.993  30.290  27.569  1.00  0.00     0.074 A 
ATOM     64  C   UNL A   1      46.383  24.163  25.940  1.00  0.00     0.029 A 
ATOM     65  N   UNL A   1      46.032  26.219  26.714  1.00  0.00    -0.354 N 
ATOM     66  N   UNL A   1      46.769  29.031  27.271  1.00  0.00    -0.248 NA
ATOM     67  C   UNL A   1      48.356  30.748  27.274  1.00  0.00     0.031 C 
ATOM     68  C   UNL A   1      47.563  24.901  25.794  1.00  0.00     0.029 A 
ATOM     69  C   UNL A   1      47.339  26.188  26.258  1.00  0.00     0.049 A 
ATOM     70  H   UNL A   1      45.590  27.006  27.105  1.00  0.00     0.167 HD
ATOM     71  C   UNL A   1      47.957  28.551  26.733  1.00  0.00     0.074 A 
ATOM     72  C   UNL A   1      48.891  29.661  26.733  1.00  0.00     0.031 C 
ATOM     73  C   UNL A   1      48.252  27.307  26.280  1.00  0.00     0.037 A 
BRANCH  60  74
ATOM     74  C   UNL A   1      43.606  23.235  26.779  1.00  0.00     0.058 A 
ATOM     75  C   UNL A   1      43.233  22.707  25.530  1.00  0.00     0.135 A 
ATOM     76  C   UNL A   1      43.493  22.395  27.899  1.00  0.00     0.135 A 
ATOM     77  F   UNL A   1      43.306  23.466  24.426  1.00  0.00    -0.206 F 
ATOM     78  C   UNL A   1      42.714  21.421  25.408  1.00  0.00     0.059 A 
ATOM     79  C   UNL A   1      43.008  21.094  27.794  1.00  0.00     0.059 A 
ATOM     80  F   UNL A   1      43.837  22.844  29.117  1.00  0.00    -0.206 F 
ATOM     81  C   UNL A   1      42.597  20.625  26.548  1.00  0.00     0.060 A 
BRANCH  81  82
ATOM     82  S   UNL A   1      41.889  18.973  26.378  1.00  0.00     0.124 S 
ATOM     83  O   UNL A   1      41.839  18.536  27.770  1.00  0.00    -0.237 OA
ATOM     84  O   UNL A   1      40.599  19.247  25.753  1.00  0.00    -0.237 OA
ATOM     85  O   UNL A   1      42.855  18.275  25.535  1.00  0.00    -0.744 OA
ENDBRANCH  81  82
ENDBRANCH  60  74
BRANCH  61  86
ATOM     86  C   UNL A   1      46.468  32.710  28.388  1.00  0.00     0.058 A 
ATOM     87  C   UNL A   1      46.315  33.675  27.381  1.00  0.00     0.135 A 
ATOM     88  C   UNL A   1      46.972  33.133  29.628  1.00  0.00     0.135 A 
ATOM     89  F   UNL A   1      45.841  33.318  26.178  1.00  0.00    -0.206 F 
ATOM     90  C   UNL A   1      46.647  35.009  27.593  1.00  0.00     0.059 A 
ATOM     91  C   UNL A   1      47.291  34.465  29.871  1.00  0.00     0.059 A 
ATOM     92  F   UNL A   1      47.120  32.252  30.630  1.00  0.00    -0.206 F 
ATOM     93  C   UNL A   1      47.125  35.397  28.846  1.00  0.00     0.060 A 
BRANCH  93  94
ATOM     94  S   UNL A   1      47.467  37.146  29.137  1.00  0.00     0.124 S 
ATOM     95  O   UNL A   1      46.138  37.732  29.007  1.00  0.00    -0.237 OA
ATOM     96  O   UNL A   1      48.029  37.126  30.484  1.00  0.00    -0.237 OA
ATOM     97  O   UNL A   1      48.414  37.482  28.078  1.00  0.00    -0.744 OA
ENDBRANCH  93  94
ENDBRANCH  61  86
BRANCH  73  98
ATOM     98  C   UNL A   1      49.636  27.089  25.735  1.00  0.00     0.058 A 
ATOM     99  C   UNL A   1      50.691  26.665  26.558  1.00  0.00     0.135 A 
ATOM    100  C   UNL A   1      49.900  27.276  24.369  1.00  0.00     0.135 A 
ATOM    101  F   UNL A   1      50.491  26.478  27.872  1.00  0.00    -0.206 F 
ATOM    102  C   UNL A   1      51.970  26.465  26.050  1.00  0.00     0.059 A 
ATOM    103  C   UNL A   1      51.164  27.053  23.835  1.00  0.00     0.059 A 
ATOM    104  F   UNL A   1      48.923  27.668  23.538  1.00  0.00    -0.206 F 
ATOM    105  C   UNL A   1      52.197  26.663  24.687  1.00  0.00     0.060 A 
BRANCH 105 106
ATOM    106  S   UNL A   1      53.858  26.386  24.038  1.00  0.00     0.124 S 
ATOM    107  O   UNL A   1      54.541  27.607  24.450  1.00  0.00    -0.237 OA
ATOM    108  O   UNL A   1      54.265  25.168  24.728  1.00  0.00    -0.237 OA
ATOM    109  O   UNL A   1      53.640  26.243  22.601  1.00  0.00    -0.744 OA
ENDBRANCH 105 106
ENDBRANCH  73  98
ENDBRANCH  47  48
ENDBRANCH  39  42
ENDBRANCH  37  38
ENDBRANCH  36  37
ENDBRANCH   1  36
TORSDOF 20
ENDMDL
