MODEL 1
REMARK VINA RESULT:     -12.5      0.000      0.000
REMARK SMILES CCn1nc(-c2cccnc2)c2cc(C(=O)NCCCCNC(=O)c3ccc(-c4c5nc(c(-c6c(F)cc(S(=O)(=O)[O-])cc6F)c6ccc([nH]6)c(-c6c(F)cc(S(=O)(=O)[O-])cc6F)c6nc(c(-c7c(F)cc(S(=O)(=O)[O-])cc7F)c7ccc4[nH]7)C=C6)C=C5)cc3)sc21
REMARK SMILES IDX 20 1 19 2 18 3 17 4 15 5 16 6 14 8 3 9 4 10 92 11 5 12 12 13
REMARK SMILES IDX 91 14 13 15 2 16 1 17 6 18 7 19 11 20 8 21 10 22 9 23 21 24
REMARK SMILES IDX 22 25 23 26 24 28 25 29 26 30 90 31 27 32 89 33 28 34 29 35
REMARK SMILES IDX 30 36 83 37 31 38 88 39 82 40 84 41 32 42 87 43 81 44 80 45
REMARK SMILES IDX 33 47 67 48 46 49 66 50 47 51 50 52 65 53 85 54 48 55 49 56
REMARK SMILES IDX 64 58 86 59 51 60 34 61 35 62 44 63 36 64 37 65 43 66 45 67
REMARK SMILES IDX 38 68 39 69 40 70 41 71 42 72 68 73 69 74 78 75 70 76 71 77
REMARK SMILES IDX 77 78 79 79 72 80 73 81 74 82 75 83 76 84 52 85 53 86 62 87
REMARK SMILES IDX 54 88 55 89 61 90 63 91 56 92 57 93 58 94 59 95 60 96
REMARK H PARENT 17 7 22 27 84 46 50 57
REMARK Flexibility Score: inf
ROOT
ATOM      1  C   UNL A   1      41.702  19.098  25.891  1.00  0.00     0.023 C 
ENDROOT
BRANCH   1   2
ATOM      2  C   UNL A   1      40.778  20.092  26.594  1.00  0.00     0.023 C 
BRANCH   2   3
ATOM      3  C   UNL A   1      39.629  20.678  25.772  1.00  0.00     0.116 C 
BRANCH   3   4
ATOM      4  N   UNL A   1      39.276  22.058  26.096  1.00  0.00    -0.351 N 
ATOM      5  C   UNL A   1      38.139  22.819  25.852  1.00  0.00     0.261 C 
ATOM      6  O   UNL A   1      38.201  24.002  26.195  1.00  0.00    -0.268 OA
ATOM      7  H   UNL A   1      39.980  22.544  26.582  1.00  0.00     0.163 HD
BRANCH   5   8
ATOM      8  C   UNL A   1      36.979  22.293  25.144  1.00  0.00     0.095 A 
ATOM      9  N   UNL A   1      33.569  22.366  23.739  1.00  0.00    -0.254 N 
ATOM     10  N   UNL A   1      32.937  21.181  23.985  1.00  0.00    -0.171 NA
ATOM     11  C   UNL A   1      34.876  22.276  24.039  1.00  0.00     0.122 A 
ATOM     12  C   UNL A   1      33.890  20.394  24.557  1.00  0.00     0.103 A 
ATOM     13  C   UNL A   1      35.055  21.147  24.726  1.00  0.00     0.040 A 
ATOM     14  S   UNL A   1      36.269  23.119  23.785  1.00  0.00    -0.110 S 
ATOM     15  C   UNL A   1      36.311  21.063  25.337  1.00  0.00     0.038 A 
BRANCH   9  16
ATOM     16  C   UNL A   1      32.797  23.545  23.392  1.00  0.00     0.142 C 
ATOM     17  C   UNL A   1      31.292  23.438  23.629  1.00  0.00     0.029 C 
ENDBRANCH   9  16
BRANCH  12  18
ATOM     18  C   UNL A   1      33.638  18.979  24.749  1.00  0.00     0.021 A 
ATOM     19  C   UNL A   1      34.585  18.057  24.283  1.00  0.00     0.013 A 
ATOM     20  C   UNL A   1      32.510  18.477  25.375  1.00  0.00     0.121 A 
ATOM     21  C   UNL A   1      34.380  16.695  24.465  1.00  0.00     0.021 A 
ATOM     22  N   UNL A   1      32.274  17.151  25.558  1.00  0.00    -0.264 NA
ATOM     23  C   UNL A   1      33.218  16.294  25.102  1.00  0.00     0.111 A 
ENDBRANCH  12  18
ENDBRANCH   5   8
ENDBRANCH   3   4
ENDBRANCH   2   3
ENDBRANCH   1   2
BRANCH   1  24
ATOM     24  C   UNL A   1      43.176  19.226  26.251  1.00  0.00     0.116 C 
BRANCH  24  25
ATOM     25  N   UNL A   1      44.024  19.667  25.141  1.00  0.00    -0.352 N 
ATOM     26  C   UNL A   1      44.204  20.967  24.705  1.00  0.00     0.251 C 
ATOM     27  H   UNL A   1      44.516  18.966  24.657  1.00  0.00     0.163 HD
ATOM     28  O   UNL A   1      44.603  21.196  23.560  1.00  0.00    -0.269 OA
BRANCH  26  29
ATOM     29  C   UNL A   1      43.921  22.076  25.634  1.00  0.00     0.039 A 
ATOM     30  C   UNL A   1      44.814  22.433  26.649  1.00  0.00     0.014 A 
ATOM     31  C   UNL A   1      42.740  22.792  25.444  1.00  0.00     0.014 A 
ATOM     32  C   UNL A   1      44.546  23.571  27.409  1.00  0.00     0.010 A 
ATOM     33  C   UNL A   1      42.545  23.983  26.100  1.00  0.00     0.010 A 
ATOM     34  C   UNL A   1      43.420  24.360  27.111  1.00  0.00    -0.014 A 
BRANCH  34  35
ATOM     35  C   UNL A   1      43.248  25.680  27.721  1.00  0.00     0.031 A 
ATOM     36  C   UNL A   1      44.320  26.644  27.338  1.00  0.00     0.074 A 
ATOM     37  C   UNL A   1      42.124  26.070  28.367  1.00  0.00     0.049 A 
ATOM     38  N   UNL A   1      45.252  27.125  28.092  1.00  0.00    -0.248 NA
ATOM     39  C   UNL A   1      44.498  26.966  25.909  1.00  0.00     0.031 C 
ATOM     40  C   UNL A   1      40.877  25.314  28.537  1.00  0.00     0.029 A 
ATOM     41  N   UNL A   1      41.808  27.273  28.926  1.00  0.00    -0.354 N 
ATOM     42  C   UNL A   1      45.952  28.028  27.297  1.00  0.00     0.074 A 
ATOM     43  C   UNL A   1      45.606  27.711  25.936  1.00  0.00     0.031 C 
ATOM     44  C   UNL A   1      39.886  26.146  28.929  1.00  0.00     0.029 A 
ATOM     45  C   UNL A   1      40.449  27.455  29.199  1.00  0.00     0.049 A 
ATOM     46  H   UNL A   1      42.484  27.960  29.122  1.00  0.00     0.167 HD
ATOM     47  C   UNL A   1      46.513  29.144  27.841  1.00  0.00     0.037 A 
ATOM     48  C   UNL A   1      39.832  28.598  29.604  1.00  0.00     0.037 A 
ATOM     49  C   UNL A   1      46.621  29.014  29.276  1.00  0.00     0.049 A 
ATOM     50  C   UNL A   1      40.885  29.482  30.165  1.00  0.00     0.074 A 
ATOM     51  C   UNL A   1      47.215  28.104  30.128  1.00  0.00     0.029 A 
ATOM     52  N   UNL A   1      45.705  29.697  30.037  1.00  0.00    -0.354 N 
ATOM     53  N   UNL A   1      41.548  29.214  31.256  1.00  0.00    -0.248 NA
ATOM     54  C   UNL A   1      41.529  30.415  29.256  1.00  0.00     0.031 C 
ATOM     55  C   UNL A   1      46.291  27.950  31.204  1.00  0.00     0.029 A 
ATOM     56  C   UNL A   1      45.238  28.843  31.002  1.00  0.00     0.049 A 
ATOM     57  H   UNL A   1      45.432  30.635  29.912  1.00  0.00     0.167 HD
ATOM     58  C   UNL A   1      42.858  29.561  30.961  1.00  0.00     0.074 A 
ATOM     59  C   UNL A   1      42.770  30.373  29.748  1.00  0.00     0.031 C 
ATOM     60  C   UNL A   1      43.904  28.915  31.557  1.00  0.00     0.037 A 
BRANCH  47  61
ATOM     61  C   UNL A   1      46.567  30.492  27.152  1.00  0.00     0.058 A 
ATOM     62  C   UNL A   1      47.788  31.198  27.118  1.00  0.00     0.135 A 
ATOM     63  C   UNL A   1      45.427  31.243  26.782  1.00  0.00     0.135 A 
ATOM     64  F   UNL A   1      48.937  30.593  27.463  1.00  0.00    -0.206 F 
ATOM     65  C   UNL A   1      47.862  32.558  26.809  1.00  0.00     0.059 A 
ATOM     66  C   UNL A   1      45.486  32.584  26.418  1.00  0.00     0.059 A 
ATOM     67  F   UNL A   1      44.187  30.749  26.844  1.00  0.00    -0.206 F 
ATOM     68  C   UNL A   1      46.701  33.243  26.469  1.00  0.00     0.060 A 
BRANCH  68  69
ATOM     69  S   UNL A   1      46.779  35.010  26.132  1.00  0.00     0.124 S 
ATOM     70  O   UNL A   1      47.400  35.512  27.352  1.00  0.00    -0.237 OA
ATOM     71  O   UNL A   1      47.604  35.047  24.929  1.00  0.00    -0.237 OA
ATOM     72  O   UNL A   1      45.379  35.375  25.936  1.00  0.00    -0.744 OA
ENDBRANCH  68  69
ENDBRANCH  47  61
BRANCH  48  73
ATOM     73  C   UNL A   1      38.478  29.121  29.256  1.00  0.00     0.058 A 
ATOM     74  C   UNL A   1      37.521  29.400  30.254  1.00  0.00     0.135 A 
ATOM     75  C   UNL A   1      38.205  29.651  27.980  1.00  0.00     0.135 A 
ATOM     76  F   UNL A   1      37.701  28.951  31.505  1.00  0.00    -0.206 F 
ATOM     77  C   UNL A   1      36.398  30.206  30.016  1.00  0.00     0.059 A 
ATOM     78  C   UNL A   1      37.090  30.451  27.718  1.00  0.00     0.059 A 
ATOM     79  F   UNL A   1      39.068  29.486  26.967  1.00  0.00    -0.206 F 
ATOM     80  C   UNL A   1      36.206  30.750  28.748  1.00  0.00     0.060 A 
BRANCH  80  81
ATOM     81  S   UNL A   1      34.872  31.945  28.480  1.00  0.00     0.124 S 
ATOM     82  O   UNL A   1      33.861  31.128  27.817  1.00  0.00    -0.237 OA
ATOM     83  O   UNL A   1      34.556  32.368  29.840  1.00  0.00    -0.237 OA
ATOM     84  O   UNL A   1      35.495  32.967  27.643  1.00  0.00    -0.744 OA
ENDBRANCH  80  81
ENDBRANCH  48  73
BRANCH  60  85
ATOM     85  C   UNL A   1      43.623  28.078  32.781  1.00  0.00     0.058 A 
ATOM     86  C   UNL A   1      43.373  28.576  34.074  1.00  0.00     0.135 A 
ATOM     87  C   UNL A   1      43.502  26.692  32.599  1.00  0.00     0.135 A 
ATOM     88  F   UNL A   1      43.356  29.894  34.319  1.00  0.00    -0.206 F 
ATOM     89  C   UNL A   1      43.082  27.724  35.145  1.00  0.00     0.059 A 
ATOM     90  C   UNL A   1      43.177  25.831  33.641  1.00  0.00     0.059 A 
ATOM     91  F   UNL A   1      43.667  26.157  31.377  1.00  0.00    -0.206 F 
ATOM     92  C   UNL A   1      42.994  26.352  34.919  1.00  0.00     0.060 A 
BRANCH  92  93
ATOM     93  S   UNL A   1      42.606  25.247  36.294  1.00  0.00     0.124 S 
ATOM     94  O   UNL A   1      42.005  26.158  37.260  1.00  0.00    -0.237 OA
ATOM     95  O   UNL A   1      41.698  24.282  35.680  1.00  0.00    -0.237 OA
ATOM     96  O   UNL A   1      43.909  24.706  36.675  1.00  0.00    -0.744 OA
ENDBRANCH  92  93
ENDBRANCH  60  85
ENDBRANCH  34  35
ENDBRANCH  26  29
ENDBRANCH  24  25
ENDBRANCH   1  24
TORSDOF 16
ENDMDL
MODEL 2
REMARK VINA RESULT:     -12.3      3.071      5.261
REMARK SMILES CCn1nc(-c2cccnc2)c2cc(C(=O)NCCCCNC(=O)c3ccc(-c4c5nc(c(-c6c(F)cc(S(=O)(=O)[O-])cc6F)c6ccc([nH]6)c(-c6c(F)cc(S(=O)(=O)[O-])cc6F)c6nc(c(-c7c(F)cc(S(=O)(=O)[O-])cc7F)c7ccc4[nH]7)C=C6)C=C5)cc3)sc21
REMARK SMILES IDX 20 1 19 2 18 3 17 4 15 5 16 6 14 8 3 9 4 10 92 11 5 12 12 13
REMARK SMILES IDX 91 14 13 15 2 16 1 17 6 18 7 19 11 20 8 21 10 22 9 23 21 24
REMARK SMILES IDX 22 25 23 26 24 28 25 29 26 30 90 31 27 32 89 33 28 34 29 35
REMARK SMILES IDX 30 36 83 37 31 38 88 39 82 40 84 41 32 42 87 43 81 44 80 45
REMARK SMILES IDX 33 47 67 48 46 49 66 50 47 51 50 52 65 53 85 54 48 55 49 56
REMARK SMILES IDX 64 58 86 59 51 60 34 61 35 62 44 63 36 64 37 65 43 66 45 67
REMARK SMILES IDX 38 68 39 69 40 70 41 71 42 72 68 73 69 74 78 75 70 76 71 77
REMARK SMILES IDX 77 78 79 79 72 80 73 81 74 82 75 83 76 84 52 85 53 86 62 87
REMARK SMILES IDX 54 88 55 89 61 90 63 91 56 92 57 93 58 94 59 95 60 96
REMARK H PARENT 17 7 22 27 84 46 50 57
REMARK Flexibility Score: inf
ROOT
ATOM      1  C   UNL A   1      36.201  22.855  25.110  1.00  0.00     0.023 C 
ENDROOT
BRANCH   1   2
ATOM      2  C   UNL A   1      34.960  22.761  25.998  1.00  0.00     0.023 C 
BRANCH   2   3
ATOM      3  C   UNL A   1      33.642  23.263  25.408  1.00  0.00     0.116 C 
BRANCH   3   4
ATOM      4  N   UNL A   1      32.453  22.962  26.202  1.00  0.00    -0.351 N 
ATOM      5  C   UNL A   1      31.387  23.743  26.633  1.00  0.00     0.261 C 
ATOM      6  O   UNL A   1      30.575  23.183  27.372  1.00  0.00    -0.268 OA
ATOM      7  H   UNL A   1      32.395  22.022  26.488  1.00  0.00     0.163 HD
BRANCH   5   8
ATOM      8  C   UNL A   1      31.279  25.164  26.322  1.00  0.00     0.095 A 
ATOM      9  N   UNL A   1      30.851  28.116  24.154  1.00  0.00    -0.254 N 
ATOM     10  N   UNL A   1      31.729  29.095  24.519  1.00  0.00    -0.171 NA
ATOM     11  C   UNL A   1      30.835  27.130  25.067  1.00  0.00     0.122 A 
ATOM     12  C   UNL A   1      32.336  28.614  25.639  1.00  0.00     0.103 A 
ATOM     13  C   UNL A   1      31.877  27.317  25.879  1.00  0.00     0.040 A 
ATOM     14  S   UNL A   1      29.913  25.825  25.469  1.00  0.00    -0.110 S 
ATOM     15  C   UNL A   1      32.141  26.217  26.703  1.00  0.00     0.038 A 
BRANCH   9  16
ATOM     16  C   UNL A   1      30.226  28.149  22.845  1.00  0.00     0.142 C 
ATOM     17  C   UNL A   1      28.825  28.756  22.801  1.00  0.00     0.029 C 
ENDBRANCH   9  16
BRANCH  12  18
ATOM     18  C   UNL A   1      33.175  29.486  26.437  1.00  0.00     0.021 A 
ATOM     19  C   UNL A   1      34.448  29.038  26.813  1.00  0.00     0.013 A 
ATOM     20  C   UNL A   1      32.793  30.752  26.852  1.00  0.00     0.121 A 
ATOM     21  C   UNL A   1      35.281  29.856  27.566  1.00  0.00     0.021 A 
ATOM     22  N   UNL A   1      33.580  31.572  27.599  1.00  0.00    -0.264 NA
ATOM     23  C   UNL A   1      34.806  31.103  27.932  1.00  0.00     0.111 A 
ENDBRANCH  12  18
ENDBRANCH   5   8
ENDBRANCH   3   4
ENDBRANCH   2   3
ENDBRANCH   1   2
BRANCH   1  24
ATOM     24  C   UNL A   1      37.442  23.410  25.797  1.00  0.00     0.116 C 
BRANCH  24  25
ATOM     25  N   UNL A   1      38.412  22.386  26.192  1.00  0.00    -0.352 N 
ATOM     26  C   UNL A   1      39.739  22.589  26.519  1.00  0.00     0.251 C 
ATOM     27  H   UNL A   1      38.083  21.459  26.229  1.00  0.00     0.163 HD
ATOM     28  O   UNL A   1      40.551  21.662  26.452  1.00  0.00    -0.269 OA
BRANCH  26  29
ATOM     29  C   UNL A   1      40.169  23.928  26.960  1.00  0.00     0.039 A 
ATOM     30  C   UNL A   1      39.600  25.093  26.439  1.00  0.00     0.014 A 
ATOM     31  C   UNL A   1      41.145  23.997  27.953  1.00  0.00     0.014 A 
ATOM     32  C   UNL A   1      39.961  26.322  26.991  1.00  0.00     0.010 A 
ATOM     33  C   UNL A   1      41.399  25.191  28.585  1.00  0.00     0.010 A 
ATOM     34  C   UNL A   1      40.843  26.363  28.087  1.00  0.00    -0.014 A 
BRANCH  34  35
ATOM     35  C   UNL A   1      41.046  27.602  28.839  1.00  0.00     0.031 A 
ATOM     36  C   UNL A   1      42.180  28.420  28.319  1.00  0.00     0.074 A 
ATOM     37  C   UNL A   1      40.167  28.082  29.750  1.00  0.00     0.049 A 
ATOM     38  N   UNL A   1      43.317  28.641  28.890  1.00  0.00    -0.248 NA
ATOM     39  C   UNL A   1      42.124  28.892  26.922  1.00  0.00     0.031 C 
ATOM     40  C   UNL A   1      38.861  27.524  30.120  1.00  0.00     0.029 A 
ATOM     41  N   UNL A   1      40.199  29.238  30.473  1.00  0.00    -0.354 N 
ATOM     42  C   UNL A   1      43.999  29.513  28.047  1.00  0.00     0.074 A 
ATOM     43  C   UNL A   1      43.335  29.436  26.773  1.00  0.00     0.031 C 
ATOM     44  C   UNL A   1      38.141  28.448  30.795  1.00  0.00     0.029 A 
ATOM     45  C   UNL A   1      38.982  29.602  31.054  1.00  0.00     0.049 A 
ATOM     46  H   UNL A   1      41.017  29.775  30.578  1.00  0.00     0.167 HD
ATOM     47  C   UNL A   1      44.856  30.443  28.555  1.00  0.00     0.037 A 
ATOM     48  C   UNL A   1      38.683  30.768  31.689  1.00  0.00     0.037 A 
ATOM     49  C   UNL A   1      45.223  30.112  29.912  1.00  0.00     0.049 A 
ATOM     50  C   UNL A   1      39.973  31.388  32.082  1.00  0.00     0.074 A 
ATOM     51  C   UNL A   1      45.796  29.014  30.525  1.00  0.00     0.029 A 
ATOM     52  N   UNL A   1      44.623  30.831  30.917  1.00  0.00    -0.354 N 
ATOM     53  N   UNL A   1      40.779  30.877  32.971  1.00  0.00    -0.248 NA
ATOM     54  C   UNL A   1      40.584  32.314  31.144  1.00  0.00     0.031 C 
ATOM     55  C   UNL A   1      45.094  28.876  31.760  1.00  0.00     0.029 A 
ATOM     56  C   UNL A   1      44.208  29.946  31.878  1.00  0.00     0.049 A 
ATOM     57  H   UNL A   1      44.510  31.809  30.942  1.00  0.00     0.167 HD
ATOM     58  C   UNL A   1      42.044  31.041  32.428  1.00  0.00     0.074 A 
ATOM     59  C   UNL A   1      41.868  32.007  31.345  1.00  0.00     0.031 C 
ATOM     60  C   UNL A   1      43.050  30.162  32.717  1.00  0.00     0.037 A 
BRANCH  47  61
ATOM     61  C   UNL A   1      45.022  31.843  27.998  1.00  0.00     0.058 A 
ATOM     62  C   UNL A   1      46.294  32.257  27.550  1.00  0.00     0.135 A 
ATOM     63  C   UNL A   1      44.070  32.877  28.150  1.00  0.00     0.135 A 
ATOM     64  F   UNL A   1      47.284  31.365  27.383  1.00  0.00    -0.206 F 
ATOM     65  C   UNL A   1      46.614  33.600  27.336  1.00  0.00     0.059 A 
ATOM     66  C   UNL A   1      44.352  34.214  27.890  1.00  0.00     0.059 A 
ATOM     67  F   UNL A   1      42.847  32.665  28.647  1.00  0.00    -0.206 F 
ATOM     68  C   UNL A   1      45.636  34.571  27.519  1.00  0.00     0.060 A 
BRANCH  68  69
ATOM     69  S   UNL A   1      46.059  36.308  27.307  1.00  0.00     0.124 S 
ATOM     70  O   UNL A   1      46.915  36.257  26.129  1.00  0.00    -0.237 OA
ATOM     71  O   UNL A   1      44.744  36.914  27.120  1.00  0.00    -0.237 OA
ATOM     72  O   UNL A   1      46.724  36.646  28.562  1.00  0.00    -0.744 OA
ENDBRANCH  68  69
ENDBRANCH  47  61
BRANCH  48  73
ATOM     73  C   UNL A   1      37.408  31.545  31.698  1.00  0.00     0.058 A 
ATOM     74  C   UNL A   1      36.718  31.807  32.899  1.00  0.00     0.135 A 
ATOM     75  C   UNL A   1      37.009  32.308  30.582  1.00  0.00     0.135 A 
ATOM     76  F   UNL A   1      37.037  31.142  34.019  1.00  0.00    -0.206 F 
ATOM     77  C   UNL A   1      35.739  32.807  33.002  1.00  0.00     0.059 A 
ATOM     78  C   UNL A   1      36.033  33.304  30.660  1.00  0.00     0.059 A 
ATOM     79  F   UNL A   1      37.628  32.173  29.400  1.00  0.00    -0.206 F 
ATOM     80  C   UNL A   1      35.423  33.569  31.880  1.00  0.00     0.060 A 
BRANCH  80  81
ATOM     81  S   UNL A   1      34.306  34.986  32.046  1.00  0.00     0.124 S 
ATOM     82  O   UNL A   1      33.168  34.395  32.744  1.00  0.00    -0.237 OA
ATOM     83  O   UNL A   1      35.110  35.925  32.821  1.00  0.00    -0.237 OA
ATOM     84  O   UNL A   1      34.052  35.382  30.664  1.00  0.00    -0.744 OA
ENDBRANCH  80  81
ENDBRANCH  48  73
BRANCH  60  85
ATOM     85  C   UNL A   1      42.868  29.230  33.891  1.00  0.00     0.058 A 
ATOM     86  C   UNL A   1      43.088  29.561  35.241  1.00  0.00     0.135 A 
ATOM     87  C   UNL A   1      42.343  27.956  33.626  1.00  0.00     0.135 A 
ATOM     88  F   UNL A   1      43.482  30.792  35.598  1.00  0.00    -0.206 F 
ATOM     89  C   UNL A   1      42.856  28.642  36.269  1.00  0.00     0.059 A 
ATOM     90  C   UNL A   1      42.069  27.041  34.636  1.00  0.00     0.059 A 
ATOM     91  F   UNL A   1      42.052  27.598  32.364  1.00  0.00    -0.206 F 
ATOM     92  C   UNL A   1      42.353  27.381  35.955  1.00  0.00     0.060 A 
BRANCH  92  93
ATOM     93  S   UNL A   1      42.039  26.193  37.278  1.00  0.00     0.124 S 
ATOM     94  O   UNL A   1      42.203  24.917  36.592  1.00  0.00    -0.237 OA
ATOM     95  O   UNL A   1      43.073  26.525  38.255  1.00  0.00    -0.237 OA
ATOM     96  O   UNL A   1      40.675  26.503  37.700  1.00  0.00    -0.744 OA
ENDBRANCH  92  93
ENDBRANCH  60  85
ENDBRANCH  34  35
ENDBRANCH  26  29
ENDBRANCH  24  25
ENDBRANCH   1  24
TORSDOF 16
ENDMDL
MODEL 3
REMARK VINA RESULT:     -12.1      2.454      3.979
REMARK SMILES CCn1nc(-c2cccnc2)c2cc(C(=O)NCCCCNC(=O)c3ccc(-c4c5nc(c(-c6c(F)cc(S(=O)(=O)[O-])cc6F)c6ccc([nH]6)c(-c6c(F)cc(S(=O)(=O)[O-])cc6F)c6nc(c(-c7c(F)cc(S(=O)(=O)[O-])cc7F)c7ccc4[nH]7)C=C6)C=C5)cc3)sc21
REMARK SMILES IDX 20 1 19 2 18 3 17 4 15 5 16 6 14 8 3 9 4 10 92 11 5 12 12 13
REMARK SMILES IDX 91 14 13 15 2 16 1 17 6 18 7 19 11 20 8 21 10 22 9 23 21 24
REMARK SMILES IDX 22 25 23 26 24 28 25 29 26 30 90 31 27 32 89 33 28 34 29 35
REMARK SMILES IDX 30 36 83 37 31 38 88 39 82 40 84 41 32 42 87 43 81 44 80 45
REMARK SMILES IDX 33 47 67 48 46 49 66 50 47 51 50 52 65 53 85 54 48 55 49 56
REMARK SMILES IDX 64 58 86 59 51 60 34 61 35 62 44 63 36 64 37 65 43 66 45 67
REMARK SMILES IDX 38 68 39 69 40 70 41 71 42 72 68 73 69 74 78 75 70 76 71 77
REMARK SMILES IDX 77 78 79 79 72 80 73 81 74 82 75 83 76 84 52 85 53 86 62 87
REMARK SMILES IDX 54 88 55 89 61 90 63 91 56 92 57 93 58 94 59 95 60 96
REMARK H PARENT 17 7 22 27 84 46 50 57
REMARK Flexibility Score: inf
ROOT
ATOM      1  C   UNL A   1      39.708  22.200  26.489  1.00  0.00     0.023 C 
ENDROOT
BRANCH   1   2
ATOM      2  C   UNL A   1      39.326  23.613  26.928  1.00  0.00     0.023 C 
BRANCH   2   3
ATOM      3  C   UNL A   1      37.977  24.151  26.450  1.00  0.00     0.116 C 
BRANCH   3   4
ATOM      4  N   UNL A   1      37.535  23.650  25.151  1.00  0.00    -0.351 N 
ATOM      5  C   UNL A   1      36.286  23.585  24.544  1.00  0.00     0.261 C 
ATOM      6  O   UNL A   1      36.250  23.014  23.452  1.00  0.00    -0.268 OA
ATOM      7  H   UNL A   1      38.263  23.288  24.598  1.00  0.00     0.163 HD
BRANCH   5   8
ATOM      8  C   UNL A   1      35.072  24.064  25.193  1.00  0.00     0.095 A 
ATOM      9  N   UNL A   1      31.489  24.051  26.068  1.00  0.00    -0.254 N 
ATOM     10  N   UNL A   1      30.992  25.322  26.023  1.00  0.00    -0.171 NA
ATOM     11  C   UNL A   1      32.829  24.064  25.976  1.00  0.00     0.122 A 
ATOM     12  C   UNL A   1      32.078  26.108  25.784  1.00  0.00     0.103 A 
ATOM     13  C   UNL A   1      33.196  25.290  25.602  1.00  0.00     0.040 A 
ATOM     14  S   UNL A   1      34.100  23.041  26.213  1.00  0.00    -0.110 S 
ATOM     15  C   UNL A   1      34.535  25.371  25.203  1.00  0.00     0.038 A 
BRANCH   9  16
ATOM     16  C   UNL A   1      30.588  22.915  26.023  1.00  0.00     0.142 C 
ATOM     17  C   UNL A   1      29.683  22.746  27.243  1.00  0.00     0.029 C 
ENDBRANCH   9  16
BRANCH  12  18
ATOM     18  C   UNL A   1      31.965  27.549  25.895  1.00  0.00     0.021 A 
ATOM     19  C   UNL A   1      32.345  28.165  27.095  1.00  0.00     0.013 A 
ATOM     20  C   UNL A   1      31.503  28.365  24.875  1.00  0.00     0.121 A 
ATOM     21  C   UNL A   1      32.262  29.545  27.228  1.00  0.00     0.021 A 
ATOM     22  N   UNL A   1      31.399  29.717  24.977  1.00  0.00    -0.264 NA
ATOM     23  C   UNL A   1      31.786  30.272  26.150  1.00  0.00     0.111 A 
ENDBRANCH  12  18
ENDBRANCH   5   8
ENDBRANCH   3   4
ENDBRANCH   2   3
ENDBRANCH   1   2
BRANCH   1  24
ATOM     24  C   UNL A   1      40.935  21.621  27.180  1.00  0.00     0.116 C 
BRANCH  24  25
ATOM     25  N   UNL A   1      42.053  21.345  26.275  1.00  0.00    -0.352 N 
ATOM     26  C   UNL A   1      42.846  22.278  25.634  1.00  0.00     0.251 C 
ATOM     27  H   UNL A   1      42.260  20.398  26.108  1.00  0.00     0.163 HD
ATOM     28  O   UNL A   1      43.479  21.973  24.619  1.00  0.00    -0.269 OA
BRANCH  26  29
ATOM     29  C   UNL A   1      42.933  23.641  26.187  1.00  0.00     0.039 A 
ATOM     30  C   UNL A   1      42.375  24.740  25.529  1.00  0.00     0.014 A 
ATOM     31  C   UNL A   1      43.564  23.797  27.420  1.00  0.00     0.014 A 
ATOM     32  C   UNL A   1      42.381  25.980  26.168  1.00  0.00     0.010 A 
ATOM     33  C   UNL A   1      43.451  24.984  28.105  1.00  0.00     0.010 A 
ATOM     34  C   UNL A   1      42.897  26.090  27.472  1.00  0.00    -0.014 A 
BRANCH  34  35
ATOM     35  C   UNL A   1      42.695  27.309  28.257  1.00  0.00     0.031 A 
ATOM     36  C   UNL A   1      43.780  28.314  28.063  1.00  0.00     0.074 A 
ATOM     37  C   UNL A   1      41.543  27.606  28.903  1.00  0.00     0.049 A 
ATOM     38  N   UNL A   1      44.678  28.679  28.917  1.00  0.00    -0.248 NA
ATOM     39  C   UNL A   1      44.019  28.837  26.703  1.00  0.00     0.031 C 
ATOM     40  C   UNL A   1      40.292  26.838  28.910  1.00  0.00     0.029 A 
ATOM     41  N   UNL A   1      41.200  28.718  29.614  1.00  0.00    -0.354 N 
ATOM     42  C   UNL A   1      45.408  29.684  28.290  1.00  0.00     0.074 A 
ATOM     43  C   UNL A   1      45.123  29.567  26.885  1.00  0.00     0.031 C 
ATOM     44  C   UNL A   1      39.283  27.609  29.373  1.00  0.00     0.029 A 
ATOM     45  C   UNL A   1      39.830  28.864  29.852  1.00  0.00     0.049 A 
ATOM     46  H   UNL A   1      41.865  29.368  29.936  1.00  0.00     0.167 HD
ATOM     47  C   UNL A   1      45.942  30.708  29.012  1.00  0.00     0.037 A 
ATOM     48  C   UNL A   1      39.193  29.940  30.390  1.00  0.00     0.037 A 
ATOM     49  C   UNL A   1      45.988  30.375  30.417  1.00  0.00     0.049 A 
ATOM     50  C   UNL A   1      40.219  30.730  31.116  1.00  0.00     0.074 A 
ATOM     51  C   UNL A   1      46.548  29.349  31.155  1.00  0.00     0.029 A 
ATOM     52  N   UNL A   1      45.039  30.945  31.228  1.00  0.00    -0.354 N 
ATOM     53  N   UNL A   1      40.835  30.307  32.185  1.00  0.00    -0.248 NA
ATOM     54  C   UNL A   1      40.899  31.782  30.378  1.00  0.00     0.031 C 
ATOM     55  C   UNL A   1      45.579  29.047  32.157  1.00  0.00     0.029 A 
ATOM     56  C   UNL A   1      44.533  29.963  32.040  1.00  0.00     0.049 A 
ATOM     57  H   UNL A   1      44.769  31.892  31.227  1.00  0.00     0.167 HD
ATOM     58  C   UNL A   1      42.155  30.687  31.999  1.00  0.00     0.074 A 
ATOM     59  C   UNL A   1      42.117  31.666  30.913  1.00  0.00     0.031 C 
ATOM     60  C   UNL A   1      43.176  29.960  32.541  1.00  0.00     0.037 A 
BRANCH  47  61
ATOM     61  C   UNL A   1      46.022  32.142  28.526  1.00  0.00     0.058 A 
ATOM     62  C   UNL A   1      47.236  32.847  28.667  1.00  0.00     0.135 A 
ATOM     63  C   UNL A   1      44.898  32.935  28.199  1.00  0.00     0.135 A 
ATOM     64  F   UNL A   1      48.368  32.203  28.991  1.00  0.00    -0.206 F 
ATOM     65  C   UNL A   1      47.313  34.238  28.559  1.00  0.00     0.059 A 
ATOM     66  C   UNL A   1      44.964  34.314  28.034  1.00  0.00     0.059 A 
ATOM     67  F   UNL A   1      43.662  32.434  28.116  1.00  0.00    -0.206 F 
ATOM     68  C   UNL A   1      46.167  34.962  28.251  1.00  0.00     0.060 A 
BRANCH  68  69
ATOM     69  S   UNL A   1      46.245  36.759  28.173  1.00  0.00     0.124 S 
ATOM     70  O   UNL A   1      44.901  37.128  28.601  1.00  0.00    -0.237 OA
ATOM     71  O   UNL A   1      47.322  37.051  29.114  1.00  0.00    -0.237 OA
ATOM     72  O   UNL A   1      46.559  37.020  26.772  1.00  0.00    -0.744 OA
ENDBRANCH  68  69
ENDBRANCH  47  61
BRANCH  48  73
ATOM     73  C   UNL A   1      37.854  30.512  30.062  1.00  0.00     0.058 A 
ATOM     74  C   UNL A   1      37.032  31.073  31.062  1.00  0.00     0.135 A 
ATOM     75  C   UNL A   1      37.489  30.802  28.733  1.00  0.00     0.135 A 
ATOM     76  F   UNL A   1      37.309  30.865  32.357  1.00  0.00    -0.206 F 
ATOM     77  C   UNL A   1      35.956  31.921  30.763  1.00  0.00     0.059 A 
ATOM     78  C   UNL A   1      36.417  31.639  28.411  1.00  0.00     0.059 A 
ATOM     79  F   UNL A   1      38.224  30.358  27.704  1.00  0.00    -0.206 F 
ATOM     80  C   UNL A   1      35.673  32.220  29.432  1.00  0.00     0.060 A 
BRANCH  80  81
ATOM     81  S   UNL A   1      34.413  33.461  29.041  1.00  0.00     0.124 S 
ATOM     82  O   UNL A   1      33.577  32.753  28.078  1.00  0.00    -0.237 OA
ATOM     83  O   UNL A   1      33.809  33.711  30.346  1.00  0.00    -0.237 OA
ATOM     84  O   UNL A   1      35.189  34.572  28.496  1.00  0.00    -0.744 OA
ENDBRANCH  80  81
ENDBRANCH  48  73
BRANCH  60  85
ATOM     85  C   UNL A   1      42.845  28.957  33.620  1.00  0.00     0.058 A 
ATOM     86  C   UNL A   1      42.574  27.591  33.413  1.00  0.00     0.135 A 
ATOM     87  C   UNL A   1      42.907  29.399  34.951  1.00  0.00     0.135 A 
ATOM     88  F   UNL A   1      42.603  27.056  32.185  1.00  0.00    -0.206 F 
ATOM     89  C   UNL A   1      42.314  26.725  34.480  1.00  0.00     0.059 A 
ATOM     90  C   UNL A   1      42.690  28.546  36.027  1.00  0.00     0.059 A 
ATOM     91  F   UNL A   1      43.223  30.677  35.221  1.00  0.00    -0.206 F 
ATOM     92  C   UNL A   1      42.367  27.215  35.784  1.00  0.00     0.060 A 
BRANCH  92  93
ATOM     93  S   UNL A   1      42.044  26.099  37.167  1.00  0.00     0.124 S 
ATOM     94  O   UNL A   1      42.326  24.794  36.582  1.00  0.00    -0.237 OA
ATOM     95  O   UNL A   1      42.995  26.561  38.176  1.00  0.00    -0.237 OA
ATOM     96  O   UNL A   1      40.641  26.349  37.487  1.00  0.00    -0.744 OA
ENDBRANCH  92  93
ENDBRANCH  60  85
ENDBRANCH  34  35
ENDBRANCH  26  29
ENDBRANCH  24  25
ENDBRANCH   1  24
TORSDOF 16
ENDMDL
