MODEL 1
REMARK VINA RESULT:     -13.6      0.000      0.000
REMARK SMILES NS(=O)(=O)c1ccc(-n2nc(C(=O)NCCCCNC(=O)c3ccc(-c4c5nc(c(-c6c(F)cc(S(=O)(=O)[O-])cc6F)c6ccc([nH]6)c(-c6c(F)cc(S(=O)(=O)[O-])cc6F)c6nc(c(-c7c(F)cc(S(=O)(=O)[O-])cc7F)c7ccc4[nH]7)C=C6)C=C5)cc3)cc2-c2ccc(Cl)s2)cc1
REMARK SMILES IDX 16 1 15 2 14 3 12 4 13 5 11 7 9 8 10 9 89 10 88 11 8 12 5 13
REMARK SMILES IDX 6 14 97 15 7 16 96 17 2 18 3 19 4 20 1 21 90 24 91 25 95 26
REMARK SMILES IDX 92 27 93 28 94 29 17 30 18 31 19 32 20 33 21 35 22 36 23 37
REMARK SMILES IDX 87 38 24 39 86 40 25 41 26 42 27 43 80 44 28 45 85 46 79 47
REMARK SMILES IDX 81 48 29 49 84 50 78 51 77 52 30 54 64 55 43 56 63 57 44 58
REMARK SMILES IDX 47 59 62 60 82 61 45 62 46 63 61 65 83 66 48 67 31 68 32 69
REMARK SMILES IDX 41 70 33 71 34 72 40 73 42 74 35 75 36 76 37 77 38 78 39 79
REMARK SMILES IDX 65 80 66 81 75 82 67 83 68 84 74 85 76 86 69 87 70 88 71 89
REMARK SMILES IDX 72 90 73 91 49 92 50 93 59 94 51 95 52 96 58 97 60 98 53 99
REMARK SMILES IDX 54 100 55 101 56 102 57 103
REMARK H PARENT 14 6 1 22 1 23 19 34 81 53 47 64
REMARK Flexibility Score: inf
ROOT
ATOM      1  C   UNL A   1      35.739  22.126  24.189  1.00  0.00     0.023 C 
ENDROOT
BRANCH   1   2
ATOM      2  C   UNL A   1      34.911  22.981  23.222  1.00  0.00     0.116 C 
BRANCH   2   3
ATOM      3  N   UNL A   1      33.586  22.439  23.001  1.00  0.00    -0.351 N 
ATOM      4  C   UNL A   1      32.311  22.930  23.186  1.00  0.00     0.271 C 
ATOM      5  O   UNL A   1      31.401  22.142  22.914  1.00  0.00    -0.267 OA
ATOM      6  H   UNL A   1      33.598  21.522  22.643  1.00  0.00     0.163 HD
BRANCH   4   7
ATOM      7  C   UNL A   1      32.037  24.306  23.666  1.00  0.00     0.151 A 
ATOM      8  N   UNL A   1      31.185  26.288  23.609  1.00  0.00    -0.231 N 
ATOM      9  N   UNL A   1      31.076  25.052  23.074  1.00  0.00    -0.162 NA
ATOM     10  C   UNL A   1      32.042  26.298  24.692  1.00  0.00     0.085 A 
ATOM     11  C   UNL A   1      32.603  25.043  24.734  1.00  0.00     0.066 A 
BRANCH   8  12
ATOM     12  C   UNL A   1      30.415  27.372  23.117  1.00  0.00     0.065 A 
ATOM     13  C   UNL A   1      28.985  29.668  22.482  1.00  0.00     0.082 A 
ATOM     14  C   UNL A   1      30.319  29.558  22.082  1.00  0.00     0.024 A 
ATOM     15  C   UNL A   1      28.344  28.612  23.140  1.00  0.00     0.024 A 
ATOM     16  C   UNL A   1      31.041  28.412  22.416  1.00  0.00     0.030 A 
ATOM     17  C   UNL A   1      29.052  27.440  23.427  1.00  0.00     0.030 A 
BRANCH  13  18
ATOM     18  S   UNL A   1      28.116  31.195  22.275  1.00  0.00     0.238 S 
ATOM     19  O   UNL A   1      27.339  31.454  23.461  1.00  0.00    -0.207 OA
ATOM     20  O   UNL A   1      27.553  31.238  20.943  1.00  0.00    -0.207 OA
BRANCH  18  21
ATOM     21  N   UNL A   1      29.330  32.362  22.296  1.00  0.00    -0.225 NA
ATOM     22  H   UNL A   1      29.024  33.161  22.851  1.00  0.00     0.137 HD
ATOM     23  H   UNL A   1      29.526  32.666  21.343  1.00  0.00     0.137 HD
ENDBRANCH  18  21
ENDBRANCH  13  18
ENDBRANCH   8  12
BRANCH  10  24
ATOM     24  C   UNL A   1      32.210  27.343  25.656  1.00  0.00     0.054 A 
ATOM     25  C   UNL A   1      31.379  27.629  26.721  1.00  0.00     0.024 A 
ATOM     26  S   UNL A   1      33.466  28.503  25.504  1.00  0.00    -0.122 S 
ATOM     27  C   UNL A   1      31.772  28.819  27.405  1.00  0.00     0.033 A 
ATOM     28  C   UNL A   1      32.881  29.378  26.826  1.00  0.00     0.094 A 
ATOM     29  Cl  UNL A   1      33.665  30.829  27.300  1.00  0.00    -0.072 Cl
ENDBRANCH  10  24
ENDBRANCH   4   7
ENDBRANCH   2   3
ENDBRANCH   1   2
BRANCH   1  30
ATOM     30  C   UNL A   1      37.180  22.614  24.429  1.00  0.00     0.023 C 
BRANCH  30  31
ATOM     31  C   UNL A   1      37.555  22.877  25.887  1.00  0.00     0.116 C 
BRANCH  31  32
ATOM     32  N   UNL A   1      38.705  22.090  26.354  1.00  0.00    -0.352 N 
ATOM     33  C   UNL A   1      39.975  22.539  26.703  1.00  0.00     0.251 C 
ATOM     34  H   UNL A   1      38.559  21.119  26.428  1.00  0.00     0.163 HD
ATOM     35  O   UNL A   1      40.940  21.787  26.674  1.00  0.00    -0.269 OA
BRANCH  33  36
ATOM     36  C   UNL A   1      40.120  23.935  27.149  1.00  0.00     0.039 A 
ATOM     37  C   UNL A   1      39.137  24.916  26.989  1.00  0.00     0.014 A 
ATOM     38  C   UNL A   1      41.304  24.225  27.809  1.00  0.00     0.014 A 
ATOM     39  C   UNL A   1      39.346  26.168  27.572  1.00  0.00     0.010 A 
ATOM     40  C   UNL A   1      41.373  25.328  28.601  1.00  0.00     0.010 A 
ATOM     41  C   UNL A   1      40.473  26.358  28.387  1.00  0.00    -0.014 A 
BRANCH  41  42
ATOM     42  C   UNL A   1      40.749  27.593  29.103  1.00  0.00     0.031 A 
ATOM     43  C   UNL A   1      41.805  28.435  28.485  1.00  0.00     0.074 A 
ATOM     44  C   UNL A   1      39.914  28.062  30.060  1.00  0.00     0.049 A 
ATOM     45  N   UNL A   1      43.002  28.642  28.919  1.00  0.00    -0.248 NA
ATOM     46  C   UNL A   1      41.564  28.970  27.134  1.00  0.00     0.031 C 
ATOM     47  C   UNL A   1      38.631  27.504  30.522  1.00  0.00     0.029 A 
ATOM     48  N   UNL A   1      39.984  29.223  30.757  1.00  0.00    -0.354 N 
ATOM     49  C   UNL A   1      43.570  29.552  28.031  1.00  0.00     0.074 A 
ATOM     50  C   UNL A   1      42.746  29.520  26.851  1.00  0.00     0.031 C 
ATOM     51  C   UNL A   1      37.949  28.439  31.221  1.00  0.00     0.029 A 
ATOM     52  C   UNL A   1      38.813  29.585  31.420  1.00  0.00     0.049 A 
ATOM     53  H   UNL A   1      40.801  29.770  30.793  1.00  0.00     0.167 HD
ATOM     54  C   UNL A   1      44.498  30.458  28.450  1.00  0.00     0.037 A 
ATOM     55  C   UNL A   1      38.581  30.758  32.063  1.00  0.00     0.037 A 
ATOM     56  C   UNL A   1      44.999  30.114  29.761  1.00  0.00     0.049 A 
ATOM     57  C   UNL A   1      39.917  31.354  32.343  1.00  0.00     0.074 A 
ATOM     58  C   UNL A   1      45.619  29.004  30.302  1.00  0.00     0.029 A 
ATOM     59  N   UNL A   1      44.509  30.824  30.833  1.00  0.00    -0.354 N 
ATOM     60  N   UNL A   1      40.793  30.814  33.149  1.00  0.00    -0.248 NA
ATOM     61  C   UNL A   1      40.464  32.262  31.347  1.00  0.00     0.031 C 
ATOM     62  C   UNL A   1      45.025  28.845  31.590  1.00  0.00     0.029 A 
ATOM     63  C   UNL A   1      44.151  29.913  31.796  1.00  0.00     0.049 A 
ATOM     64  H   UNL A   1      44.429  31.803  30.899  1.00  0.00     0.167 HD
ATOM     65  C   UNL A   1      42.016  30.973  32.509  1.00  0.00     0.074 A 
ATOM     66  C   UNL A   1      41.756  31.931  31.433  1.00  0.00     0.031 C 
ATOM     67  C   UNL A   1      43.046  30.099  32.714  1.00  0.00     0.037 A 
BRANCH  54  68
ATOM     68  C   UNL A   1      44.675  31.842  27.868  1.00  0.00     0.058 A 
ATOM     69  C   UNL A   1      45.860  32.141  27.165  1.00  0.00     0.135 A 
ATOM     70  C   UNL A   1      43.872  32.955  28.204  1.00  0.00     0.135 A 
ATOM     71  F   UNL A   1      46.701  31.162  26.794  1.00  0.00    -0.206 F 
ATOM     72  C   UNL A   1      46.257  33.450  26.890  1.00  0.00     0.059 A 
ATOM     73  C   UNL A   1      44.220  34.263  27.890  1.00  0.00     0.059 A 
ATOM     74  F   UNL A   1      42.761  32.846  28.942  1.00  0.00    -0.206 F 
ATOM     75  C   UNL A   1      45.435  34.505  27.273  1.00  0.00     0.060 A 
BRANCH  75  76
ATOM     76  S   UNL A   1      45.994  36.197  27.021  1.00  0.00     0.124 S 
ATOM     77  O   UNL A   1      46.670  36.090  25.734  1.00  0.00    -0.237 OA
ATOM     78  O   UNL A   1      44.734  36.934  27.024  1.00  0.00    -0.237 OA
ATOM     79  O   UNL A   1      46.858  36.440  28.173  1.00  0.00    -0.744 OA
ENDBRANCH  75  76
ENDBRANCH  54  68
BRANCH  55  80
ATOM     80  C   UNL A   1      37.322  31.554  32.110  1.00  0.00     0.058 A 
ATOM     81  C   UNL A   1      36.797  32.013  33.332  1.00  0.00     0.135 A 
ATOM     82  C   UNL A   1      36.774  32.131  30.945  1.00  0.00     0.135 A 
ATOM     83  F   UNL A   1      37.267  31.529  34.491  1.00  0.00    -0.206 F 
ATOM     84  C   UNL A   1      35.833  33.027  33.398  1.00  0.00     0.059 A 
ATOM     85  C   UNL A   1      35.808  33.137  30.987  1.00  0.00     0.059 A 
ATOM     86  F   UNL A   1      37.231  31.797  29.729  1.00  0.00    -0.206 F 
ATOM     87  C   UNL A   1      35.362  33.602  32.218  1.00  0.00     0.060 A 
BRANCH  87  88
ATOM     88  S   UNL A   1      34.263  35.039  32.304  1.00  0.00     0.124 S 
ATOM     89  O   UNL A   1      35.037  35.962  33.127  1.00  0.00    -0.237 OA
ATOM     90  O   UNL A   1      34.123  35.404  30.898  1.00  0.00    -0.237 OA
ATOM     91  O   UNL A   1      33.056  34.505  32.929  1.00  0.00    -0.744 OA
ENDBRANCH  87  88
ENDBRANCH  55  80
BRANCH  67  92
ATOM     92  C   UNL A   1      42.940  29.110  33.850  1.00  0.00     0.058 A 
ATOM     93  C   UNL A   1      43.181  29.412  35.204  1.00  0.00     0.135 A 
ATOM     94  C   UNL A   1      42.405  27.845  33.568  1.00  0.00     0.135 A 
ATOM     95  F   UNL A   1      43.595  30.630  35.576  1.00  0.00    -0.206 F 
ATOM     96  C   UNL A   1      42.937  28.486  36.222  1.00  0.00     0.059 A 
ATOM     97  C   UNL A   1      42.125  26.917  34.568  1.00  0.00     0.059 A 
ATOM     98  F   UNL A   1      42.093  27.516  32.304  1.00  0.00    -0.206 F 
ATOM     99  C   UNL A   1      42.406  27.240  35.893  1.00  0.00     0.060 A 
BRANCH  99 100
ATOM    100  S   UNL A   1      42.026  26.067  37.213  1.00  0.00     0.124 S 
ATOM    101  O   UNL A   1      42.988  26.441  38.243  1.00  0.00    -0.237 OA
ATOM    102  O   UNL A   1      40.629  26.366  37.512  1.00  0.00    -0.237 OA
ATOM    103  O   UNL A   1      42.254  24.766  36.589  1.00  0.00    -0.744 OA
ENDBRANCH  99 100
ENDBRANCH  67  92
ENDBRANCH  41  42
ENDBRANCH  33  36
ENDBRANCH  31  32
ENDBRANCH  30  31
ENDBRANCH   1  30
TORSDOF 18
ENDMDL
MODEL 2
REMARK VINA RESULT:     -13.3      3.478      9.923
REMARK SMILES NS(=O)(=O)c1ccc(-n2nc(C(=O)NCCCCNC(=O)c3ccc(-c4c5nc(c(-c6c(F)cc(S(=O)(=O)[O-])cc6F)c6ccc([nH]6)c(-c6c(F)cc(S(=O)(=O)[O-])cc6F)c6nc(c(-c7c(F)cc(S(=O)(=O)[O-])cc7F)c7ccc4[nH]7)C=C6)C=C5)cc3)cc2-c2ccc(Cl)s2)cc1
REMARK SMILES IDX 16 1 15 2 14 3 12 4 13 5 11 7 9 8 10 9 89 10 88 11 8 12 5 13
REMARK SMILES IDX 6 14 97 15 7 16 96 17 2 18 3 19 4 20 1 21 90 24 91 25 95 26
REMARK SMILES IDX 92 27 93 28 94 29 17 30 18 31 19 32 20 33 21 35 22 36 23 37
REMARK SMILES IDX 87 38 24 39 86 40 25 41 26 42 27 43 80 44 28 45 85 46 79 47
REMARK SMILES IDX 81 48 29 49 84 50 78 51 77 52 30 54 64 55 43 56 63 57 44 58
REMARK SMILES IDX 47 59 62 60 82 61 45 62 46 63 61 65 83 66 48 67 31 68 32 69
REMARK SMILES IDX 41 70 33 71 34 72 40 73 42 74 35 75 36 76 37 77 38 78 39 79
REMARK SMILES IDX 65 80 66 81 75 82 67 83 68 84 74 85 76 86 69 87 70 88 71 89
REMARK SMILES IDX 72 90 73 91 49 92 50 93 59 94 51 95 52 96 58 97 60 98 53 99
REMARK SMILES IDX 54 100 55 101 56 102 57 103
REMARK H PARENT 14 6 1 22 1 23 19 34 81 53 47 64
REMARK Flexibility Score: inf
ROOT
ATOM      1  C   UNL A   1      32.270  29.341  25.034  1.00  0.00     0.023 C 
ENDROOT
BRANCH   1   2
ATOM      2  C   UNL A   1      31.812  28.223  24.089  1.00  0.00     0.116 C 
BRANCH   2   3
ATOM      3  N   UNL A   1      30.700  27.466  24.626  1.00  0.00    -0.351 N 
ATOM      4  C   UNL A   1      30.514  26.137  24.943  1.00  0.00     0.271 C 
ATOM      5  O   UNL A   1      29.387  25.849  25.355  1.00  0.00    -0.267 OA
ATOM      6  H   UNL A   1      29.905  28.020  24.803  1.00  0.00     0.163 HD
BRANCH   4   7
ATOM      7  C   UNL A   1      31.584  25.119  24.811  1.00  0.00     0.151 A 
ATOM      8  N   UNL A   1      32.416  23.133  24.655  1.00  0.00    -0.231 N 
ATOM      9  N   UNL A   1      31.264  23.832  24.543  1.00  0.00    -0.162 NA
ATOM     10  C   UNL A   1      33.508  23.971  24.765  1.00  0.00     0.085 A 
ATOM     11  C   UNL A   1      32.992  25.242  24.878  1.00  0.00     0.066 A 
BRANCH   8  12
ATOM     12  C   UNL A   1      32.428  21.718  24.572  1.00  0.00     0.065 A 
ATOM     13  C   UNL A   1      32.824  18.978  24.340  1.00  0.00     0.082 A 
ATOM     14  C   UNL A   1      32.887  19.577  25.601  1.00  0.00     0.024 A 
ATOM     15  C   UNL A   1      32.501  19.730  23.205  1.00  0.00     0.024 A 
ATOM     16  C   UNL A   1      32.705  20.954  25.715  1.00  0.00     0.030 A 
ATOM     17  C   UNL A   1      32.263  21.104  23.326  1.00  0.00     0.030 A 
BRANCH  13  18
ATOM     18  S   UNL A   1      33.274  17.280  24.136  1.00  0.00     0.238 S 
ATOM     19  O   UNL A   1      33.396  16.995  22.728  1.00  0.00    -0.207 OA
ATOM     20  O   UNL A   1      32.480  16.471  25.035  1.00  0.00    -0.207 OA
BRANCH  18  21
ATOM     21  N   UNL A   1      34.850  17.202  24.725  1.00  0.00    -0.225 NA
ATOM     22  H   UNL A   1      34.839  16.853  25.683  1.00  0.00     0.137 HD
ATOM     23  H   UNL A   1      35.267  18.133  24.708  1.00  0.00     0.137 HD
ENDBRANCH  18  21
ENDBRANCH  13  18
ENDBRANCH   8  12
BRANCH  10  24
ATOM     24  C   UNL A   1      34.890  23.617  24.646  1.00  0.00     0.054 A 
ATOM     25  C   UNL A   1      35.572  23.326  23.481  1.00  0.00     0.024 A 
ATOM     26  S   UNL A   1      35.871  23.372  26.033  1.00  0.00    -0.122 S 
ATOM     27  C   UNL A   1      36.906  22.885  23.736  1.00  0.00     0.033 A 
ATOM     28  C   UNL A   1      37.169  22.862  25.080  1.00  0.00     0.094 A 
ATOM     29  Cl  UNL A   1      38.630  22.362  25.832  1.00  0.00    -0.072 Cl
ENDBRANCH  10  24
ENDBRANCH   4   7
ENDBRANCH   2   3
ENDBRANCH   1   2
BRANCH   1  30
ATOM     30  C   UNL A   1      33.605  29.085  25.756  1.00  0.00     0.023 C 
BRANCH  30  31
ATOM     31  C   UNL A   1      33.720  29.676  27.161  1.00  0.00     0.116 C 
BRANCH  31  32
ATOM     32  N   UNL A   1      34.072  31.104  27.175  1.00  0.00    -0.352 N 
ATOM     33  C   UNL A   1      35.103  31.733  27.865  1.00  0.00     0.251 C 
ATOM     34  H   UNL A   1      33.504  31.691  26.625  1.00  0.00     0.163 HD
ATOM     35  O   UNL A   1      35.050  32.927  28.128  1.00  0.00    -0.269 OA
BRANCH  33  36
ATOM     36  C   UNL A   1      36.282  30.932  28.235  1.00  0.00     0.039 A 
ATOM     37  C   UNL A   1      36.426  29.570  27.952  1.00  0.00     0.014 A 
ATOM     38  C   UNL A   1      37.304  31.634  28.852  1.00  0.00     0.014 A 
ATOM     39  C   UNL A   1      37.647  28.957  28.240  1.00  0.00     0.010 A 
ATOM     40  C   UNL A   1      38.561  31.112  28.864  1.00  0.00     0.010 A 
ATOM     41  C   UNL A   1      38.714  29.748  28.692  1.00  0.00    -0.014 A 
BRANCH  41  42
ATOM     42  C   UNL A   1      40.048  29.228  28.949  1.00  0.00     0.031 A 
ATOM     43  C   UNL A   1      40.359  29.026  30.387  1.00  0.00     0.074 A 
ATOM     44  C   UNL A   1      40.808  28.700  27.960  1.00  0.00     0.049 A 
ATOM     45  N   UNL A   1      41.159  29.719  31.125  1.00  0.00    -0.248 NA
ATOM     46  C   UNL A   1      39.554  28.050  31.140  1.00  0.00     0.031 C 
ATOM     47  C   UNL A   1      40.473  28.507  26.539  1.00  0.00     0.029 A 
ATOM     48  N   UNL A   1      42.025  28.108  28.046  1.00  0.00    -0.354 N 
ATOM     49  C   UNL A   1      41.159  29.092  32.368  1.00  0.00     0.074 A 
ATOM     50  C   UNL A   1      39.993  28.248  32.385  1.00  0.00     0.031 C 
ATOM     51  C   UNL A   1      41.344  27.640  25.975  1.00  0.00     0.029 A 
ATOM     52  C   UNL A   1      42.400  27.365  26.929  1.00  0.00     0.049 A 
ATOM     53  H   UNL A   1      42.601  28.196  28.839  1.00  0.00     0.167 HD
ATOM     54  C   UNL A   1      42.266  29.104  33.163  1.00  0.00     0.037 A 
ATOM     55  C   UNL A   1      43.494  26.569  26.820  1.00  0.00     0.037 A 
ATOM     56  C   UNL A   1      43.225  30.079  32.695  1.00  0.00     0.049 A 
ATOM     57  C   UNL A   1      44.437  27.005  27.887  1.00  0.00     0.074 A 
ATOM     58  C   UNL A   1      43.191  31.441  32.466  1.00  0.00     0.029 A 
ATOM     59  N   UNL A   1      44.311  29.613  31.989  1.00  0.00    -0.354 N 
ATOM     60  N   UNL A   1      45.005  28.182  27.910  1.00  0.00    -0.248 NA
ATOM     61  C   UNL A   1      44.347  26.333  29.174  1.00  0.00     0.031 C 
ATOM     62  C   UNL A   1      43.918  31.627  31.253  1.00  0.00     0.029 A 
ATOM     63  C   UNL A   1      44.430  30.388  30.863  1.00  0.00     0.049 A 
ATOM     64  H   UNL A   1      44.895  28.862  32.245  1.00  0.00     0.167 HD
ATOM     65  C   UNL A   1      44.960  28.577  29.241  1.00  0.00     0.074 A 
ATOM     66  C   UNL A   1      44.602  27.366  29.982  1.00  0.00     0.031 C 
ATOM     67  C   UNL A   1      44.920  29.898  29.592  1.00  0.00     0.037 A 
BRANCH  54  68
ATOM     68  C   UNL A   1      42.657  27.995  34.113  1.00  0.00     0.058 A 
ATOM     69  C   UNL A   1      42.676  28.258  35.498  1.00  0.00     0.135 A 
ATOM     70  C   UNL A   1      43.275  26.788  33.715  1.00  0.00     0.135 A 
ATOM     71  F   UNL A   1      42.120  29.376  35.990  1.00  0.00    -0.206 F 
ATOM     72  C   UNL A   1      43.331  27.427  36.408  1.00  0.00     0.059 A 
ATOM     73  C   UNL A   1      43.883  25.917  34.611  1.00  0.00     0.059 A 
ATOM     74  F   UNL A   1      43.413  26.437  32.431  1.00  0.00    -0.206 F 
ATOM     75  C   UNL A   1      43.945  26.266  35.949  1.00  0.00     0.060 A 
BRANCH  75  76
ATOM     76  S   UNL A   1      44.885  25.250  37.100  1.00  0.00     0.124 S 
ATOM     77  O   UNL A   1      46.238  25.748  36.888  1.00  0.00    -0.237 OA
ATOM     78  O   UNL A   1      44.267  25.593  38.378  1.00  0.00    -0.237 OA
ATOM     79  O   UNL A   1      44.630  23.890  36.632  1.00  0.00    -0.744 OA
ENDBRANCH  75  76
ENDBRANCH  54  68
BRANCH  55  80
ATOM     80  C   UNL A   1      43.616  25.253  26.131  1.00  0.00     0.058 A 
ATOM     81  C   UNL A   1      44.676  24.993  25.242  1.00  0.00     0.135 A 
ATOM     82  C   UNL A   1      42.875  24.130  26.553  1.00  0.00     0.135 A 
ATOM     83  F   UNL A   1      45.443  25.999  24.797  1.00  0.00    -0.206 F 
ATOM     84  C   UNL A   1      45.019  23.695  24.846  1.00  0.00     0.059 A 
ATOM     85  C   UNL A   1      43.194  22.828  26.167  1.00  0.00     0.059 A 
ATOM     86  F   UNL A   1      41.871  24.259  27.434  1.00  0.00    -0.206 F 
ATOM     87  C   UNL A   1      44.286  22.614  25.335  1.00  0.00     0.060 A 
BRANCH  87  88
ATOM     88  S   UNL A   1      44.842  20.927  24.980  1.00  0.00     0.124 S 
ATOM     89  O   UNL A   1      46.210  20.948  25.485  1.00  0.00    -0.237 OA
ATOM     90  O   UNL A   1      43.894  20.123  25.745  1.00  0.00    -0.237 OA
ATOM     91  O   UNL A   1      44.712  20.826  23.529  1.00  0.00    -0.744 OA
ENDBRANCH  87  88
ENDBRANCH  55  80
BRANCH  67  92
ATOM     92  C   UNL A   1      45.201  30.935  28.532  1.00  0.00     0.058 A 
ATOM     93  C   UNL A   1      44.240  31.460  27.646  1.00  0.00     0.135 A 
ATOM     94  C   UNL A   1      46.463  31.546  28.531  1.00  0.00     0.135 A 
ATOM     95  F   UNL A   1      42.980  31.008  27.649  1.00  0.00    -0.206 F 
ATOM     96  C   UNL A   1      44.534  32.514  26.776  1.00  0.00     0.059 A 
ATOM     97  C   UNL A   1      46.770  32.617  27.696  1.00  0.00     0.059 A 
ATOM     98  F   UNL A   1      47.406  31.136  29.396  1.00  0.00    -0.206 F 
ATOM     99  C   UNL A   1      45.804  33.087  26.811  1.00  0.00     0.060 A 
BRANCH  99 100
ATOM    100  S   UNL A   1      46.166  34.494  25.736  1.00  0.00     0.124 S 
ATOM    101  O   UNL A   1      45.275  34.255  24.607  1.00  0.00    -0.237 OA
ATOM    102  O   UNL A   1      45.827  35.635  26.581  1.00  0.00    -0.237 OA
ATOM    103  O   UNL A   1      47.591  34.346  25.449  1.00  0.00    -0.744 OA
ENDBRANCH  99 100
ENDBRANCH  67  92
ENDBRANCH  41  42
ENDBRANCH  33  36
ENDBRANCH  31  32
ENDBRANCH  30  31
ENDBRANCH   1  30
TORSDOF 18
ENDMDL
MODEL 3
REMARK VINA RESULT:     -12.3      2.628      4.077
REMARK SMILES NS(=O)(=O)c1ccc(-n2nc(C(=O)NCCCCNC(=O)c3ccc(-c4c5nc(c(-c6c(F)cc(S(=O)(=O)[O-])cc6F)c6ccc([nH]6)c(-c6c(F)cc(S(=O)(=O)[O-])cc6F)c6nc(c(-c7c(F)cc(S(=O)(=O)[O-])cc7F)c7ccc4[nH]7)C=C6)C=C5)cc3)cc2-c2ccc(Cl)s2)cc1
REMARK SMILES IDX 16 1 15 2 14 3 12 4 13 5 11 7 9 8 10 9 89 10 88 11 8 12 5 13
REMARK SMILES IDX 6 14 97 15 7 16 96 17 2 18 3 19 4 20 1 21 90 24 91 25 95 26
REMARK SMILES IDX 92 27 93 28 94 29 17 30 18 31 19 32 20 33 21 35 22 36 23 37
REMARK SMILES IDX 87 38 24 39 86 40 25 41 26 42 27 43 80 44 28 45 85 46 79 47
REMARK SMILES IDX 81 48 29 49 84 50 78 51 77 52 30 54 64 55 43 56 63 57 44 58
REMARK SMILES IDX 47 59 62 60 82 61 45 62 46 63 61 65 83 66 48 67 31 68 32 69
REMARK SMILES IDX 41 70 33 71 34 72 40 73 42 74 35 75 36 76 37 77 38 78 39 79
REMARK SMILES IDX 65 80 66 81 75 82 67 83 68 84 74 85 76 86 69 87 70 88 71 89
REMARK SMILES IDX 72 90 73 91 49 92 50 93 59 94 51 95 52 96 58 97 60 98 53 99
REMARK SMILES IDX 54 100 55 101 56 102 57 103
REMARK H PARENT 14 6 1 22 1 23 19 34 81 53 47 64
REMARK Flexibility Score: inf
ROOT
ATOM      1  C   UNL A   1      40.669  20.752  26.576  1.00  0.00     0.023 C 
ENDROOT
BRANCH   1   2
ATOM      2  C   UNL A   1      39.552  21.502  25.839  1.00  0.00     0.116 C 
BRANCH   2   3
ATOM      3  N   UNL A   1      39.354  22.842  26.353  1.00  0.00    -0.351 N 
ATOM      4  C   UNL A   1      38.270  23.691  26.411  1.00  0.00     0.271 C 
ATOM      5  O   UNL A   1      38.498  24.801  26.901  1.00  0.00    -0.267 OA
ATOM      6  H   UNL A   1      40.170  23.230  26.744  1.00  0.00     0.163 HD
BRANCH   4   7
ATOM      7  C   UNL A   1      36.919  23.310  25.930  1.00  0.00     0.151 A 
ATOM      8  N   UNL A   1      34.919  23.637  25.187  1.00  0.00    -0.231 N 
ATOM      9  N   UNL A   1      36.119  24.237  25.354  1.00  0.00    -0.162 NA
ATOM     10  C   UNL A   1      34.992  22.281  25.434  1.00  0.00     0.085 A 
ATOM     11  C   UNL A   1      36.259  22.059  25.921  1.00  0.00     0.066 A 
BRANCH   8  12
ATOM     12  C   UNL A   1      33.792  24.365  24.728  1.00  0.00     0.065 A 
ATOM     13  C   UNL A   1      31.785  26.103  23.908  1.00  0.00     0.082 A 
ATOM     14  C   UNL A   1      32.692  25.608  22.968  1.00  0.00     0.024 A 
ATOM     15  C   UNL A   1      31.837  25.684  25.243  1.00  0.00     0.024 A 
ATOM     16  C   UNL A   1      33.709  24.749  23.383  1.00  0.00     0.030 A 
ATOM     17  C   UNL A   1      32.824  24.779  25.650  1.00  0.00     0.030 A 
BRANCH  13  18
ATOM     18  S   UNL A   1      30.632  27.365  23.456  1.00  0.00     0.238 S 
ATOM     19  O   UNL A   1      30.611  27.486  22.020  1.00  0.00    -0.207 OA
ATOM     20  O   UNL A   1      30.809  28.500  24.336  1.00  0.00    -0.207 OA
BRANCH  18  21
ATOM     21  N   UNL A   1      29.133  26.709  23.852  1.00  0.00    -0.225 NA
ATOM     22  H   UNL A   1      28.599  27.385  24.399  1.00  0.00     0.137 HD
ATOM     23  H   UNL A   1      29.266  25.859  24.398  1.00  0.00     0.137 HD
ENDBRANCH  18  21
ENDBRANCH  13  18
ENDBRANCH   8  12
BRANCH  10  24
ATOM     24  C   UNL A   1      34.011  21.287  25.120  1.00  0.00     0.054 A 
ATOM     25  C   UNL A   1      33.355  20.460  26.010  1.00  0.00     0.024 A 
ATOM     26  S   UNL A   1      33.618  20.904  23.493  1.00  0.00    -0.122 S 
ATOM     27  C   UNL A   1      32.537  19.496  25.346  1.00  0.00     0.033 A 
ATOM     28  C   UNL A   1      32.613  19.639  23.985  1.00  0.00     0.094 A 
ATOM     29  Cl  UNL A   1      31.825  18.671  22.807  1.00  0.00    -0.072 Cl
ENDBRANCH  10  24
ENDBRANCH   4   7
ENDBRANCH   2   3
ENDBRANCH   1   2
BRANCH   1  30
ATOM     30  C   UNL A   1      41.092  21.362  27.925  1.00  0.00     0.023 C 
BRANCH  30  31
ATOM     31  C   UNL A   1      42.430  22.100  27.926  1.00  0.00     0.116 C 
BRANCH  31  32
ATOM     32  N   UNL A   1      43.067  22.172  26.603  1.00  0.00    -0.352 N 
ATOM     33  C   UNL A   1      43.011  23.205  25.673  1.00  0.00     0.251 C 
ATOM     34  H   UNL A   1      43.602  21.389  26.341  1.00  0.00     0.163 HD
ATOM     35  O   UNL A   1      43.220  22.996  24.485  1.00  0.00    -0.269 OA
BRANCH  33  36
ATOM     36  C   UNL A   1      42.733  24.567  26.161  1.00  0.00     0.039 A 
ATOM     37  C   UNL A   1      41.692  25.372  25.689  1.00  0.00     0.014 A 
ATOM     38  C   UNL A   1      43.553  25.005  27.188  1.00  0.00     0.014 A 
ATOM     39  C   UNL A   1      41.454  26.591  26.327  1.00  0.00     0.010 A 
ATOM     40  C   UNL A   1      43.145  26.039  27.973  1.00  0.00     0.010 A 
ATOM     41  C   UNL A   1      42.189  26.910  27.479  1.00  0.00    -0.014 A 
BRANCH  41  42
ATOM     42  C   UNL A   1      41.973  28.115  28.264  1.00  0.00     0.031 A 
ATOM     43  C   UNL A   1      43.004  29.166  28.068  1.00  0.00     0.074 A 
ATOM     44  C   UNL A   1      40.789  28.363  28.873  1.00  0.00     0.049 A 
ATOM     45  N   UNL A   1      43.920  29.534  28.898  1.00  0.00    -0.248 NA
ATOM     46  C   UNL A   1      43.147  29.756  26.726  1.00  0.00     0.031 C 
ATOM     47  C   UNL A   1      39.550  27.567  28.847  1.00  0.00     0.029 A 
ATOM     48  N   UNL A   1      40.402  29.463  29.567  1.00  0.00    -0.354 N 
ATOM     49  C   UNL A   1      44.582  30.591  28.279  1.00  0.00     0.074 A 
ATOM     50  C   UNL A   1      44.234  30.514  26.885  1.00  0.00     0.031 C 
ATOM     51  C   UNL A   1      38.512  28.319  29.275  1.00  0.00     0.029 A 
ATOM     52  C   UNL A   1      39.030  29.574  29.780  1.00  0.00     0.049 A 
ATOM     53  H   UNL A   1      41.044  30.134  29.895  1.00  0.00     0.167 HD
ATOM     54  C   UNL A   1      45.129  31.604  29.010  1.00  0.00     0.037 A 
ATOM     55  C   UNL A   1      38.382  30.639  30.318  1.00  0.00     0.037 A 
ATOM     56  C   UNL A   1      45.203  31.248  30.409  1.00  0.00     0.049 A 
ATOM     57  C   UNL A   1      39.408  31.425  31.057  1.00  0.00     0.074 A 
ATOM     58  C   UNL A   1      45.791  30.218  31.117  1.00  0.00     0.029 A 
ATOM     59  N   UNL A   1      44.253  31.782  31.250  1.00  0.00    -0.354 N 
ATOM     60  N   UNL A   1      40.037  30.977  32.112  1.00  0.00    -0.248 NA
ATOM     61  C   UNL A   1      40.088  32.485  30.330  1.00  0.00     0.031 C 
ATOM     62  C   UNL A   1      44.831  29.864  32.112  1.00  0.00     0.029 A 
ATOM     63  C   UNL A   1      43.760  30.753  32.013  1.00  0.00     0.049 A 
ATOM     64  H   UNL A   1      43.979  32.726  31.297  1.00  0.00     0.167 HD
ATOM     65  C   UNL A   1      41.354  31.386  31.945  1.00  0.00     0.074 A 
ATOM     66  C   UNL A   1      41.310  32.368  30.860  1.00  0.00     0.031 C 
ATOM     67  C   UNL A   1      42.393  30.682  32.487  1.00  0.00     0.037 A 
BRANCH  54  68
ATOM     68  C   UNL A   1      45.239  33.039  28.547  1.00  0.00     0.058 A 
ATOM     69  C   UNL A   1      46.495  33.677  28.595  1.00  0.00     0.135 A 
ATOM     70  C   UNL A   1      44.133  33.891  28.326  1.00  0.00     0.135 A 
ATOM     71  F   UNL A   1      47.616  32.968  28.801  1.00  0.00    -0.206 F 
ATOM     72  C   UNL A   1      46.633  35.063  28.513  1.00  0.00     0.059 A 
ATOM     73  C   UNL A   1      44.254  35.268  28.184  1.00  0.00     0.059 A 
ATOM     74  F   UNL A   1      42.869  33.450  28.337  1.00  0.00    -0.206 F 
ATOM     75  C   UNL A   1      45.502  35.850  28.323  1.00  0.00     0.060 A 
BRANCH  75  76
ATOM     76  S   UNL A   1      45.661  37.643  28.329  1.00  0.00     0.124 S 
ATOM     77  O   UNL A   1      45.553  37.939  29.752  1.00  0.00    -0.237 OA
ATOM     78  O   UNL A   1      46.981  37.829  27.733  1.00  0.00    -0.237 OA
ATOM     79  O   UNL A   1      44.539  38.082  27.503  1.00  0.00    -0.744 OA
ENDBRANCH  75  76
ENDBRANCH  54  68
BRANCH  55  80
ATOM     80  C   UNL A   1      37.060  31.209  29.930  1.00  0.00     0.058 A 
ATOM     81  C   UNL A   1      36.261  31.893  30.864  1.00  0.00     0.135 A 
ATOM     82  C   UNL A   1      36.692  31.355  28.576  1.00  0.00     0.135 A 
ATOM     83  F   UNL A   1      36.545  31.822  32.173  1.00  0.00    -0.206 F 
ATOM     84  C   UNL A   1      35.201  32.722  30.477  1.00  0.00     0.059 A 
ATOM     85  C   UNL A   1      35.635  32.170  28.168  1.00  0.00     0.059 A 
ATOM     86  F   UNL A   1      37.411  30.781  27.600  1.00  0.00    -0.206 F 
ATOM     87  C   UNL A   1      34.911  32.874  29.122  1.00  0.00     0.060 A 
BRANCH  87  88
ATOM     88  S   UNL A   1      33.670  34.088  28.607  1.00  0.00     0.124 S 
ATOM     89  O   UNL A   1      34.495  35.119  27.987  1.00  0.00    -0.237 OA
ATOM     90  O   UNL A   1      32.835  33.309  27.698  1.00  0.00    -0.237 OA
ATOM     91  O   UNL A   1      33.030  34.472  29.862  1.00  0.00    -0.744 OA
ENDBRANCH  87  88
ENDBRANCH  55  80
BRANCH  67  92
ATOM     92  C   UNL A   1      42.086  29.605  33.499  1.00  0.00     0.058 A 
ATOM     93  C   UNL A   1      41.813  28.260  33.184  1.00  0.00     0.135 A 
ATOM     94  C   UNL A   1      42.243  29.918  34.857  1.00  0.00     0.135 A 
ATOM     95  F   UNL A   1      41.748  27.849  31.911  1.00  0.00    -0.206 F 
ATOM     96  C   UNL A   1      41.667  27.284  34.174  1.00  0.00     0.059 A 
ATOM     97  C   UNL A   1      42.132  28.957  35.859  1.00  0.00     0.059 A 
ATOM     98  F   UNL A   1      42.566  31.169  35.222  1.00  0.00    -0.206 F 
ATOM     99  C   UNL A   1      41.830  27.643  35.510  1.00  0.00     0.060 A 
BRANCH  99 100
ATOM    100  S   UNL A   1      41.709  26.371  36.787  1.00  0.00     0.124 S 
ATOM    101  O   UNL A   1      41.808  25.143  36.008  1.00  0.00    -0.237 OA
ATOM    102  O   UNL A   1      42.852  26.672  37.645  1.00  0.00    -0.237 OA
ATOM    103  O   UNL A   1      40.404  26.621  37.395  1.00  0.00    -0.744 OA
ENDBRANCH  99 100
ENDBRANCH  67  92
ENDBRANCH  41  42
ENDBRANCH  33  36
ENDBRANCH  31  32
ENDBRANCH  30  31
ENDBRANCH   1  30
TORSDOF 18
ENDMDL
