MODEL 1
REMARK VINA RESULT:     -12.4      0.000      0.000
REMARK SMILES O=C(NCCCCNC(=O)c1cc(NC(=S)NC(=O)c2ccccc2Cl)c(Cl)cc1Cl)c1ccc(-c2c3nc(c(-c4c(F)cc(S(=O)(=O)[O-])cc4F)c4ccc([nH]4)c(-c4c(F)cc(S(=O)(=O)[O-])cc4F)c4nc(c(-c5c(F)cc(S(=O)(=O)[O-])cc5F)c5ccc2[nH]5)C=C4)C=C3)cc1
REMARK SMILES IDX 6 1 5 2 4 3 3 4 1 5 2 6 32 8 33 9 97 10 34 11 96 12 35 13
REMARK SMILES IDX 36 14 37 15 90 16 38 17 95 18 89 19 91 20 39 21 94 22 88 23
REMARK SMILES IDX 87 24 40 26 74 27 53 28 73 29 54 30 57 31 72 32 92 33 55 34
REMARK SMILES IDX 56 35 71 37 93 38 58 39 41 40 42 41 51 42 43 43 44 44 50 45
REMARK SMILES IDX 52 46 45 47 46 48 47 49 48 50 49 51 75 52 76 53 85 54 77 55
REMARK SMILES IDX 78 56 84 57 86 58 79 59 80 60 81 61 82 62 83 63 59 64 60 65
REMARK SMILES IDX 69 66 61 67 62 68 68 69 70 70 63 71 64 72 65 73 66 74 67 75
REMARK SMILES IDX 7 76 8 77 9 78 10 80 11 81 12 82 30 83 13 84 29 85 31 86
REMARK SMILES IDX 27 87 28 88 14 89 15 91 16 92 17 93 18 94 19 96 20 97 21 98
REMARK SMILES IDX 25 99 22 100 24 101 26 102 23 103
REMARK H PARENT 3 7 91 25 57 36 8 79 14 90 17 95
REMARK Flexibility Score: inf
ROOT
ATOM      1  C   UNL A   1      37.143  20.560  25.034  1.00  0.00     0.023 C 
ENDROOT
BRANCH   1   2
ATOM      2  C   UNL A   1      38.306  19.580  25.047  1.00  0.00     0.023 C 
BRANCH   2   3
ATOM      3  C   UNL A   1      39.472  20.025  25.912  1.00  0.00     0.116 C 
BRANCH   3   4
ATOM      4  N   UNL A   1      40.550  19.052  26.014  1.00  0.00    -0.352 N 
ATOM      5  O   UNL A   1      42.724  18.451  26.329  1.00  0.00    -0.269 OA
ATOM      6  C   UNL A   1      41.865  19.323  26.335  1.00  0.00     0.251 C 
ATOM      7  H   UNL A   1      40.320  18.111  25.837  1.00  0.00     0.163 HD
BRANCH   6   8
ATOM      8  C   UNL A   1      42.200  20.727  26.650  1.00  0.00     0.039 A 
ATOM      9  C   UNL A   1      42.592  21.574  25.609  1.00  0.00     0.014 A 
ATOM     10  C   UNL A   1      42.296  21.132  27.982  1.00  0.00     0.014 A 
ATOM     11  C   UNL A   1      43.233  22.765  25.911  1.00  0.00     0.010 A 
ATOM     12  C   UNL A   1      42.832  22.388  28.275  1.00  0.00     0.010 A 
ATOM     13  C   UNL A   1      43.321  23.205  27.243  1.00  0.00    -0.014 A 
BRANCH  13  14
ATOM     14  C   UNL A   1      43.776  24.592  27.505  1.00  0.00     0.031 A 
ATOM     15  C   UNL A   1      42.828  25.683  27.911  1.00  0.00     0.074 A 
ATOM     16  C   UNL A   1      45.092  24.842  27.347  1.00  0.00     0.049 A 
ATOM     17  N   UNL A   1      43.082  26.951  28.109  1.00  0.00    -0.248 NA
ATOM     18  C   UNL A   1      41.416  25.319  28.115  1.00  0.00     0.031 C 
ATOM     19  C   UNL A   1      46.091  23.848  26.933  1.00  0.00     0.029 A 
ATOM     20  N   UNL A   1      45.822  25.989  27.507  1.00  0.00    -0.354 N 
ATOM     21  C   UNL A   1      41.866  27.545  28.429  1.00  0.00     0.074 A 
ATOM     22  C   UNL A   1      40.869  26.497  28.401  1.00  0.00     0.031 C 
ATOM     23  C   UNL A   1      47.301  24.418  26.906  1.00  0.00     0.029 A 
ATOM     24  C   UNL A   1      47.153  25.835  27.200  1.00  0.00     0.049 A 
ATOM     25  H   UNL A   1      45.432  26.840  27.813  1.00  0.00     0.167 HD
ATOM     26  C   UNL A   1      41.620  28.847  28.711  1.00  0.00     0.037 A 
ATOM     27  C   UNL A   1      48.142  26.741  27.103  1.00  0.00     0.037 A 
ATOM     28  C   UNL A   1      42.641  29.867  28.756  1.00  0.00     0.049 A 
ATOM     29  C   UNL A   1      47.823  28.177  27.389  1.00  0.00     0.074 A 
ATOM     30  C   UNL A   1      42.507  31.198  29.111  1.00  0.00     0.029 A 
ATOM     31  N   UNL A   1      43.974  29.677  28.421  1.00  0.00    -0.354 N 
ATOM     32  N   UNL A   1      46.682  28.707  27.760  1.00  0.00    -0.248 NA
ATOM     33  C   UNL A   1      48.917  29.142  27.231  1.00  0.00     0.031 C 
ATOM     34  C   UNL A   1      43.742  31.827  28.924  1.00  0.00     0.029 A 
ATOM     35  C   UNL A   1      44.661  30.876  28.511  1.00  0.00     0.049 A 
ATOM     36  H   UNL A   1      44.373  28.815  28.157  1.00  0.00     0.167 HD
ATOM     37  C   UNL A   1      46.922  30.067  27.884  1.00  0.00     0.074 A 
ATOM     38  C   UNL A   1      48.325  30.273  27.585  1.00  0.00     0.031 C 
ATOM     39  C   UNL A   1      46.057  31.059  28.205  1.00  0.00     0.037 A 
BRANCH  26  40
ATOM     40  C   UNL A   1      40.202  29.281  28.973  1.00  0.00     0.058 A 
ATOM     41  C   UNL A   1      39.733  29.548  30.268  1.00  0.00     0.135 A 
ATOM     42  C   UNL A   1      39.343  29.560  27.897  1.00  0.00     0.135 A 
ATOM     43  F   UNL A   1      40.505  29.289  31.335  1.00  0.00    -0.206 F 
ATOM     44  C   UNL A   1      38.465  30.083  30.486  1.00  0.00     0.059 A 
ATOM     45  C   UNL A   1      38.080  30.116  28.090  1.00  0.00     0.059 A 
ATOM     46  F   UNL A   1      39.740  29.322  26.637  1.00  0.00    -0.206 F 
ATOM     47  C   UNL A   1      37.651  30.375  29.389  1.00  0.00     0.060 A 
BRANCH  47  48
ATOM     48  S   UNL A   1      36.035  31.127  29.689  1.00  0.00     0.124 S 
ATOM     49  O   UNL A   1      35.844  30.852  31.110  1.00  0.00    -0.237 OA
ATOM     50  O   UNL A   1      36.274  32.523  29.341  1.00  0.00    -0.237 OA
ATOM     51  O   UNL A   1      35.148  30.401  28.787  1.00  0.00    -0.744 OA
ENDBRANCH  47  48
ENDBRANCH  26  40
BRANCH  27  52
ATOM     52  C   UNL A   1      49.492  26.320  26.648  1.00  0.00     0.058 A 
ATOM     53  C   UNL A   1      49.849  26.362  25.294  1.00  0.00     0.135 A 
ATOM     54  C   UNL A   1      50.454  25.866  27.565  1.00  0.00     0.135 A 
ATOM     55  F   UNL A   1      48.965  26.792  24.380  1.00  0.00    -0.206 F 
ATOM     56  C   UNL A   1      51.098  25.933  24.859  1.00  0.00     0.059 A 
ATOM     57  C   UNL A   1      51.722  25.468  27.161  1.00  0.00     0.059 A 
ATOM     58  F   UNL A   1      50.172  25.830  28.877  1.00  0.00    -0.206 F 
ATOM     59  C   UNL A   1      52.026  25.483  25.801  1.00  0.00     0.060 A 
BRANCH  59  60
ATOM     60  S   UNL A   1      53.642  24.924  25.227  1.00  0.00     0.124 S 
ATOM     61  O   UNL A   1      53.766  25.643  23.964  1.00  0.00    -0.237 OA
ATOM     62  O   UNL A   1      54.521  25.367  26.304  1.00  0.00    -0.237 OA
ATOM     63  O   UNL A   1      53.476  23.477  25.118  1.00  0.00    -0.744 OA
ENDBRANCH  59  60
ENDBRANCH  27  52
BRANCH  39  64
ATOM     64  C   UNL A   1      46.610  32.456  28.254  1.00  0.00     0.058 A 
ATOM     65  C   UNL A   1      47.250  32.947  29.402  1.00  0.00     0.135 A 
ATOM     66  C   UNL A   1      46.539  33.292  27.129  1.00  0.00     0.135 A 
ATOM     67  F   UNL A   1      47.328  32.191  30.509  1.00  0.00    -0.206 F 
ATOM     68  C   UNL A   1      47.789  34.227  29.437  1.00  0.00     0.059 A 
ATOM     69  C   UNL A   1      47.099  34.564  27.132  1.00  0.00     0.059 A 
ATOM     70  F   UNL A   1      45.939  32.866  26.006  1.00  0.00    -0.206 F 
ATOM     71  C   UNL A   1      47.715  35.026  28.295  1.00  0.00     0.060 A 
BRANCH  71  72
ATOM     72  S   UNL A   1      48.467  36.665  28.341  1.00  0.00     0.124 S 
ATOM     73  O   UNL A   1      47.554  37.431  27.499  1.00  0.00    -0.237 OA
ATOM     74  O   UNL A   1      48.435  36.982  29.764  1.00  0.00    -0.237 OA
ATOM     75  O   UNL A   1      49.799  36.445  27.783  1.00  0.00    -0.744 OA
ENDBRANCH  71  72
ENDBRANCH  39  64
ENDBRANCH  13  14
ENDBRANCH   6   8
ENDBRANCH   3   4
ENDBRANCH   2   3
ENDBRANCH   1   2
BRANCH   1  76
ATOM     76  C   UNL A   1      37.500  21.906  24.394  1.00  0.00     0.116 C 
BRANCH  76  77
ATOM     77  N   UNL A   1      36.410  22.459  23.587  1.00  0.00    -0.352 N 
ATOM     78  C   UNL A   1      35.124  22.928  23.574  1.00  0.00     0.252 C 
ATOM     79  H   UNL A   1      36.743  22.520  22.663  1.00  0.00     0.163 HD
ATOM     80  O   UNL A   1      34.891  23.335  22.427  1.00  0.00    -0.269 OA
BRANCH  78  81
ATOM     81  C   UNL A   1      33.963  23.135  24.631  1.00  0.00     0.060 A 
ATOM     82  C   UNL A   1      33.254  24.540  25.899  1.00  0.00     0.043 A 
ATOM     83  C   UNL A   1      32.930  21.607  24.598  1.00  0.00     0.055 A 
ATOM     84  C   UNL A   1      31.778  24.431  26.723  1.00  0.00     0.060 A 
ATOM     85  C   UNL A   1      31.449  21.549  25.611  1.00  0.00     0.044 A 
ATOM     86  Cl  UNL A   1      33.238  20.123  23.770  1.00  0.00    -0.083 Cl
ATOM     87  C   UNL A   1      30.911  22.925  26.615  1.00  0.00     0.066 A 
ATOM     88  Cl  UNL A   1      29.355  22.818  27.353  1.00  0.00    -0.082 Cl
BRANCH  84  89
ATOM     89  N   UNL A   1      31.272  25.727  26.953  1.00  0.00    -0.331 N 
ATOM     90  H   UNL A   1      31.182  25.968  27.904  1.00  0.00     0.169 HD
BRANCH  89  91
ATOM     91  C   UNL A   1      30.879  26.718  26.072  1.00  0.00     0.177 C 
ATOM     92  S   UNL A   1      29.748  26.260  24.913  1.00  0.00    -0.040 S 
BRANCH  91  93
ATOM     93  N   UNL A   1      31.312  28.084  25.991  1.00  0.00    -0.299 N 
ATOM     94  C   UNL A   1      31.956  29.254  25.326  1.00  0.00     0.258 C 
ATOM     95  H   UNL A   1      31.026  28.455  26.857  1.00  0.00     0.172 HD
ATOM     96  O   UNL A   1      32.180  30.281  25.960  1.00  0.00    -0.269 OA
BRANCH  94  97
ATOM     97  C   UNL A   1      32.434  29.180  23.893  1.00  0.00     0.058 A 
ATOM     98  C   UNL A   1      33.834  28.026  23.741  1.00  0.00     0.015 A 
ATOM     99  C   UNL A   1      30.987  29.058  22.951  1.00  0.00     0.053 A 
ATOM    100  C   UNL A   1      33.760  26.527  22.788  1.00  0.00     0.001 A 
ATOM    101  C   UNL A   1      30.755  27.592  22.003  1.00  0.00     0.021 A 
ATOM    102  Cl  UNL A   1      29.649  30.110  23.189  1.00  0.00    -0.083 Cl
ATOM    103  C   UNL A   1      32.207  26.179  21.940  1.00  0.00     0.002 A 
ENDBRANCH  94  97
ENDBRANCH  91  93
ENDBRANCH  89  91
ENDBRANCH  84  89
ENDBRANCH  78  81
ENDBRANCH  76  77
ENDBRANCH   1  76
TORSDOF 18
ENDMDL
MODEL 2
REMARK VINA RESULT:     -12.2      6.162      8.588
REMARK SMILES O=C(NCCCCNC(=O)c1cc(NC(=S)NC(=O)c2ccccc2Cl)c(Cl)cc1Cl)c1ccc(-c2c3nc(c(-c4c(F)cc(S(=O)(=O)[O-])cc4F)c4ccc([nH]4)c(-c4c(F)cc(S(=O)(=O)[O-])cc4F)c4nc(c(-c5c(F)cc(S(=O)(=O)[O-])cc5F)c5ccc2[nH]5)C=C4)C=C3)cc1
REMARK SMILES IDX 6 1 5 2 4 3 3 4 1 5 2 6 32 8 33 9 97 10 34 11 96 12 35 13
REMARK SMILES IDX 36 14 37 15 90 16 38 17 95 18 89 19 91 20 39 21 94 22 88 23
REMARK SMILES IDX 87 24 40 26 74 27 53 28 73 29 54 30 57 31 72 32 92 33 55 34
REMARK SMILES IDX 56 35 71 37 93 38 58 39 41 40 42 41 51 42 43 43 44 44 50 45
REMARK SMILES IDX 52 46 45 47 46 48 47 49 48 50 49 51 75 52 76 53 85 54 77 55
REMARK SMILES IDX 78 56 84 57 86 58 79 59 80 60 81 61 82 62 83 63 59 64 60 65
REMARK SMILES IDX 69 66 61 67 62 68 68 69 70 70 63 71 64 72 65 73 66 74 67 75
REMARK SMILES IDX 7 76 8 77 9 78 10 80 11 81 12 82 30 83 13 84 29 85 31 86
REMARK SMILES IDX 27 87 28 88 14 89 15 91 16 92 17 93 18 94 19 96 20 97 21 98
REMARK SMILES IDX 25 99 22 100 24 101 26 102 23 103
REMARK H PARENT 3 7 91 25 57 36 8 79 14 90 17 95
REMARK Flexibility Score: inf
ROOT
ATOM      1  C   UNL A   1      41.245  21.871  26.654  1.00  0.00     0.023 C 
ENDROOT
BRANCH   1   2
ATOM      2  C   UNL A   1      41.698  22.467  27.977  1.00  0.00     0.023 C 
BRANCH   2   3
ATOM      3  C   UNL A   1      42.222  23.888  27.861  1.00  0.00     0.116 C 
BRANCH   3   4
ATOM      4  N   UNL A   1      42.172  24.438  26.514  1.00  0.00    -0.352 N 
ATOM      5  O   UNL A   1      41.654  26.055  24.996  1.00  0.00    -0.269 OA
ATOM      6  C   UNL A   1      41.728  25.698  26.164  1.00  0.00     0.251 C 
ATOM      7  H   UNL A   1      42.484  23.858  25.783  1.00  0.00     0.163 HD
BRANCH   6   8
ATOM      8  C   UNL A   1      41.307  26.588  27.266  1.00  0.00     0.039 A 
ATOM      9  C   UNL A   1      42.076  27.721  27.546  1.00  0.00     0.014 A 
ATOM     10  C   UNL A   1      40.271  26.194  28.114  1.00  0.00     0.014 A 
ATOM     11  C   UNL A   1      41.913  28.366  28.761  1.00  0.00     0.010 A 
ATOM     12  C   UNL A   1      40.031  26.923  29.281  1.00  0.00     0.010 A 
ATOM     13  C   UNL A   1      40.862  28.003  29.621  1.00  0.00    -0.014 A 
BRANCH  13  14
ATOM     14  C   UNL A   1      40.558  28.875  30.782  1.00  0.00     0.031 A 
ATOM     15  C   UNL A   1      39.455  29.893  30.752  1.00  0.00     0.074 A 
ATOM     16  C   UNL A   1      41.334  28.727  31.875  1.00  0.00     0.049 A 
ATOM     17  N   UNL A   1      39.123  30.762  31.671  1.00  0.00    -0.248 NA
ATOM     18  C   UNL A   1      38.618  29.956  29.542  1.00  0.00     0.031 C 
ATOM     19  C   UNL A   1      42.448  27.776  31.991  1.00  0.00     0.029 A 
ATOM     20  N   UNL A   1      41.319  29.360  33.089  1.00  0.00    -0.354 N 
ATOM     21  C   UNL A   1      38.065  31.497  31.147  1.00  0.00     0.074 A 
ATOM     22  C   UNL A   1      37.806  30.971  29.824  1.00  0.00     0.031 C 
ATOM     23  C   UNL A   1      42.983  27.867  33.214  1.00  0.00     0.029 A 
ATOM     24  C   UNL A   1      42.322  28.944  33.932  1.00  0.00     0.049 A 
ATOM     25  H   UNL A   1      40.655  30.046  33.333  1.00  0.00     0.167 HD
ATOM     26  C   UNL A   1      37.389  32.518  31.726  1.00  0.00     0.037 A 
ATOM     27  C   UNL A   1      42.713  29.415  35.130  1.00  0.00     0.037 A 
ATOM     28  C   UNL A   1      37.655  33.006  33.059  1.00  0.00     0.049 A 
ATOM     29  C   UNL A   1      41.961  30.568  35.723  1.00  0.00     0.074 A 
ATOM     30  C   UNL A   1      36.973  33.980  33.766  1.00  0.00     0.029 A 
ATOM     31  N   UNL A   1      38.690  32.572  33.875  1.00  0.00    -0.354 N 
ATOM     32  N   UNL A   1      40.918  31.202  35.242  1.00  0.00    -0.248 NA
ATOM     33  C   UNL A   1      42.443  31.081  37.010  1.00  0.00     0.031 C 
ATOM     34  C   UNL A   1      37.636  34.185  34.981  1.00  0.00     0.029 A 
ATOM     35  C   UNL A   1      38.695  33.295  35.057  1.00  0.00     0.049 A 
ATOM     36  H   UNL A   1      39.327  31.856  33.647  1.00  0.00     0.167 HD
ATOM     37  C   UNL A   1      40.616  32.186  36.171  1.00  0.00     0.074 A 
ATOM     38  C   UNL A   1      41.563  32.040  37.258  1.00  0.00     0.031 C 
ATOM     39  C   UNL A   1      39.650  33.135  36.124  1.00  0.00     0.037 A 
BRANCH  26  40
ATOM     40  C   UNL A   1      36.308  33.213  30.942  1.00  0.00     0.058 A 
ATOM     41  C   UNL A   1      34.952  33.105  31.286  1.00  0.00     0.135 A 
ATOM     42  C   UNL A   1      36.651  34.107  29.913  1.00  0.00     0.135 A 
ATOM     43  F   UNL A   1      34.564  32.259  32.252  1.00  0.00    -0.206 F 
ATOM     44  C   UNL A   1      33.976  33.864  30.642  1.00  0.00     0.059 A 
ATOM     45  C   UNL A   1      35.695  34.892  29.271  1.00  0.00     0.059 A 
ATOM     46  F   UNL A   1      37.934  34.249  29.542  1.00  0.00    -0.206 F 
ATOM     47  C   UNL A   1      34.359  34.763  29.645  1.00  0.00     0.060 A 
BRANCH  47  48
ATOM     48  S   UNL A   1      33.087  35.782  28.866  1.00  0.00     0.124 S 
ATOM     49  O   UNL A   1      32.345  34.786  28.098  1.00  0.00    -0.237 OA
ATOM     50  O   UNL A   1      32.390  36.341  30.018  1.00  0.00    -0.237 OA
ATOM     51  O   UNL A   1      33.853  36.739  28.074  1.00  0.00    -0.744 OA
ENDBRANCH  47  48
ENDBRANCH  26  40
BRANCH  27  52
ATOM     52  C   UNL A   1      43.909  28.842  35.798  1.00  0.00     0.058 A 
ATOM     53  C   UNL A   1      45.190  29.362  35.568  1.00  0.00     0.135 A 
ATOM     54  C   UNL A   1      43.793  27.757  36.683  1.00  0.00     0.135 A 
ATOM     55  F   UNL A   1      45.352  30.400  34.732  1.00  0.00    -0.206 F 
ATOM     56  C   UNL A   1      46.317  28.804  36.161  1.00  0.00     0.059 A 
ATOM     57  C   UNL A   1      44.898  27.207  37.318  1.00  0.00     0.059 A 
ATOM     58  F   UNL A   1      42.585  27.238  36.959  1.00  0.00    -0.206 F 
ATOM     59  C   UNL A   1      46.160  27.723  37.031  1.00  0.00     0.060 A 
BRANCH  59  60
ATOM     60  S   UNL A   1      47.629  27.003  37.791  1.00  0.00     0.124 S 
ATOM     61  O   UNL A   1      48.522  26.884  36.644  1.00  0.00    -0.237 OA
ATOM     62  O   UNL A   1      47.990  28.013  38.780  1.00  0.00    -0.237 OA
ATOM     63  O   UNL A   1      47.138  25.743  38.343  1.00  0.00    -0.744 OA
ENDBRANCH  59  60
ENDBRANCH  27  52
BRANCH  39  64
ATOM     64  C   UNL A   1      39.569  34.083  37.288  1.00  0.00     0.058 A 
ATOM     65  C   UNL A   1      38.880  33.741  38.461  1.00  0.00     0.135 A 
ATOM     66  C   UNL A   1      40.223  35.323  37.245  1.00  0.00     0.135 A 
ATOM     67  F   UNL A   1      38.224  32.571  38.544  1.00  0.00    -0.206 F 
ATOM     68  C   UNL A   1      38.831  34.603  39.549  1.00  0.00     0.059 A 
ATOM     69  C   UNL A   1      40.214  36.189  38.333  1.00  0.00     0.059 A 
ATOM     70  F   UNL A   1      40.898  35.695  36.145  1.00  0.00    -0.206 F 
ATOM     71  C   UNL A   1      39.507  35.822  39.478  1.00  0.00     0.060 A 
BRANCH  71  72
ATOM     72  S   UNL A   1      39.477  36.907  40.919  1.00  0.00     0.124 S 
ATOM     73  O   UNL A   1      40.900  37.138  41.144  1.00  0.00    -0.237 OA
ATOM     74  O   UNL A   1      38.718  38.053  40.430  1.00  0.00    -0.237 OA
ATOM     75  O   UNL A   1      38.803  36.104  41.937  1.00  0.00    -0.744 OA
ENDBRANCH  71  72
ENDBRANCH  39  64
ENDBRANCH  13  14
ENDBRANCH   6   8
ENDBRANCH   3   4
ENDBRANCH   2   3
ENDBRANCH   1   2
BRANCH   1  76
ATOM     76  C   UNL A   1      39.806  21.344  26.694  1.00  0.00     0.116 C 
BRANCH  76  77
ATOM     77  N   UNL A   1      38.830  22.318  26.203  1.00  0.00    -0.352 N 
ATOM     78  C   UNL A   1      37.522  22.561  25.881  1.00  0.00     0.252 C 
ATOM     79  H   UNL A   1      39.323  23.153  26.032  1.00  0.00     0.163 HD
ATOM     80  O   UNL A   1      37.431  23.760  25.582  1.00  0.00    -0.269 OA
BRANCH  78  81
ATOM     81  C   UNL A   1      36.166  21.742  25.878  1.00  0.00     0.060 A 
ATOM     82  C   UNL A   1      34.252  21.912  26.502  1.00  0.00     0.043 A 
ATOM     83  C   UNL A   1      36.482  20.187  24.937  1.00  0.00     0.055 A 
ATOM     84  C   UNL A   1      33.005  20.849  26.072  1.00  0.00     0.060 A 
ATOM     85  C   UNL A   1      35.111  19.065  24.646  1.00  0.00     0.044 A 
ATOM     86  Cl  UNL A   1      37.986  19.580  24.344  1.00  0.00    -0.083 Cl
ATOM     87  C   UNL A   1      33.446  19.412  25.193  1.00  0.00     0.066 A 
ATOM     88  Cl  UNL A   1      32.189  18.364  24.648  1.00  0.00    -0.082 Cl
BRANCH  84  89
ATOM     89  N   UNL A   1      31.776  21.541  26.074  1.00  0.00    -0.331 N 
ATOM     90  H   UNL A   1      31.126  21.218  26.740  1.00  0.00     0.169 HD
BRANCH  89  91
ATOM     91  C   UNL A   1      31.327  22.594  25.299  1.00  0.00     0.177 C 
ATOM     92  S   UNL A   1      31.790  22.562  23.681  1.00  0.00    -0.040 S 
BRANCH  91  93
ATOM     93  N   UNL A   1      30.532  23.727  25.680  1.00  0.00    -0.299 N 
ATOM     94  C   UNL A   1      30.287  25.179  25.920  1.00  0.00     0.258 C 
ATOM     95  H   UNL A   1      29.667  23.317  25.914  1.00  0.00     0.172 HD
ATOM     96  O   UNL A   1      29.264  25.548  26.491  1.00  0.00    -0.269 OA
BRANCH  94  97
ATOM     97  C   UNL A   1      31.321  26.221  25.561  1.00  0.00     0.058 A 
ATOM     98  C   UNL A   1      32.980  25.689  26.086  1.00  0.00     0.015 A 
ATOM     99  C   UNL A   1      30.934  26.685  23.938  1.00  0.00     0.053 A 
ATOM    100  C   UNL A   1      34.305  25.365  24.944  1.00  0.00     0.001 A 
ATOM    101  C   UNL A   1      32.136  26.364  22.692  1.00  0.00     0.021 A 
ATOM    102  Cl  UNL A   1      29.334  27.092  23.461  1.00  0.00    -0.083 Cl
ATOM    103  C   UNL A   1      33.943  25.597  23.193  1.00  0.00     0.002 A 
ENDBRANCH  94  97
ENDBRANCH  91  93
ENDBRANCH  89  91
ENDBRANCH  84  89
ENDBRANCH  78  81
ENDBRANCH  76  77
ENDBRANCH   1  76
TORSDOF 18
ENDMDL
MODEL 3
REMARK VINA RESULT:     -12.1      6.104     10.863
REMARK SMILES O=C(NCCCCNC(=O)c1cc(NC(=S)NC(=O)c2ccccc2Cl)c(Cl)cc1Cl)c1ccc(-c2c3nc(c(-c4c(F)cc(S(=O)(=O)[O-])cc4F)c4ccc([nH]4)c(-c4c(F)cc(S(=O)(=O)[O-])cc4F)c4nc(c(-c5c(F)cc(S(=O)(=O)[O-])cc5F)c5ccc2[nH]5)C=C4)C=C3)cc1
REMARK SMILES IDX 6 1 5 2 4 3 3 4 1 5 2 6 32 8 33 9 97 10 34 11 96 12 35 13
REMARK SMILES IDX 36 14 37 15 90 16 38 17 95 18 89 19 91 20 39 21 94 22 88 23
REMARK SMILES IDX 87 24 40 26 74 27 53 28 73 29 54 30 57 31 72 32 92 33 55 34
REMARK SMILES IDX 56 35 71 37 93 38 58 39 41 40 42 41 51 42 43 43 44 44 50 45
REMARK SMILES IDX 52 46 45 47 46 48 47 49 48 50 49 51 75 52 76 53 85 54 77 55
REMARK SMILES IDX 78 56 84 57 86 58 79 59 80 60 81 61 82 62 83 63 59 64 60 65
REMARK SMILES IDX 69 66 61 67 62 68 68 69 70 70 63 71 64 72 65 73 66 74 67 75
REMARK SMILES IDX 7 76 8 77 9 78 10 80 11 81 12 82 30 83 13 84 29 85 31 86
REMARK SMILES IDX 27 87 28 88 14 89 15 91 16 92 17 93 18 94 19 96 20 97 21 98
REMARK SMILES IDX 25 99 22 100 24 101 26 102 23 103
REMARK H PARENT 3 7 91 25 57 36 8 79 14 90 17 95
REMARK Flexibility Score: inf
ROOT
ATOM      1  C   UNL A   1      41.506  21.511  26.381  1.00  0.00     0.023 C 
ENDROOT
BRANCH   1   2
ATOM      2  C   UNL A   1      42.430  22.083  27.444  1.00  0.00     0.023 C 
BRANCH   2   3
ATOM      3  C   UNL A   1      42.703  23.568  27.284  1.00  0.00     0.116 C 
BRANCH   3   4
ATOM      4  N   UNL A   1      42.115  24.161  26.090  1.00  0.00    -0.352 N 
ATOM      5  O   UNL A   1      40.990  25.798  24.976  1.00  0.00    -0.269 OA
ATOM      6  C   UNL A   1      41.523  25.406  26.006  1.00  0.00     0.251 C 
ATOM      7  H   UNL A   1      42.142  23.625  25.266  1.00  0.00     0.163 HD
BRANCH   6   8
ATOM      8  C   UNL A   1      41.527  26.232  27.231  1.00  0.00     0.039 A 
ATOM      9  C   UNL A   1      40.523  26.028  28.182  1.00  0.00     0.014 A 
ATOM     10  C   UNL A   1      42.408  27.310  27.334  1.00  0.00     0.014 A 
ATOM     11  C   UNL A   1      40.299  26.996  29.147  1.00  0.00     0.010 A 
ATOM     12  C   UNL A   1      42.252  28.218  28.384  1.00  0.00     0.010 A 
ATOM     13  C   UNL A   1      41.186  28.077  29.287  1.00  0.00    -0.014 A 
BRANCH  13  14
ATOM     14  C   UNL A   1      41.067  28.946  30.483  1.00  0.00     0.031 A 
ATOM     15  C   UNL A   1      41.931  28.759  31.697  1.00  0.00     0.074 A 
ATOM     16  C   UNL A   1      40.129  29.914  30.443  1.00  0.00     0.049 A 
ATOM     17  N   UNL A   1      41.889  29.405  32.834  1.00  0.00    -0.248 NA
ATOM     18  C   UNL A   1      42.968  27.716  31.642  1.00  0.00     0.031 C 
ATOM     19  C   UNL A   1      39.225  30.160  29.312  1.00  0.00     0.029 A 
ATOM     20  N   UNL A   1      39.770  30.865  31.360  1.00  0.00    -0.354 N 
ATOM     21  C   UNL A   1      42.865  28.832  33.642  1.00  0.00     0.074 A 
ATOM     22  C   UNL A   1      43.489  27.783  32.865  1.00  0.00     0.031 C 
ATOM     23  C   UNL A   1      38.444  31.210  29.588  1.00  0.00     0.029 A 
ATOM     24  C   UNL A   1      38.718  31.648  30.947  1.00  0.00     0.049 A 
ATOM     25  H   UNL A   1      40.221  30.978  32.228  1.00  0.00     0.167 HD
ATOM     26  C   UNL A   1      43.193  29.159  34.915  1.00  0.00     0.037 A 
ATOM     27  C   UNL A   1      38.005  32.579  31.607  1.00  0.00     0.037 A 
ATOM     28  C   UNL A   1      42.570  30.228  35.657  1.00  0.00     0.049 A 
ATOM     29  C   UNL A   1      38.377  32.888  33.025  1.00  0.00     0.074 A 
ATOM     30  C   UNL A   1      42.886  30.691  36.923  1.00  0.00     0.029 A 
ATOM     31  N   UNL A   1      41.496  30.987  35.214  1.00  0.00    -0.354 N 
ATOM     32  N   UNL A   1      39.350  32.386  33.747  1.00  0.00    -0.248 NA
ATOM     33  C   UNL A   1      37.550  33.877  33.726  1.00  0.00     0.031 C 
ATOM     34  C   UNL A   1      41.962  31.681  37.271  1.00  0.00     0.029 A 
ATOM     35  C   UNL A   1      41.106  31.878  36.200  1.00  0.00     0.049 A 
ATOM     36  H   UNL A   1      41.073  30.904  34.328  1.00  0.00     0.167 HD
ATOM     37  C   UNL A   1      39.255  33.002  34.986  1.00  0.00     0.074 A 
ATOM     38  C   UNL A   1      38.153  33.940  34.904  1.00  0.00     0.031 C 
ATOM     39  C   UNL A   1      40.004  32.801  36.097  1.00  0.00     0.037 A 
BRANCH  26  40
ATOM     40  C   UNL A   1      44.253  28.357  35.623  1.00  0.00     0.058 A 
ATOM     41  C   UNL A   1      45.615  28.687  35.542  1.00  0.00     0.135 A 
ATOM     42  C   UNL A   1      43.883  27.324  36.501  1.00  0.00     0.135 A 
ATOM     43  F   UNL A   1      46.028  29.657  34.711  1.00  0.00    -0.206 F 
ATOM     44  C   UNL A   1      46.569  28.026  36.312  1.00  0.00     0.059 A 
ATOM     45  C   UNL A   1      44.818  26.665  37.297  1.00  0.00     0.059 A 
ATOM     46  F   UNL A   1      42.594  26.966  36.616  1.00  0.00    -0.206 F 
ATOM     47  C   UNL A   1      46.159  27.025  37.196  1.00  0.00     0.060 A 
BRANCH  47  48
ATOM     48  S   UNL A   1      47.405  26.224  38.230  1.00  0.00     0.124 S 
ATOM     49  O   UNL A   1      47.735  27.291  39.170  1.00  0.00    -0.237 OA
ATOM     50  O   UNL A   1      46.665  25.096  38.788  1.00  0.00    -0.237 OA
ATOM     51  O   UNL A   1      48.460  25.873  37.286  1.00  0.00    -0.744 OA
ENDBRANCH  47  48
ENDBRANCH  26  40
BRANCH  27  52
ATOM     52  C   UNL A   1      36.835  33.218  30.954  1.00  0.00     0.058 A 
ATOM     53  C   UNL A   1      36.998  34.202  29.970  1.00  0.00     0.135 A 
ATOM     54  C   UNL A   1      35.523  32.854  31.303  1.00  0.00     0.135 A 
ATOM     55  F   UNL A   1      38.231  34.582  29.599  1.00  0.00    -0.206 F 
ATOM     56  C   UNL A   1      35.906  34.831  29.383  1.00  0.00     0.059 A 
ATOM     57  C   UNL A   1      34.416  33.440  30.705  1.00  0.00     0.059 A 
ATOM     58  F   UNL A   1      35.311  31.898  32.221  1.00  0.00    -0.206 F 
ATOM     59  C   UNL A   1      34.618  34.445  29.762  1.00  0.00     0.060 A 
BRANCH  59  60
ATOM     60  S   UNL A   1      33.207  35.270  28.999  1.00  0.00     0.124 S 
ATOM     61  O   UNL A   1      32.493  35.767  30.170  1.00  0.00    -0.237 OA
ATOM     62  O   UNL A   1      33.853  36.281  28.169  1.00  0.00    -0.237 OA
ATOM     63  O   UNL A   1      32.546  34.195  28.265  1.00  0.00    -0.744 OA
ENDBRANCH  59  60
ENDBRANCH  27  52
BRANCH  39  64
ATOM     64  C   UNL A   1      39.657  33.618  37.310  1.00  0.00     0.058 A 
ATOM     65  C   UNL A   1      38.764  33.140  38.281  1.00  0.00     0.135 A 
ATOM     66  C   UNL A   1      40.256  34.869  37.524  1.00  0.00     0.135 A 
ATOM     67  F   UNL A   1      38.152  31.956  38.113  1.00  0.00    -0.206 F 
ATOM     68  C   UNL A   1      38.467  33.881  39.418  1.00  0.00     0.059 A 
ATOM     69  C   UNL A   1      39.997  35.613  38.669  1.00  0.00     0.059 A 
ATOM     70  F   UNL A   1      41.119  35.369  36.625  1.00  0.00    -0.206 F 
ATOM     71  C   UNL A   1      39.094  35.113  39.607  1.00  0.00     0.060 A 
BRANCH  71  72
ATOM     72  S   UNL A   1      38.736  36.038  41.114  1.00  0.00     0.124 S 
ATOM     73  O   UNL A   1      38.588  37.395  40.599  1.00  0.00    -0.237 OA
ATOM     74  O   UNL A   1      37.512  35.401  41.587  1.00  0.00    -0.237 OA
ATOM     75  O   UNL A   1      39.917  35.808  41.943  1.00  0.00    -0.744 OA
ENDBRANCH  71  72
ENDBRANCH  39  64
ENDBRANCH  13  14
ENDBRANCH   6   8
ENDBRANCH   3   4
ENDBRANCH   2   3
ENDBRANCH   1   2
BRANCH   1  76
ATOM     76  C   UNL A   1      40.074  21.297  26.883  1.00  0.00     0.116 C 
BRANCH  76  77
ATOM     77  N   UNL A   1      39.140  22.313  26.392  1.00  0.00    -0.352 N 
ATOM     78  C   UNL A   1      37.844  22.613  26.073  1.00  0.00     0.252 C 
ATOM     79  H   UNL A   1      39.670  23.124  26.218  1.00  0.00     0.163 HD
ATOM     80  O   UNL A   1      37.807  23.814  25.771  1.00  0.00    -0.269 OA
BRANCH  78  81
ATOM     81  C   UNL A   1      36.453  21.856  26.076  1.00  0.00     0.060 A 
ATOM     82  C   UNL A   1      34.576  22.066  26.797  1.00  0.00     0.043 A 
ATOM     83  C   UNL A   1      36.655  20.359  25.019  1.00  0.00     0.055 A 
ATOM     84  C   UNL A   1      33.264  21.091  26.354  1.00  0.00     0.060 A 
ATOM     85  C   UNL A   1      35.223  19.320  24.715  1.00  0.00     0.044 A 
ATOM     86  Cl  UNL A   1      38.103  19.729  24.319  1.00  0.00    -0.083 Cl
ATOM     87  C   UNL A   1      33.600  19.701  25.360  1.00  0.00     0.066 A 
ATOM     88  Cl  UNL A   1      32.274  18.749  24.803  1.00  0.00    -0.082 Cl
BRANCH  84  89
ATOM     89  N   UNL A   1      32.070  21.834  26.458  1.00  0.00    -0.331 N 
ATOM     90  H   UNL A   1      31.558  21.671  27.283  1.00  0.00     0.169 HD
BRANCH  89  91
ATOM     91  C   UNL A   1      31.495  22.751  25.598  1.00  0.00     0.177 C 
ATOM     92  S   UNL A   1      31.940  22.618  23.980  1.00  0.00    -0.040 S 
BRANCH  91  93
ATOM     93  N   UNL A   1      30.579  23.818  25.889  1.00  0.00    -0.299 N 
ATOM     94  C   UNL A   1      30.176  25.249  26.012  1.00  0.00     0.258 C 
ATOM     95  H   UNL A   1      29.763  23.337  26.159  1.00  0.00     0.172 HD
ATOM     96  O   UNL A   1      29.117  25.550  26.555  1.00  0.00    -0.269 OA
BRANCH  94  97
ATOM     97  C   UNL A   1      31.092  26.365  25.565  1.00  0.00     0.058 A 
ATOM     98  C   UNL A   1      32.818  25.999  26.011  1.00  0.00     0.015 A 
ATOM     99  C   UNL A   1      30.579  26.738  23.953  1.00  0.00     0.053 A 
ATOM    100  C   UNL A   1      34.104  25.753  24.807  1.00  0.00     0.001 A 
ATOM    101  C   UNL A   1      31.737  26.481  22.652  1.00  0.00     0.021 A 
ATOM    102  Cl  UNL A   1      28.927  26.986  23.555  1.00  0.00    -0.083 Cl
ATOM    103  C   UNL A   1      33.630  25.893  23.073  1.00  0.00     0.002 A 
ENDBRANCH  94  97
ENDBRANCH  91  93
ENDBRANCH  89  91
ENDBRANCH  84  89
ENDBRANCH  78  81
ENDBRANCH  76  77
ENDBRANCH   1  76
TORSDOF 18
ENDMDL
