MODEL 1
REMARK VINA RESULT:     -12.5      0.000      0.000
REMARK SMILES COc1ccc(C[N@@H+]2C[C@@H](C(=O)NCCCCNC(=O)c3ccc(-c4c5nc(c(-c6c(F)cc(S(=O)(=O)[O-])cc6F)c6ccc([nH]6)c(-c6c(F)cc(S(=O)(=O)[O-])cc6F)c6nc(c(-c7c(F)cc(S(=O)(=O)[O-])cc7F)c7ccc4[nH]7)C=C6)C=C5)cc3)[C@H](c3ccccc3OC)C2)c(OC)c1
REMARK SMILES IDX 15 1 14 2 13 3 11 4 12 5 10 7 8 8 9 9 96 10 87 12 7 13 6 14
REMARK SMILES IDX 3 15 4 16 100 17 5 18 97 19 2 20 1 21 98 22 99 23 88 24
REMARK SMILES IDX 89 25 93 26 90 27 92 28 91 29 94 30 95 31 16 32 17 33 18 34
REMARK SMILES IDX 19 35 20 37 21 38 22 39 86 40 23 41 85 42 24 43 25 44 26 45
REMARK SMILES IDX 79 46 27 47 84 48 78 49 80 50 28 51 83 52 77 53 76 54 29 56
REMARK SMILES IDX 63 57 42 58 62 59 43 60 46 61 61 62 81 63 44 64 45 65 60 67
REMARK SMILES IDX 82 68 47 69 30 70 31 71 40 72 32 73 33 74 39 75 41 76 34 77
REMARK SMILES IDX 35 78 36 79 37 80 38 81 64 82 65 83 74 84 66 85 67 86 73 87
REMARK SMILES IDX 75 88 68 89 69 90 70 91 71 92 72 93 48 94 49 95 58 96 50 97
REMARK SMILES IDX 51 98 57 99 59 100 52 101 53 102 54 103 55 104 56 105
REMARK H PARENT 13 6 8 11 18 36 80 55 46 66
REMARK Flexibility Score: inf
ROOT
ATOM      1  C   UNL A   1      37.520  22.038  25.165  1.00  0.00     0.023 C 
ENDROOT
BRANCH   1   2
ATOM      2  C   UNL A   1      36.258  21.219  25.435  1.00  0.00     0.116 C 
BRANCH   2   3
ATOM      3  N   UNL A   1      35.585  21.654  26.643  1.00  0.00    -0.356 N 
ATOM      4  C   UNL A   1      34.462  22.376  26.866  1.00  0.00     0.229 C 
ATOM      5  O   UNL A   1      34.117  22.476  28.048  1.00  0.00    -0.275 OA
ATOM      6  H   UNL A   1      36.035  21.364  27.468  1.00  0.00     0.163 HD
BRANCH   4   7
ATOM      7  C   UNL A   1      33.570  22.918  25.770  1.00  0.00     0.146 C 
ATOM      8  N   UNL A   1      32.136  24.780  25.337  1.00  0.00    -0.330 N 
ATOM      9  C   UNL A   1      33.273  24.372  26.143  1.00  0.00     0.276 C 
ATOM     10  C   UNL A   1      31.317  23.568  25.199  1.00  0.00     0.272 C 
ATOM     11  H   UNL A   1      31.592  25.514  25.791  1.00  0.00     0.348 HD
ATOM     12  C   UNL A   1      32.211  22.297  25.391  1.00  0.00     0.096 C 
BRANCH   8  13
ATOM     13  C   UNL A   1      32.476  25.500  24.092  1.00  0.00     0.303 C 
BRANCH  13  14
ATOM     14  C   UNL A   1      31.820  26.844  23.832  1.00  0.00     0.048 A 
ATOM     15  C   UNL A   1      30.249  29.158  23.530  1.00  0.00     0.122 A 
ATOM     16  C   UNL A   1      30.134  28.116  22.619  1.00  0.00     0.047 A 
ATOM     17  C   UNL A   1      31.214  29.092  24.536  1.00  0.00     0.093 A 
ATOM     18  C   UNL A   1      30.945  26.990  22.740  1.00  0.00     0.017 A 
ATOM     19  C   UNL A   1      32.019  27.949  24.676  1.00  0.00     0.131 A 
BRANCH  15  20
ATOM     20  O   UNL A   1      29.312  30.145  23.407  1.00  0.00    -0.497 OA
ATOM     21  C   UNL A   1      29.061  30.580  22.080  1.00  0.00     0.278 C 
ENDBRANCH  15  20
BRANCH  19  22
ATOM     22  O   UNL A   1      32.976  27.808  25.650  1.00  0.00    -0.496 OA
ATOM     23  C   UNL A   1      32.545  28.019  26.988  1.00  0.00     0.278 C 
ENDBRANCH  19  22
ENDBRANCH  13  14
ENDBRANCH   8  13
BRANCH  12  24
ATOM     24  C   UNL A   1      32.203  21.264  24.244  1.00  0.00     0.004 A 
ATOM     25  C   UNL A   1      32.011  21.662  22.902  1.00  0.00     0.008 A 
ATOM     26  C   UNL A   1      32.329  19.873  24.452  1.00  0.00     0.122 A 
ATOM     27  C   UNL A   1      32.001  20.762  21.830  1.00  0.00     0.001 A 
ATOM     28  C   UNL A   1      32.295  18.964  23.377  1.00  0.00     0.047 A 
ATOM     29  C   UNL A   1      32.137  19.406  22.065  1.00  0.00     0.004 A 
BRANCH  26  30
ATOM     30  O   UNL A   1      32.677  19.330  25.658  1.00  0.00    -0.496 OA
ATOM     31  C   UNL A   1      32.652  17.908  25.698  1.00  0.00     0.278 C 
ENDBRANCH  26  30
ENDBRANCH  12  24
ENDBRANCH   4   7
ENDBRANCH   2   3
ENDBRANCH   1   2
BRANCH   1  32
ATOM     32  C   UNL A   1      37.361  23.551  25.338  1.00  0.00     0.023 C 
BRANCH  32  33
ATOM     33  C   UNL A   1      38.255  24.178  26.400  1.00  0.00     0.116 C 
BRANCH  33  34
ATOM     34  N   UNL A   1      39.667  23.919  26.166  1.00  0.00    -0.352 N 
ATOM     35  C   UNL A   1      40.757  24.630  26.604  1.00  0.00     0.251 C 
ATOM     36  H   UNL A   1      39.868  23.125  25.619  1.00  0.00     0.163 HD
ATOM     37  O   UNL A   1      41.880  24.355  26.188  1.00  0.00    -0.269 OA
BRANCH  35  38
ATOM     38  C   UNL A   1      40.561  25.747  27.548  1.00  0.00     0.039 A 
ATOM     39  C   UNL A   1      39.609  25.620  28.561  1.00  0.00     0.014 A 
ATOM     40  C   UNL A   1      41.350  26.897  27.457  1.00  0.00     0.014 A 
ATOM     41  C   UNL A   1      39.498  26.619  29.531  1.00  0.00     0.010 A 
ATOM     42  C   UNL A   1      41.291  27.853  28.465  1.00  0.00     0.010 A 
ATOM     43  C   UNL A   1      40.367  27.722  29.514  1.00  0.00    -0.014 A 
BRANCH  43  44
ATOM     44  C   UNL A   1      40.338  28.752  30.584  1.00  0.00     0.031 A 
ATOM     45  C   UNL A   1      41.230  28.605  31.786  1.00  0.00     0.074 A 
ATOM     46  C   UNL A   1      39.447  29.761  30.517  1.00  0.00     0.049 A 
ATOM     47  N   UNL A   1      41.264  29.318  32.882  1.00  0.00    -0.248 NA
ATOM     48  C   UNL A   1      42.192  27.490  31.765  1.00  0.00     0.031 C 
ATOM     49  C   UNL A   1      38.495  29.982  29.425  1.00  0.00     0.029 A 
ATOM     50  N   UNL A   1      39.178  30.778  31.399  1.00  0.00    -0.354 N 
ATOM     51  C   UNL A   1      42.225  28.723  33.689  1.00  0.00     0.074 A 
ATOM     52  C   UNL A   1      42.722  27.567  32.977  1.00  0.00     0.031 C 
ATOM     53  C   UNL A   1      37.756  31.069  29.697  1.00  0.00     0.029 A 
ATOM     54  C   UNL A   1      38.149  31.600  30.999  1.00  0.00     0.049 A 
ATOM     55  H   UNL A   1      39.676  30.909  32.238  1.00  0.00     0.167 HD
ATOM     56  C   UNL A   1      42.667  29.118  34.907  1.00  0.00     0.037 A 
ATOM     57  C   UNL A   1      37.574  32.649  31.620  1.00  0.00     0.037 A 
ATOM     58  C   UNL A   1      42.192  30.291  35.592  1.00  0.00     0.049 A 
ATOM     59  C   UNL A   1      38.088  33.074  32.968  1.00  0.00     0.074 A 
ATOM     60  C   UNL A   1      42.627  30.818  36.796  1.00  0.00     0.029 A 
ATOM     61  N   UNL A   1      41.176  31.119  35.136  1.00  0.00    -0.354 N 
ATOM     62  N   UNL A   1      39.045  32.539  33.689  1.00  0.00    -0.248 NA
ATOM     63  C   UNL A   1      37.450  34.243  33.588  1.00  0.00     0.031 C 
ATOM     64  C   UNL A   1      41.846  31.940  37.089  1.00  0.00     0.029 A 
ATOM     65  C   UNL A   1      40.958  32.141  36.044  1.00  0.00     0.049 A 
ATOM     66  H   UNL A   1      40.685  30.998  34.293  1.00  0.00     0.167 HD
ATOM     67  C   UNL A   1      39.142  33.324  34.834  1.00  0.00     0.074 A 
ATOM     68  C   UNL A   1      38.153  34.375  34.705  1.00  0.00     0.031 C 
ATOM     69  C   UNL A   1      39.978  33.188  35.893  1.00  0.00     0.037 A 
BRANCH  56  70
ATOM     70  C   UNL A   1      43.720  28.279  35.575  1.00  0.00     0.058 A 
ATOM     71  C   UNL A   1      43.385  27.253  36.474  1.00  0.00     0.135 A 
ATOM     72  C   UNL A   1      45.080  28.476  35.286  1.00  0.00     0.135 A 
ATOM     73  F   UNL A   1      42.102  27.032  36.799  1.00  0.00    -0.206 F 
ATOM     74  C   UNL A   1      44.361  26.471  37.082  1.00  0.00     0.059 A 
ATOM     75  C   UNL A   1      46.072  27.687  35.861  1.00  0.00     0.059 A 
ATOM     76  F   UNL A   1      45.457  29.444  34.435  1.00  0.00    -0.206 F 
ATOM     77  C   UNL A   1      45.703  26.695  36.769  1.00  0.00     0.060 A 
BRANCH  77  78
ATOM     78  S   UNL A   1      46.955  25.664  37.560  1.00  0.00     0.124 S 
ATOM     79  O   UNL A   1      47.314  24.758  36.474  1.00  0.00    -0.237 OA
ATOM     80  O   UNL A   1      47.975  26.642  37.931  1.00  0.00    -0.237 OA
ATOM     81  O   UNL A   1      46.240  25.055  38.676  1.00  0.00    -0.744 OA
ENDBRANCH  77  78
ENDBRANCH  56  70
BRANCH  57  82
ATOM     82  C   UNL A   1      36.453  33.375  30.967  1.00  0.00     0.058 A 
ATOM     83  C   UNL A   1      35.141  33.261  31.449  1.00  0.00     0.135 A 
ATOM     84  C   UNL A   1      36.671  34.209  29.858  1.00  0.00     0.135 A 
ATOM     85  F   UNL A   1      34.880  32.472  32.503  1.00  0.00    -0.206 F 
ATOM     86  C   UNL A   1      34.081  33.931  30.846  1.00  0.00     0.059 A 
ATOM     87  C   UNL A   1      35.631  34.909  29.253  1.00  0.00     0.059 A 
ATOM     88  F   UNL A   1      37.910  34.366  29.369  1.00  0.00    -0.206 F 
ATOM     89  C   UNL A   1      34.337  34.756  29.749  1.00  0.00     0.060 A 
BRANCH  89  90
ATOM     90  S   UNL A   1      32.962  35.659  29.004  1.00  0.00     0.124 S 
ATOM     91  O   UNL A   1      32.360  34.634  28.160  1.00  0.00    -0.237 OA
ATOM     92  O   UNL A   1      32.186  36.059  30.175  1.00  0.00    -0.237 OA
ATOM     93  O   UNL A   1      33.623  36.753  28.298  1.00  0.00    -0.744 OA
ENDBRANCH  89  90
ENDBRANCH  57  82
BRANCH  69  94
ATOM     94  C   UNL A   1      39.891  34.217  36.985  1.00  0.00     0.058 A 
ATOM     95  C   UNL A   1      40.463  35.491  36.846  1.00  0.00     0.135 A 
ATOM     96  C   UNL A   1      39.156  33.951  38.152  1.00  0.00     0.135 A 
ATOM     97  F   UNL A   1      41.181  35.792  35.753  1.00  0.00    -0.206 F 
ATOM     98  C   UNL A   1      40.317  36.462  37.830  1.00  0.00     0.059 A 
ATOM     99  C   UNL A   1      38.976  34.915  39.138  1.00  0.00     0.059 A 
ATOM    100  F   UNL A   1      38.581  32.750  38.329  1.00  0.00    -0.206 F 
ATOM    101  C   UNL A   1      39.567  36.167  38.970  1.00  0.00     0.060 A 
BRANCH 101 102
ATOM    102  S   UNL A   1      39.338  37.455  40.214  1.00  0.00     0.124 S 
ATOM    103  O   UNL A   1      38.469  38.393  39.509  1.00  0.00    -0.237 OA
ATOM    104  O   UNL A   1      38.719  36.721  41.314  1.00  0.00    -0.237 OA
ATOM    105  O   UNL A   1      40.695  37.927  40.469  1.00  0.00    -0.744 OA
ENDBRANCH 101 102
ENDBRANCH  69  94
ENDBRANCH  43  44
ENDBRANCH  35  38
ENDBRANCH  33  34
ENDBRANCH  32  33
ENDBRANCH   1  32
TORSDOF 20
ENDMDL
MODEL 2
REMARK VINA RESULT:     -12.0      0.759      2.096
REMARK SMILES COc1ccc(C[N@@H+]2C[C@@H](C(=O)NCCCCNC(=O)c3ccc(-c4c5nc(c(-c6c(F)cc(S(=O)(=O)[O-])cc6F)c6ccc([nH]6)c(-c6c(F)cc(S(=O)(=O)[O-])cc6F)c6nc(c(-c7c(F)cc(S(=O)(=O)[O-])cc7F)c7ccc4[nH]7)C=C6)C=C5)cc3)[C@H](c3ccccc3OC)C2)c(OC)c1
REMARK SMILES IDX 15 1 14 2 13 3 11 4 12 5 10 7 8 8 9 9 96 10 87 12 7 13 6 14
REMARK SMILES IDX 3 15 4 16 100 17 5 18 97 19 2 20 1 21 98 22 99 23 88 24
REMARK SMILES IDX 89 25 93 26 90 27 92 28 91 29 94 30 95 31 16 32 17 33 18 34
REMARK SMILES IDX 19 35 20 37 21 38 22 39 86 40 23 41 85 42 24 43 25 44 26 45
REMARK SMILES IDX 79 46 27 47 84 48 78 49 80 50 28 51 83 52 77 53 76 54 29 56
REMARK SMILES IDX 63 57 42 58 62 59 43 60 46 61 61 62 81 63 44 64 45 65 60 67
REMARK SMILES IDX 82 68 47 69 30 70 31 71 40 72 32 73 33 74 39 75 41 76 34 77
REMARK SMILES IDX 35 78 36 79 37 80 38 81 64 82 65 83 74 84 66 85 67 86 73 87
REMARK SMILES IDX 75 88 68 89 69 90 70 91 71 92 72 93 48 94 49 95 58 96 50 97
REMARK SMILES IDX 51 98 57 99 59 100 52 101 53 102 54 103 55 104 56 105
REMARK H PARENT 13 6 8 11 18 36 80 55 46 66
REMARK Flexibility Score: inf
ROOT
ATOM      1  C   UNL A   1      37.328  22.168  25.135  1.00  0.00     0.023 C 
ENDROOT
BRANCH   1   2
ATOM      2  C   UNL A   1      35.981  21.483  25.362  1.00  0.00     0.116 C 
BRANCH   2   3
ATOM      3  N   UNL A   1      35.457  21.754  26.686  1.00  0.00    -0.356 N 
ATOM      4  C   UNL A   1      34.327  22.352  27.128  1.00  0.00     0.229 C 
ATOM      5  O   UNL A   1      34.149  22.322  28.351  1.00  0.00    -0.275 OA
ATOM      6  H   UNL A   1      36.043  21.439  27.411  1.00  0.00     0.163 HD
BRANCH   4   7
ATOM      7  C   UNL A   1      33.247  22.900  26.221  1.00  0.00     0.146 C 
ATOM      8  N   UNL A   1      31.462  24.489  26.261  1.00  0.00    -0.330 N 
ATOM      9  C   UNL A   1      32.729  24.171  26.897  1.00  0.00     0.276 C 
ATOM     10  C   UNL A   1      30.867  23.186  25.933  1.00  0.00     0.272 C 
ATOM     11  H   UNL A   1      30.842  25.004  26.886  1.00  0.00     0.348 HD
ATOM     12  C   UNL A   1      31.992  22.104  25.809  1.00  0.00     0.096 C 
BRANCH   8  13
ATOM     13  C   UNL A   1      31.540  25.480  25.168  1.00  0.00     0.303 C 
BRANCH  13  14
ATOM     14  C   UNL A   1      31.466  26.954  25.521  1.00  0.00     0.048 A 
ATOM     15  C   UNL A   1      31.765  29.675  26.169  1.00  0.00     0.122 A 
ATOM     16  C   UNL A   1      31.890  28.708  27.157  1.00  0.00     0.047 A 
ATOM     17  C   UNL A   1      31.395  29.299  24.877  1.00  0.00     0.093 A 
ATOM     18  C   UNL A   1      31.695  27.364  26.847  1.00  0.00     0.017 A 
ATOM     19  C   UNL A   1      31.220  27.943  24.554  1.00  0.00     0.131 A 
BRANCH  15  20
ATOM     20  O   UNL A   1      32.117  30.941  26.545  1.00  0.00    -0.497 OA
ATOM     21  C   UNL A   1      33.241  31.026  27.408  1.00  0.00     0.278 C 
ENDBRANCH  15  20
BRANCH  19  22
ATOM     22  O   UNL A   1      30.872  27.499  23.302  1.00  0.00    -0.496 OA
ATOM     23  C   UNL A   1      29.780  28.166  22.681  1.00  0.00     0.278 C 
ENDBRANCH  19  22
ENDBRANCH  13  14
ENDBRANCH   8  13
BRANCH  12  24
ATOM     24  C   UNL A   1      32.058  21.321  24.481  1.00  0.00     0.004 A 
ATOM     25  C   UNL A   1      31.916  21.976  23.237  1.00  0.00     0.008 A 
ATOM     26  C   UNL A   1      32.206  19.918  24.414  1.00  0.00     0.122 A 
ATOM     27  C   UNL A   1      31.975  21.308  22.008  1.00  0.00     0.001 A 
ATOM     28  C   UNL A   1      32.240  19.241  23.179  1.00  0.00     0.047 A 
ATOM     29  C   UNL A   1      32.130  19.934  21.976  1.00  0.00     0.004 A 
BRANCH  26  30
ATOM     30  O   UNL A   1      32.512  19.150  25.504  1.00  0.00    -0.496 OA
ATOM     31  C   UNL A   1      32.709  17.769  25.220  1.00  0.00     0.278 C 
ENDBRANCH  26  30
ENDBRANCH  12  24
ENDBRANCH   4   7
ENDBRANCH   2   3
ENDBRANCH   1   2
BRANCH   1  32
ATOM     32  C   UNL A   1      37.333  23.682  25.367  1.00  0.00     0.023 C 
BRANCH  32  33
ATOM     33  C   UNL A   1      38.214  24.157  26.516  1.00  0.00     0.116 C 
BRANCH  33  34
ATOM     34  N   UNL A   1      39.619  23.849  26.307  1.00  0.00    -0.352 N 
ATOM     35  C   UNL A   1      40.726  24.536  26.743  1.00  0.00     0.251 C 
ATOM     36  H   UNL A   1      39.803  23.037  25.781  1.00  0.00     0.163 HD
ATOM     37  O   UNL A   1      41.845  24.217  26.348  1.00  0.00    -0.269 OA
BRANCH  35  38
ATOM     38  C   UNL A   1      40.553  25.681  27.658  1.00  0.00     0.039 A 
ATOM     39  C   UNL A   1      39.569  25.617  28.646  1.00  0.00     0.014 A 
ATOM     40  C   UNL A   1      41.393  26.795  27.565  1.00  0.00     0.014 A 
ATOM     41  C   UNL A   1      39.476  26.640  29.593  1.00  0.00     0.010 A 
ATOM     42  C   UNL A   1      41.347  27.774  28.552  1.00  0.00     0.010 A 
ATOM     43  C   UNL A   1      40.391  27.705  29.577  1.00  0.00    -0.014 A 
BRANCH  43  44
ATOM     44  C   UNL A   1      40.378  28.758  30.624  1.00  0.00     0.031 A 
ATOM     45  C   UNL A   1      41.288  28.638  31.816  1.00  0.00     0.074 A 
ATOM     46  C   UNL A   1      39.485  29.765  30.549  1.00  0.00     0.049 A 
ATOM     47  N   UNL A   1      41.338  29.374  32.895  1.00  0.00    -0.248 NA
ATOM     48  C   UNL A   1      42.250  27.523  31.805  1.00  0.00     0.031 C 
ATOM     49  C   UNL A   1      38.517  29.962  29.467  1.00  0.00     0.029 A 
ATOM     50  N   UNL A   1      39.229  30.801  31.412  1.00  0.00    -0.354 N 
ATOM     51  C   UNL A   1      42.312  28.797  33.701  1.00  0.00     0.074 A 
ATOM     52  C   UNL A   1      42.799  27.626  33.007  1.00  0.00     0.031 C 
ATOM     53  C   UNL A   1      37.781  31.055  29.726  1.00  0.00     0.029 A 
ATOM     54  C   UNL A   1      38.194  31.614  31.010  1.00  0.00     0.049 A 
ATOM     55  H   UNL A   1      39.739  30.951  32.241  1.00  0.00     0.167 HD
ATOM     56  C   UNL A   1      42.772  29.220  34.902  1.00  0.00     0.037 A 
ATOM     57  C   UNL A   1      37.627  32.676  31.617  1.00  0.00     0.037 A 
ATOM     58  C   UNL A   1      42.307  30.407  35.569  1.00  0.00     0.049 A 
ATOM     59  C   UNL A   1      38.162  33.130  32.947  1.00  0.00     0.074 A 
ATOM     60  C   UNL A   1      42.760  30.960  36.755  1.00  0.00     0.029 A 
ATOM     61  N   UNL A   1      41.284  31.224  35.111  1.00  0.00    -0.354 N 
ATOM     62  N   UNL A   1      39.130  32.612  33.665  1.00  0.00    -0.248 NA
ATOM     63  C   UNL A   1      37.533  34.313  33.551  1.00  0.00     0.031 C 
ATOM     64  C   UNL A   1      41.982  32.088  37.035  1.00  0.00     0.029 A 
ATOM     65  C   UNL A   1      41.078  32.266  35.999  1.00  0.00     0.049 A 
ATOM     66  H   UNL A   1      40.780  31.085  34.277  1.00  0.00     0.167 HD
ATOM     67  C   UNL A   1      39.244  33.422  34.791  1.00  0.00     0.074 A 
ATOM     68  C   UNL A   1      38.253  34.469  34.654  1.00  0.00     0.031 C 
ATOM     69  C   UNL A   1      40.096  33.309  35.840  1.00  0.00     0.037 A 
BRANCH  56  70
ATOM     70  C   UNL A   1      43.835  28.395  35.573  1.00  0.00     0.058 A 
ATOM     71  C   UNL A   1      45.201  28.605  35.321  1.00  0.00     0.135 A 
ATOM     72  C   UNL A   1      43.488  27.407  36.509  1.00  0.00     0.135 A 
ATOM     73  F   UNL A   1      45.588  29.526  34.425  1.00  0.00    -0.206 F 
ATOM     74  C   UNL A   1      46.182  27.848  35.952  1.00  0.00     0.059 A 
ATOM     75  C   UNL A   1      44.453  26.657  37.174  1.00  0.00     0.059 A 
ATOM     76  F   UNL A   1      42.197  27.163  36.787  1.00  0.00    -0.206 F 
ATOM     77  C   UNL A   1      45.799  26.876  36.878  1.00  0.00     0.060 A 
BRANCH  77  78
ATOM     78  S   UNL A   1      47.085  25.909  37.694  1.00  0.00     0.124 S 
ATOM     79  O   UNL A   1      46.815  26.194  39.100  1.00  0.00    -0.237 OA
ATOM     80  O   UNL A   1      46.782  24.551  37.253  1.00  0.00    -0.237 OA
ATOM     81  O   UNL A   1      48.323  26.475  37.166  1.00  0.00    -0.744 OA
ENDBRANCH  77  78
ENDBRANCH  56  70
BRANCH  57  82
ATOM     82  C   UNL A   1      36.496  33.388  30.965  1.00  0.00     0.058 A 
ATOM     83  C   UNL A   1      36.701  34.171  29.819  1.00  0.00     0.135 A 
ATOM     84  C   UNL A   1      35.187  33.290  31.463  1.00  0.00     0.135 A 
ATOM     85  F   UNL A   1      37.935  34.300  29.308  1.00  0.00    -0.206 F 
ATOM     86  C   UNL A   1      35.655  34.847  29.200  1.00  0.00     0.059 A 
ATOM     87  C   UNL A   1      34.120  33.936  30.847  1.00  0.00     0.059 A 
ATOM     88  F   UNL A   1      34.935  32.539  32.546  1.00  0.00    -0.206 F 
ATOM     89  C   UNL A   1      34.365  34.721  29.721  1.00  0.00     0.060 A 
BRANCH  89  90
ATOM     90  S   UNL A   1      33.006  35.563  28.882  1.00  0.00     0.124 S 
ATOM     91  O   UNL A   1      33.706  36.645  28.200  1.00  0.00    -0.237 OA
ATOM     92  O   UNL A   1      32.472  34.507  28.026  1.00  0.00    -0.237 OA
ATOM     93  O   UNL A   1      32.133  35.968  29.980  1.00  0.00    -0.744 OA
ENDBRANCH  89  90
ENDBRANCH  57  82
BRANCH  69  94
ATOM     94  C   UNL A   1      40.025  34.362  36.910  1.00  0.00     0.058 A 
ATOM     95  C   UNL A   1      39.205  34.215  38.038  1.00  0.00     0.135 A 
ATOM     96  C   UNL A   1      40.851  35.497  36.842  1.00  0.00     0.135 A 
ATOM     97  F   UNL A   1      38.392  33.152  38.147  1.00  0.00    -0.206 F 
ATOM     98  C   UNL A   1      39.198  35.159  39.059  1.00  0.00     0.059 A 
ATOM     99  C   UNL A   1      40.880  36.441  37.862  1.00  0.00     0.059 A 
ATOM    100  F   UNL A   1      41.662  35.680  35.786  1.00  0.00    -0.206 F 
ATOM    101  C   UNL A   1      40.044  36.267  38.964  1.00  0.00     0.060 A 
BRANCH 101 102
ATOM    102  S   UNL A   1      40.068  37.456  40.322  1.00  0.00     0.124 S 
ATOM    103  O   UNL A   1      40.554  36.633  41.425  1.00  0.00    -0.237 OA
ATOM    104  O   UNL A   1      40.996  38.471  39.831  1.00  0.00    -0.237 OA
ATOM    105  O   UNL A   1      38.677  37.885  40.423  1.00  0.00    -0.744 OA
ENDBRANCH 101 102
ENDBRANCH  69  94
ENDBRANCH  43  44
ENDBRANCH  35  38
ENDBRANCH  33  34
ENDBRANCH  32  33
ENDBRANCH   1  32
TORSDOF 20
ENDMDL
MODEL 3
REMARK VINA RESULT:     -11.7      1.325      8.078
REMARK SMILES COc1ccc(C[N@@H+]2C[C@@H](C(=O)NCCCCNC(=O)c3ccc(-c4c5nc(c(-c6c(F)cc(S(=O)(=O)[O-])cc6F)c6ccc([nH]6)c(-c6c(F)cc(S(=O)(=O)[O-])cc6F)c6nc(c(-c7c(F)cc(S(=O)(=O)[O-])cc7F)c7ccc4[nH]7)C=C6)C=C5)cc3)[C@H](c3ccccc3OC)C2)c(OC)c1
REMARK SMILES IDX 15 1 14 2 13 3 11 4 12 5 10 7 8 8 9 9 96 10 87 12 7 13 6 14
REMARK SMILES IDX 3 15 4 16 100 17 5 18 97 19 2 20 1 21 98 22 99 23 88 24
REMARK SMILES IDX 89 25 93 26 90 27 92 28 91 29 94 30 95 31 16 32 17 33 18 34
REMARK SMILES IDX 19 35 20 37 21 38 22 39 86 40 23 41 85 42 24 43 25 44 26 45
REMARK SMILES IDX 79 46 27 47 84 48 78 49 80 50 28 51 83 52 77 53 76 54 29 56
REMARK SMILES IDX 63 57 42 58 62 59 43 60 46 61 61 62 81 63 44 64 45 65 60 67
REMARK SMILES IDX 82 68 47 69 30 70 31 71 40 72 32 73 33 74 39 75 41 76 34 77
REMARK SMILES IDX 35 78 36 79 37 80 38 81 64 82 65 83 74 84 66 85 67 86 73 87
REMARK SMILES IDX 75 88 68 89 69 90 70 91 71 92 72 93 48 94 49 95 58 96 50 97
REMARK SMILES IDX 51 98 57 99 59 100 52 101 53 102 54 103 55 104 56 105
REMARK H PARENT 13 6 8 11 18 36 80 55 46 66
REMARK Flexibility Score: inf
ROOT
ATOM      1  C   UNL A   1      37.508  22.525  25.489  1.00  0.00     0.023 C 
ENDROOT
BRANCH   1   2
ATOM      2  C   UNL A   1      36.043  22.092  25.437  1.00  0.00     0.116 C 
BRANCH   2   3
ATOM      3  N   UNL A   1      35.447  22.058  26.758  1.00  0.00    -0.356 N 
ATOM      4  C   UNL A   1      34.207  22.342  27.219  1.00  0.00     0.229 C 
ATOM      5  O   UNL A   1      34.014  22.102  28.416  1.00  0.00    -0.275 OA
ATOM      6  H   UNL A   1      36.070  21.769  27.462  1.00  0.00     0.163 HD
BRANCH   4   7
ATOM      7  C   UNL A   1      33.055  22.781  26.342  1.00  0.00     0.146 C 
ATOM      8  N   UNL A   1      31.103  24.157  26.443  1.00  0.00    -0.330 N 
ATOM      9  C   UNL A   1      32.410  23.973  27.051  1.00  0.00     0.276 C 
ATOM     10  C   UNL A   1      30.653  22.801  26.100  1.00  0.00     0.272 C 
ATOM     11  H   UNL A   1      30.442  24.588  27.089  1.00  0.00     0.348 HD
ATOM     12  C   UNL A   1      31.890  21.856  25.936  1.00  0.00     0.096 C 
BRANCH   8  13
ATOM     13  C   UNL A   1      31.049  25.170  25.369  1.00  0.00     0.303 C 
BRANCH  13  14
ATOM     14  C   UNL A   1      31.736  26.504  25.596  1.00  0.00     0.048 A 
ATOM     15  C   UNL A   1      33.198  28.783  26.359  1.00  0.00     0.122 A 
ATOM     16  C   UNL A   1      32.012  28.469  27.009  1.00  0.00     0.047 A 
ATOM     17  C   UNL A   1      33.610  28.019  25.266  1.00  0.00     0.093 A 
ATOM     18  C   UNL A   1      31.262  27.367  26.600  1.00  0.00     0.017 A 
ATOM     19  C   UNL A   1      32.869  26.895  24.864  1.00  0.00     0.131 A 
BRANCH  15  20
ATOM     20  O   UNL A   1      33.925  29.790  26.929  1.00  0.00    -0.497 OA
ATOM     21  C   UNL A   1      35.231  29.430  27.352  1.00  0.00     0.278 C 
ENDBRANCH  15  20
BRANCH  19  22
ATOM     22  O   UNL A   1      33.222  26.091  23.810  1.00  0.00    -0.496 OA
ATOM     23  C   UNL A   1      34.312  25.205  24.032  1.00  0.00     0.278 C 
ENDBRANCH  19  22
ENDBRANCH  13  14
ENDBRANCH   8  13
BRANCH  12  24
ATOM     24  C   UNL A   1      32.018  21.108  24.591  1.00  0.00     0.004 A 
ATOM     25  C   UNL A   1      31.861  21.784  23.361  1.00  0.00     0.008 A 
ATOM     26  C   UNL A   1      32.241  19.718  24.496  1.00  0.00     0.122 A 
ATOM     27  C   UNL A   1      31.974  21.149  22.118  1.00  0.00     0.001 A 
ATOM     28  C   UNL A   1      32.330  19.073  23.246  1.00  0.00     0.047 A 
ATOM     29  C   UNL A   1      32.203  19.787  22.058  1.00  0.00     0.004 A 
BRANCH  26  30
ATOM     30  O   UNL A   1      32.570  18.941  25.572  1.00  0.00    -0.496 OA
ATOM     31  C   UNL A   1      32.488  17.539  25.341  1.00  0.00     0.278 C 
ENDBRANCH  26  30
ENDBRANCH  12  24
ENDBRANCH   4   7
ENDBRANCH   2   3
ENDBRANCH   1   2
BRANCH   1  32
ATOM     32  C   UNL A   1      37.777  23.811  26.276  1.00  0.00     0.023 C 
BRANCH  32  33
ATOM     33  C   UNL A   1      39.180  23.929  26.860  1.00  0.00     0.116 C 
BRANCH  33  34
ATOM     34  N   UNL A   1      40.116  24.558  25.943  1.00  0.00    -0.352 N 
ATOM     35  C   UNL A   1      40.841  25.713  26.109  1.00  0.00     0.251 C 
ATOM     36  H   UNL A   1      40.249  24.093  25.085  1.00  0.00     0.163 HD
ATOM     37  O   UNL A   1      41.475  26.184  25.168  1.00  0.00    -0.269 OA
BRANCH  35  38
ATOM     38  C   UNL A   1      40.818  26.400  27.416  1.00  0.00     0.039 A 
ATOM     39  C   UNL A   1      41.846  27.290  27.732  1.00  0.00     0.014 A 
ATOM     40  C   UNL A   1      39.759  26.195  28.305  1.00  0.00     0.014 A 
ATOM     41  C   UNL A   1      41.772  28.035  28.911  1.00  0.00     0.010 A 
ATOM     42  C   UNL A   1      39.651  26.990  29.440  1.00  0.00     0.010 A 
ATOM     43  C   UNL A   1      40.654  27.921  29.753  1.00  0.00    -0.014 A 
BRANCH  43  44
ATOM     44  C   UNL A   1      40.502  28.767  30.964  1.00  0.00     0.031 A 
ATOM     45  C   UNL A   1      39.474  29.865  30.984  1.00  0.00     0.074 A 
ATOM     46  C   UNL A   1      41.348  28.608  32.002  1.00  0.00     0.049 A 
ATOM     47  N   UNL A   1      39.271  30.791  31.885  1.00  0.00    -0.248 NA
ATOM     48  C   UNL A   1      38.575  29.951  29.821  1.00  0.00     0.031 C 
ATOM     49  C   UNL A   1      42.418  27.610  32.079  1.00  0.00     0.029 A 
ATOM     50  N   UNL A   1      41.457  29.301  33.182  1.00  0.00    -0.354 N 
ATOM     51  C   UNL A   1      38.245  31.583  31.387  1.00  0.00     0.074 A 
ATOM     52  C   UNL A   1      37.893  31.057  30.087  1.00  0.00     0.031 C 
ATOM     53  C   UNL A   1      43.067  27.748  33.246  1.00  0.00     0.029 A 
ATOM     54  C   UNL A   1      42.490  28.869  33.983  1.00  0.00     0.049 A 
ATOM     55  H   UNL A   1      40.853  30.037  33.433  1.00  0.00     0.167 HD
ATOM     56  C   UNL A   1      37.636  32.642  31.972  1.00  0.00     0.037 A 
ATOM     57  C   UNL A   1      42.935  29.337  35.166  1.00  0.00     0.037 A 
ATOM     58  C   UNL A   1      37.967  33.137  33.282  1.00  0.00     0.049 A 
ATOM     59  C   UNL A   1      42.237  30.509  35.799  1.00  0.00     0.074 A 
ATOM     60  C   UNL A   1      37.362  34.158  33.994  1.00  0.00     0.029 A 
ATOM     61  N   UNL A   1      38.994  32.648  34.077  1.00  0.00    -0.354 N 
ATOM     62  N   UNL A   1      41.222  31.206  35.345  1.00  0.00    -0.248 NA
ATOM     63  C   UNL A   1      42.738  30.959  37.105  1.00  0.00     0.031 C 
ATOM     64  C   UNL A   1      38.049  34.315  35.202  1.00  0.00     0.029 A 
ATOM     65  C   UNL A   1      39.050  33.360  35.264  1.00  0.00     0.049 A 
ATOM     66  H   UNL A   1      39.592  31.906  33.835  1.00  0.00     0.167 HD
ATOM     67  C   UNL A   1      40.947  32.158  36.322  1.00  0.00     0.074 A 
ATOM     68  C   UNL A   1      41.896  31.942  37.395  1.00  0.00     0.031 C 
ATOM     69  C   UNL A   1      39.993  33.121  36.329  1.00  0.00     0.037 A 
BRANCH  56  70
ATOM     70  C   UNL A   1      36.547  33.336  31.202  1.00  0.00     0.058 A 
ATOM     71  C   UNL A   1      36.827  34.121  30.072  1.00  0.00     0.135 A 
ATOM     72  C   UNL A   1      35.202  33.185  31.575  1.00  0.00     0.135 A 
ATOM     73  F   UNL A   1      38.097  34.311  29.680  1.00  0.00    -0.206 F 
ATOM     74  C   UNL A   1      35.817  34.752  29.355  1.00  0.00     0.059 A 
ATOM     75  C   UNL A   1      34.171  33.785  30.857  1.00  0.00     0.059 A 
ATOM     76  F   UNL A   1      34.876  32.448  32.649  1.00  0.00    -0.206 F 
ATOM     77  C   UNL A   1      34.491  34.578  29.755  1.00  0.00     0.060 A 
BRANCH  77  78
ATOM     78  S   UNL A   1      33.191  35.397  28.808  1.00  0.00     0.124 S 
ATOM     79  O   UNL A   1      32.616  34.275  28.073  1.00  0.00    -0.237 OA
ATOM     80  O   UNL A   1      32.349  35.963  29.859  1.00  0.00    -0.237 OA
ATOM     81  O   UNL A   1      33.919  36.370  28.001  1.00  0.00    -0.744 OA
ENDBRANCH  77  78
ENDBRANCH  56  70
BRANCH  57  82
ATOM     82  C   UNL A   1      44.094  28.687  35.833  1.00  0.00     0.058 A 
ATOM     83  C   UNL A   1      45.401  29.155  35.626  1.00  0.00     0.135 A 
ATOM     84  C   UNL A   1      43.921  27.597  36.701  1.00  0.00     0.135 A 
ATOM     85  F   UNL A   1      45.619  30.191  34.802  1.00  0.00    -0.206 F 
ATOM     86  C   UNL A   1      46.496  28.555  36.239  1.00  0.00     0.059 A 
ATOM     87  C   UNL A   1      44.998  26.996  37.345  1.00  0.00     0.059 A 
ATOM     88  F   UNL A   1      42.691  27.122  36.946  1.00  0.00    -0.206 F 
ATOM     89  C   UNL A   1      46.285  27.476  37.100  1.00  0.00     0.060 A 
BRANCH  89  90
ATOM     90  S   UNL A   1      47.708  26.736  37.929  1.00  0.00     0.124 S 
ATOM     91  O   UNL A   1      48.772  27.667  37.573  1.00  0.00    -0.237 OA
ATOM     92  O   UNL A   1      47.290  26.749  39.328  1.00  0.00    -0.237 OA
ATOM     93  O   UNL A   1      47.797  25.411  37.323  1.00  0.00    -0.744 OA
ENDBRANCH  89  90
ENDBRANCH  57  82
BRANCH  69  94
ATOM     94  C   UNL A   1      39.895  33.995  37.547  1.00  0.00     0.058 A 
ATOM     95  C   UNL A   1      40.641  35.177  37.671  1.00  0.00     0.135 A 
ATOM     96  C   UNL A   1      38.982  33.685  38.569  1.00  0.00     0.135 A 
ATOM     97  F   UNL A   1      41.533  35.513  36.725  1.00  0.00    -0.206 F 
ATOM     98  C   UNL A   1      40.493  36.017  38.769  1.00  0.00     0.059 A 
ATOM     99  C   UNL A   1      38.799  34.522  39.664  1.00  0.00     0.059 A 
ATOM    100  F   UNL A   1      38.237  32.569  38.494  1.00  0.00    -0.206 F 
ATOM    101  C   UNL A   1      39.564  35.684  39.758  1.00  0.00     0.060 A 
BRANCH 101 102
ATOM    102  S   UNL A   1      39.340  36.812  41.149  1.00  0.00     0.124 S 
ATOM    103  O   UNL A   1      38.508  37.853  40.553  1.00  0.00    -0.237 OA
ATOM    104  O   UNL A   1      38.682  35.962  42.137  1.00  0.00    -0.237 OA
ATOM    105  O   UNL A   1      40.703  37.213  41.485  1.00  0.00    -0.744 OA
ENDBRANCH 101 102
ENDBRANCH  69  94
ENDBRANCH  43  44
ENDBRANCH  35  38
ENDBRANCH  33  34
ENDBRANCH  32  33
ENDBRANCH   1  32
TORSDOF 20
ENDMDL
