MODEL 1
REMARK VINA RESULT:     -11.1      0.000      0.000
REMARK SMILES COC(=O)[C@H]1CCN(C(=O)Nc2sccc2C(=O)NCCCCNC(=O)c2ccc(-c3c4nc(c(-c5c(F)cc(S(=O)(=O)[O-])cc5F)c5ccc([nH]5)c(-c5c(F)cc(S(=O)(=O)[O-])cc5F)c5nc(c(-c6c(F)cc(S(=O)(=O)[O-])cc6F)c6ccc3[nH]6)C=C5)C=C4)cc2)C1
REMARK SMILES IDX 21 1 20 2 19 3 17 4 18 5 16 7 12 8 13 9 14 10 15 11 11 12
REMARK SMILES IDX 9 13 10 14 8 16 5 17 6 18 93 19 7 20 3 21 4 22 2 23 1 24
REMARK SMILES IDX 22 25 23 26 24 27 25 28 26 30 27 31 28 32 92 33 29 34 91 35
REMARK SMILES IDX 30 36 31 37 32 38 85 39 33 40 90 41 84 42 86 43 34 44 89 45
REMARK SMILES IDX 83 46 82 47 35 49 69 50 48 51 68 52 49 53 52 54 67 55 87 56
REMARK SMILES IDX 50 57 51 58 66 60 88 61 53 62 36 63 37 64 46 65 38 66 39 67
REMARK SMILES IDX 45 68 47 69 40 70 41 71 42 72 43 73 44 74 70 75 71 76 80 77
REMARK SMILES IDX 72 78 73 79 79 80 81 81 74 82 75 83 76 84 77 85 78 86 54 87
REMARK SMILES IDX 55 88 64 89 56 90 57 91 63 92 65 93 58 94 59 95 60 96 61 97
REMARK SMILES IDX 62 98
REMARK H PARENT 19 6 11 15 24 29 86 48 52 59
REMARK Flexibility Score: inf
ROOT
ATOM      1  C   UNL A   1      33.363  29.289  24.814  1.00  0.00     0.023 C 
ENDROOT
BRANCH   1   2
ATOM      2  C   UNL A   1      33.367  28.830  23.360  1.00  0.00     0.116 C 
BRANCH   2   3
ATOM      3  N   UNL A   1      32.121  29.052  22.661  1.00  0.00    -0.352 N 
ATOM      4  C   UNL A   1      30.944  28.345  22.703  1.00  0.00     0.254 C 
ATOM      5  O   UNL A   1      30.034  28.718  21.961  1.00  0.00    -0.269 OA
ATOM      6  H   UNL A   1      32.114  29.833  22.060  1.00  0.00     0.163 HD
BRANCH   4   7
ATOM      7  C   UNL A   1      30.784  27.125  23.500  1.00  0.00     0.074 A 
ATOM      8  C   UNL A   1      31.018  25.796  23.186  1.00  0.00     0.109 A 
ATOM      9  S   UNL A   1      30.438  24.719  24.383  1.00  0.00    -0.126 S 
ATOM     10  C   UNL A   1      30.228  25.986  25.500  1.00  0.00     0.068 A 
ATOM     11  C   UNL A   1      30.420  27.209  24.904  1.00  0.00     0.028 A 
BRANCH   8  12
ATOM     12  N   UNL A   1      31.601  25.093  22.159  1.00  0.00    -0.299 N 
ATOM     13  C   UNL A   1      32.877  24.659  22.023  1.00  0.00     0.322 C 
ATOM     14  O   UNL A   1      33.333  24.564  20.880  1.00  0.00    -0.248 OA
ATOM     15  H   UNL A   1      31.001  24.872  21.410  1.00  0.00     0.172 HD
BRANCH  13  16
ATOM     16  N   UNL A   1      33.611  24.304  23.115  1.00  0.00    -0.324 N 
ATOM     17  C   UNL A   1      34.376  22.962  24.919  1.00  0.00     0.120 C 
ATOM     18  C   UNL A   1      35.216  24.234  24.790  1.00  0.00     0.039 C 
ATOM     19  C   UNL A   1      33.538  22.947  23.644  1.00  0.00     0.136 C 
ATOM     20  C   UNL A   1      34.264  25.173  24.079  1.00  0.00     0.122 C 
BRANCH  17  21
ATOM     21  C   UNL A   1      35.208  21.714  25.047  1.00  0.00     0.310 C 
ATOM     22  O   UNL A   1      34.817  20.579  24.815  1.00  0.00    -0.252 OA
BRANCH  21  23
ATOM     23  O   UNL A   1      36.472  22.044  25.429  1.00  0.00    -0.469 OA
ATOM     24  C   UNL A   1      37.481  21.187  24.887  1.00  0.00     0.282 C 
ENDBRANCH  21  23
ENDBRANCH  17  21
ENDBRANCH  13  16
ENDBRANCH   8  12
ENDBRANCH   4   7
ENDBRANCH   2   3
ENDBRANCH   1   2
BRANCH   1  25
ATOM     25  C   UNL A   1      33.722  28.221  25.849  1.00  0.00     0.023 C 
BRANCH  25  26
ATOM     26  C   UNL A   1      33.410  28.553  27.308  1.00  0.00     0.116 C 
BRANCH  26  27
ATOM     27  N   UNL A   1      33.422  29.978  27.604  1.00  0.00    -0.352 N 
ATOM     28  C   UNL A   1      34.430  30.763  28.121  1.00  0.00     0.251 C 
ATOM     29  H   UNL A   1      32.583  30.454  27.404  1.00  0.00     0.163 HD
ATOM     30  O   UNL A   1      34.211  31.933  28.423  1.00  0.00    -0.269 OA
BRANCH  28  31
ATOM     31  C   UNL A   1      35.772  30.181  28.344  1.00  0.00     0.039 A 
ATOM     32  C   UNL A   1      36.688  30.161  27.291  1.00  0.00     0.014 A 
ATOM     33  C   UNL A   1      36.135  29.688  29.599  1.00  0.00     0.014 A 
ATOM     34  C   UNL A   1      37.999  29.735  27.523  1.00  0.00     0.010 A 
ATOM     35  C   UNL A   1      37.462  29.349  29.850  1.00  0.00     0.010 A 
ATOM     36  C   UNL A   1      38.413  29.376  28.818  1.00  0.00    -0.014 A 
BRANCH  36  37
ATOM     37  C   UNL A   1      39.834  29.049  29.113  1.00  0.00     0.031 A 
ATOM     38  C   UNL A   1      40.740  30.080  29.731  1.00  0.00     0.074 A 
ATOM     39  C   UNL A   1      40.328  27.844  28.762  1.00  0.00     0.049 A 
ATOM     40  N   UNL A   1      42.018  30.000  30.004  1.00  0.00    -0.248 NA
ATOM     41  C   UNL A   1      40.140  31.384  30.056  1.00  0.00     0.031 C 
ATOM     42  C   UNL A   1      39.570  26.776  28.103  1.00  0.00     0.029 A 
ATOM     43  N   UNL A   1      41.588  27.313  28.901  1.00  0.00    -0.354 N 
ATOM     44  C   UNL A   1      42.374  31.240  30.523  1.00  0.00     0.074 A 
ATOM     45  C   UNL A   1      41.193  32.074  30.467  1.00  0.00     0.031 C 
ATOM     46  C   UNL A   1      40.370  25.713  27.922  1.00  0.00     0.029 A 
ATOM     47  C   UNL A   1      41.707  26.032  28.412  1.00  0.00     0.049 A 
ATOM     48  H   UNL A   1      42.335  27.803  29.312  1.00  0.00     0.167 HD
ATOM     49  C   UNL A   1      43.568  31.639  31.024  1.00  0.00     0.037 A 
ATOM     50  C   UNL A   1      42.772  25.207  28.358  1.00  0.00     0.037 A 
ATOM     51  C   UNL A   1      44.733  30.797  31.098  1.00  0.00     0.049 A 
ATOM     52  C   UNL A   1      44.089  25.675  28.919  1.00  0.00     0.074 A 
ATOM     53  C   UNL A   1      45.972  31.089  31.643  1.00  0.00     0.029 A 
ATOM     54  N   UNL A   1      44.808  29.499  30.611  1.00  0.00    -0.354 N 
ATOM     55  N   UNL A   1      44.388  26.828  29.470  1.00  0.00    -0.248 NA
ATOM     56  C   UNL A   1      45.211  24.729  28.858  1.00  0.00     0.031 C 
ATOM     57  C   UNL A   1      46.810  29.988  31.439  1.00  0.00     0.029 A 
ATOM     58  C   UNL A   1      46.078  28.987  30.821  1.00  0.00     0.049 A 
ATOM     59  H   UNL A   1      44.067  29.015  30.179  1.00  0.00     0.167 HD
ATOM     60  C   UNL A   1      45.723  26.733  29.849  1.00  0.00     0.074 A 
ATOM     61  C   UNL A   1      46.170  25.407  29.475  1.00  0.00     0.031 C 
ATOM     62  C   UNL A   1      46.508  27.661  30.452  1.00  0.00     0.037 A 
BRANCH  49  63
ATOM     63  C   UNL A   1      43.672  33.050  31.539  1.00  0.00     0.058 A 
ATOM     64  C   UNL A   1      44.209  34.084  30.756  1.00  0.00     0.135 A 
ATOM     65  C   UNL A   1      43.193  33.382  32.817  1.00  0.00     0.135 A 
ATOM     66  F   UNL A   1      44.695  33.824  29.532  1.00  0.00    -0.206 F 
ATOM     67  C   UNL A   1      44.296  35.388  31.232  1.00  0.00     0.059 A 
ATOM     68  C   UNL A   1      43.241  34.686  33.302  1.00  0.00     0.059 A 
ATOM     69  F   UNL A   1      42.670  32.433  33.610  1.00  0.00    -0.206 F 
ATOM     70  C   UNL A   1      43.809  35.679  32.506  1.00  0.00     0.060 A 
BRANCH  70  71
ATOM     71  S   UNL A   1      43.923  37.379  33.104  1.00  0.00     0.124 S 
ATOM     72  O   UNL A   1      45.301  37.425  33.585  1.00  0.00    -0.237 OA
ATOM     73  O   UNL A   1      43.646  38.153  31.899  1.00  0.00    -0.237 OA
ATOM     74  O   UNL A   1      42.896  37.446  34.139  1.00  0.00    -0.744 OA
ENDBRANCH  70  71
ENDBRANCH  49  63
BRANCH  50  75
ATOM     75  C   UNL A   1      42.635  23.847  27.770  1.00  0.00     0.058 A 
ATOM     76  C   UNL A   1      42.630  23.656  26.380  1.00  0.00     0.135 A 
ATOM     77  C   UNL A   1      42.514  22.710  28.583  1.00  0.00     0.135 A 
ATOM     78  F   UNL A   1      42.736  24.712  25.559  1.00  0.00    -0.206 F 
ATOM     79  C   UNL A   1      42.487  22.393  25.816  1.00  0.00     0.059 A 
ATOM     80  C   UNL A   1      42.399  21.431  28.044  1.00  0.00     0.059 A 
ATOM     81  F   UNL A   1      42.530  22.832  29.919  1.00  0.00    -0.206 F 
ATOM     82  C   UNL A   1      42.374  21.284  26.657  1.00  0.00     0.060 A 
BRANCH  82  83
ATOM     83  S   UNL A   1      42.232  19.645  25.915  1.00  0.00     0.124 S 
ATOM     84  O   UNL A   1      43.283  19.687  24.905  1.00  0.00    -0.237 OA
ATOM     85  O   UNL A   1      42.479  18.770  27.058  1.00  0.00    -0.237 OA
ATOM     86  O   UNL A   1      40.865  19.624  25.405  1.00  0.00    -0.744 OA
ENDBRANCH  82  83
ENDBRANCH  50  75
BRANCH  62  87
ATOM     87  C   UNL A   1      47.921  27.265  30.784  1.00  0.00     0.058 A 
ATOM     88  C   UNL A   1      48.231  26.517  31.931  1.00  0.00     0.135 A 
ATOM     89  C   UNL A   1      48.974  27.596  29.915  1.00  0.00     0.135 A 
ATOM     90  F   UNL A   1      47.265  26.178  32.798  1.00  0.00    -0.206 F 
ATOM     91  C   UNL A   1      49.538  26.135  32.217  1.00  0.00     0.059 A 
ATOM     92  C   UNL A   1      50.282  27.198  30.165  1.00  0.00     0.059 A 
ATOM     93  F   UNL A   1      48.732  28.301  28.798  1.00  0.00    -0.206 F 
ATOM     94  C   UNL A   1      50.557  26.478  31.327  1.00  0.00     0.060 A 
BRANCH  94  95
ATOM     95  S   UNL A   1      52.243  25.948  31.695  1.00  0.00     0.124 S 
ATOM     96  O   UNL A   1      52.018  24.622  32.261  1.00  0.00    -0.237 OA
ATOM     97  O   UNL A   1      52.873  25.977  30.379  1.00  0.00    -0.237 OA
ATOM     98  O   UNL A   1      52.720  26.959  32.635  1.00  0.00    -0.744 OA
ENDBRANCH  94  95
ENDBRANCH  62  87
ENDBRANCH  36  37
ENDBRANCH  28  31
ENDBRANCH  26  27
ENDBRANCH  25  26
ENDBRANCH   1  25
TORSDOF 18
ENDMDL
MODEL 2
REMARK VINA RESULT:     -11.0      3.086      4.123
REMARK SMILES COC(=O)[C@H]1CCN(C(=O)Nc2sccc2C(=O)NCCCCNC(=O)c2ccc(-c3c4nc(c(-c5c(F)cc(S(=O)(=O)[O-])cc5F)c5ccc([nH]5)c(-c5c(F)cc(S(=O)(=O)[O-])cc5F)c5nc(c(-c6c(F)cc(S(=O)(=O)[O-])cc6F)c6ccc3[nH]6)C=C5)C=C4)cc2)C1
REMARK SMILES IDX 21 1 20 2 19 3 17 4 18 5 16 7 12 8 13 9 14 10 15 11 11 12
REMARK SMILES IDX 9 13 10 14 8 16 5 17 6 18 93 19 7 20 3 21 4 22 2 23 1 24
REMARK SMILES IDX 22 25 23 26 24 27 25 28 26 30 27 31 28 32 92 33 29 34 91 35
REMARK SMILES IDX 30 36 31 37 32 38 85 39 33 40 90 41 84 42 86 43 34 44 89 45
REMARK SMILES IDX 83 46 82 47 35 49 69 50 48 51 68 52 49 53 52 54 67 55 87 56
REMARK SMILES IDX 50 57 51 58 66 60 88 61 53 62 36 63 37 64 46 65 38 66 39 67
REMARK SMILES IDX 45 68 47 69 40 70 41 71 42 72 43 73 44 74 70 75 71 76 80 77
REMARK SMILES IDX 72 78 73 79 79 80 81 81 74 82 75 83 76 84 77 85 78 86 54 87
REMARK SMILES IDX 55 88 64 89 56 90 57 91 63 92 65 93 58 94 59 95 60 96 61 97
REMARK SMILES IDX 62 98
REMARK H PARENT 19 6 11 15 24 29 86 48 52 59
REMARK Flexibility Score: inf
ROOT
ATOM      1  C   UNL A   1      31.660  27.474  26.631  1.00  0.00     0.023 C 
ENDROOT
BRANCH   1   2
ATOM      2  C   UNL A   1      31.343  26.251  25.778  1.00  0.00     0.116 C 
BRANCH   2   3
ATOM      3  N   UNL A   1      31.119  25.038  26.534  1.00  0.00    -0.352 N 
ATOM      4  C   UNL A   1      31.837  23.869  26.563  1.00  0.00     0.254 C 
ATOM      5  O   UNL A   1      31.401  22.954  27.265  1.00  0.00    -0.269 OA
ATOM      6  H   UNL A   1      30.328  25.054  27.121  1.00  0.00     0.163 HD
BRANCH   4   7
ATOM      7  C   UNL A   1      33.015  23.644  25.719  1.00  0.00     0.074 A 
ATOM      8  C   UNL A   1      33.142  23.048  24.475  1.00  0.00     0.109 A 
ATOM      9  S   UNL A   1      34.773  22.805  24.018  1.00  0.00    -0.126 S 
ATOM     10  C   UNL A   1      35.330  23.826  25.260  1.00  0.00     0.068 A 
ATOM     11  C   UNL A   1      34.307  24.184  26.104  1.00  0.00     0.028 A 
BRANCH   8  12
ATOM     12  N   UNL A   1      32.300  22.592  23.488  1.00  0.00    -0.299 N 
ATOM     13  C   UNL A   1      32.169  21.347  22.970  1.00  0.00     0.322 C 
ATOM     14  O   UNL A   1      31.812  21.249  21.793  1.00  0.00    -0.248 OA
ATOM     15  H   UNL A   1      31.703  23.272  23.100  1.00  0.00     0.172 HD
BRANCH  13  16
ATOM     16  N   UNL A   1      32.388  20.246  23.743  1.00  0.00    -0.324 N 
ATOM     17  C   UNL A   1      32.522  17.947  24.322  1.00  0.00     0.120 C 
ATOM     18  C   UNL A   1      33.041  18.827  25.460  1.00  0.00     0.039 C 
ATOM     19  C   UNL A   1      32.372  18.913  23.150  1.00  0.00     0.136 C 
ATOM     20  C   UNL A   1      32.338  20.141  25.191  1.00  0.00     0.122 C 
BRANCH  17  21
ATOM     21  C   UNL A   1      33.449  16.810  23.984  1.00  0.00     0.310 C 
ATOM     22  O   UNL A   1      33.911  16.581  22.874  1.00  0.00    -0.252 OA
BRANCH  21  23
ATOM     23  O   UNL A   1      33.723  16.092  25.108  1.00  0.00    -0.469 OA
ATOM     24  C   UNL A   1      32.753  15.084  25.401  1.00  0.00     0.282 C 
ENDBRANCH  21  23
ENDBRANCH  17  21
ENDBRANCH  13  16
ENDBRANCH   8  12
ENDBRANCH   4   7
ENDBRANCH   2   3
ENDBRANCH   1   2
BRANCH   1  25
ATOM     25  C   UNL A   1      33.146  27.735  26.889  1.00  0.00     0.023 C 
BRANCH  25  26
ATOM     26  C   UNL A   1      33.825  28.760  25.981  1.00  0.00     0.116 C 
BRANCH  26  27
ATOM     27  N   UNL A   1      33.672  30.137  26.426  1.00  0.00    -0.352 N 
ATOM     28  C   UNL A   1      34.416  30.857  27.336  1.00  0.00     0.251 C 
ATOM     29  H   UNL A   1      32.925  30.629  26.015  1.00  0.00     0.163 HD
ATOM     30  O   UNL A   1      34.055  31.979  27.681  1.00  0.00    -0.269 OA
BRANCH  28  31
ATOM     31  C   UNL A   1      35.635  30.260  27.925  1.00  0.00     0.039 A 
ATOM     32  C   UNL A   1      36.848  30.379  27.243  1.00  0.00     0.014 A 
ATOM     33  C   UNL A   1      35.586  29.612  29.161  1.00  0.00     0.014 A 
ATOM     34  C   UNL A   1      38.027  29.936  27.849  1.00  0.00     0.010 A 
ATOM     35  C   UNL A   1      36.770  29.252  29.799  1.00  0.00     0.010 A 
ATOM     36  C   UNL A   1      38.006  29.417  29.155  1.00  0.00    -0.014 A 
BRANCH  36  37
ATOM     37  C   UNL A   1      39.264  29.063  29.867  1.00  0.00     0.031 A 
ATOM     38  C   UNL A   1      39.683  29.826  31.095  1.00  0.00     0.074 A 
ATOM     39  C   UNL A   1      40.065  28.099  29.368  1.00  0.00     0.049 A 
ATOM     40  N   UNL A   1      40.772  29.703  31.812  1.00  0.00    -0.248 NA
ATOM     41  C   UNL A   1      38.777  30.887  31.562  1.00  0.00     0.031 C 
ATOM     42  C   UNL A   1      39.801  27.324  28.152  1.00  0.00     0.029 A 
ATOM     43  N   UNL A   1      41.267  27.608  29.815  1.00  0.00    -0.354 N 
ATOM     44  C   UNL A   1      40.685  30.673  32.805  1.00  0.00     0.074 A 
ATOM     45  C   UNL A   1      39.468  31.417  32.560  1.00  0.00     0.031 C 
ATOM     46  C   UNL A   1      40.796  26.440  27.967  1.00  0.00     0.029 A 
ATOM     47  C   UNL A   1      41.787  26.608  29.025  1.00  0.00     0.049 A 
ATOM     48  H   UNL A   1      41.715  27.940  30.626  1.00  0.00     0.167 HD
ATOM     49  C   UNL A   1      41.526  30.906  33.840  1.00  0.00     0.037 A 
ATOM     50  C   UNL A   1      42.935  25.910  29.132  1.00  0.00     0.037 A 
ATOM     51  C   UNL A   1      42.723  30.147  34.092  1.00  0.00     0.049 A 
ATOM     52  C   UNL A   1      43.856  26.189  30.291  1.00  0.00     0.074 A 
ATOM     53  C   UNL A   1      43.611  30.266  35.148  1.00  0.00     0.029 A 
ATOM     54  N   UNL A   1      43.205  29.130  33.280  1.00  0.00    -0.354 N 
ATOM     55  N   UNL A   1      43.720  27.063  31.260  1.00  0.00    -0.248 NA
ATOM     56  C   UNL A   1      45.080  25.382  30.376  1.00  0.00     0.031 C 
ATOM     57  C   UNL A   1      44.654  29.357  34.947  1.00  0.00     0.029 A 
ATOM     58  C   UNL A   1      44.388  28.630  33.798  1.00  0.00     0.049 A 
ATOM     59  H   UNL A   1      42.769  28.811  32.456  1.00  0.00     0.167 HD
ATOM     60  C   UNL A   1      44.826  26.890  32.086  1.00  0.00     0.074 A 
ATOM     61  C   UNL A   1      45.614  25.820  31.509  1.00  0.00     0.031 C 
ATOM     62  C   UNL A   1      45.159  27.558  33.219  1.00  0.00     0.037 A 
BRANCH  49  63
ATOM     63  C   UNL A   1      41.178  32.025  34.785  1.00  0.00     0.058 A 
ATOM     64  C   UNL A   1      40.337  31.822  35.892  1.00  0.00     0.135 A 
ATOM     65  C   UNL A   1      41.722  33.307  34.607  1.00  0.00     0.135 A 
ATOM     66  F   UNL A   1      39.777  30.620  36.104  1.00  0.00    -0.206 F 
ATOM     67  C   UNL A   1      40.024  32.855  36.768  1.00  0.00     0.059 A 
ATOM     68  C   UNL A   1      41.448  34.349  35.490  1.00  0.00     0.059 A 
ATOM     69  F   UNL A   1      42.532  33.559  33.567  1.00  0.00    -0.206 F 
ATOM     70  C   UNL A   1      40.585  34.115  36.559  1.00  0.00     0.060 A 
BRANCH  70  71
ATOM     71  S   UNL A   1      40.173  35.443  37.710  1.00  0.00     0.124 S 
ATOM     72  O   UNL A   1      41.419  35.572  38.462  1.00  0.00    -0.237 OA
ATOM     73  O   UNL A   1      39.858  36.549  36.812  1.00  0.00    -0.237 OA
ATOM     74  O   UNL A   1      39.043  34.907  38.460  1.00  0.00    -0.744 OA
ENDBRANCH  70  71
ENDBRANCH  49  63
BRANCH  50  75
ATOM     75  C   UNL A   1      43.271  24.863  28.129  1.00  0.00     0.058 A 
ATOM     76  C   UNL A   1      42.769  23.558  28.249  1.00  0.00     0.135 A 
ATOM     77  C   UNL A   1      44.093  25.146  27.027  1.00  0.00     0.135 A 
ATOM     78  F   UNL A   1      41.985  23.236  29.289  1.00  0.00    -0.206 F 
ATOM     79  C   UNL A   1      43.087  22.566  27.328  1.00  0.00     0.059 A 
ATOM     80  C   UNL A   1      44.402  24.177  26.075  1.00  0.00     0.059 A 
ATOM     81  F   UNL A   1      44.586  26.381  26.854  1.00  0.00    -0.206 F 
ATOM     82  C   UNL A   1      43.903  22.886  26.242  1.00  0.00     0.060 A 
BRANCH  82  83
ATOM     83  S   UNL A   1      44.274  21.601  25.029  1.00  0.00     0.124 S 
ATOM     84  O   UNL A   1      45.666  21.297  25.338  1.00  0.00    -0.237 OA
ATOM     85  O   UNL A   1      43.303  20.566  25.373  1.00  0.00    -0.237 OA
ATOM     86  O   UNL A   1      44.041  22.267  23.752  1.00  0.00    -0.744 OA
ENDBRANCH  82  83
ENDBRANCH  50  75
BRANCH  62  87
ATOM     87  C   UNL A   1      46.409  27.126  33.937  1.00  0.00     0.058 A 
ATOM     88  C   UNL A   1      47.656  27.714  33.674  1.00  0.00     0.135 A 
ATOM     89  C   UNL A   1      46.348  26.144  34.940  1.00  0.00     0.135 A 
ATOM     90  F   UNL A   1      47.772  28.654  32.723  1.00  0.00    -0.206 F 
ATOM     91  C   UNL A   1      48.802  27.325  34.360  1.00  0.00     0.059 A 
ATOM     92  C   UNL A   1      47.475  25.762  35.660  1.00  0.00     0.059 A 
ATOM     93  F   UNL A   1      45.179  25.556  35.239  1.00  0.00    -0.206 F 
ATOM     94  C   UNL A   1      48.701  26.350  35.353  1.00  0.00     0.060 A 
BRANCH  94  95
ATOM     95  S   UNL A   1      50.191  25.878  36.258  1.00  0.00     0.124 S 
ATOM     96  O   UNL A   1      51.227  26.103  35.255  1.00  0.00    -0.237 OA
ATOM     97  O   UNL A   1      50.182  26.809  37.381  1.00  0.00    -0.237 OA
ATOM     98  O   UNL A   1      49.948  24.481  36.608  1.00  0.00    -0.744 OA
ENDBRANCH  94  95
ENDBRANCH  62  87
ENDBRANCH  36  37
ENDBRANCH  28  31
ENDBRANCH  26  27
ENDBRANCH  25  26
ENDBRANCH   1  25
TORSDOF 18
ENDMDL
MODEL 3
REMARK VINA RESULT:     -10.8      1.378      2.048
REMARK SMILES COC(=O)[C@H]1CCN(C(=O)Nc2sccc2C(=O)NCCCCNC(=O)c2ccc(-c3c4nc(c(-c5c(F)cc(S(=O)(=O)[O-])cc5F)c5ccc([nH]5)c(-c5c(F)cc(S(=O)(=O)[O-])cc5F)c5nc(c(-c6c(F)cc(S(=O)(=O)[O-])cc6F)c6ccc3[nH]6)C=C5)C=C4)cc2)C1
REMARK SMILES IDX 21 1 20 2 19 3 17 4 18 5 16 7 12 8 13 9 14 10 15 11 11 12
REMARK SMILES IDX 9 13 10 14 8 16 5 17 6 18 93 19 7 20 3 21 4 22 2 23 1 24
REMARK SMILES IDX 22 25 23 26 24 27 25 28 26 30 27 31 28 32 92 33 29 34 91 35
REMARK SMILES IDX 30 36 31 37 32 38 85 39 33 40 90 41 84 42 86 43 34 44 89 45
REMARK SMILES IDX 83 46 82 47 35 49 69 50 48 51 68 52 49 53 52 54 67 55 87 56
REMARK SMILES IDX 50 57 51 58 66 60 88 61 53 62 36 63 37 64 46 65 38 66 39 67
REMARK SMILES IDX 45 68 47 69 40 70 41 71 42 72 43 73 44 74 70 75 71 76 80 77
REMARK SMILES IDX 72 78 73 79 79 80 81 81 74 82 75 83 76 84 77 85 78 86 54 87
REMARK SMILES IDX 55 88 64 89 56 90 57 91 63 92 65 93 58 94 59 95 60 96 61 97
REMARK SMILES IDX 62 98
REMARK H PARENT 19 6 11 15 24 29 86 48 52 59
REMARK Flexibility Score: inf
ROOT
ATOM      1  C   UNL A   1      34.003  26.828  25.540  1.00  0.00     0.023 C 
ENDROOT
BRANCH   1   2
ATOM      2  C   UNL A   1      33.302  25.602  26.113  1.00  0.00     0.116 C 
BRANCH   2   3
ATOM      3  N   UNL A   1      31.877  25.561  25.869  1.00  0.00    -0.352 N 
ATOM      4  C   UNL A   1      31.181  25.144  24.762  1.00  0.00     0.254 C 
ATOM      5  O   UNL A   1      29.954  25.259  24.789  1.00  0.00    -0.269 OA
ATOM      6  H   UNL A   1      31.318  25.883  26.614  1.00  0.00     0.163 HD
BRANCH   4   7
ATOM      7  C   UNL A   1      31.844  24.681  23.539  1.00  0.00     0.074 A 
ATOM      8  C   UNL A   1      32.118  23.403  23.081  1.00  0.00     0.109 A 
ATOM      9  S   UNL A   1      33.137  23.394  21.707  1.00  0.00    -0.126 S 
ATOM     10  C   UNL A   1      32.914  25.064  21.462  1.00  0.00     0.068 A 
ATOM     11  C   UNL A   1      32.232  25.632  22.512  1.00  0.00     0.028 A 
BRANCH   8  12
ATOM     12  N   UNL A   1      31.787  22.116  23.433  1.00  0.00    -0.299 N 
ATOM     13  C   UNL A   1      32.529  21.174  24.064  1.00  0.00     0.322 C 
ATOM     14  O   UNL A   1      32.299  19.990  23.801  1.00  0.00    -0.248 OA
ATOM     15  H   UNL A   1      30.874  21.837  23.191  1.00  0.00     0.172 HD
BRANCH  13  16
ATOM     16  N   UNL A   1      33.467  21.531  24.986  1.00  0.00    -0.324 N 
ATOM     17  C   UNL A   1      35.622  21.863  25.927  1.00  0.00     0.120 C 
ATOM     18  C   UNL A   1      34.534  22.422  26.844  1.00  0.00     0.039 C 
ATOM     19  C   UNL A   1      34.882  21.548  24.630  1.00  0.00     0.136 C 
ATOM     20  C   UNL A   1      33.322  21.615  26.429  1.00  0.00     0.122 C 
BRANCH  17  21
ATOM     21  C   UNL A   1      36.755  22.827  25.696  1.00  0.00     0.310 C 
ATOM     22  O   UNL A   1      36.670  24.045  25.768  1.00  0.00    -0.252 OA
BRANCH  21  23
ATOM     23  O   UNL A   1      37.897  22.137  25.428  1.00  0.00    -0.469 OA
ATOM     24  C   UNL A   1      38.972  22.428  26.323  1.00  0.00     0.282 C 
ENDBRANCH  21  23
ENDBRANCH  17  21
ENDBRANCH  13  16
ENDBRANCH   8  12
ENDBRANCH   4   7
ENDBRANCH   2   3
ENDBRANCH   1   2
BRANCH   1  25
ATOM     25  C   UNL A   1      33.433  28.181  25.972  1.00  0.00     0.023 C 
BRANCH  25  26
ATOM     26  C   UNL A   1      33.531  28.518  27.460  1.00  0.00     0.116 C 
BRANCH  26  27
ATOM     27  N   UNL A   1      33.573  29.946  27.741  1.00  0.00    -0.352 N 
ATOM     28  C   UNL A   1      34.606  30.719  28.222  1.00  0.00     0.251 C 
ATOM     29  H   UNL A   1      32.736  30.432  27.559  1.00  0.00     0.163 HD
ATOM     30  O   UNL A   1      34.413  31.895  28.518  1.00  0.00    -0.269 OA
BRANCH  28  31
ATOM     31  C   UNL A   1      35.945  30.119  28.415  1.00  0.00     0.039 A 
ATOM     32  C   UNL A   1      36.840  30.094  27.344  1.00  0.00     0.014 A 
ATOM     33  C   UNL A   1      36.326  29.612  29.659  1.00  0.00     0.014 A 
ATOM     34  C   UNL A   1      38.150  29.650  27.548  1.00  0.00     0.010 A 
ATOM     35  C   UNL A   1      37.653  29.254  29.882  1.00  0.00     0.010 A 
ATOM     36  C   UNL A   1      38.584  29.277  28.832  1.00  0.00    -0.014 A 
BRANCH  36  37
ATOM     37  C   UNL A   1      40.006  28.929  29.097  1.00  0.00     0.031 A 
ATOM     38  C   UNL A   1      40.942  29.952  29.682  1.00  0.00     0.074 A 
ATOM     39  C   UNL A   1      40.472  27.712  28.746  1.00  0.00     0.049 A 
ATOM     40  N   UNL A   1      42.225  29.854  29.926  1.00  0.00    -0.248 NA
ATOM     41  C   UNL A   1      40.372  31.269  30.008  1.00  0.00     0.031 C 
ATOM     42  C   UNL A   1      39.681  26.651  28.117  1.00  0.00     0.029 A 
ATOM     43  N   UNL A   1      41.726  27.162  28.862  1.00  0.00    -0.354 N 
ATOM     44  C   UNL A   1      42.614  31.093  30.423  1.00  0.00     0.074 A 
ATOM     45  C   UNL A   1      41.445  31.945  30.387  1.00  0.00     0.031 C 
ATOM     46  C   UNL A   1      40.460  25.573  27.928  1.00  0.00     0.029 A 
ATOM     47  C   UNL A   1      41.813  25.875  28.384  1.00  0.00     0.049 A 
ATOM     48  H   UNL A   1      42.491  27.645  29.250  1.00  0.00     0.167 HD
ATOM     49  C   UNL A   1      43.825  31.477  30.892  1.00  0.00     0.037 A 
ATOM     50  C   UNL A   1      42.863  25.033  28.313  1.00  0.00     0.037 A 
ATOM     51  C   UNL A   1      44.978  30.617  30.948  1.00  0.00     0.049 A 
ATOM     52  C   UNL A   1      44.200  25.484  28.838  1.00  0.00     0.074 A 
ATOM     53  C   UNL A   1      46.234  30.893  31.460  1.00  0.00     0.029 A 
ATOM     54  N   UNL A   1      45.021  29.313  30.473  1.00  0.00    -0.354 N 
ATOM     55  N   UNL A   1      44.530  26.637  29.370  1.00  0.00    -0.248 NA
ATOM     56  C   UNL A   1      45.305  24.520  28.761  1.00  0.00     0.031 C 
ATOM     57  C   UNL A   1      47.049  29.777  31.249  1.00  0.00     0.029 A 
ATOM     58  C   UNL A   1      46.286  28.782  30.659  1.00  0.00     0.049 A 
ATOM     59  H   UNL A   1      44.262  28.836  30.064  1.00  0.00     0.167 HD
ATOM     60  C   UNL A   1      45.872  26.525  29.719  1.00  0.00     0.074 A 
ATOM     61  C   UNL A   1      46.289  25.188  29.348  1.00  0.00     0.031 C 
ATOM     62  C   UNL A   1      46.686  27.446  30.293  1.00  0.00     0.037 A 
BRANCH  49  63
ATOM     63  C   UNL A   1      43.964  32.891  31.390  1.00  0.00     0.058 A 
ATOM     64  C   UNL A   1      44.168  33.967  30.511  1.00  0.00     0.135 A 
ATOM     65  C   UNL A   1      43.852  33.181  32.760  1.00  0.00     0.135 A 
ATOM     66  F   UNL A   1      44.298  33.748  29.193  1.00  0.00    -0.206 F 
ATOM     67  C   UNL A   1      44.288  35.273  30.974  1.00  0.00     0.059 A 
ATOM     68  C   UNL A   1      43.937  34.484  33.242  1.00  0.00     0.059 A 
ATOM     69  F   UNL A   1      43.657  32.192  33.647  1.00  0.00    -0.206 F 
ATOM     70  C   UNL A   1      44.170  35.522  32.342  1.00  0.00     0.060 A 
BRANCH  70  71
ATOM     71  S   UNL A   1      44.320  37.224  32.923  1.00  0.00     0.124 S 
ATOM     72  O   UNL A   1      44.644  37.926  31.685  1.00  0.00    -0.237 OA
ATOM     73  O   UNL A   1      42.993  37.484  33.471  1.00  0.00    -0.237 OA
ATOM     74  O   UNL A   1      45.399  37.156  33.904  1.00  0.00    -0.744 OA
ENDBRANCH  70  71
ENDBRANCH  49  63
BRANCH  50  75
ATOM     75  C   UNL A   1      42.690  23.669  27.743  1.00  0.00     0.058 A 
ATOM     76  C   UNL A   1      42.783  23.445  26.361  1.00  0.00     0.135 A 
ATOM     77  C   UNL A   1      42.436  22.561  28.566  1.00  0.00     0.135 A 
ATOM     78  F   UNL A   1      43.018  24.473  25.530  1.00  0.00    -0.206 F 
ATOM     79  C   UNL A   1      42.609  22.179  25.812  1.00  0.00     0.059 A 
ATOM     80  C   UNL A   1      42.286  21.279  28.044  1.00  0.00     0.059 A 
ATOM     81  F   UNL A   1      42.354  22.715  29.896  1.00  0.00    -0.206 F 
ATOM     82  C   UNL A   1      42.362  21.100  26.663  1.00  0.00     0.060 A 
BRANCH  82  83
ATOM     83  S   UNL A   1      42.180  19.454  25.944  1.00  0.00     0.124 S 
ATOM     84  O   UNL A   1      40.740  19.387  25.724  1.00  0.00    -0.237 OA
ATOM     85  O   UNL A   1      43.006  19.551  24.744  1.00  0.00    -0.237 OA
ATOM     86  O   UNL A   1      42.702  18.573  26.984  1.00  0.00    -0.744 OA
ENDBRANCH  82  83
ENDBRANCH  50  75
BRANCH  62  87
ATOM     87  C   UNL A   1      48.100  27.030  30.596  1.00  0.00     0.058 A 
ATOM     88  C   UNL A   1      49.141  27.214  29.673  1.00  0.00     0.135 A 
ATOM     89  C   UNL A   1      48.426  26.486  31.850  1.00  0.00     0.135 A 
ATOM     90  F   UNL A   1      48.885  27.725  28.459  1.00  0.00    -0.206 F 
ATOM     91  C   UNL A   1      50.450  26.849  29.971  1.00  0.00     0.059 A 
ATOM     92  C   UNL A   1      49.732  26.142  32.180  1.00  0.00     0.059 A 
ATOM     93  F   UNL A   1      47.471  26.298  32.774  1.00  0.00    -0.206 F 
ATOM     94  C   UNL A   1      50.737  26.316  31.229  1.00  0.00     0.060 A 
BRANCH  94  95
ATOM     95  S   UNL A   1      52.445  25.875  31.614  1.00  0.00     0.124 S 
ATOM     96  O   UNL A   1      52.296  24.501  32.079  1.00  0.00    -0.237 OA
ATOM     97  O   UNL A   1      53.107  26.040  30.324  1.00  0.00    -0.237 OA
ATOM     98  O   UNL A   1      52.825  26.847  32.636  1.00  0.00    -0.744 OA
ENDBRANCH  94  95
ENDBRANCH  62  87
ENDBRANCH  36  37
ENDBRANCH  28  31
ENDBRANCH  26  27
ENDBRANCH  25  26
ENDBRANCH   1  25
TORSDOF 18
ENDMDL
