MODEL 1
REMARK VINA RESULT:     -11.1      0.000      0.000
REMARK SMILES CCOc1cc(/C=C(/F)C(=O)NCCCCNC(=O)c2ccc(-c3c4nc(c(-c5c(F)cc(S(=O)(=O)[O-])cc5F)c5ccc([nH]5)c(-c5c(F)cc(S(=O)(=O)[O-])cc5F)c5nc(c(-c6c(F)cc(S(=O)(=O)[O-])cc6F)c6ccc3[nH]6)C=C5)C=C4)cc2)ccc1O
REMARK SMILES IDX 14 1 13 2 12 3 10 4 11 5 8 7 7 8 9 9 6 10 4 11 5 12 88 13
REMARK SMILES IDX 87 14 86 15 3 16 2 17 1 18 89 19 15 21 16 22 17 23 18 24
REMARK SMILES IDX 19 26 20 27 21 28 85 29 22 30 84 31 23 32 24 33 25 34 78 35
REMARK SMILES IDX 26 36 83 37 77 38 79 39 27 40 82 41 76 42 75 43 28 45 62 46
REMARK SMILES IDX 41 47 61 48 42 49 45 50 60 51 80 52 43 53 44 54 59 56 81 57
REMARK SMILES IDX 46 58 29 59 30 60 39 61 31 62 32 63 38 64 40 65 33 66 34 67
REMARK SMILES IDX 35 68 36 69 37 70 63 71 64 72 73 73 65 74 66 75 72 76 74 77
REMARK SMILES IDX 67 78 68 79 69 80 70 81 71 82 47 83 48 84 57 85 49 86 50 87
REMARK SMILES IDX 56 88 58 89 51 90 52 91 53 92 54 93 55 94
REMARK H PARENT 12 6 89 20 17 25 79 44 45 55
REMARK Flexibility Score: inf
ROOT
ATOM      1  C   UNL A   1      33.130  29.309  24.833  1.00  0.00     0.023 C 
ENDROOT
BRANCH   1   2
ATOM      2  C   UNL A   1      31.609  29.267  24.707  1.00  0.00     0.116 C 
BRANCH   2   3
ATOM      3  N   UNL A   1      31.128  29.538  23.364  1.00  0.00    -0.350 N 
ATOM      4  C   UNL A   1      30.051  29.090  22.658  1.00  0.00     0.280 C 
ATOM      5  O   UNL A   1      29.813  29.666  21.598  1.00  0.00    -0.267 OA
ATOM      6  H   UNL A   1      31.691  30.172  22.864  1.00  0.00     0.163 HD
BRANCH   4   7
ATOM      7  C   UNL A   1      29.210  27.967  23.165  1.00  0.00     0.188 C 
ATOM      8  C   UNL A   1      29.525  26.676  23.357  1.00  0.00     0.053 C 
ATOM      9  F   UNL A   1      27.923  28.291  23.429  1.00  0.00    -0.201 F 
BRANCH   8  10
ATOM     10  C   UNL A   1      30.741  25.857  23.186  1.00  0.00    -0.019 A 
ATOM     11  C   UNL A   1      32.400  24.185  23.822  1.00  0.00     0.161 A 
ATOM     12  C   UNL A   1      31.199  24.865  24.065  1.00  0.00     0.058 A 
ATOM     13  C   UNL A   1      33.106  24.434  22.644  1.00  0.00     0.157 A 
ATOM     14  C   UNL A   1      32.658  25.388  21.745  1.00  0.00     0.051 A 
ATOM     15  C   UNL A   1      31.492  26.100  22.020  1.00  0.00     0.012 A 
BRANCH  11  16
ATOM     16  O   UNL A   1      32.989  23.545  24.879  1.00  0.00    -0.490 OA
BRANCH  16  17
ATOM     17  C   UNL A   1      33.535  24.368  25.908  1.00  0.00     0.226 C 
ATOM     18  C   UNL A   1      35.025  24.551  25.649  1.00  0.00     0.049 C 
ENDBRANCH  16  17
ENDBRANCH  11  16
BRANCH  13  19
ATOM     19  O   UNL A   1      34.260  23.793  22.306  1.00  0.00    -0.504 OA
ATOM     20  H   UNL A   1      34.225  22.982  21.838  1.00  0.00     0.293 HD
ENDBRANCH  13  19
ENDBRANCH   8  10
ENDBRANCH   4   7
ENDBRANCH   2   3
ENDBRANCH   1   2
BRANCH   1  21
ATOM     21  C   UNL A   1      33.748  28.264  25.766  1.00  0.00     0.023 C 
BRANCH  21  22
ATOM     22  C   UNL A   1      33.512  28.468  27.259  1.00  0.00     0.116 C 
BRANCH  22  23
ATOM     23  N   UNL A   1      33.457  29.867  27.656  1.00  0.00    -0.352 N 
ATOM     24  C   UNL A   1      34.454  30.642  28.201  1.00  0.00     0.251 C 
ATOM     25  H   UNL A   1      32.593  30.317  27.515  1.00  0.00     0.163 HD
ATOM     26  O   UNL A   1      34.217  31.794  28.558  1.00  0.00    -0.269 OA
BRANCH  24  27
ATOM     27  C   UNL A   1      35.799  30.062  28.396  1.00  0.00     0.039 A 
ATOM     28  C   UNL A   1      36.696  30.056  27.323  1.00  0.00     0.014 A 
ATOM     29  C   UNL A   1      36.190  29.578  29.646  1.00  0.00     0.014 A 
ATOM     30  C   UNL A   1      38.016  29.644  27.527  1.00  0.00     0.010 A 
ATOM     31  C   UNL A   1      37.520  29.230  29.862  1.00  0.00     0.010 A 
ATOM     32  C   UNL A   1      38.449  29.271  28.810  1.00  0.00    -0.014 A 
BRANCH  32  33
ATOM     33  C   UNL A   1      39.865  28.920  29.092  1.00  0.00     0.031 A 
ATOM     34  C   UNL A   1      40.803  29.976  29.608  1.00  0.00     0.074 A 
ATOM     35  C   UNL A   1      40.332  27.693  28.782  1.00  0.00     0.049 A 
ATOM     36  N   UNL A   1      42.102  29.936  29.741  1.00  0.00    -0.248 NA
ATOM     37  C   UNL A   1      40.197  31.259  29.999  1.00  0.00     0.031 C 
ATOM     38  C   UNL A   1      39.529  26.590  28.251  1.00  0.00     0.029 A 
ATOM     39  N   UNL A   1      41.603  27.177  28.845  1.00  0.00    -0.354 N 
ATOM     40  C   UNL A   1      42.474  31.193  30.200  1.00  0.00     0.074 A 
ATOM     41  C   UNL A   1      41.266  31.985  30.289  1.00  0.00     0.031 C 
ATOM     42  C   UNL A   1      40.324  25.529  28.038  1.00  0.00     0.029 A 
ATOM     43  C   UNL A   1      41.699  25.887  28.371  1.00  0.00     0.049 A 
ATOM     44  H   UNL A   1      42.372  27.680  29.195  1.00  0.00     0.167 HD
ATOM     45  C   UNL A   1      43.708  31.642  30.530  1.00  0.00     0.037 A 
ATOM     46  C   UNL A   1      42.776  25.095  28.202  1.00  0.00     0.037 A 
ATOM     47  C   UNL A   1      44.900  30.837  30.471  1.00  0.00     0.049 A 
ATOM     48  C   UNL A   1      44.139  25.616  28.569  1.00  0.00     0.074 A 
ATOM     49  C   UNL A   1      46.190  31.184  30.834  1.00  0.00     0.029 A 
ATOM     50  N   UNL A   1      44.947  29.525  30.024  1.00  0.00    -0.354 N 
ATOM     51  N   UNL A   1      44.469  26.796  29.038  1.00  0.00    -0.248 NA
ATOM     52  C   UNL A   1      45.277  24.705  28.384  1.00  0.00     0.031 C 
ATOM     53  C   UNL A   1      47.023  30.092  30.574  1.00  0.00     0.029 A 
ATOM     54  C   UNL A   1      46.246  29.051  30.091  1.00  0.00     0.049 A 
ATOM     55  H   UNL A   1      44.172  29.008  29.708  1.00  0.00     0.167 HD
ATOM     56  C   UNL A   1      45.845  26.756  29.237  1.00  0.00     0.074 A 
ATOM     57  C   UNL A   1      46.287  25.437  28.835  1.00  0.00     0.031 C 
ATOM     58  C   UNL A   1      46.665  27.725  29.713  1.00  0.00     0.037 A 
BRANCH  45  59
ATOM     59  C   UNL A   1      43.832  33.069  30.985  1.00  0.00     0.058 A 
ATOM     60  C   UNL A   1      43.804  33.414  32.346  1.00  0.00     0.135 A 
ATOM     61  C   UNL A   1      44.011  34.103  30.052  1.00  0.00     0.135 A 
ATOM     62  F   UNL A   1      43.620  32.467  33.280  1.00  0.00    -0.206 F 
ATOM     63  C   UNL A   1      43.916  34.736  32.764  1.00  0.00     0.059 A 
ATOM     64  C   UNL A   1      44.154  35.429  30.448  1.00  0.00     0.059 A 
ATOM     65  F   UNL A   1      44.047  33.829  28.738  1.00  0.00    -0.206 F 
ATOM     66  C   UNL A   1      44.088  35.737  31.806  1.00  0.00     0.060 A 
BRANCH  66  67
ATOM     67  S   UNL A   1      44.230  37.447  32.364  1.00  0.00     0.124 S 
ATOM     68  O   UNL A   1      45.618  37.490  32.817  1.00  0.00    -0.237 OA
ATOM     69  O   UNL A   1      43.939  38.200  31.148  1.00  0.00    -0.237 OA
ATOM     70  O   UNL A   1      43.224  37.547  33.416  1.00  0.00    -0.744 OA
ENDBRANCH  66  67
ENDBRANCH  45  59
BRANCH  46  71
ATOM     71  C   UNL A   1      42.608  23.718  27.663  1.00  0.00     0.058 A 
ATOM     72  C   UNL A   1      42.516  22.616  28.527  1.00  0.00     0.135 A 
ATOM     73  C   UNL A   1      42.523  23.476  26.283  1.00  0.00     0.135 A 
ATOM     74  F   UNL A   1      42.599  22.795  29.853  1.00  0.00    -0.206 F 
ATOM     75  C   UNL A   1      42.359  21.321  28.041  1.00  0.00     0.059 A 
ATOM     76  C   UNL A   1      42.342  22.193  25.776  1.00  0.00     0.059 A 
ATOM     77  F   UNL A   1      42.590  24.498  25.416  1.00  0.00    -0.206 F 
ATOM     78  C   UNL A   1      42.271  21.120  26.663  1.00  0.00     0.060 A 
BRANCH  78  79
ATOM     79  S   UNL A   1      42.018  19.441  26.047  1.00  0.00     0.124 S 
ATOM     80  O   UNL A   1      42.872  19.431  24.866  1.00  0.00    -0.237 OA
ATOM     81  O   UNL A   1      42.472  18.630  27.171  1.00  0.00    -0.237 OA
ATOM     82  O   UNL A   1      40.581  19.393  25.789  1.00  0.00    -0.744 OA
ENDBRANCH  78  79
ENDBRANCH  46  71
BRANCH  58  83
ATOM     83  C   UNL A   1      48.121  27.392  29.883  1.00  0.00     0.058 A 
ATOM     84  C   UNL A   1      49.064  27.677  28.886  1.00  0.00     0.135 A 
ATOM     85  C   UNL A   1      48.587  26.881  31.106  1.00  0.00     0.135 A 
ATOM     86  F   UNL A   1      48.667  28.158  27.698  1.00  0.00    -0.206 F 
ATOM     87  C   UNL A   1      50.424  27.470  29.096  1.00  0.00     0.059 A 
ATOM     88  C   UNL A   1      49.943  26.686  31.345  1.00  0.00     0.059 A 
ATOM     89  F   UNL A   1      47.723  26.598  32.094  1.00  0.00    -0.206 F 
ATOM     90  C   UNL A   1      50.854  26.984  30.333  1.00  0.00     0.060 A 
BRANCH  90  91
ATOM     91  S   UNL A   1      52.628  26.799  30.621  1.00  0.00     0.124 S 
ATOM     92  O   UNL A   1      53.137  26.688  29.259  1.00  0.00    -0.237 OA
ATOM     93  O   UNL A   1      52.960  28.036  31.323  1.00  0.00    -0.237 OA
ATOM     94  O   UNL A   1      52.716  25.586  31.427  1.00  0.00    -0.744 OA
ENDBRANCH  90  91
ENDBRANCH  58  83
ENDBRANCH  32  33
ENDBRANCH  24  27
ENDBRANCH  22  23
ENDBRANCH  21  22
ENDBRANCH   1  21
TORSDOF 18
ENDMDL
MODEL 2
REMARK VINA RESULT:     -10.9      1.800      2.500
REMARK SMILES CCOc1cc(/C=C(/F)C(=O)NCCCCNC(=O)c2ccc(-c3c4nc(c(-c5c(F)cc(S(=O)(=O)[O-])cc5F)c5ccc([nH]5)c(-c5c(F)cc(S(=O)(=O)[O-])cc5F)c5nc(c(-c6c(F)cc(S(=O)(=O)[O-])cc6F)c6ccc3[nH]6)C=C5)C=C4)cc2)ccc1O
REMARK SMILES IDX 14 1 13 2 12 3 10 4 11 5 8 7 7 8 9 9 6 10 4 11 5 12 88 13
REMARK SMILES IDX 87 14 86 15 3 16 2 17 1 18 89 19 15 21 16 22 17 23 18 24
REMARK SMILES IDX 19 26 20 27 21 28 85 29 22 30 84 31 23 32 24 33 25 34 78 35
REMARK SMILES IDX 26 36 83 37 77 38 79 39 27 40 82 41 76 42 75 43 28 45 62 46
REMARK SMILES IDX 41 47 61 48 42 49 45 50 60 51 80 52 43 53 44 54 59 56 81 57
REMARK SMILES IDX 46 58 29 59 30 60 39 61 31 62 32 63 38 64 40 65 33 66 34 67
REMARK SMILES IDX 35 68 36 69 37 70 63 71 64 72 73 73 65 74 66 75 72 76 74 77
REMARK SMILES IDX 67 78 68 79 69 80 70 81 71 82 47 83 48 84 57 85 49 86 50 87
REMARK SMILES IDX 56 88 58 89 51 90 52 91 53 92 54 93 55 94
REMARK H PARENT 12 6 89 20 17 25 79 44 45 55
REMARK Flexibility Score: inf
ROOT
ATOM      1  C   UNL A   1      33.527  26.969  25.191  1.00  0.00     0.023 C 
ENDROOT
BRANCH   1   2
ATOM      2  C   UNL A   1      32.758  27.001  23.873  1.00  0.00     0.116 C 
BRANCH   2   3
ATOM      3  N   UNL A   1      33.225  26.028  22.902  1.00  0.00    -0.350 N 
ATOM      4  C   UNL A   1      32.731  24.830  22.481  1.00  0.00     0.280 C 
ATOM      5  O   UNL A   1      33.268  24.333  21.492  1.00  0.00    -0.267 OA
ATOM      6  H   UNL A   1      34.066  26.285  22.460  1.00  0.00     0.163 HD
BRANCH   4   7
ATOM      7  C   UNL A   1      31.590  24.176  23.185  1.00  0.00     0.188 C 
ATOM      8  C   UNL A   1      31.536  22.994  23.821  1.00  0.00     0.053 C 
ATOM      9  F   UNL A   1      30.422  24.857  23.136  1.00  0.00    -0.201 F 
BRANCH   8  10
ATOM     10  C   UNL A   1      32.498  21.910  24.102  1.00  0.00    -0.019 A 
ATOM     11  C   UNL A   1      33.303  19.607  24.132  1.00  0.00     0.161 A 
ATOM     12  C   UNL A   1      32.339  20.558  23.767  1.00  0.00     0.058 A 
ATOM     13  C   UNL A   1      34.478  20.024  24.759  1.00  0.00     0.157 A 
ATOM     14  C   UNL A   1      34.671  21.358  25.074  1.00  0.00     0.051 A 
ATOM     15  C   UNL A   1      33.685  22.291  24.758  1.00  0.00     0.012 A 
BRANCH  11  16
ATOM     16  O   UNL A   1      32.919  18.293  24.145  1.00  0.00    -0.490 OA
BRANCH  16  17
ATOM     17  C   UNL A   1      32.562  17.738  25.409  1.00  0.00     0.226 C 
ATOM     18  C   UNL A   1      33.357  16.457  25.624  1.00  0.00     0.049 C 
ENDBRANCH  16  17
ENDBRANCH  11  16
BRANCH  13  19
ATOM     19  O   UNL A   1      35.484  19.176  25.115  1.00  0.00    -0.504 OA
ATOM     20  H   UNL A   1      36.260  19.514  25.516  1.00  0.00     0.293 HD
ENDBRANCH  13  19
ENDBRANCH   8  10
ENDBRANCH   4   7
ENDBRANCH   2   3
ENDBRANCH   1   2
BRANCH   1  21
ATOM     21  C   UNL A   1      33.865  28.334  25.796  1.00  0.00     0.023 C 
BRANCH  21  22
ATOM     22  C   UNL A   1      33.558  28.511  27.280  1.00  0.00     0.116 C 
BRANCH  22  23
ATOM     23  N   UNL A   1      33.511  29.902  27.704  1.00  0.00    -0.352 N 
ATOM     24  C   UNL A   1      34.515  30.662  28.260  1.00  0.00     0.251 C 
ATOM     25  H   UNL A   1      32.649  30.359  27.577  1.00  0.00     0.163 HD
ATOM     26  O   UNL A   1      34.285  31.808  28.641  1.00  0.00    -0.269 OA
BRANCH  24  27
ATOM     27  C   UNL A   1      35.858  30.071  28.436  1.00  0.00     0.039 A 
ATOM     28  C   UNL A   1      36.746  30.074  27.356  1.00  0.00     0.014 A 
ATOM     29  C   UNL A   1      36.257  29.570  29.677  1.00  0.00     0.014 A 
ATOM     30  C   UNL A   1      38.065  29.652  27.544  1.00  0.00     0.010 A 
ATOM     31  C   UNL A   1      37.586  29.212  29.878  1.00  0.00     0.010 A 
ATOM     32  C   UNL A   1      38.507  29.260  28.818  1.00  0.00    -0.014 A 
BRANCH  32  33
ATOM     33  C   UNL A   1      39.923  28.898  29.084  1.00  0.00     0.031 A 
ATOM     34  C   UNL A   1      40.879  29.949  29.577  1.00  0.00     0.074 A 
ATOM     35  C   UNL A   1      40.373  27.664  28.779  1.00  0.00     0.049 A 
ATOM     36  N   UNL A   1      42.179  29.897  29.692  1.00  0.00    -0.248 NA
ATOM     37  C   UNL A   1      40.291  31.243  29.963  1.00  0.00     0.031 C 
ATOM     38  C   UNL A   1      39.552  26.563  28.270  1.00  0.00     0.029 A 
ATOM     39  N   UNL A   1      41.640  27.135  28.829  1.00  0.00    -0.354 N 
ATOM     40  C   UNL A   1      42.570  31.156  30.133  1.00  0.00     0.074 A 
ATOM     41  C   UNL A   1      41.371  31.960  30.231  1.00  0.00     0.031 C 
ATOM     42  C   UNL A   1      40.334  25.492  28.056  1.00  0.00     0.029 A 
ATOM     43  C   UNL A   1      41.717  25.841  28.367  1.00  0.00     0.049 A 
ATOM     44  H   UNL A   1      42.419  27.634  29.164  1.00  0.00     0.167 HD
ATOM     45  C   UNL A   1      43.813  31.596  30.442  1.00  0.00     0.037 A 
ATOM     46  C   UNL A   1      42.783  25.035  28.190  1.00  0.00     0.037 A 
ATOM     47  C   UNL A   1      44.995  30.778  30.374  1.00  0.00     0.049 A 
ATOM     48  C   UNL A   1      44.157  25.547  28.534  1.00  0.00     0.074 A 
ATOM     49  C   UNL A   1      46.293  31.115  30.716  1.00  0.00     0.029 A 
ATOM     50  N   UNL A   1      45.024  29.461  29.939  1.00  0.00    -0.354 N 
ATOM     51  N   UNL A   1      44.504  26.728  28.987  1.00  0.00    -0.248 NA
ATOM     52  C   UNL A   1      45.283  24.622  28.341  1.00  0.00     0.031 C 
ATOM     53  C   UNL A   1      47.112  30.013  30.454  1.00  0.00     0.029 A 
ATOM     54  C   UNL A   1      46.318  28.975  29.992  1.00  0.00     0.049 A 
ATOM     55  H   UNL A   1      44.239  28.949  29.639  1.00  0.00     0.167 HD
ATOM     56  C   UNL A   1      45.883  26.676  29.167  1.00  0.00     0.074 A 
ATOM     57  C   UNL A   1      46.306  25.349  28.771  1.00  0.00     0.031 C 
ATOM     58  C   UNL A   1      46.719  27.641  29.622  1.00  0.00     0.037 A 
BRANCH  45  59
ATOM     59  C   UNL A   1      43.957  33.025  30.881  1.00  0.00     0.058 A 
ATOM     60  C   UNL A   1      43.867  33.394  32.233  1.00  0.00     0.135 A 
ATOM     61  C   UNL A   1      44.218  34.037  29.943  1.00  0.00     0.135 A 
ATOM     62  F   UNL A   1      43.603  32.468  33.170  1.00  0.00    -0.206 F 
ATOM     63  C   UNL A   1      43.998  34.718  32.636  1.00  0.00     0.059 A 
ATOM     64  C   UNL A   1      44.381  35.365  30.327  1.00  0.00     0.059 A 
ATOM     65  F   UNL A   1      44.316  33.741  28.638  1.00  0.00    -0.206 F 
ATOM     66  C   UNL A   1      44.253  35.697  31.675  1.00  0.00     0.060 A 
BRANCH  66  67
ATOM     67  S   UNL A   1      44.419  37.412  32.214  1.00  0.00     0.124 S 
ATOM     68  O   UNL A   1      45.862  37.514  32.413  1.00  0.00    -0.237 OA
ATOM     69  O   UNL A   1      43.883  38.152  31.075  1.00  0.00    -0.237 OA
ATOM     70  O   UNL A   1      43.612  37.466  33.428  1.00  0.00    -0.744 OA
ENDBRANCH  66  67
ENDBRANCH  45  59
BRANCH  46  71
ATOM     71  C   UNL A   1      42.595  23.655  27.668  1.00  0.00     0.058 A 
ATOM     72  C   UNL A   1      42.538  23.412  26.287  1.00  0.00     0.135 A 
ATOM     73  C   UNL A   1      42.483  22.554  28.530  1.00  0.00     0.135 A 
ATOM     74  F   UNL A   1      42.632  24.433  25.423  1.00  0.00    -0.206 F 
ATOM     75  C   UNL A   1      42.362  22.128  25.779  1.00  0.00     0.059 A 
ATOM     76  C   UNL A   1      42.331  21.258  28.045  1.00  0.00     0.059 A 
ATOM     77  F   UNL A   1      42.547  22.731  29.859  1.00  0.00    -0.206 F 
ATOM     78  C   UNL A   1      42.261  21.057  26.668  1.00  0.00     0.060 A 
BRANCH  78  79
ATOM     79  S   UNL A   1      42.083  19.389  25.997  1.00  0.00     0.124 S 
ATOM     80  O   UNL A   1      42.930  19.457  24.813  1.00  0.00    -0.237 OA
ATOM     81  O   UNL A   1      42.579  18.563  27.092  1.00  0.00    -0.237 OA
ATOM     82  O   UNL A   1      40.649  19.283  25.742  1.00  0.00    -0.744 OA
ENDBRANCH  78  79
ENDBRANCH  46  71
BRANCH  58  83
ATOM     83  C   UNL A   1      48.174  27.295  29.775  1.00  0.00     0.058 A 
ATOM     84  C   UNL A   1      49.105  27.557  28.760  1.00  0.00     0.135 A 
ATOM     85  C   UNL A   1      48.652  26.795  30.997  1.00  0.00     0.135 A 
ATOM     86  F   UNL A   1      48.695  28.026  27.571  1.00  0.00    -0.206 F 
ATOM     87  C   UNL A   1      50.465  27.338  28.953  1.00  0.00     0.059 A 
ATOM     88  C   UNL A   1      50.010  26.590  31.219  1.00  0.00     0.059 A 
ATOM     89  F   UNL A   1      47.801  26.535  32.001  1.00  0.00    -0.206 F 
ATOM     90  C   UNL A   1      50.909  26.865  30.189  1.00  0.00     0.060 A 
BRANCH  90  91
ATOM     91  S   UNL A   1      52.685  26.665  30.454  1.00  0.00     0.124 S 
ATOM     92  O   UNL A   1      53.053  27.975  30.980  1.00  0.00    -0.237 OA
ATOM     93  O   UNL A   1      52.735  25.562  31.409  1.00  0.00    -0.237 OA
ATOM     94  O   UNL A   1      53.194  26.357  29.121  1.00  0.00    -0.744 OA
ENDBRANCH  90  91
ENDBRANCH  58  83
ENDBRANCH  32  33
ENDBRANCH  24  27
ENDBRANCH  22  23
ENDBRANCH  21  22
ENDBRANCH   1  21
TORSDOF 18
ENDMDL
MODEL 3
REMARK VINA RESULT:     -10.6      5.774     10.249
REMARK SMILES CCOc1cc(/C=C(/F)C(=O)NCCCCNC(=O)c2ccc(-c3c4nc(c(-c5c(F)cc(S(=O)(=O)[O-])cc5F)c5ccc([nH]5)c(-c5c(F)cc(S(=O)(=O)[O-])cc5F)c5nc(c(-c6c(F)cc(S(=O)(=O)[O-])cc6F)c6ccc3[nH]6)C=C5)C=C4)cc2)ccc1O
REMARK SMILES IDX 14 1 13 2 12 3 10 4 11 5 8 7 7 8 9 9 6 10 4 11 5 12 88 13
REMARK SMILES IDX 87 14 86 15 3 16 2 17 1 18 89 19 15 21 16 22 17 23 18 24
REMARK SMILES IDX 19 26 20 27 21 28 85 29 22 30 84 31 23 32 24 33 25 34 78 35
REMARK SMILES IDX 26 36 83 37 77 38 79 39 27 40 82 41 76 42 75 43 28 45 62 46
REMARK SMILES IDX 41 47 61 48 42 49 45 50 60 51 80 52 43 53 44 54 59 56 81 57
REMARK SMILES IDX 46 58 29 59 30 60 39 61 31 62 32 63 38 64 40 65 33 66 34 67
REMARK SMILES IDX 35 68 36 69 37 70 63 71 64 72 73 73 65 74 66 75 72 76 74 77
REMARK SMILES IDX 67 78 68 79 69 80 70 81 71 82 47 83 48 84 57 85 49 86 50 87
REMARK SMILES IDX 56 88 58 89 51 90 52 91 53 92 54 93 55 94
REMARK H PARENT 12 6 89 20 17 25 79 44 45 55
REMARK Flexibility Score: inf
ROOT
ATOM      1  C   UNL A   1      38.448  21.783  25.748  1.00  0.00     0.023 C 
ENDROOT
BRANCH   1   2
ATOM      2  C   UNL A   1      37.529  22.992  25.596  1.00  0.00     0.116 C 
BRANCH   2   3
ATOM      3  N   UNL A   1      36.835  23.040  24.323  1.00  0.00    -0.350 N 
ATOM      4  C   UNL A   1      35.518  23.168  23.990  1.00  0.00     0.280 C 
ATOM      5  O   UNL A   1      35.271  23.372  22.803  1.00  0.00    -0.267 OA
ATOM      6  H   UNL A   1      37.432  22.967  23.544  1.00  0.00     0.163 HD
BRANCH   4   7
ATOM      7  C   UNL A   1      34.449  23.075  25.026  1.00  0.00     0.188 C 
ATOM      8  C   UNL A   1      33.479  22.159  25.180  1.00  0.00     0.053 C 
ATOM      9  F   UNL A   1      34.427  24.093  25.917  1.00  0.00    -0.201 F 
BRANCH   8  10
ATOM     10  C   UNL A   1      33.076  20.929  24.471  1.00  0.00    -0.019 A 
ATOM     11  C   UNL A   1      32.834  18.521  24.164  1.00  0.00     0.161 A 
ATOM     12  C   UNL A   1      33.208  19.619  24.952  1.00  0.00     0.058 A 
ATOM     13  C   UNL A   1      32.242  18.737  22.919  1.00  0.00     0.157 A 
ATOM     14  C   UNL A   1      32.075  20.024  22.435  1.00  0.00     0.051 A 
ATOM     15  C   UNL A   1      32.498  21.109  23.199  1.00  0.00     0.012 A 
BRANCH  11  16
ATOM     16  O   UNL A   1      33.346  17.298  24.502  1.00  0.00    -0.490 OA
BRANCH  16  17
ATOM     17  C   UNL A   1      34.766  17.192  24.584  1.00  0.00     0.226 C 
ATOM     18  C   UNL A   1      35.123  15.846  25.201  1.00  0.00     0.049 C 
ENDBRANCH  16  17
ENDBRANCH  11  16
BRANCH  13  19
ATOM     19  O   UNL A   1      31.813  17.733  22.103  1.00  0.00    -0.504 OA
ATOM     20  H   UNL A   1      31.026  17.838  21.606  1.00  0.00     0.293 HD
ENDBRANCH  13  19
ENDBRANCH   8  10
ENDBRANCH   4   7
ENDBRANCH   2   3
ENDBRANCH   1   2
BRANCH   1  21
ATOM     21  C   UNL A   1      39.711  22.009  26.582  1.00  0.00     0.023 C 
BRANCH  21  22
ATOM     22  C   UNL A   1      39.960  23.437  27.059  1.00  0.00     0.116 C 
BRANCH  22  23
ATOM     23  N   UNL A   1      40.507  24.309  26.032  1.00  0.00    -0.352 N 
ATOM     24  C   UNL A   1      40.925  25.614  26.150  1.00  0.00     0.251 C 
ATOM     25  H   UNL A   1      40.589  23.912  25.134  1.00  0.00     0.163 HD
ATOM     26  O   UNL A   1      41.290  26.240  25.157  1.00  0.00    -0.269 OA
BRANCH  24  27
ATOM     27  C   UNL A   1      40.890  26.270  27.474  1.00  0.00     0.039 A 
ATOM     28  C   UNL A   1      41.929  27.134  27.830  1.00  0.00     0.014 A 
ATOM     29  C   UNL A   1      39.807  26.074  28.334  1.00  0.00     0.014 A 
ATOM     30  C   UNL A   1      41.840  27.871  29.014  1.00  0.00     0.010 A 
ATOM     31  C   UNL A   1      39.690  26.856  29.479  1.00  0.00     0.010 A 
ATOM     32  C   UNL A   1      40.698  27.771  29.825  1.00  0.00    -0.014 A 
BRANCH  32  33
ATOM     33  C   UNL A   1      40.519  28.608  31.040  1.00  0.00     0.031 A 
ATOM     34  C   UNL A   1      39.501  29.714  31.036  1.00  0.00     0.074 A 
ATOM     35  C   UNL A   1      41.340  28.447  32.098  1.00  0.00     0.049 A 
ATOM     36  N   UNL A   1      39.314  30.670  31.907  1.00  0.00    -0.248 NA
ATOM     37  C   UNL A   1      38.592  29.767  29.879  1.00  0.00     0.031 C 
ATOM     38  C   UNL A   1      42.384  27.427  32.213  1.00  0.00     0.029 A 
ATOM     39  N   UNL A   1      41.442  29.159  33.268  1.00  0.00    -0.354 N 
ATOM     40  C   UNL A   1      38.290  31.455  31.391  1.00  0.00     0.074 A 
ATOM     41  C   UNL A   1      37.920  30.884  30.115  1.00  0.00     0.031 C 
ATOM     42  C   UNL A   1      43.019  27.577  33.387  1.00  0.00     0.029 A 
ATOM     43  C   UNL A   1      42.461  28.730  34.088  1.00  0.00     0.049 A 
ATOM     44  H   UNL A   1      40.843  29.904  33.499  1.00  0.00     0.167 HD
ATOM     45  C   UNL A   1      37.701  32.545  31.940  1.00  0.00     0.037 A 
ATOM     46  C   UNL A   1      42.911  29.226  35.258  1.00  0.00     0.037 A 
ATOM     47  C   UNL A   1      38.052  33.086  33.226  1.00  0.00     0.049 A 
ATOM     48  C   UNL A   1      42.247  30.442  35.846  1.00  0.00     0.074 A 
ATOM     49  C   UNL A   1      37.481  34.156  33.893  1.00  0.00     0.029 A 
ATOM     50  N   UNL A   1      39.063  32.599  34.042  1.00  0.00    -0.354 N 
ATOM     51  N   UNL A   1      41.254  31.150  35.364  1.00  0.00    -0.248 NA
ATOM     52  C   UNL A   1      42.763  30.930  37.134  1.00  0.00     0.031 C 
ATOM     53  C   UNL A   1      38.168  34.337  35.096  1.00  0.00     0.029 A 
ATOM     54  C   UNL A   1      39.139  33.353  35.200  1.00  0.00     0.049 A 
ATOM     55  H   UNL A   1      39.639  31.830  33.829  1.00  0.00     0.167 HD
ATOM     56  C   UNL A   1      41.003  32.144  36.305  1.00  0.00     0.074 A 
ATOM     57  C   UNL A   1      41.950  31.948  37.383  1.00  0.00     0.031 C 
ATOM     58  C   UNL A   1      40.070  33.127  36.277  1.00  0.00     0.037 A 
BRANCH  45  59
ATOM     59  C   UNL A   1      36.618  33.223  31.150  1.00  0.00     0.058 A 
ATOM     60  C   UNL A   1      36.910  34.011  30.025  1.00  0.00     0.135 A 
ATOM     61  C   UNL A   1      35.269  33.059  31.502  1.00  0.00     0.135 A 
ATOM     62  F   UNL A   1      38.184  34.213  29.653  1.00  0.00    -0.206 F 
ATOM     63  C   UNL A   1      35.905  34.640  29.298  1.00  0.00     0.059 A 
ATOM     64  C   UNL A   1      34.245  33.655  30.772  1.00  0.00     0.059 A 
ATOM     65  F   UNL A   1      34.933  32.315  32.568  1.00  0.00    -0.206 F 
ATOM     66  C   UNL A   1      34.575  34.458  29.681  1.00  0.00     0.060 A 
BRANCH  66  67
ATOM     67  S   UNL A   1      33.283  35.281  28.727  1.00  0.00     0.124 S 
ATOM     68  O   UNL A   1      32.629  34.145  28.083  1.00  0.00    -0.237 OA
ATOM     69  O   UNL A   1      32.506  35.952  29.765  1.00  0.00    -0.237 OA
ATOM     70  O   UNL A   1      34.028  36.164  27.837  1.00  0.00    -0.744 OA
ENDBRANCH  66  67
ENDBRANCH  45  59
BRANCH  46  71
ATOM     71  C   UNL A   1      44.047  28.567  35.957  1.00  0.00     0.058 A 
ATOM     72  C   UNL A   1      45.364  29.014  35.767  1.00  0.00     0.135 A 
ATOM     73  C   UNL A   1      43.843  27.492  36.837  1.00  0.00     0.135 A 
ATOM     74  F   UNL A   1      45.610  30.033  34.930  1.00  0.00    -0.206 F 
ATOM     75  C   UNL A   1      46.439  28.410  36.411  1.00  0.00     0.059 A 
ATOM     76  C   UNL A   1      44.900  26.889  37.511  1.00  0.00     0.059 A 
ATOM     77  F   UNL A   1      42.601  27.037  37.065  1.00  0.00    -0.206 F 
ATOM     78  C   UNL A   1      46.196  27.349  37.284  1.00  0.00     0.060 A 
BRANCH  78  79
ATOM     79  S   UNL A   1      47.594  26.605  38.153  1.00  0.00     0.124 S 
ATOM     80  O   UNL A   1      47.929  25.493  37.273  1.00  0.00    -0.237 OA
ATOM     81  O   UNL A   1      48.553  27.704  38.189  1.00  0.00    -0.237 OA
ATOM     82  O   UNL A   1      47.026  26.238  39.447  1.00  0.00    -0.744 OA
ENDBRANCH  78  79
ENDBRANCH  46  71
BRANCH  58  83
ATOM     83  C   UNL A   1      39.978  34.042  37.466  1.00  0.00     0.058 A 
ATOM     84  C   UNL A   1      40.645  35.274  37.501  1.00  0.00     0.135 A 
ATOM     85  C   UNL A   1      39.122  33.723  38.533  1.00  0.00     0.135 A 
ATOM     86  F   UNL A   1      41.480  35.620  36.509  1.00  0.00    -0.206 F 
ATOM     87  C   UNL A   1      40.464  36.165  38.555  1.00  0.00     0.059 A 
ATOM     88  C   UNL A   1      38.910  34.608  39.586  1.00  0.00     0.059 A 
ATOM     89  F   UNL A   1      38.457  32.558  38.542  1.00  0.00    -0.206 F 
ATOM     90  C   UNL A   1      39.586  35.826  39.587  1.00  0.00     0.060 A 
BRANCH  90  91
ATOM     91  S   UNL A   1      39.297  37.026  40.906  1.00  0.00     0.124 S 
ATOM     92  O   UNL A   1      38.598  36.214  41.895  1.00  0.00    -0.237 OA
ATOM     93  O   UNL A   1      40.654  37.431  41.263  1.00  0.00    -0.237 OA
ATOM     94  O   UNL A   1      38.493  38.057  40.257  1.00  0.00    -0.744 OA
ENDBRANCH  90  91
ENDBRANCH  58  83
ENDBRANCH  32  33
ENDBRANCH  24  27
ENDBRANCH  22  23
ENDBRANCH  21  22
ENDBRANCH   1  21
TORSDOF 18
ENDMDL
