MODEL 1
REMARK VINA RESULT:     -11.6      0.000      0.000
REMARK SMILES O=C(/C=C/C(=O)Nc1ccccn1)NCCCCNC(=O)c1ccc(-c2c3nc(c(-c4c(F)cc(S(=O)(=O)[O-])cc4F)c4ccc([nH]4)c(-c4c(F)cc(S(=O)(=O)[O-])cc4F)c4nc(c(-c5c(F)cc(S(=O)(=O)[O-])cc5F)c5ccc2[nH]5)C=C4)C=C3)cc1
REMARK SMILES IDX 17 1 16 2 15 3 14 4 1 5 2 6 3 8 4 9 5 10 6 11 7 12 8 14 9 15
REMARK SMILES IDX 13 16 10 17 12 18 11 19 18 20 19 21 20 22 21 24 22 25 23 26
REMARK SMILES IDX 87 27 24 28 86 29 25 30 26 31 27 32 80 33 28 34 85 35 79 36
REMARK SMILES IDX 81 37 29 38 84 39 78 40 77 41 30 43 64 44 43 45 63 46 44 47
REMARK SMILES IDX 47 48 62 49 82 50 45 51 46 52 61 54 83 55 48 56 31 57 32 58
REMARK SMILES IDX 41 59 33 60 34 61 40 62 42 63 35 64 36 65 37 66 38 67 39 68
REMARK SMILES IDX 65 69 66 70 75 71 67 72 68 73 74 74 76 75 69 76 70 77 71 78
REMARK SMILES IDX 72 79 73 80 49 81 50 82 59 83 51 84 52 85 58 86 60 87 53 88
REMARK SMILES IDX 54 89 55 90 56 91 57 92
REMARK H PARENT 14 7 7 13 19 23 81 42 47 53
REMARK Flexibility Score: inf
ROOT
ATOM      1  C   UNL A   1      36.029  33.413  28.457  1.00  0.00     0.023 C 
ENDROOT
BRANCH   1   2
ATOM      2  C   UNL A   1      34.934  34.232  27.767  1.00  0.00     0.023 C 
BRANCH   2   3
ATOM      3  C   UNL A   1      33.523  33.949  28.282  1.00  0.00     0.116 C 
BRANCH   3   4
ATOM      4  N   UNL A   1      33.366  34.403  29.648  1.00  0.00    -0.353 N 
ATOM      5  O   UNL A   1      32.437  36.426  29.087  1.00  0.00    -0.270 OA
ATOM      6  C   UNL A   1      32.877  35.647  29.926  1.00  0.00     0.244 C 
ATOM      7  H   UNL A   1      33.618  33.805  30.388  1.00  0.00     0.163 HD
BRANCH   6   8
ATOM      8  C   UNL A   1      32.947  36.067  31.338  1.00  0.00     0.077 C 
ATOM      9  C   UNL A   1      34.080  36.232  32.039  1.00  0.00     0.077 C 
BRANCH   9  10
ATOM     10  C   UNL A   1      34.019  36.471  33.503  1.00  0.00     0.249 C 
ATOM     11  O   UNL A   1      33.556  37.534  33.909  1.00  0.00    -0.270 OA
ATOM     12  N   UNL A   1      34.423  35.494  34.369  1.00  0.00    -0.307 N 
ATOM     13  H   UNL A   1      34.168  35.639  35.310  1.00  0.00     0.171 HD
BRANCH  12  14
ATOM     14  C   UNL A   1      35.138  34.322  34.123  1.00  0.00     0.132 A 
ATOM     15  C   UNL A   1      36.438  34.131  34.582  1.00  0.00     0.047 A 
ATOM     16  N   UNL A   1      34.508  33.432  33.335  1.00  0.00    -0.239 NA
ATOM     17  C   UNL A   1      37.172  33.058  34.089  1.00  0.00     0.005 A 
ATOM     18  C   UNL A   1      35.246  32.404  32.862  1.00  0.00     0.113 A 
ATOM     19  C   UNL A   1      36.576  32.191  33.186  1.00  0.00     0.020 A 
ENDBRANCH  12  14
ENDBRANCH   9  10
ENDBRANCH   6   8
ENDBRANCH   3   4
ENDBRANCH   2   3
ENDBRANCH   1   2
BRANCH   1  20
ATOM     20  C   UNL A   1      35.971  31.912  28.196  1.00  0.00     0.116 C 
BRANCH  20  21
ATOM     21  N   UNL A   1      35.632  31.152  29.387  1.00  0.00    -0.352 N 
ATOM     22  C   UNL A   1      36.372  30.196  30.040  1.00  0.00     0.251 C 
ATOM     23  H   UNL A   1      34.750  31.348  29.780  1.00  0.00     0.163 HD
ATOM     24  O   UNL A   1      35.858  29.532  30.938  1.00  0.00    -0.269 OA
BRANCH  22  25
ATOM     25  C   UNL A   1      37.774  29.949  29.642  1.00  0.00     0.039 A 
ATOM     26  C   UNL A   1      38.767  29.957  30.625  1.00  0.00     0.014 A 
ATOM     27  C   UNL A   1      38.110  29.697  28.308  1.00  0.00     0.014 A 
ATOM     28  C   UNL A   1      40.086  29.649  30.279  1.00  0.00     0.010 A 
ATOM     29  C   UNL A   1      39.407  29.314  27.980  1.00  0.00     0.010 A 
ATOM     30  C   UNL A   1      40.411  29.287  28.961  1.00  0.00    -0.014 A 
BRANCH  30  31
ATOM     31  C   UNL A   1      41.790  28.869  28.594  1.00  0.00     0.031 A 
ATOM     32  C   UNL A   1      42.902  29.882  28.535  1.00  0.00     0.074 A 
ATOM     33  C   UNL A   1      42.030  27.585  28.257  1.00  0.00     0.049 A 
ATOM     34  N   UNL A   1      44.150  29.719  28.180  1.00  0.00    -0.248 NA
ATOM     35  C   UNL A   1      42.558  31.267  28.897  1.00  0.00     0.031 C 
ATOM     36  C   UNL A   1      41.029  26.516  28.231  1.00  0.00     0.029 A 
ATOM     37  N   UNL A   1      43.188  26.961  27.861  1.00  0.00    -0.354 N 
ATOM     38  C   UNL A   1      44.737  30.976  28.263  1.00  0.00     0.074 A 
ATOM     39  C   UNL A   1      43.695  31.903  28.651  1.00  0.00     0.031 C 
ATOM     40  C   UNL A   1      41.620  25.366  27.867  1.00  0.00     0.029 A 
ATOM     41  C   UNL A   1      43.030  25.622  27.589  1.00  0.00     0.049 A 
ATOM     42  H   UNL A   1      44.050  27.429  27.779  1.00  0.00     0.167 HD
ATOM     43  C   UNL A   1      46.030  31.324  28.057  1.00  0.00     0.037 A 
ATOM     44  C   UNL A   1      43.917  24.704  27.156  1.00  0.00     0.037 A 
ATOM     45  C   UNL A   1      47.067  30.392  27.692  1.00  0.00     0.049 A 
ATOM     46  C   UNL A   1      45.344  25.118  26.919  1.00  0.00     0.074 A 
ATOM     47  C   UNL A   1      48.419  30.635  27.522  1.00  0.00     0.029 A 
ATOM     48  N   UNL A   1      46.870  29.044  27.434  1.00  0.00    -0.354 N 
ATOM     49  N   UNL A   1      45.896  26.299  27.071  1.00  0.00    -0.248 NA
ATOM     50  C   UNL A   1      46.271  24.077  26.456  1.00  0.00     0.031 C 
ATOM     51  C   UNL A   1      49.028  29.448  27.105  1.00  0.00     0.029 A 
ATOM     52  C   UNL A   1      48.069  28.448  27.078  1.00  0.00     0.049 A 
ATOM     53  H   UNL A   1      46.004  28.578  27.496  1.00  0.00     0.167 HD
ATOM     54  C   UNL A   1      47.242  26.134  26.755  1.00  0.00     0.074 A 
ATOM     55  C   UNL A   1      47.420  24.738  26.413  1.00  0.00     0.031 C 
ATOM     56  C   UNL A   1      48.237  27.054  26.750  1.00  0.00     0.037 A 
BRANCH  43  57
ATOM     57  C   UNL A   1      46.402  32.775  28.217  1.00  0.00     0.058 A 
ATOM     58  C   UNL A   1      46.882  33.286  29.434  1.00  0.00     0.135 A 
ATOM     59  C   UNL A   1      46.322  33.656  27.126  1.00  0.00     0.135 A 
ATOM     60  F   UNL A   1      46.966  32.494  30.515  1.00  0.00    -0.206 F 
ATOM     61  C   UNL A   1      47.241  34.623  29.572  1.00  0.00     0.059 A 
ATOM     62  C   UNL A   1      46.705  34.990  27.233  1.00  0.00     0.059 A 
ATOM     63  F   UNL A   1      45.871  33.223  25.939  1.00  0.00    -0.206 F 
ATOM     64  C   UNL A   1      47.150  35.468  28.464  1.00  0.00     0.060 A 
BRANCH  64  65
ATOM     65  S   UNL A   1      47.628  37.197  28.659  1.00  0.00     0.124 S 
ATOM     66  O   UNL A   1      49.069  37.127  28.437  1.00  0.00    -0.237 OA
ATOM     67  O   UNL A   1      46.856  37.853  27.609  1.00  0.00    -0.237 OA
ATOM     68  O   UNL A   1      47.219  37.512  30.024  1.00  0.00    -0.744 OA
ENDBRANCH  64  65
ENDBRANCH  43  57
BRANCH  44  69
ATOM     69  C   UNL A   1      43.487  23.296  26.935  1.00  0.00     0.058 A 
ATOM     70  C   UNL A   1      43.258  22.805  25.640  1.00  0.00     0.135 A 
ATOM     71  C   UNL A   1      43.298  22.411  28.010  1.00  0.00     0.135 A 
ATOM     72  F   UNL A   1      43.417  23.612  24.580  1.00  0.00    -0.206 F 
ATOM     73  C   UNL A   1      42.839  21.497  25.419  1.00  0.00     0.059 A 
ATOM     74  C   UNL A   1      42.908  21.091  27.812  1.00  0.00     0.059 A 
ATOM     75  F   UNL A   1      43.519  22.825  29.268  1.00  0.00    -0.206 F 
ATOM     76  C   UNL A   1      42.669  20.646  26.512  1.00  0.00     0.060 A 
BRANCH  76  77
ATOM     77  S   UNL A   1      42.165  18.939  26.209  1.00  0.00     0.124 S 
ATOM     78  O   UNL A   1      42.344  18.341  27.527  1.00  0.00    -0.237 OA
ATOM     79  O   UNL A   1      40.785  19.103  25.763  1.00  0.00    -0.237 OA
ATOM     80  O   UNL A   1      43.099  18.490  25.180  1.00  0.00    -0.744 OA
ENDBRANCH  76  77
ENDBRANCH  44  69
BRANCH  56  81
ATOM     81  C   UNL A   1      49.623  26.579  26.404  1.00  0.00     0.058 A 
ATOM     82  C   UNL A   1      50.448  25.946  27.347  1.00  0.00     0.135 A 
ATOM     83  C   UNL A   1      50.110  26.711  25.092  1.00  0.00     0.135 A 
ATOM     84  F   UNL A   1      50.036  25.800  28.616  1.00  0.00    -0.206 F 
ATOM     85  C   UNL A   1      51.716  25.485  27.010  1.00  0.00     0.059 A 
ATOM     86  C   UNL A   1      51.361  26.228  24.725  1.00  0.00     0.059 A 
ATOM     87  F   UNL A   1      49.358  27.297  24.147  1.00  0.00    -0.206 F 
ATOM     88  C   UNL A   1      52.163  25.627  25.694  1.00  0.00     0.060 A 
BRANCH  88  89
ATOM     89  S   UNL A   1      53.796  24.991  25.262  1.00  0.00     0.124 S 
ATOM     90  O   UNL A   1      53.526  23.566  25.103  1.00  0.00    -0.237 OA
ATOM     91  O   UNL A   1      54.101  25.720  24.035  1.00  0.00    -0.237 OA
ATOM     92  O   UNL A   1      54.616  25.348  26.416  1.00  0.00    -0.744 OA
ENDBRANCH  88  89
ENDBRANCH  56  81
ENDBRANCH  30  31
ENDBRANCH  22  25
ENDBRANCH  20  21
ENDBRANCH   1  20
TORSDOF 16
ENDMDL
MODEL 2
REMARK VINA RESULT:     -11.3      1.319      2.480
REMARK SMILES O=C(/C=C/C(=O)Nc1ccccn1)NCCCCNC(=O)c1ccc(-c2c3nc(c(-c4c(F)cc(S(=O)(=O)[O-])cc4F)c4ccc([nH]4)c(-c4c(F)cc(S(=O)(=O)[O-])cc4F)c4nc(c(-c5c(F)cc(S(=O)(=O)[O-])cc5F)c5ccc2[nH]5)C=C4)C=C3)cc1
REMARK SMILES IDX 17 1 16 2 15 3 14 4 1 5 2 6 3 8 4 9 5 10 6 11 7 12 8 14 9 15
REMARK SMILES IDX 13 16 10 17 12 18 11 19 18 20 19 21 20 22 21 24 22 25 23 26
REMARK SMILES IDX 87 27 24 28 86 29 25 30 26 31 27 32 80 33 28 34 85 35 79 36
REMARK SMILES IDX 81 37 29 38 84 39 78 40 77 41 30 43 64 44 43 45 63 46 44 47
REMARK SMILES IDX 47 48 62 49 82 50 45 51 46 52 61 54 83 55 48 56 31 57 32 58
REMARK SMILES IDX 41 59 33 60 34 61 40 62 42 63 35 64 36 65 37 66 38 67 39 68
REMARK SMILES IDX 65 69 66 70 75 71 67 72 68 73 74 74 76 75 69 76 70 77 71 78
REMARK SMILES IDX 72 79 73 80 49 81 50 82 59 83 51 84 52 85 58 86 60 87 53 88
REMARK SMILES IDX 54 89 55 90 56 91 57 92
REMARK H PARENT 14 7 7 13 19 23 81 42 47 53
REMARK Flexibility Score: inf
ROOT
ATOM      1  C   UNL A   1      36.685  33.833  29.056  1.00  0.00     0.023 C 
ENDROOT
BRANCH   1   2
ATOM      2  C   UNL A   1      38.199  33.904  28.833  1.00  0.00     0.023 C 
BRANCH   2   3
ATOM      3  C   UNL A   1      38.952  34.693  29.903  1.00  0.00     0.116 C 
BRANCH   3   4
ATOM      4  N   UNL A   1      38.184  34.773  31.128  1.00  0.00    -0.353 N 
ATOM      5  O   UNL A   1      39.958  34.318  32.513  1.00  0.00    -0.270 OA
ATOM      6  C   UNL A   1      38.761  34.520  32.340  1.00  0.00     0.244 C 
ATOM      7  H   UNL A   1      37.230  35.012  31.087  1.00  0.00     0.163 HD
BRANCH   6   8
ATOM      8  C   UNL A   1      37.840  34.440  33.489  1.00  0.00     0.077 C 
ATOM      9  C   UNL A   1      36.547  34.088  33.419  1.00  0.00     0.077 C 
BRANCH   9  10
ATOM     10  C   UNL A   1      35.673  34.229  34.611  1.00  0.00     0.249 C 
ATOM     11  O   UNL A   1      35.957  33.601  35.628  1.00  0.00    -0.270 OA
ATOM     12  N   UNL A   1      34.610  35.087  34.578  1.00  0.00    -0.307 N 
ATOM     13  H   UNL A   1      34.203  35.280  35.454  1.00  0.00     0.171 HD
BRANCH  12  14
ATOM     14  C   UNL A   1      34.016  35.732  33.493  1.00  0.00     0.132 A 
ATOM     15  C   UNL A   1      33.533  35.041  32.386  1.00  0.00     0.047 A 
ATOM     16  N   UNL A   1      34.029  37.076  33.561  1.00  0.00    -0.239 NA
ATOM     17  C   UNL A   1      33.190  35.757  31.245  1.00  0.00     0.005 A 
ATOM     18  C   UNL A   1      33.701  37.748  32.436  1.00  0.00     0.113 A 
ATOM     19  C   UNL A   1      33.304  37.139  31.257  1.00  0.00     0.020 A 
ENDBRANCH  12  14
ENDBRANCH   9  10
ENDBRANCH   6   8
ENDBRANCH   3   4
ENDBRANCH   2   3
ENDBRANCH   1   2
BRANCH   1  20
ATOM     20  C   UNL A   1      36.051  32.482  28.748  1.00  0.00     0.116 C 
BRANCH  20  21
ATOM     21  N   UNL A   1      35.751  31.720  29.950  1.00  0.00    -0.352 N 
ATOM     22  C   UNL A   1      36.497  30.739  30.558  1.00  0.00     0.251 C 
ATOM     23  H   UNL A   1      34.896  31.936  30.387  1.00  0.00     0.163 HD
ATOM     24  O   UNL A   1      36.010  30.081  31.476  1.00  0.00    -0.269 OA
BRANCH  22  25
ATOM     25  C   UNL A   1      37.870  30.459  30.088  1.00  0.00     0.039 A 
ATOM     26  C   UNL A   1      38.932  30.593  30.986  1.00  0.00     0.014 A 
ATOM     27  C   UNL A   1      38.112  30.051  28.772  1.00  0.00     0.014 A 
ATOM     28  C   UNL A   1      40.227  30.257  30.581  1.00  0.00     0.010 A 
ATOM     29  C   UNL A   1      39.388  29.643  28.395  1.00  0.00     0.010 A 
ATOM     30  C   UNL A   1      40.461  29.742  29.295  1.00  0.00    -0.014 A 
BRANCH  30  31
ATOM     31  C   UNL A   1      41.817  29.295  28.879  1.00  0.00     0.031 A 
ATOM     32  C   UNL A   1      42.951  30.281  28.798  1.00  0.00     0.074 A 
ATOM     33  C   UNL A   1      42.013  28.010  28.515  1.00  0.00     0.049 A 
ATOM     34  N   UNL A   1      44.183  30.092  28.401  1.00  0.00    -0.248 NA
ATOM     35  C   UNL A   1      42.655  31.668  29.190  1.00  0.00     0.031 C 
ATOM     36  C   UNL A   1      40.984  26.968  28.506  1.00  0.00     0.029 A 
ATOM     37  N   UNL A   1      43.141  27.363  28.074  1.00  0.00    -0.354 N 
ATOM     38  C   UNL A   1      44.805  31.332  28.483  1.00  0.00     0.074 A 
ATOM     39  C   UNL A   1      43.800  32.279  28.917  1.00  0.00     0.031 C 
ATOM     40  C   UNL A   1      41.534  25.809  28.108  1.00  0.00     0.029 A 
ATOM     41  C   UNL A   1      42.941  26.033  27.789  1.00  0.00     0.049 A 
ATOM     42  H   UNL A   1      44.012  27.811  27.971  1.00  0.00     0.167 HD
ATOM     43  C   UNL A   1      46.099  31.651  28.241  1.00  0.00     0.037 A 
ATOM     44  C   UNL A   1      43.790  25.100  27.314  1.00  0.00     0.037 A 
ATOM     45  C   UNL A   1      47.100  30.698  27.830  1.00  0.00     0.049 A 
ATOM     46  C   UNL A   1      45.219  25.481  27.038  1.00  0.00     0.074 A 
ATOM     47  C   UNL A   1      48.451  30.910  27.619  1.00  0.00     0.029 A 
ATOM     48  N   UNL A   1      46.860  29.359  27.559  1.00  0.00    -0.354 N 
ATOM     49  N   UNL A   1      45.805  26.646  27.189  1.00  0.00    -0.248 NA
ATOM     50  C   UNL A   1      46.104  24.424  26.531  1.00  0.00     0.031 C 
ATOM     51  C   UNL A   1      49.017  29.714  27.166  1.00  0.00     0.029 A 
ATOM     52  C   UNL A   1      48.032  28.739  27.157  1.00  0.00     0.049 A 
ATOM     53  H   UNL A   1      45.985  28.915  27.642  1.00  0.00     0.167 HD
ATOM     54  C   UNL A   1      47.136  26.451  26.827  1.00  0.00     0.074 A 
ATOM     55  C   UNL A   1      47.267  25.056  26.461  1.00  0.00     0.031 C 
ATOM     56  C   UNL A   1      48.153  27.346  26.803  1.00  0.00     0.037 A 
BRANCH  43  57
ATOM     57  C   UNL A   1      46.513  33.089  28.409  1.00  0.00     0.058 A 
ATOM     58  C   UNL A   1      46.463  34.002  27.343  1.00  0.00     0.135 A 
ATOM     59  C   UNL A   1      46.922  33.572  29.663  1.00  0.00     0.135 A 
ATOM     60  F   UNL A   1      46.094  33.594  26.119  1.00  0.00    -0.206 F 
ATOM     61  C   UNL A   1      46.829  35.335  27.508  1.00  0.00     0.059 A 
ATOM     62  C   UNL A   1      47.263  34.907  29.857  1.00  0.00     0.059 A 
ATOM     63  F   UNL A   1      46.989  32.744  30.717  1.00  0.00    -0.206 F 
ATOM     64  C   UNL A   1      47.228  35.778  28.770  1.00  0.00     0.060 A 
BRANCH  64  65
ATOM     65  S   UNL A   1      47.692  37.511  28.966  1.00  0.00     0.124 S 
ATOM     66  O   UNL A   1      46.429  38.103  29.396  1.00  0.00    -0.237 OA
ATOM     67  O   UNL A   1      48.737  37.440  29.983  1.00  0.00    -0.237 OA
ATOM     68  O   UNL A   1      48.143  37.897  27.633  1.00  0.00    -0.744 OA
ENDBRANCH  64  65
ENDBRANCH  43  57
BRANCH  44  69
ATOM     69  C   UNL A   1      43.317  23.706  27.088  1.00  0.00     0.058 A 
ATOM     70  C   UNL A   1      43.025  23.244  25.795  1.00  0.00     0.135 A 
ATOM     71  C   UNL A   1      43.149  22.808  28.154  1.00  0.00     0.135 A 
ATOM     72  F   UNL A   1      43.162  24.065  24.743  1.00  0.00    -0.206 F 
ATOM     73  C   UNL A   1      42.566  21.950  25.569  1.00  0.00     0.059 A 
ATOM     74  C   UNL A   1      42.719  21.501  27.950  1.00  0.00     0.059 A 
ATOM     75  F   UNL A   1      43.430  23.194  29.409  1.00  0.00    -0.206 F 
ATOM     76  C   UNL A   1      42.418  21.084  26.654  1.00  0.00     0.060 A 
BRANCH  76  77
ATOM     77  S   UNL A   1      41.861  19.396  26.343  1.00  0.00     0.124 S 
ATOM     78  O   UNL A   1      40.417  19.574  26.255  1.00  0.00    -0.237 OA
ATOM     79  O   UNL A   1      42.544  19.074  25.093  1.00  0.00    -0.237 OA
ATOM     80  O   UNL A   1      42.336  18.664  27.514  1.00  0.00    -0.744 OA
ENDBRANCH  76  77
ENDBRANCH  44  69
BRANCH  56  81
ATOM     81  C   UNL A   1      49.515  26.841  26.407  1.00  0.00     0.058 A 
ATOM     82  C   UNL A   1      50.379  26.231  27.330  1.00  0.00     0.135 A 
ATOM     83  C   UNL A   1      49.938  26.922  25.069  1.00  0.00     0.135 A 
ATOM     84  F   UNL A   1      50.028  26.134  28.622  1.00  0.00    -0.206 F 
ATOM     85  C   UNL A   1      51.624  25.742  26.947  1.00  0.00     0.059 A 
ATOM     86  C   UNL A   1      51.164  26.410  24.657  1.00  0.00     0.059 A 
ATOM     87  F   UNL A   1      49.147  27.485  24.142  1.00  0.00    -0.206 F 
ATOM     88  C   UNL A   1      52.006  25.833  25.606  1.00  0.00     0.060 A 
BRANCH  88  89
ATOM     89  S   UNL A   1      53.609  25.161  25.118  1.00  0.00     0.124 S 
ATOM     90  O   UNL A   1      53.742  25.673  23.758  1.00  0.00    -0.237 OA
ATOM     91  O   UNL A   1      54.507  25.747  26.107  1.00  0.00    -0.237 OA
ATOM     92  O   UNL A   1      53.421  23.718  25.229  1.00  0.00    -0.744 OA
ENDBRANCH  88  89
ENDBRANCH  56  81
ENDBRANCH  30  31
ENDBRANCH  22  25
ENDBRANCH  20  21
ENDBRANCH   1  20
TORSDOF 16
ENDMDL
MODEL 3
REMARK VINA RESULT:     -11.3      6.117     14.353
REMARK SMILES O=C(/C=C/C(=O)Nc1ccccn1)NCCCCNC(=O)c1ccc(-c2c3nc(c(-c4c(F)cc(S(=O)(=O)[O-])cc4F)c4ccc([nH]4)c(-c4c(F)cc(S(=O)(=O)[O-])cc4F)c4nc(c(-c5c(F)cc(S(=O)(=O)[O-])cc5F)c5ccc2[nH]5)C=C4)C=C3)cc1
REMARK SMILES IDX 17 1 16 2 15 3 14 4 1 5 2 6 3 8 4 9 5 10 6 11 7 12 8 14 9 15
REMARK SMILES IDX 13 16 10 17 12 18 11 19 18 20 19 21 20 22 21 24 22 25 23 26
REMARK SMILES IDX 87 27 24 28 86 29 25 30 26 31 27 32 80 33 28 34 85 35 79 36
REMARK SMILES IDX 81 37 29 38 84 39 78 40 77 41 30 43 64 44 43 45 63 46 44 47
REMARK SMILES IDX 47 48 62 49 82 50 45 51 46 52 61 54 83 55 48 56 31 57 32 58
REMARK SMILES IDX 41 59 33 60 34 61 40 62 42 63 35 64 36 65 37 66 38 67 39 68
REMARK SMILES IDX 65 69 66 70 75 71 67 72 68 73 74 74 76 75 69 76 70 77 71 78
REMARK SMILES IDX 72 79 73 80 49 81 50 82 59 83 51 84 52 85 58 86 60 87 53 88
REMARK SMILES IDX 54 89 55 90 56 91 57 92
REMARK H PARENT 14 7 7 13 19 23 81 42 47 53
REMARK Flexibility Score: inf
ROOT
ATOM      1  C   UNL A   1      46.138  24.498  25.776  1.00  0.00     0.023 C 
ENDROOT
BRANCH   1   2
ATOM      2  C   UNL A   1      46.007  23.853  24.393  1.00  0.00     0.023 C 
BRANCH   2   3
ATOM      3  C   UNL A   1      46.518  22.414  24.323  1.00  0.00     0.116 C 
BRANCH   3   4
ATOM      4  N   UNL A   1      45.524  21.484  24.816  1.00  0.00    -0.353 N 
ATOM      5  O   UNL A   1      46.837  19.620  24.552  1.00  0.00    -0.270 OA
ATOM      6  C   UNL A   1      45.764  20.140  24.834  1.00  0.00     0.244 C 
ATOM      7  H   UNL A   1      44.661  21.826  25.142  1.00  0.00     0.163 HD
BRANCH   6   8
ATOM      8  C   UNL A   1      44.611  19.284  25.171  1.00  0.00     0.077 C 
ATOM      9  C   UNL A   1      43.385  19.729  25.487  1.00  0.00     0.077 C 
BRANCH   9  10
ATOM     10  C   UNL A   1      42.359  18.782  25.994  1.00  0.00     0.249 C 
ATOM     11  O   UNL A   1      42.573  17.576  25.902  1.00  0.00    -0.270 OA
ATOM     12  N   UNL A   1      41.231  19.260  26.597  1.00  0.00    -0.307 N 
ATOM     13  H   UNL A   1      40.700  18.587  27.083  1.00  0.00     0.171 HD
BRANCH  12  14
ATOM     14  C   UNL A   1      40.717  20.557  26.632  1.00  0.00     0.132 A 
ATOM     15  C   UNL A   1      41.179  21.519  27.524  1.00  0.00     0.047 A 
ATOM     16  N   UNL A   1      39.682  20.775  25.799  1.00  0.00    -0.239 NA
ATOM     17  C   UNL A   1      40.455  22.697  27.674  1.00  0.00     0.005 A 
ATOM     18  C   UNL A   1      38.990  21.923  25.972  1.00  0.00     0.113 A 
ATOM     19  C   UNL A   1      39.319  22.893  26.905  1.00  0.00     0.020 A 
ENDBRANCH  12  14
ENDBRANCH   9  10
ENDBRANCH   6   8
ENDBRANCH   3   4
ENDBRANCH   2   3
ENDBRANCH   1   2
BRANCH   1  20
ATOM     20  C   UNL A   1      44.819  24.737  26.502  1.00  0.00     0.116 C 
BRANCH  20  21
ATOM     21  N   UNL A   1      43.714  24.976  25.588  1.00  0.00    -0.352 N 
ATOM     22  C   UNL A   1      42.549  25.671  25.806  1.00  0.00     0.251 C 
ATOM     23  H   UNL A   1      43.814  24.586  24.690  1.00  0.00     0.163 HD
ATOM     24  O   UNL A   1      41.647  25.630  24.972  1.00  0.00    -0.269 OA
BRANCH  22  25
ATOM     25  C   UNL A   1      42.373  26.443  27.055  1.00  0.00     0.039 A 
ATOM     26  C   UNL A   1      43.003  27.684  27.176  1.00  0.00     0.014 A 
ATOM     27  C   UNL A   1      41.580  25.954  28.098  1.00  0.00     0.014 A 
ATOM     28  C   UNL A   1      42.785  28.462  28.317  1.00  0.00     0.010 A 
ATOM     29  C   UNL A   1      41.303  26.763  29.196  1.00  0.00     0.010 A 
ATOM     30  C   UNL A   1      41.902  28.026  29.319  1.00  0.00    -0.014 A 
BRANCH  30  31
ATOM     31  C   UNL A   1      41.589  28.880  30.495  1.00  0.00     0.031 A 
ATOM     32  C   UNL A   1      42.392  28.754  31.763  1.00  0.00     0.074 A 
ATOM     33  C   UNL A   1      40.542  29.729  30.443  1.00  0.00     0.049 A 
ATOM     34  N   UNL A   1      42.232  29.367  32.907  1.00  0.00    -0.248 NA
ATOM     35  C   UNL A   1      43.506  27.792  31.750  1.00  0.00     0.031 C 
ATOM     36  C   UNL A   1      39.658  29.911  29.289  1.00  0.00     0.029 A 
ATOM     37  N   UNL A   1      40.035  30.591  31.385  1.00  0.00    -0.354 N 
ATOM     38  C   UNL A   1      43.211  28.860  33.752  1.00  0.00     0.074 A 
ATOM     39  C   UNL A   1      43.929  27.848  33.006  1.00  0.00     0.031 C 
ATOM     40  C   UNL A   1      38.738  30.845  29.581  1.00  0.00     0.029 A 
ATOM     41  C   UNL A   1      38.935  31.295  30.956  1.00  0.00     0.049 A 
ATOM     42  H   UNL A   1      40.424  30.694  32.283  1.00  0.00     0.167 HD
ATOM     43  C   UNL A   1      43.503  29.218  35.025  1.00  0.00     0.037 A 
ATOM     44  C   UNL A   1      38.163  32.195  31.598  1.00  0.00     0.037 A 
ATOM     45  C   UNL A   1      42.798  30.242  35.755  1.00  0.00     0.049 A 
ATOM     46  C   UNL A   1      38.497  32.565  33.018  1.00  0.00     0.074 A 
ATOM     47  C   UNL A   1      43.056  30.722  37.027  1.00  0.00     0.029 A 
ATOM     48  N   UNL A   1      41.694  30.938  35.284  1.00  0.00    -0.354 N 
ATOM     49  N   UNL A   1      39.472  32.124  33.778  1.00  0.00    -0.248 NA
ATOM     50  C   UNL A   1      37.630  33.557  33.668  1.00  0.00     0.031 C 
ATOM     51  C   UNL A   1      42.075  31.665  37.348  1.00  0.00     0.029 A 
ATOM     52  C   UNL A   1      41.243  31.822  36.251  1.00  0.00     0.049 A 
ATOM     53  H   UNL A   1      41.292  30.821  34.393  1.00  0.00     0.167 HD
ATOM     54  C   UNL A   1      39.355  32.811  34.983  1.00  0.00     0.074 A 
ATOM     55  C   UNL A   1      38.222  33.702  34.846  1.00  0.00     0.031 C 
ATOM     56  C   UNL A   1      40.118  32.712  36.100  1.00  0.00     0.037 A 
BRANCH  43  57
ATOM     57  C   UNL A   1      44.629  28.499  35.719  1.00  0.00     0.058 A 
ATOM     58  C   UNL A   1      45.954  28.961  35.652  1.00  0.00     0.135 A 
ATOM     59  C   UNL A   1      44.374  27.359  36.499  1.00  0.00     0.135 A 
ATOM     60  F   UNL A   1      46.259  30.037  34.911  1.00  0.00    -0.206 F 
ATOM     61  C   UNL A   1      46.989  28.302  36.309  1.00  0.00     0.059 A 
ATOM     62  C   UNL A   1      45.389  26.703  37.190  1.00  0.00     0.059 A 
ATOM     63  F   UNL A   1      43.128  26.872  36.598  1.00  0.00    -0.206 F 
ATOM     64  C   UNL A   1      46.696  27.174  37.077  1.00  0.00     0.060 A 
BRANCH  64  65
ATOM     65  S   UNL A   1      48.050  26.337  37.929  1.00  0.00     0.124 S 
ATOM     66  O   UNL A   1      48.953  26.043  36.821  1.00  0.00    -0.237 OA
ATOM     67  O   UNL A   1      48.507  27.360  38.865  1.00  0.00    -0.237 OA
ATOM     68  O   UNL A   1      47.405  25.178  38.537  1.00  0.00    -0.744 OA
ENDBRANCH  64  65
ENDBRANCH  43  57
BRANCH  44  69
ATOM     69  C   UNL A   1      37.010  32.824  30.899  1.00  0.00     0.058 A 
ATOM     70  C   UNL A   1      35.696  32.390  31.137  1.00  0.00     0.135 A 
ATOM     71  C   UNL A   1      37.193  33.871  29.981  1.00  0.00     0.135 A 
ATOM     72  F   UNL A   1      35.468  31.388  32.000  1.00  0.00    -0.206 F 
ATOM     73  C   UNL A   1      34.610  32.957  30.479  1.00  0.00     0.059 A 
ATOM     74  C   UNL A   1      36.120  34.473  29.332  1.00  0.00     0.059 A 
ATOM     75  F   UNL A   1      38.427  34.335  29.728  1.00  0.00    -0.206 F 
ATOM     76  C   UNL A   1      34.832  34.000  29.579  1.00  0.00     0.060 A 
BRANCH  76  77
ATOM     77  S   UNL A   1      33.409  34.754  28.762  1.00  0.00     0.124 S 
ATOM     78  O   UNL A   1      32.505  34.969  29.885  1.00  0.00    -0.237 OA
ATOM     79  O   UNL A   1      33.996  35.955  28.174  1.00  0.00    -0.237 OA
ATOM     80  O   UNL A   1      32.994  33.735  27.802  1.00  0.00    -0.744 OA
ENDBRANCH  76  77
ENDBRANCH  44  69
BRANCH  56  81
ATOM     81  C   UNL A   1      39.784  33.620  37.253  1.00  0.00     0.058 A 
ATOM     82  C   UNL A   1      38.868  33.250  38.249  1.00  0.00     0.135 A 
ATOM     83  C   UNL A   1      40.436  34.858  37.391  1.00  0.00     0.135 A 
ATOM     84  F   UNL A   1      38.212  32.082  38.163  1.00  0.00    -0.206 F 
ATOM     85  C   UNL A   1      38.587  34.084  39.326  1.00  0.00     0.059 A 
ATOM     86  C   UNL A   1      40.196  35.694  38.477  1.00  0.00     0.059 A 
ATOM     87  F   UNL A   1      41.331  35.257  36.474  1.00  0.00    -0.206 F 
ATOM     88  C   UNL A   1      39.260  35.304  39.434  1.00  0.00     0.060 A 
BRANCH  88  89
ATOM     89  S   UNL A   1      38.913  36.360  40.856  1.00  0.00     0.124 S 
ATOM     90  O   UNL A   1      37.844  35.621  41.518  1.00  0.00    -0.237 OA
ATOM     91  O   UNL A   1      40.197  36.378  41.551  1.00  0.00    -0.237 OA
ATOM     92  O   UNL A   1      38.518  37.628  40.250  1.00  0.00    -0.744 OA
ENDBRANCH  88  89
ENDBRANCH  56  81
ENDBRANCH  30  31
ENDBRANCH  22  25
ENDBRANCH  20  21
ENDBRANCH   1  20
TORSDOF 16
ENDMDL
