MODEL 1
REMARK VINA RESULT:     -12.8      0.000      0.000
REMARK SMILES COc1cc2c(CC(=O)NCCCCNC(=O)c3ccc(-c4c5nc(c(-c6c(F)cc(S(=O)(=O)[O-])cc6F)c6ccc([nH]6)c(-c6c(F)cc(S(=O)(=O)[O-])cc6F)c6nc(c(-c7c(F)cc(S(=O)(=O)[O-])cc7F)c7ccc4[nH]7)C=C6)C=C5)cc3)c(C)n(C(=O)c3ccc(Cl)cc3)c2cc1Cl
REMARK SMILES IDX 12 1 11 2 10 3 8 4 9 5 7 7 6 8 3 9 4 10 98 11 5 12 97 13
REMARK SMILES IDX 99 14 96 15 84 16 86 17 85 18 2 19 1 20 87 21 88 22 89 23
REMARK SMILES IDX 90 24 95 25 91 26 94 27 92 28 93 29 13 30 14 31 15 32 16 33
REMARK SMILES IDX 17 35 18 36 19 37 83 38 20 39 82 40 21 41 22 42 23 43 76 44
REMARK SMILES IDX 24 45 81 46 75 47 77 48 25 49 80 50 74 51 73 52 26 54 60 55
REMARK SMILES IDX 39 56 59 57 40 58 43 59 58 60 78 61 41 62 42 63 57 65 79 66
REMARK SMILES IDX 44 67 27 68 28 69 37 70 29 71 30 72 36 73 38 74 31 75 32 76
REMARK SMILES IDX 33 77 34 78 35 79 61 80 62 81 71 82 63 83 64 84 70 85 72 86
REMARK SMILES IDX 65 87 66 88 67 89 68 90 69 91 45 92 46 93 55 94 47 95 48 96
REMARK SMILES IDX 54 97 56 98 49 99 50 100 51 101 52 102 53 103
REMARK H PARENT 10 6 15 34 77 53 43 64
REMARK Flexibility Score: inf
ROOT
ATOM      1  C   UNL A   1      40.370  20.064  26.365  1.00  0.00     0.023 C 
ENDROOT
BRANCH   1   2
ATOM      2  C   UNL A   1      39.149  20.700  25.705  1.00  0.00     0.116 C 
BRANCH   2   3
ATOM      3  N   UNL A   1      38.811  21.980  26.294  1.00  0.00    -0.356 N 
ATOM      4  C   UNL A   1      37.899  22.897  25.855  1.00  0.00     0.224 C 
ATOM      5  O   UNL A   1      37.728  23.922  26.520  1.00  0.00    -0.275 OA
ATOM      6  H   UNL A   1      39.301  22.218  27.114  1.00  0.00     0.163 HD
BRANCH   4   7
ATOM      7  C   UNL A   1      37.070  22.614  24.611  1.00  0.00     0.138 C 
BRANCH   7   8
ATOM      8  C   UNL A   1      35.622  22.331  24.904  1.00  0.00    -0.009 A 
ATOM      9  C   UNL A   1      34.593  18.656  24.615  1.00  0.00     0.138 A 
ATOM     10  C   UNL A   1      35.468  19.748  24.607  1.00  0.00     0.058 A 
ATOM     11  C   UNL A   1      33.250  18.853  24.916  1.00  0.00     0.085 A 
ATOM     12  C   UNL A   1      34.997  21.053  24.888  1.00  0.00     0.008 A 
ATOM     13  C   UNL A   1      32.762  20.141  25.164  1.00  0.00     0.051 A 
ATOM     14  Cl  UNL A   1      32.116  17.559  25.070  1.00  0.00    -0.080 Cl
ATOM     15  C   UNL A   1      33.648  21.238  25.200  1.00  0.00     0.058 A 
ATOM     16  C   UNL A   1      34.632  23.269  25.183  1.00  0.00     0.028 A 
ATOM     17  N   UNL A   1      33.467  22.585  25.558  1.00  0.00    -0.280 N 
ATOM     18  C   UNL A   1      34.761  24.760  25.168  1.00  0.00     0.065 C 
BRANCH   9  19
ATOM     19  O   UNL A   1      35.168  17.435  24.380  1.00  0.00    -0.495 OA
ATOM     20  C   UNL A   1      35.047  16.543  25.487  1.00  0.00     0.278 C 
ENDBRANCH   9  19
BRANCH  17  21
ATOM     21  C   UNL A   1      32.320  23.161  26.188  1.00  0.00     0.262 C 
ATOM     22  O   UNL A   1      32.076  22.878  27.353  1.00  0.00    -0.268 OA
BRANCH  21  23
ATOM     23  C   UNL A   1      31.395  24.112  25.543  1.00  0.00     0.040 A 
ATOM     24  C   UNL A   1      30.881  23.868  24.264  1.00  0.00     0.015 A 
ATOM     25  C   UNL A   1      31.097  25.298  26.224  1.00  0.00     0.015 A 
ATOM     26  C   UNL A   1      30.134  24.866  23.628  1.00  0.00     0.021 A 
ATOM     27  C   UNL A   1      30.342  26.283  25.587  1.00  0.00     0.021 A 
ATOM     28  C   UNL A   1      29.881  26.071  24.286  1.00  0.00     0.041 A 
ATOM     29  Cl  UNL A   1      29.019  27.325  23.484  1.00  0.00    -0.084 Cl
ENDBRANCH  21  23
ENDBRANCH  17  21
ENDBRANCH   7   8
ENDBRANCH   4   7
ENDBRANCH   2   3
ENDBRANCH   1   2
BRANCH   1  30
ATOM     30  C   UNL A   1      40.962  20.883  27.521  1.00  0.00     0.023 C 
BRANCH  30  31
ATOM     31  C   UNL A   1      42.415  21.315  27.309  1.00  0.00     0.116 C 
BRANCH  31  32
ATOM     32  N   UNL A   1      42.677  21.817  25.975  1.00  0.00    -0.352 N 
ATOM     33  C   UNL A   1      42.924  23.053  25.445  1.00  0.00     0.251 C 
ATOM     34  H   UNL A   1      42.675  21.105  25.295  1.00  0.00     0.163 HD
ATOM     35  O   UNL A   1      43.197  23.076  24.241  1.00  0.00    -0.269 OA
BRANCH  33  36
ATOM     36  C   UNL A   1      42.846  24.335  26.194  1.00  0.00     0.039 A 
ATOM     37  C   UNL A   1      43.587  24.651  27.333  1.00  0.00     0.014 A 
ATOM     38  C   UNL A   1      41.904  25.272  25.726  1.00  0.00     0.014 A 
ATOM     39  C   UNL A   1      43.344  25.822  28.035  1.00  0.00     0.010 A 
ATOM     40  C   UNL A   1      41.667  26.456  26.416  1.00  0.00     0.010 A 
ATOM     41  C   UNL A   1      42.358  26.703  27.598  1.00  0.00    -0.014 A 
BRANCH  41  42
ATOM     42  C   UNL A   1      42.114  27.877  28.425  1.00  0.00     0.031 A 
ATOM     43  C   UNL A   1      43.191  28.911  28.447  1.00  0.00     0.074 A 
ATOM     44  C   UNL A   1      40.945  28.065  29.066  1.00  0.00     0.049 A 
ATOM     45  N   UNL A   1      43.830  29.402  29.461  1.00  0.00    -0.248 NA
ATOM     46  C   UNL A   1      43.664  29.408  27.144  1.00  0.00     0.031 C 
ATOM     47  C   UNL A   1      39.703  27.300  28.921  1.00  0.00     0.029 A 
ATOM     48  N   UNL A   1      40.592  29.077  29.902  1.00  0.00    -0.354 N 
ATOM     49  C   UNL A   1      44.666  30.394  28.946  1.00  0.00     0.074 A 
ATOM     50  C   UNL A   1      44.606  30.277  27.511  1.00  0.00     0.031 C 
ATOM     51  C   UNL A   1      38.685  28.014  29.447  1.00  0.00     0.029 A 
ATOM     52  C   UNL A   1      39.224  29.213  30.067  1.00  0.00     0.049 A 
ATOM     53  H   UNL A   1      41.248  29.658  30.351  1.00  0.00     0.167 HD
ATOM     54  C   UNL A   1      45.234  31.364  29.716  1.00  0.00     0.037 A 
ATOM     55  C   UNL A   1      38.581  30.298  30.565  1.00  0.00     0.037 A 
ATOM     56  C   UNL A   1      45.258  31.016  31.107  1.00  0.00     0.049 A 
ATOM     57  C   UNL A   1      39.563  31.066  31.377  1.00  0.00     0.074 A 
ATOM     58  C   UNL A   1      45.842  29.997  31.836  1.00  0.00     0.029 A 
ATOM     59  N   UNL A   1      44.334  31.584  31.950  1.00  0.00    -0.354 N 
ATOM     60  N   UNL A   1      40.107  30.630  32.483  1.00  0.00    -0.248 NA
ATOM     61  C   UNL A   1      40.273  32.159  30.728  1.00  0.00     0.031 C 
ATOM     62  C   UNL A   1      44.900  29.688  32.860  1.00  0.00     0.029 A 
ATOM     63  C   UNL A   1      43.821  30.562  32.711  1.00  0.00     0.049 A 
ATOM     64  H   UNL A   1      44.087  32.535  31.998  1.00  0.00     0.167 HD
ATOM     65  C   UNL A   1      41.412  31.102  32.455  1.00  0.00     0.074 A 
ATOM     66  C   UNL A   1      41.425  32.112  31.401  1.00  0.00     0.031 C 
ATOM     67  C   UNL A   1      42.429  30.450  33.096  1.00  0.00     0.037 A 
BRANCH  54  68
ATOM     68  C   UNL A   1      45.542  32.751  29.211  1.00  0.00     0.058 A 
ATOM     69  C   UNL A   1      44.507  33.646  28.878  1.00  0.00     0.135 A 
ATOM     70  C   UNL A   1      46.841  33.140  28.813  1.00  0.00     0.135 A 
ATOM     71  F   UNL A   1      43.231  33.355  29.176  1.00  0.00    -0.206 F 
ATOM     72  C   UNL A   1      44.745  34.832  28.178  1.00  0.00     0.059 A 
ATOM     73  C   UNL A   1      47.107  34.340  28.165  1.00  0.00     0.059 A 
ATOM     74  F   UNL A   1      47.896  32.326  28.961  1.00  0.00    -0.206 F 
ATOM     75  C   UNL A   1      46.049  35.164  27.818  1.00  0.00     0.060 A 
BRANCH  75  76
ATOM     76  S   UNL A   1      46.351  36.644  26.835  1.00  0.00     0.124 S 
ATOM     77  O   UNL A   1      46.926  36.075  25.622  1.00  0.00    -0.237 OA
ATOM     78  O   UNL A   1      45.009  37.204  26.705  1.00  0.00    -0.237 OA
ATOM     79  O   UNL A   1      47.268  37.419  27.666  1.00  0.00    -0.744 OA
ENDBRANCH  75  76
ENDBRANCH  54  68
BRANCH  55  80
ATOM     80  C   UNL A   1      37.324  30.880  30.022  1.00  0.00     0.058 A 
ATOM     81  C   UNL A   1      36.355  31.447  30.864  1.00  0.00     0.135 A 
ATOM     82  C   UNL A   1      37.154  31.110  28.639  1.00  0.00     0.135 A 
ATOM     83  F   UNL A   1      36.459  31.318  32.196  1.00  0.00    -0.206 F 
ATOM     84  C   UNL A   1      35.291  32.210  30.366  1.00  0.00     0.059 A 
ATOM     85  C   UNL A   1      36.094  31.846  28.119  1.00  0.00     0.059 A 
ATOM     86  F   UNL A   1      38.066  30.698  27.745  1.00  0.00    -0.206 F 
ATOM     87  C   UNL A   1      35.176  32.414  28.990  1.00  0.00     0.060 A 
BRANCH  87  88
ATOM     88  S   UNL A   1      33.887  33.505  28.349  1.00  0.00     0.124 S 
ATOM     89  O   UNL A   1      33.004  32.563  27.671  1.00  0.00    -0.237 OA
ATOM     90  O   UNL A   1      33.363  34.106  29.571  1.00  0.00    -0.237 OA
ATOM     91  O   UNL A   1      34.616  34.417  27.472  1.00  0.00    -0.744 OA
ENDBRANCH  87  88
ENDBRANCH  55  80
BRANCH  67  92
ATOM     92  C   UNL A   1      42.087  29.338  34.058  1.00  0.00     0.058 A 
ATOM     93  C   UNL A   1      41.889  28.002  33.665  1.00  0.00     0.135 A 
ATOM     94  C   UNL A   1      42.156  29.592  35.437  1.00  0.00     0.135 A 
ATOM     95  F   UNL A   1      41.923  27.650  32.374  1.00  0.00    -0.206 F 
ATOM     96  C   UNL A   1      41.731  26.974  34.597  1.00  0.00     0.059 A 
ATOM     97  C   UNL A   1      42.034  28.576  36.385  1.00  0.00     0.059 A 
ATOM     98  F   UNL A   1      42.410  30.834  35.881  1.00  0.00    -0.206 F 
ATOM     99  C   UNL A   1      41.814  27.269  35.956  1.00  0.00     0.060 A 
BRANCH  99 100
ATOM    100  S   UNL A   1      41.723  25.914  37.148  1.00  0.00     0.124 S 
ATOM    101  O   UNL A   1      42.756  26.281  38.110  1.00  0.00    -0.237 OA
ATOM    102  O   UNL A   1      40.346  26.011  37.629  1.00  0.00    -0.237 OA
ATOM    103  O   UNL A   1      42.009  24.730  36.343  1.00  0.00    -0.744 OA
ENDBRANCH  99 100
ENDBRANCH  67  92
ENDBRANCH  41  42
ENDBRANCH  33  36
ENDBRANCH  31  32
ENDBRANCH  30  31
ENDBRANCH   1  30
TORSDOF 18
ENDMDL
MODEL 2
REMARK VINA RESULT:     -12.7      1.845      3.978
REMARK SMILES COc1cc2c(CC(=O)NCCCCNC(=O)c3ccc(-c4c5nc(c(-c6c(F)cc(S(=O)(=O)[O-])cc6F)c6ccc([nH]6)c(-c6c(F)cc(S(=O)(=O)[O-])cc6F)c6nc(c(-c7c(F)cc(S(=O)(=O)[O-])cc7F)c7ccc4[nH]7)C=C6)C=C5)cc3)c(C)n(C(=O)c3ccc(Cl)cc3)c2cc1Cl
REMARK SMILES IDX 12 1 11 2 10 3 8 4 9 5 7 7 6 8 3 9 4 10 98 11 5 12 97 13
REMARK SMILES IDX 99 14 96 15 84 16 86 17 85 18 2 19 1 20 87 21 88 22 89 23
REMARK SMILES IDX 90 24 95 25 91 26 94 27 92 28 93 29 13 30 14 31 15 32 16 33
REMARK SMILES IDX 17 35 18 36 19 37 83 38 20 39 82 40 21 41 22 42 23 43 76 44
REMARK SMILES IDX 24 45 81 46 75 47 77 48 25 49 80 50 74 51 73 52 26 54 60 55
REMARK SMILES IDX 39 56 59 57 40 58 43 59 58 60 78 61 41 62 42 63 57 65 79 66
REMARK SMILES IDX 44 67 27 68 28 69 37 70 29 71 30 72 36 73 38 74 31 75 32 76
REMARK SMILES IDX 33 77 34 78 35 79 61 80 62 81 71 82 63 83 64 84 70 85 72 86
REMARK SMILES IDX 65 87 66 88 67 89 68 90 69 91 45 92 46 93 55 94 47 95 48 96
REMARK SMILES IDX 54 97 56 98 49 99 50 100 51 101 52 102 53 103
REMARK H PARENT 10 6 15 34 77 53 43 64
REMARK Flexibility Score: inf
ROOT
ATOM      1  C   UNL A   1      39.954  20.863  26.338  1.00  0.00     0.023 C 
ENDROOT
BRANCH   1   2
ATOM      2  C   UNL A   1      39.099  22.119  26.487  1.00  0.00     0.116 C 
BRANCH   2   3
ATOM      3  N   UNL A   1      38.639  22.625  25.210  1.00  0.00    -0.356 N 
ATOM      4  C   UNL A   1      37.436  23.200  24.913  1.00  0.00     0.224 C 
ATOM      5  O   UNL A   1      37.245  23.603  23.763  1.00  0.00    -0.275 OA
ATOM      6  H   UNL A   1      39.274  22.544  24.462  1.00  0.00     0.163 HD
BRANCH   4   7
ATOM      7  C   UNL A   1      36.393  23.396  26.003  1.00  0.00     0.138 C 
BRANCH   7   8
ATOM      8  C   UNL A   1      35.018  22.928  25.613  1.00  0.00    -0.009 A 
ATOM      9  C   UNL A   1      32.214  25.473  26.171  1.00  0.00     0.138 A 
ATOM     10  C   UNL A   1      33.531  24.998  26.148  1.00  0.00     0.058 A 
ATOM     11  C   UNL A   1      31.180  24.654  25.735  1.00  0.00     0.085 A 
ATOM     12  C   UNL A   1      33.818  23.686  25.700  1.00  0.00     0.008 A 
ATOM     13  C   UNL A   1      31.443  23.343  25.319  1.00  0.00     0.051 A 
ATOM     14  Cl  UNL A   1      29.541  25.185  25.610  1.00  0.00    -0.080 Cl
ATOM     15  C   UNL A   1      32.772  22.875  25.253  1.00  0.00     0.058 A 
ATOM     16  C   UNL A   1      34.670  21.660  25.157  1.00  0.00     0.028 A 
ATOM     17  N   UNL A   1      33.329  21.687  24.750  1.00  0.00    -0.280 N 
ATOM     18  C   UNL A   1      35.560  20.461  25.036  1.00  0.00     0.065 C 
BRANCH   9  19
ATOM     19  O   UNL A   1      32.061  26.773  26.575  1.00  0.00    -0.495 OA
ATOM     20  C   UNL A   1      32.408  27.714  25.560  1.00  0.00     0.278 C 
ENDBRANCH   9  19
BRANCH  17  21
ATOM     21  C   UNL A   1      32.668  20.690  23.968  1.00  0.00     0.262 C 
ATOM     22  O   UNL A   1      32.095  21.024  22.939  1.00  0.00    -0.268 OA
BRANCH  21  23
ATOM     23  C   UNL A   1      32.636  19.252  24.292  1.00  0.00     0.040 A 
ATOM     24  C   UNL A   1      32.482  18.809  25.610  1.00  0.00     0.015 A 
ATOM     25  C   UNL A   1      32.830  18.342  23.245  1.00  0.00     0.015 A 
ATOM     26  C   UNL A   1      32.613  17.445  25.891  1.00  0.00     0.021 A 
ATOM     27  C   UNL A   1      32.948  16.982  23.532  1.00  0.00     0.021 A 
ATOM     28  C   UNL A   1      32.860  16.542  24.855  1.00  0.00     0.041 A 
ATOM     29  Cl  UNL A   1      33.087  14.873  25.202  1.00  0.00    -0.084 Cl
ENDBRANCH  21  23
ENDBRANCH  17  21
ENDBRANCH   7   8
ENDBRANCH   4   7
ENDBRANCH   2   3
ENDBRANCH   1   2
BRANCH   1  30
ATOM     30  C   UNL A   1      41.026  20.696  27.424  1.00  0.00     0.023 C 
BRANCH  30  31
ATOM     31  C   UNL A   1      42.042  19.585  27.142  1.00  0.00     0.116 C 
BRANCH  31  32
ATOM     32  N   UNL A   1      42.818  19.809  25.938  1.00  0.00    -0.352 N 
ATOM     33  C   UNL A   1      43.525  20.865  25.434  1.00  0.00     0.251 C 
ATOM     34  H   UNL A   1      42.840  19.021  25.349  1.00  0.00     0.163 HD
ATOM     35  O   UNL A   1      44.149  20.645  24.391  1.00  0.00    -0.269 OA
BRANCH  33  36
ATOM     36  C   UNL A   1      43.556  22.231  26.021  1.00  0.00     0.039 A 
ATOM     37  C   UNL A   1      44.294  22.611  27.142  1.00  0.00     0.014 A 
ATOM     38  C   UNL A   1      42.727  23.190  25.407  1.00  0.00     0.014 A 
ATOM     39  C   UNL A   1      44.152  23.878  27.689  1.00  0.00     0.010 A 
ATOM     40  C   UNL A   1      42.592  24.468  25.941  1.00  0.00     0.010 A 
ATOM     41  C   UNL A   1      43.272  24.790  27.112  1.00  0.00    -0.014 A 
BRANCH  41  42
ATOM     42  C   UNL A   1      43.125  26.074  27.782  1.00  0.00     0.031 A 
ATOM     43  C   UNL A   1      44.205  27.078  27.541  1.00  0.00     0.074 A 
ATOM     44  C   UNL A   1      42.033  26.377  28.509  1.00  0.00     0.049 A 
ATOM     45  N   UNL A   1      44.952  27.694  28.401  1.00  0.00    -0.248 NA
ATOM     46  C   UNL A   1      44.538  27.374  26.138  1.00  0.00     0.031 C 
ATOM     47  C   UNL A   1      40.778  25.626  28.607  1.00  0.00     0.029 A 
ATOM     48  N   UNL A   1      41.778  27.505  29.224  1.00  0.00    -0.354 N 
ATOM     49  C   UNL A   1      45.734  28.585  27.664  1.00  0.00     0.074 A 
ATOM     50  C   UNL A   1      45.519  28.265  26.275  1.00  0.00     0.031 C 
ATOM     51  C   UNL A   1      39.827  26.429  29.129  1.00  0.00     0.029 A 
ATOM     52  C   UNL A   1      40.436  27.692  29.510  1.00  0.00     0.049 A 
ATOM     53  H   UNL A   1      42.482  28.130  29.512  1.00  0.00     0.167 HD
ATOM     54  C   UNL A   1      46.387  29.642  28.222  1.00  0.00     0.037 A 
ATOM     55  C   UNL A   1      39.857  28.850  29.911  1.00  0.00     0.037 A 
ATOM     56  C   UNL A   1      46.559  29.495  29.639  1.00  0.00     0.049 A 
ATOM     57  C   UNL A   1      40.925  29.705  30.496  1.00  0.00     0.074 A 
ATOM     58  C   UNL A   1      47.210  28.578  30.441  1.00  0.00     0.029 A 
ATOM     59  N   UNL A   1      45.733  30.197  30.483  1.00  0.00    -0.354 N 
ATOM     60  N   UNL A   1      41.582  29.419  31.590  1.00  0.00    -0.248 NA
ATOM     61  C   UNL A   1      41.568  30.679  29.626  1.00  0.00     0.031 C 
ATOM     62  C   UNL A   1      46.382  28.438  31.592  1.00  0.00     0.029 A 
ATOM     63  C   UNL A   1      45.299  29.305  31.434  1.00  0.00     0.049 A 
ATOM     64  H   UNL A   1      45.498  31.151  30.419  1.00  0.00     0.167 HD
ATOM     65  C   UNL A   1      42.880  29.854  31.357  1.00  0.00     0.074 A 
ATOM     66  C   UNL A   1      42.786  30.703  30.173  1.00  0.00     0.031 C 
ATOM     67  C   UNL A   1      43.955  29.279  31.975  1.00  0.00     0.037 A 
BRANCH  54  68
ATOM     68  C   UNL A   1      46.648  30.936  27.493  1.00  0.00     0.058 A 
ATOM     69  C   UNL A   1      47.957  31.432  27.346  1.00  0.00     0.135 A 
ATOM     70  C   UNL A   1      45.610  31.828  27.142  1.00  0.00     0.135 A 
ATOM     71  F   UNL A   1      49.015  30.680  27.687  1.00  0.00    -0.206 F 
ATOM     72  C   UNL A   1      48.215  32.733  26.906  1.00  0.00     0.059 A 
ATOM     73  C   UNL A   1      45.845  33.107  26.650  1.00  0.00     0.059 A 
ATOM     74  F   UNL A   1      44.321  31.524  27.347  1.00  0.00    -0.206 F 
ATOM     75  C   UNL A   1      47.149  33.566  26.569  1.00  0.00     0.060 A 
BRANCH  75  76
ATOM     76  S   UNL A   1      47.471  35.272  26.090  1.00  0.00     0.124 S 
ATOM     77  O   UNL A   1      46.119  35.769  25.859  1.00  0.00    -0.237 OA
ATOM     78  O   UNL A   1      48.153  35.798  27.269  1.00  0.00    -0.237 OA
ATOM     79  O   UNL A   1      48.305  35.136  24.900  1.00  0.00    -0.744 OA
ENDBRANCH  75  76
ENDBRANCH  54  68
BRANCH  55  80
ATOM     80  C   UNL A   1      38.553  29.376  29.426  1.00  0.00     0.058 A 
ATOM     81  C   UNL A   1      37.520  29.712  30.316  1.00  0.00     0.135 A 
ATOM     82  C   UNL A   1      38.375  29.789  28.087  1.00  0.00     0.135 A 
ATOM     83  F   UNL A   1      37.622  29.399  31.617  1.00  0.00    -0.206 F 
ATOM     84  C   UNL A   1      36.389  30.428  29.906  1.00  0.00     0.059 A 
ATOM     85  C   UNL A   1      37.251  30.483  27.652  1.00  0.00     0.059 A 
ATOM     86  F   UNL A   1      39.335  29.607  27.167  1.00  0.00    -0.206 F 
ATOM     87  C   UNL A   1      36.269  30.820  28.571  1.00  0.00     0.060 A 
BRANCH  87  88
ATOM     88  S   UNL A   1      34.881  31.857  28.062  1.00  0.00     0.124 S 
ATOM     89  O   UNL A   1      34.150  30.966  27.168  1.00  0.00    -0.237 OA
ATOM     90  O   UNL A   1      34.237  32.151  29.338  1.00  0.00    -0.237 OA
ATOM     91  O   UNL A   1      35.525  32.997  27.415  1.00  0.00    -0.744 OA
ENDBRANCH  87  88
ENDBRANCH  55  80
BRANCH  67  92
ATOM     92  C   UNL A   1      43.712  28.322  33.118  1.00  0.00     0.058 A 
ATOM     93  C   UNL A   1      43.489  28.734  34.444  1.00  0.00     0.135 A 
ATOM     94  C   UNL A   1      43.505  26.964  32.829  1.00  0.00     0.135 A 
ATOM     95  F   UNL A   1      43.553  30.026  34.785  1.00  0.00    -0.206 F 
ATOM     96  C   UNL A   1      43.113  27.834  35.442  1.00  0.00     0.059 A 
ATOM     97  C   UNL A   1      43.097  26.053  33.804  1.00  0.00     0.059 A 
ATOM     98  F   UNL A   1      43.634  26.516  31.569  1.00  0.00    -0.206 F 
ATOM     99  C   UNL A   1      42.910  26.495  35.112  1.00  0.00     0.060 A 
BRANCH  99 100
ATOM    100  S   UNL A   1      42.312  25.364  36.387  1.00  0.00     0.124 S 
ATOM    101  O   UNL A   1      42.903  24.096  35.974  1.00  0.00    -0.237 OA
ATOM    102  O   UNL A   1      42.859  25.950  37.609  1.00  0.00    -0.237 OA
ATOM    103  O   UNL A   1      40.860  25.447  36.264  1.00  0.00    -0.744 OA
ENDBRANCH  99 100
ENDBRANCH  67  92
ENDBRANCH  41  42
ENDBRANCH  33  36
ENDBRANCH  31  32
ENDBRANCH  30  31
ENDBRANCH   1  30
TORSDOF 18
ENDMDL
MODEL 3
REMARK VINA RESULT:     -12.4      2.392      3.938
REMARK SMILES COc1cc2c(CC(=O)NCCCCNC(=O)c3ccc(-c4c5nc(c(-c6c(F)cc(S(=O)(=O)[O-])cc6F)c6ccc([nH]6)c(-c6c(F)cc(S(=O)(=O)[O-])cc6F)c6nc(c(-c7c(F)cc(S(=O)(=O)[O-])cc7F)c7ccc4[nH]7)C=C6)C=C5)cc3)c(C)n(C(=O)c3ccc(Cl)cc3)c2cc1Cl
REMARK SMILES IDX 12 1 11 2 10 3 8 4 9 5 7 7 6 8 3 9 4 10 98 11 5 12 97 13
REMARK SMILES IDX 99 14 96 15 84 16 86 17 85 18 2 19 1 20 87 21 88 22 89 23
REMARK SMILES IDX 90 24 95 25 91 26 94 27 92 28 93 29 13 30 14 31 15 32 16 33
REMARK SMILES IDX 17 35 18 36 19 37 83 38 20 39 82 40 21 41 22 42 23 43 76 44
REMARK SMILES IDX 24 45 81 46 75 47 77 48 25 49 80 50 74 51 73 52 26 54 60 55
REMARK SMILES IDX 39 56 59 57 40 58 43 59 58 60 78 61 41 62 42 63 57 65 79 66
REMARK SMILES IDX 44 67 27 68 28 69 37 70 29 71 30 72 36 73 38 74 31 75 32 76
REMARK SMILES IDX 33 77 34 78 35 79 61 80 62 81 71 82 63 83 64 84 70 85 72 86
REMARK SMILES IDX 65 87 66 88 67 89 68 90 69 91 45 92 46 93 55 94 47 95 48 96
REMARK SMILES IDX 54 97 56 98 49 99 50 100 51 101 52 102 53 103
REMARK H PARENT 10 6 15 34 77 53 43 64
REMARK Flexibility Score: inf
ROOT
ATOM      1  C   UNL A   1      34.692  21.299  25.825  1.00  0.00     0.023 C 
ENDROOT
BRANCH   1   2
ATOM      2  C   UNL A   1      33.935  21.763  27.068  1.00  0.00     0.116 C 
BRANCH   2   3
ATOM      3  N   UNL A   1      32.572  22.150  26.767  1.00  0.00    -0.356 N 
ATOM      4  C   UNL A   1      32.058  23.410  26.649  1.00  0.00     0.224 C 
ATOM      5  O   UNL A   1      30.868  23.535  26.350  1.00  0.00    -0.275 OA
ATOM      6  H   UNL A   1      31.936  21.411  26.631  1.00  0.00     0.163 HD
BRANCH   4   7
ATOM      7  C   UNL A   1      32.963  24.622  26.814  1.00  0.00     0.138 C 
BRANCH   7   8
ATOM      8  C   UNL A   1      32.962  25.542  25.623  1.00  0.00    -0.009 A 
ATOM      9  C   UNL A   1      32.878  23.796  22.218  1.00  0.00     0.138 A 
ATOM     10  C   UNL A   1      32.865  23.886  23.615  1.00  0.00     0.058 A 
ATOM     11  C   UNL A   1      32.922  24.956  21.454  1.00  0.00     0.085 A 
ATOM     12  C   UNL A   1      32.912  25.146  24.258  1.00  0.00     0.008 A 
ATOM     13  C   UNL A   1      33.002  26.208  22.075  1.00  0.00     0.051 A 
ATOM     14  Cl  UNL A   1      32.821  24.957  19.730  1.00  0.00    -0.080 Cl
ATOM     15  C   UNL A   1      32.945  26.307  23.480  1.00  0.00     0.058 A 
ATOM     16  C   UNL A   1      33.068  26.929  25.645  1.00  0.00     0.028 A 
ATOM     17  N   UNL A   1      32.860  27.411  24.346  1.00  0.00    -0.280 N 
ATOM     18  C   UNL A   1      33.294  27.805  26.839  1.00  0.00     0.065 C 
BRANCH   9  19
ATOM     19  O   UNL A   1      32.778  22.529  21.706  1.00  0.00    -0.495 OA
ATOM     20  C   UNL A   1      32.210  21.601  22.630  1.00  0.00     0.278 C 
ENDBRANCH   9  19
BRANCH  17  21
ATOM     21  C   UNL A   1      32.605  28.770  23.983  1.00  0.00     0.262 C 
ATOM     22  O   UNL A   1      33.549  29.503  23.721  1.00  0.00    -0.268 OA
BRANCH  21  23
ATOM     23  C   UNL A   1      31.264  29.374  23.875  1.00  0.00     0.040 A 
ATOM     24  C   UNL A   1      30.350  28.940  22.909  1.00  0.00     0.015 A 
ATOM     25  C   UNL A   1      30.958  30.443  24.726  1.00  0.00     0.015 A 
ATOM     26  C   UNL A   1      29.152  29.643  22.739  1.00  0.00     0.021 A 
ATOM     27  C   UNL A   1      29.757  31.131  24.557  1.00  0.00     0.021 A 
ATOM     28  C   UNL A   1      28.869  30.741  23.552  1.00  0.00     0.041 A 
ATOM     29  Cl  UNL A   1      27.429  31.648  23.304  1.00  0.00    -0.084 Cl
ENDBRANCH  21  23
ENDBRANCH  17  21
ENDBRANCH   7   8
ENDBRANCH   4   7
ENDBRANCH   2   3
ENDBRANCH   1   2
BRANCH   1  30
ATOM     30  C   UNL A   1      35.582  22.377  25.189  1.00  0.00     0.023 C 
BRANCH  30  31
ATOM     31  C   UNL A   1      36.687  22.906  26.109  1.00  0.00     0.116 C 
BRANCH  31  32
ATOM     32  N   UNL A   1      37.917  22.144  26.027  1.00  0.00    -0.352 N 
ATOM     33  C   UNL A   1      39.205  22.354  26.433  1.00  0.00     0.251 C 
ATOM     34  H   UNL A   1      37.797  21.277  25.576  1.00  0.00     0.163 HD
ATOM     35  O   UNL A   1      39.982  21.409  26.264  1.00  0.00    -0.269 OA
BRANCH  33  36
ATOM     36  C   UNL A   1      39.724  23.624  27.008  1.00  0.00     0.039 A 
ATOM     37  C   UNL A   1      40.898  23.753  27.750  1.00  0.00     0.014 A 
ATOM     38  C   UNL A   1      38.922  24.765  26.817  1.00  0.00     0.014 A 
ATOM     39  C   UNL A   1      41.226  24.957  28.355  1.00  0.00     0.010 A 
ATOM     40  C   UNL A   1      39.254  25.981  27.408  1.00  0.00     0.010 A 
ATOM     41  C   UNL A   1      40.384  26.057  28.216  1.00  0.00    -0.014 A 
BRANCH  41  42
ATOM     42  C   UNL A   1      40.759  27.266  28.936  1.00  0.00     0.031 A 
ATOM     43  C   UNL A   1      41.937  28.017  28.408  1.00  0.00     0.074 A 
ATOM     44  C   UNL A   1      40.033  27.733  29.969  1.00  0.00     0.049 A 
ATOM     45  N   UNL A   1      43.029  28.356  29.017  1.00  0.00    -0.248 NA
ATOM     46  C   UNL A   1      41.915  28.371  26.979  1.00  0.00     0.031 C 
ATOM     47  C   UNL A   1      38.714  27.281  30.423  1.00  0.00     0.029 A 
ATOM     48  N   UNL A   1      40.282  28.810  30.760  1.00  0.00    -0.354 N 
ATOM     49  C   UNL A   1      43.760  29.116  28.103  1.00  0.00     0.074 A 
ATOM     50  C   UNL A   1      43.083  28.997  26.837  1.00  0.00     0.031 C 
ATOM     51  C   UNL A   1      38.184  28.222  31.232  1.00  0.00     0.029 A 
ATOM     52  C   UNL A   1      39.170  29.268  31.447  1.00  0.00     0.049 A 
ATOM     53  H   UNL A   1      41.171  29.226  30.839  1.00  0.00     0.167 HD
ATOM     54  C   UNL A   1      44.787  29.935  28.466  1.00  0.00     0.037 A 
ATOM     55  C   UNL A   1      39.036  30.480  32.038  1.00  0.00     0.037 A 
ATOM     56  C   UNL A   1      45.317  29.608  29.759  1.00  0.00     0.049 A 
ATOM     57  C   UNL A   1      40.404  31.005  32.295  1.00  0.00     0.074 A 
ATOM     58  C   UNL A   1      45.924  28.490  30.298  1.00  0.00     0.029 A 
ATOM     59  N   UNL A   1      44.970  30.390  30.835  1.00  0.00    -0.354 N 
ATOM     60  N   UNL A   1      41.256  30.467  33.129  1.00  0.00    -0.248 NA
ATOM     61  C   UNL A   1      40.990  31.891  31.300  1.00  0.00     0.031 C 
ATOM     62  C   UNL A   1      45.454  28.425  31.642  1.00  0.00     0.029 A 
ATOM     63  C   UNL A   1      44.621  29.528  31.846  1.00  0.00     0.049 A 
ATOM     64  H   UNL A   1      44.971  31.373  30.873  1.00  0.00     0.167 HD
ATOM     65  C   UNL A   1      42.497  30.617  32.525  1.00  0.00     0.074 A 
ATOM     66  C   UNL A   1      42.280  31.582  31.451  1.00  0.00     0.031 C 
ATOM     67  C   UNL A   1      43.528  29.753  32.769  1.00  0.00     0.037 A 
BRANCH  54  68
ATOM     68  C   UNL A   1      45.138  31.203  27.731  1.00  0.00     0.058 A 
ATOM     69  C   UNL A   1      46.354  31.319  27.030  1.00  0.00     0.135 A 
ATOM     70  C   UNL A   1      44.411  32.402  27.900  1.00  0.00     0.135 A 
ATOM     71  F   UNL A   1      47.141  30.247  26.845  1.00  0.00    -0.206 F 
ATOM     72  C   UNL A   1      46.824  32.546  26.554  1.00  0.00     0.059 A 
ATOM     73  C   UNL A   1      44.833  33.623  27.388  1.00  0.00     0.059 A 
ATOM     74  F   UNL A   1      43.300  32.452  28.650  1.00  0.00    -0.206 F 
ATOM     75  C   UNL A   1      46.059  33.694  26.747  1.00  0.00     0.060 A 
BRANCH  75  76
ATOM     76  S   UNL A   1      46.703  35.291  26.218  1.00  0.00     0.124 S 
ATOM     77  O   UNL A   1      47.532  35.663  27.359  1.00  0.00    -0.237 OA
ATOM     78  O   UNL A   1      47.419  34.943  24.994  1.00  0.00    -0.237 OA
ATOM     79  O   UNL A   1      45.498  36.093  26.025  1.00  0.00    -0.744 OA
ENDBRANCH  75  76
ENDBRANCH  54  68
BRANCH  55  80
ATOM     80  C   UNL A   1      37.820  31.335  31.988  1.00  0.00     0.058 A 
ATOM     81  C   UNL A   1      37.136  31.708  33.156  1.00  0.00     0.135 A 
ATOM     82  C   UNL A   1      37.438  32.008  30.806  1.00  0.00     0.135 A 
ATOM     83  F   UNL A   1      37.462  31.154  34.334  1.00  0.00    -0.206 F 
ATOM     84  C   UNL A   1      36.146  32.699  33.155  1.00  0.00     0.059 A 
ATOM     85  C   UNL A   1      36.444  32.980  30.776  1.00  0.00     0.059 A 
ATOM     86  F   UNL A   1      38.084  31.804  29.647  1.00  0.00    -0.206 F 
ATOM     87  C   UNL A   1      35.815  33.338  31.959  1.00  0.00     0.060 A 
BRANCH  87  88
ATOM     88  S   UNL A   1      34.637  34.707  31.971  1.00  0.00     0.124 S 
ATOM     89  O   UNL A   1      35.332  35.697  32.786  1.00  0.00    -0.237 OA
ATOM     90  O   UNL A   1      34.520  35.019  30.550  1.00  0.00    -0.237 OA
ATOM     91  O   UNL A   1      33.444  34.126  32.580  1.00  0.00    -0.744 OA
ENDBRANCH  87  88
ENDBRANCH  55  80
BRANCH  67  92
ATOM     92  C   UNL A   1      43.395  28.765  33.903  1.00  0.00     0.058 A 
ATOM     93  C   UNL A   1      43.757  29.051  35.232  1.00  0.00     0.135 A 
ATOM     94  C   UNL A   1      42.702  27.565  33.677  1.00  0.00     0.135 A 
ATOM     95  F   UNL A   1      44.319  30.221  35.557  1.00  0.00    -0.206 F 
ATOM     96  C   UNL A   1      43.475  28.172  36.279  1.00  0.00     0.059 A 
ATOM     97  C   UNL A   1      42.380  26.688  34.713  1.00  0.00     0.059 A 
ATOM     98  F   UNL A   1      42.267  27.261  32.442  1.00  0.00    -0.206 F 
ATOM     99  C   UNL A   1      42.777  26.995  36.012  1.00  0.00     0.060 A 
BRANCH  99 100
ATOM    100  S   UNL A   1      42.318  25.922  37.391  1.00  0.00     0.124 S 
ATOM    101  O   UNL A   1      40.879  26.142  37.485  1.00  0.00    -0.237 OA
ATOM    102  O   UNL A   1      42.729  24.604  36.914  1.00  0.00    -0.237 OA
ATOM    103  O   UNL A   1      43.105  26.443  38.506  1.00  0.00    -0.744 OA
ENDBRANCH  99 100
ENDBRANCH  67  92
ENDBRANCH  41  42
ENDBRANCH  33  36
ENDBRANCH  31  32
ENDBRANCH  30  31
ENDBRANCH   1  30
TORSDOF 18
ENDMDL
