MODEL 1
REMARK VINA RESULT:     -11.6      0.000      0.000
REMARK SMILES Cc1cccc(Cl)c1Nc1ccccc1CC(=O)NCCCCNC(=O)c1ccc(-c2c3nc(c(-c4c(F)cc(S(=O)(=O)[O-])cc4F)c4ccc([nH]4)c(-c4c(F)cc(S(=O)(=O)[O-])cc4F)c4nc(c(-c5c(F)cc(S(=O)(=O)[O-])cc5F)c5ccc2[nH]5)C=C4)C=C3)cc1
REMARK SMILES IDX 21 1 20 2 19 3 17 4 18 5 16 7 15 8 10 9 11 10 12 11 14 12
REMARK SMILES IDX 13 13 9 14 8 16 1 17 2 18 3 19 4 20 6 21 5 22 7 23 22 24
REMARK SMILES IDX 23 25 24 26 25 27 26 29 27 30 28 31 92 32 29 33 91 34 30 35
REMARK SMILES IDX 31 36 32 37 85 38 33 39 90 40 84 41 86 42 34 43 89 44 83 45
REMARK SMILES IDX 82 46 35 48 69 49 48 50 68 51 49 52 52 53 67 54 87 55 50 56
REMARK SMILES IDX 51 57 66 59 88 60 53 61 36 62 37 63 46 64 38 65 39 66 45 67
REMARK SMILES IDX 47 68 40 69 41 70 42 71 43 72 44 73 70 74 71 75 80 76 72 77
REMARK SMILES IDX 73 78 79 79 81 80 74 81 75 82 76 83 77 84 78 85 54 86 55 87
REMARK SMILES IDX 64 88 56 89 57 90 63 91 65 92 58 93 59 94 60 95 61 96 62 97
REMARK H PARENT 19 6 9 15 24 28 86 47 52 58
REMARK Flexibility Score: inf
ROOT
ATOM      1  C   UNL A   1      31.294  27.836  26.288  1.00  0.00     0.023 C 
ENDROOT
BRANCH   1   2
ATOM      2  C   UNL A   1      30.715  26.613  25.577  1.00  0.00     0.116 C 
BRANCH   2   3
ATOM      3  N   UNL A   1      30.341  25.569  26.509  1.00  0.00    -0.356 N 
ATOM      4  C   UNL A   1      30.511  24.218  26.379  1.00  0.00     0.224 C 
ATOM      5  O   UNL A   1      30.055  23.479  27.255  1.00  0.00    -0.275 OA
ATOM      6  H   UNL A   1      29.910  25.869  27.341  1.00  0.00     0.163 HD
BRANCH   4   7
ATOM      7  C   UNL A   1      31.287  23.662  25.196  1.00  0.00     0.137 C 
BRANCH   7   8
ATOM      8  C   UNL A   1      32.707  23.249  25.527  1.00  0.00    -0.015 A 
ATOM      9  C   UNL A   1      33.118  21.902  25.632  1.00  0.00     0.042 A 
ATOM     10  C   UNL A   1      34.429  21.631  26.066  1.00  0.00     0.026 A 
ATOM     11  C   UNL A   1      35.328  22.656  26.363  1.00  0.00     0.002 A 
ATOM     12  C   UNL A   1      33.640  24.273  25.794  1.00  0.00     0.006 A 
ATOM     13  C   UNL A   1      34.936  23.979  26.213  1.00  0.00     0.000 A 
BRANCH   9  14
ATOM     14  N   UNL A   1      32.319  20.791  25.289  1.00  0.00    -0.354 N 
ATOM     15  H   UNL A   1      31.543  20.665  25.881  1.00  0.00     0.167 HD
BRANCH  14  16
ATOM     16  C   UNL A   1      32.418  19.824  24.261  1.00  0.00     0.060 A 
ATOM     17  C   UNL A   1      32.793  18.057  26.076  1.00  0.00     0.046 C 
ATOM     18  C   UNL A   1      32.625  18.469  24.634  1.00  0.00    -0.026 A 
ATOM     19  C   UNL A   1      32.634  17.459  23.655  1.00  0.00     0.005 A 
ATOM     20  C   UNL A   1      32.454  17.769  22.311  1.00  0.00     0.002 A 
ATOM     21  C   UNL A   1      32.266  20.113  22.885  1.00  0.00     0.064 A 
ATOM     22  C   UNL A   1      32.278  19.092  21.927  1.00  0.00     0.023 A 
ATOM     23  Cl  UNL A   1      32.168  21.727  22.262  1.00  0.00    -0.082 Cl
ENDBRANCH  14  16
ENDBRANCH   9  14
ENDBRANCH   7   8
ENDBRANCH   4   7
ENDBRANCH   2   3
ENDBRANCH   1   2
BRANCH   1  24
ATOM     24  C   UNL A   1      32.781  28.083  26.028  1.00  0.00     0.023 C 
BRANCH  24  25
ATOM     25  C   UNL A   1      33.607  28.416  27.264  1.00  0.00     0.116 C 
BRANCH  25  26
ATOM     26  N   UNL A   1      33.505  29.812  27.663  1.00  0.00    -0.352 N 
ATOM     27  C   UNL A   1      34.474  30.606  28.229  1.00  0.00     0.251 C 
ATOM     28  H   UNL A   1      32.634  30.242  27.507  1.00  0.00     0.163 HD
ATOM     29  O   UNL A   1      34.203  31.741  28.608  1.00  0.00    -0.269 OA
BRANCH  27  30
ATOM     30  C   UNL A   1      35.834  30.058  28.416  1.00  0.00     0.039 A 
ATOM     31  C   UNL A   1      36.721  30.068  27.337  1.00  0.00     0.014 A 
ATOM     32  C   UNL A   1      36.244  29.584  29.665  1.00  0.00     0.014 A 
ATOM     33  C   UNL A   1      38.046  29.669  27.529  1.00  0.00     0.010 A 
ATOM     34  C   UNL A   1      37.577  29.245  29.869  1.00  0.00     0.010 A 
ATOM     35  C   UNL A   1      38.492  29.292  28.806  1.00  0.00    -0.014 A 
BRANCH  35  36
ATOM     36  C   UNL A   1      39.914  28.952  29.063  1.00  0.00     0.031 A 
ATOM     37  C   UNL A   1      40.853  30.002  29.587  1.00  0.00     0.074 A 
ATOM     38  C   UNL A   1      40.378  27.728  28.739  1.00  0.00     0.049 A 
ATOM     39  N   UNL A   1      42.148  29.943  29.756  1.00  0.00    -0.248 NA
ATOM     40  C   UNL A   1      40.259  31.303  29.939  1.00  0.00     0.031 C 
ATOM     41  C   UNL A   1      39.574  26.639  28.180  1.00  0.00     0.029 A 
ATOM     42  N   UNL A   1      41.643  27.202  28.813  1.00  0.00    -0.354 N 
ATOM     43  C   UNL A   1      42.529  31.199  30.210  1.00  0.00     0.074 A 
ATOM     44  C   UNL A   1      41.333  32.013  30.254  1.00  0.00     0.031 C 
ATOM     45  C   UNL A   1      40.364  25.573  27.971  1.00  0.00     0.029 A 
ATOM     46  C   UNL A   1      41.733  25.912  28.345  1.00  0.00     0.049 A 
ATOM     47  H   UNL A   1      42.415  27.701  29.167  1.00  0.00     0.167 HD
ATOM     48  C   UNL A   1      43.760  31.630  30.572  1.00  0.00     0.037 A 
ATOM     49  C   UNL A   1      42.800  25.099  28.220  1.00  0.00     0.037 A 
ATOM     50  C   UNL A   1      44.939  30.805  30.560  1.00  0.00     0.049 A 
ATOM     51  C   UNL A   1      44.154  25.594  28.649  1.00  0.00     0.074 A 
ATOM     52  C   UNL A   1      46.222  31.132  30.967  1.00  0.00     0.029 A 
ATOM     53  N   UNL A   1      44.980  29.489  30.124  1.00  0.00    -0.354 N 
ATOM     54  N   UNL A   1      44.487  26.769  29.125  1.00  0.00    -0.248 NA
ATOM     55  C   UNL A   1      45.277  24.652  28.529  1.00  0.00     0.031 C 
ATOM     56  C   UNL A   1      47.044  30.022  30.749  1.00  0.00     0.029 A 
ATOM     57  C   UNL A   1      46.267  28.992  30.242  1.00  0.00     0.049 A 
ATOM     58  H   UNL A   1      44.208  28.984  29.782  1.00  0.00     0.167 HD
ATOM     59  C   UNL A   1      45.851  26.700  29.387  1.00  0.00     0.074 A 
ATOM     60  C   UNL A   1      46.281  25.366  29.021  1.00  0.00     0.031 C 
ATOM     61  C   UNL A   1      46.673  27.655  29.888  1.00  0.00     0.037 A 
BRANCH  48  62
ATOM     62  C   UNL A   1      43.892  33.059  31.020  1.00  0.00     0.058 A 
ATOM     63  C   UNL A   1      43.633  33.439  32.347  1.00  0.00     0.135 A 
ATOM     64  C   UNL A   1      44.304  34.055  30.121  1.00  0.00     0.135 A 
ATOM     65  F   UNL A   1      43.220  32.529  33.243  1.00  0.00    -0.206 F 
ATOM     66  C   UNL A   1      43.750  34.762  32.759  1.00  0.00     0.059 A 
ATOM     67  C   UNL A   1      44.452  35.380  30.518  1.00  0.00     0.059 A 
ATOM     68  F   UNL A   1      44.563  33.745  28.841  1.00  0.00    -0.206 F 
ATOM     69  C   UNL A   1      44.156  35.726  31.836  1.00  0.00     0.060 A 
BRANCH  69  70
ATOM     70  S   UNL A   1      44.300  37.441  32.384  1.00  0.00     0.124 S 
ATOM     71  O   UNL A   1      45.737  37.553  32.609  1.00  0.00    -0.237 OA
ATOM     72  O   UNL A   1      43.777  38.181  31.241  1.00  0.00    -0.237 OA
ATOM     73  O   UNL A   1      43.471  37.482  33.586  1.00  0.00    -0.744 OA
ENDBRANCH  69  70
ENDBRANCH  48  62
BRANCH  49  74
ATOM     74  C   UNL A   1      42.625  23.723  27.685  1.00  0.00     0.058 A 
ATOM     75  C   UNL A   1      42.568  22.620  28.547  1.00  0.00     0.135 A 
ATOM     76  C   UNL A   1      42.493  23.487  26.308  1.00  0.00     0.135 A 
ATOM     77  F   UNL A   1      42.696  22.797  29.871  1.00  0.00    -0.206 F 
ATOM     78  C   UNL A   1      42.399  21.326  28.065  1.00  0.00     0.059 A 
ATOM     79  C   UNL A   1      42.302  22.205  25.803  1.00  0.00     0.059 A 
ATOM     80  F   UNL A   1      42.524  24.513  25.444  1.00  0.00    -0.206 F 
ATOM     81  C   UNL A   1      42.266  21.129  26.690  1.00  0.00     0.060 A 
BRANCH  81  82
ATOM     82  S   UNL A   1      41.992  19.452  26.076  1.00  0.00     0.124 S 
ATOM     83  O   UNL A   1      42.375  18.651  27.232  1.00  0.00    -0.237 OA
ATOM     84  O   UNL A   1      40.569  19.470  25.754  1.00  0.00    -0.237 OA
ATOM     85  O   UNL A   1      42.885  19.369  24.924  1.00  0.00    -0.744 OA
ENDBRANCH  81  82
ENDBRANCH  49  74
BRANCH  61  86
ATOM     86  C   UNL A   1      48.111  27.286  30.112  1.00  0.00     0.058 A 
ATOM     87  C   UNL A   1      49.090  27.515  29.133  1.00  0.00     0.135 A 
ATOM     88  C   UNL A   1      48.525  26.767  31.349  1.00  0.00     0.135 A 
ATOM     89  F   UNL A   1      48.742  28.004  27.931  1.00  0.00    -0.206 F 
ATOM     90  C   UNL A   1      50.430  27.233  29.370  1.00  0.00     0.059 A 
ATOM     91  C   UNL A   1      49.863  26.496  31.615  1.00  0.00     0.059 A 
ATOM     92  F   UNL A   1      47.626  26.538  32.321  1.00  0.00    -0.206 F 
ATOM     93  C   UNL A   1      50.808  26.727  30.615  1.00  0.00     0.060 A 
BRANCH  93  94
ATOM     94  S   UNL A   1      52.559  26.417  30.933  1.00  0.00     0.124 S 
ATOM     95  O   UNL A   1      52.935  27.607  31.690  1.00  0.00    -0.237 OA
ATOM     96  O   UNL A   1      52.524  25.168  31.688  1.00  0.00    -0.237 OA
ATOM     97  O   UNL A   1      53.133  26.317  29.594  1.00  0.00    -0.744 OA
ENDBRANCH  93  94
ENDBRANCH  61  86
ENDBRANCH  35  36
ENDBRANCH  27  30
ENDBRANCH  25  26
ENDBRANCH  24  25
ENDBRANCH   1  24
TORSDOF 17
ENDMDL
MODEL 2
REMARK VINA RESULT:     -11.4      1.450      2.970
REMARK SMILES Cc1cccc(Cl)c1Nc1ccccc1CC(=O)NCCCCNC(=O)c1ccc(-c2c3nc(c(-c4c(F)cc(S(=O)(=O)[O-])cc4F)c4ccc([nH]4)c(-c4c(F)cc(S(=O)(=O)[O-])cc4F)c4nc(c(-c5c(F)cc(S(=O)(=O)[O-])cc5F)c5ccc2[nH]5)C=C4)C=C3)cc1
REMARK SMILES IDX 21 1 20 2 19 3 17 4 18 5 16 7 15 8 10 9 11 10 12 11 14 12
REMARK SMILES IDX 13 13 9 14 8 16 1 17 2 18 3 19 4 20 6 21 5 22 7 23 22 24
REMARK SMILES IDX 23 25 24 26 25 27 26 29 27 30 28 31 92 32 29 33 91 34 30 35
REMARK SMILES IDX 31 36 32 37 85 38 33 39 90 40 84 41 86 42 34 43 89 44 83 45
REMARK SMILES IDX 82 46 35 48 69 49 48 50 68 51 49 52 52 53 67 54 87 55 50 56
REMARK SMILES IDX 51 57 66 59 88 60 53 61 36 62 37 63 46 64 38 65 39 66 45 67
REMARK SMILES IDX 47 68 40 69 41 70 42 71 43 72 44 73 70 74 71 75 80 76 72 77
REMARK SMILES IDX 73 78 79 79 81 80 74 81 75 82 76 83 77 84 78 85 54 86 55 87
REMARK SMILES IDX 64 88 56 89 57 90 63 91 65 92 58 93 59 94 60 95 61 96 62 97
REMARK H PARENT 19 6 9 15 24 28 86 47 52 58
REMARK Flexibility Score: inf
ROOT
ATOM      1  C   UNL A   1      33.390  26.643  24.412  1.00  0.00     0.023 C 
ENDROOT
BRANCH   1   2
ATOM      2  C   UNL A   1      32.675  25.388  23.912  1.00  0.00     0.116 C 
BRANCH   2   3
ATOM      3  N   UNL A   1      33.554  24.533  23.143  1.00  0.00    -0.356 N 
ATOM      4  C   UNL A   1      33.663  23.170  23.189  1.00  0.00     0.224 C 
ATOM      5  O   UNL A   1      34.531  22.623  22.505  1.00  0.00    -0.275 OA
ATOM      6  H   UNL A   1      34.150  24.989  22.506  1.00  0.00     0.163 HD
BRANCH   4   7
ATOM      7  C   UNL A   1      32.695  22.361  24.038  1.00  0.00     0.137 C 
BRANCH   7   8
ATOM      8  C   UNL A   1      32.931  20.865  23.992  1.00  0.00    -0.015 A 
ATOM      9  C   UNL A   1      33.899  20.208  24.783  1.00  0.00     0.042 A 
ATOM     10  C   UNL A   1      34.122  18.835  24.570  1.00  0.00     0.026 A 
ATOM     11  C   UNL A   1      33.392  18.114  23.624  1.00  0.00     0.002 A 
ATOM     12  C   UNL A   1      32.177  20.112  23.067  1.00  0.00     0.006 A 
ATOM     13  C   UNL A   1      32.409  18.751  22.882  1.00  0.00     0.000 A 
BRANCH   9  14
ATOM     14  N   UNL A   1      34.641  20.821  25.814  1.00  0.00    -0.354 N 
ATOM     15  H   UNL A   1      34.305  20.619  26.717  1.00  0.00     0.167 HD
BRANCH  14  16
ATOM     16  C   UNL A   1      35.774  21.669  25.802  1.00  0.00     0.060 A 
ATOM     17  C   UNL A   1      34.274  23.544  26.688  1.00  0.00     0.046 C 
ATOM     18  C   UNL A   1      35.615  23.006  26.254  1.00  0.00    -0.026 A 
ATOM     19  C   UNL A   1      36.730  23.858  26.351  1.00  0.00     0.005 A 
ATOM     20  C   UNL A   1      37.999  23.412  25.996  1.00  0.00     0.002 A 
ATOM     21  C   UNL A   1      37.071  21.251  25.421  1.00  0.00     0.064 A 
ATOM     22  C   UNL A   1      38.167  22.117  25.525  1.00  0.00     0.023 A 
ATOM     23  Cl  UNL A   1      37.396  19.710  24.699  1.00  0.00    -0.082 Cl
ENDBRANCH  14  16
ENDBRANCH   9  14
ENDBRANCH   7   8
ENDBRANCH   4   7
ENDBRANCH   2   3
ENDBRANCH   1   2
BRANCH   1  24
ATOM     24  C   UNL A   1      33.285  26.881  25.920  1.00  0.00     0.023 C 
BRANCH  24  25
ATOM     25  C   UNL A   1      34.314  27.847  26.495  1.00  0.00     0.116 C 
BRANCH  25  26
ATOM     26  N   UNL A   1      33.744  29.129  26.882  1.00  0.00    -0.352 N 
ATOM     27  C   UNL A   1      34.325  30.127  27.628  1.00  0.00     0.251 C 
ATOM     28  H   UNL A   1      32.827  29.305  26.568  1.00  0.00     0.163 HD
ATOM     29  O   UNL A   1      33.674  31.113  27.960  1.00  0.00    -0.269 OA
BRANCH  27  30
ATOM     30  C   UNL A   1      35.730  29.974  28.061  1.00  0.00     0.039 A 
ATOM     31  C   UNL A   1      35.993  29.561  29.370  1.00  0.00     0.014 A 
ATOM     32  C   UNL A   1      36.778  30.189  27.163  1.00  0.00     0.014 A 
ATOM     33  C   UNL A   1      37.308  29.293  29.757  1.00  0.00     0.010 A 
ATOM     34  C   UNL A   1      38.079  29.863  27.531  1.00  0.00     0.010 A 
ATOM     35  C   UNL A   1      38.355  29.405  28.829  1.00  0.00    -0.014 A 
BRANCH  35  36
ATOM     36  C   UNL A   1      39.750  29.039  29.183  1.00  0.00     0.031 A 
ATOM     37  C   UNL A   1      40.656  30.060  29.810  1.00  0.00     0.074 A 
ATOM     38  C   UNL A   1      40.224  27.820  28.856  1.00  0.00     0.049 A 
ATOM     39  N   UNL A   1      41.934  29.979  30.076  1.00  0.00    -0.248 NA
ATOM     40  C   UNL A   1      40.051  31.357  30.156  1.00  0.00     0.031 C 
ATOM     41  C   UNL A   1      39.454  26.759  28.203  1.00  0.00     0.029 A 
ATOM     42  N   UNL A   1      41.474  27.276  29.010  1.00  0.00    -0.354 N 
ATOM     43  C   UNL A   1      42.292  31.215  30.597  1.00  0.00     0.074 A 
ATOM     44  C   UNL A   1      41.105  32.043  30.575  1.00  0.00     0.031 C 
ATOM     45  C   UNL A   1      40.246  25.690  28.021  1.00  0.00     0.029 A 
ATOM     46  C   UNL A   1      41.586  25.999  28.510  1.00  0.00     0.049 A 
ATOM     47  H   UNL A   1      42.221  27.753  29.438  1.00  0.00     0.167 HD
ATOM     48  C   UNL A   1      43.496  31.618  31.067  1.00  0.00     0.037 A 
ATOM     49  C   UNL A   1      42.650  25.177  28.441  1.00  0.00     0.037 A 
ATOM     50  C   UNL A   1      44.664  30.779  31.119  1.00  0.00     0.049 A 
ATOM     51  C   UNL A   1      43.973  25.640  28.988  1.00  0.00     0.074 A 
ATOM     52  C   UNL A   1      45.915  31.076  31.633  1.00  0.00     0.029 A 
ATOM     53  N   UNL A   1      44.724  29.477  30.645  1.00  0.00    -0.354 N 
ATOM     54  N   UNL A   1      44.281  26.796  29.525  1.00  0.00    -0.248 NA
ATOM     55  C   UNL A   1      45.092  24.688  28.925  1.00  0.00     0.031 C 
ATOM     56  C   UNL A   1      46.740  29.963  31.443  1.00  0.00     0.029 A 
ATOM     57  C   UNL A   1      45.992  28.959  30.846  1.00  0.00     0.049 A 
ATOM     58  H   UNL A   1      43.976  28.993  30.229  1.00  0.00     0.167 HD
ATOM     59  C   UNL A   1      45.620  26.701  29.889  1.00  0.00     0.074 A 
ATOM     60  C   UNL A   1      46.062  25.373  29.514  1.00  0.00     0.031 C 
ATOM     61  C   UNL A   1      46.410  27.629  30.482  1.00  0.00     0.037 A 
BRANCH  48  62
ATOM     62  C   UNL A   1      43.608  33.031  31.569  1.00  0.00     0.058 A 
ATOM     63  C   UNL A   1      43.831  34.105  30.694  1.00  0.00     0.135 A 
ATOM     64  C   UNL A   1      43.466  33.317  32.936  1.00  0.00     0.135 A 
ATOM     65  F   UNL A   1      43.991  33.885  29.380  1.00  0.00    -0.206 F 
ATOM     66  C   UNL A   1      43.941  35.411  31.160  1.00  0.00     0.059 A 
ATOM     67  C   UNL A   1      43.546  34.619  33.421  1.00  0.00     0.059 A 
ATOM     68  F   UNL A   1      43.252  32.326  33.815  1.00  0.00    -0.206 F 
ATOM     69  C   UNL A   1      43.801  35.657  32.526  1.00  0.00     0.060 A 
BRANCH  69  70
ATOM     70  S   UNL A   1      43.949  37.357  33.118  1.00  0.00     0.124 S 
ATOM     71  O   UNL A   1      43.972  38.099  31.861  1.00  0.00    -0.237 OA
ATOM     72  O   UNL A   1      42.745  37.515  33.926  1.00  0.00    -0.237 OA
ATOM     73  O   UNL A   1      45.204  37.347  33.864  1.00  0.00    -0.744 OA
ENDBRANCH  69  70
ENDBRANCH  48  62
BRANCH  49  74
ATOM     74  C   UNL A   1      42.503  23.821  27.850  1.00  0.00     0.058 A 
ATOM     75  C   UNL A   1      42.420  22.687  28.670  1.00  0.00     0.135 A 
ATOM     76  C   UNL A   1      42.423  23.634  26.462  1.00  0.00     0.135 A 
ATOM     77  F   UNL A   1      42.497  22.816  30.003  1.00  0.00    -0.206 F 
ATOM     78  C   UNL A   1      42.275  21.410  28.135  1.00  0.00     0.059 A 
ATOM     79  C   UNL A   1      42.258  22.370  25.904  1.00  0.00     0.059 A 
ATOM     80  F   UNL A   1      42.481  24.690  25.637  1.00  0.00    -0.206 F 
ATOM     81  C   UNL A   1      42.194  21.262  26.750  1.00  0.00     0.060 A 
BRANCH  81  82
ATOM     82  S   UNL A   1      41.952  19.608  26.066  1.00  0.00     0.124 S 
ATOM     83  O   UNL A   1      42.384  18.767  27.175  1.00  0.00    -0.237 OA
ATOM     84  O   UNL A   1      40.522  19.600  25.778  1.00  0.00    -0.237 OA
ATOM     85  O   UNL A   1      42.818  19.603  24.891  1.00  0.00    -0.744 OA
ENDBRANCH  81  82
ENDBRANCH  49  74
BRANCH  61  86
ATOM     86  C   UNL A   1      47.824  27.234  30.803  1.00  0.00     0.058 A 
ATOM     87  C   UNL A   1      48.140  26.510  31.962  1.00  0.00     0.135 A 
ATOM     88  C   UNL A   1      48.860  27.522  29.901  1.00  0.00     0.135 A 
ATOM     89  F   UNL A   1      47.184  26.217  32.858  1.00  0.00    -0.206 F 
ATOM     90  C   UNL A   1      49.440  26.091  32.220  1.00  0.00     0.059 A 
ATOM     91  C   UNL A   1      50.164  27.095  30.130  1.00  0.00     0.059 A 
ATOM     92  F   UNL A   1      48.606  28.206  28.774  1.00  0.00    -0.206 F 
ATOM     93  C   UNL A   1      50.445  26.385  31.297  1.00  0.00     0.060 A 
BRANCH  93  94
ATOM     94  S   UNL A   1      52.120  25.787  31.614  1.00  0.00     0.124 S 
ATOM     95  O   UNL A   1      51.869  24.401  31.997  1.00  0.00    -0.237 OA
ATOM     96  O   UNL A   1      52.772  25.981  30.323  1.00  0.00    -0.237 OA
ATOM     97  O   UNL A   1      52.593  26.659  32.685  1.00  0.00    -0.744 OA
ENDBRANCH  93  94
ENDBRANCH  61  86
ENDBRANCH  35  36
ENDBRANCH  27  30
ENDBRANCH  25  26
ENDBRANCH  24  25
ENDBRANCH   1  24
TORSDOF 17
ENDMDL
MODEL 3
REMARK VINA RESULT:     -11.2      2.706      4.129
REMARK SMILES Cc1cccc(Cl)c1Nc1ccccc1CC(=O)NCCCCNC(=O)c1ccc(-c2c3nc(c(-c4c(F)cc(S(=O)(=O)[O-])cc4F)c4ccc([nH]4)c(-c4c(F)cc(S(=O)(=O)[O-])cc4F)c4nc(c(-c5c(F)cc(S(=O)(=O)[O-])cc5F)c5ccc2[nH]5)C=C4)C=C3)cc1
REMARK SMILES IDX 21 1 20 2 19 3 17 4 18 5 16 7 15 8 10 9 11 10 12 11 14 12
REMARK SMILES IDX 13 13 9 14 8 16 1 17 2 18 3 19 4 20 6 21 5 22 7 23 22 24
REMARK SMILES IDX 23 25 24 26 25 27 26 29 27 30 28 31 92 32 29 33 91 34 30 35
REMARK SMILES IDX 31 36 32 37 85 38 33 39 90 40 84 41 86 42 34 43 89 44 83 45
REMARK SMILES IDX 82 46 35 48 69 49 48 50 68 51 49 52 52 53 67 54 87 55 50 56
REMARK SMILES IDX 51 57 66 59 88 60 53 61 36 62 37 63 46 64 38 65 39 66 45 67
REMARK SMILES IDX 47 68 40 69 41 70 42 71 43 72 44 73 70 74 71 75 80 76 72 77
REMARK SMILES IDX 73 78 79 79 81 80 74 81 75 82 76 83 77 84 78 85 54 86 55 87
REMARK SMILES IDX 64 88 56 89 57 90 63 91 65 92 58 93 59 94 60 95 61 96 62 97
REMARK H PARENT 19 6 9 15 24 28 86 47 52 58
REMARK Flexibility Score: inf
ROOT
ATOM      1  C   UNL A   1      34.750  30.687  27.648  1.00  0.00     0.023 C 
ENDROOT
BRANCH   1   2
ATOM      2  C   UNL A   1      33.402  30.544  26.942  1.00  0.00     0.116 C 
BRANCH   2   3
ATOM      3  N   UNL A   1      32.486  29.705  27.687  1.00  0.00    -0.356 N 
ATOM      4  C   UNL A   1      32.091  28.425  27.406  1.00  0.00     0.224 C 
ATOM      5  O   UNL A   1      31.238  27.899  28.125  1.00  0.00    -0.275 OA
ATOM      6  H   UNL A   1      32.097  30.106  28.497  1.00  0.00     0.163 HD
BRANCH   4   7
ATOM      7  C   UNL A   1      32.736  27.669  26.255  1.00  0.00     0.137 C 
BRANCH   7   8
ATOM      8  C   UNL A   1      31.749  27.128  25.240  1.00  0.00    -0.015 A 
ATOM      9  C   UNL A   1      31.603  25.753  24.957  1.00  0.00     0.042 A 
ATOM     10  C   UNL A   1      30.747  25.369  23.908  1.00  0.00     0.026 A 
ATOM     11  C   UNL A   1      30.027  26.310  23.170  1.00  0.00     0.002 A 
ATOM     12  C   UNL A   1      30.984  28.063  24.510  1.00  0.00     0.006 A 
ATOM     13  C   UNL A   1      30.136  27.658  23.482  1.00  0.00     0.000 A 
BRANCH   9  14
ATOM     14  N   UNL A   1      32.225  24.715  25.682  1.00  0.00    -0.354 N 
ATOM     15  H   UNL A   1      32.386  24.935  26.628  1.00  0.00     0.167 HD
BRANCH  14  16
ATOM     16  C   UNL A   1      32.660  23.420  25.314  1.00  0.00     0.060 A 
ATOM     17  C   UNL A   1      30.454  22.508  26.238  1.00  0.00     0.046 C 
ATOM     18  C   UNL A   1      31.788  22.326  25.558  1.00  0.00    -0.026 A 
ATOM     19  C   UNL A   1      32.136  21.034  25.124  1.00  0.00     0.005 A 
ATOM     20  C   UNL A   1      33.338  20.804  24.463  1.00  0.00     0.002 A 
ATOM     21  C   UNL A   1      33.889  23.153  24.666  1.00  0.00     0.064 A 
ATOM     22  C   UNL A   1      34.215  21.858  24.243  1.00  0.00     0.023 A 
ATOM     23  Cl  UNL A   1      35.122  24.349  24.445  1.00  0.00    -0.082 Cl
ENDBRANCH  14  16
ENDBRANCH   9  14
ENDBRANCH   7   8
ENDBRANCH   4   7
ENDBRANCH   2   3
ENDBRANCH   1   2
BRANCH   1  24
ATOM     24  C   UNL A   1      35.230  32.129  27.826  1.00  0.00     0.023 C 
BRANCH  24  25
ATOM     25  C   UNL A   1      36.099  32.375  29.053  1.00  0.00     0.116 C 
BRANCH  25  26
ATOM     26  N   UNL A   1      35.739  31.537  30.188  1.00  0.00    -0.352 N 
ATOM     27  C   UNL A   1      36.498  30.571  30.804  1.00  0.00     0.251 C 
ATOM     28  H   UNL A   1      34.840  31.682  30.562  1.00  0.00     0.163 HD
ATOM     29  O   UNL A   1      36.013  29.873  31.690  1.00  0.00    -0.269 OA
BRANCH  27  30
ATOM     30  C   UNL A   1      37.889  30.355  30.355  1.00  0.00     0.039 A 
ATOM     31  C   UNL A   1      38.914  30.356  31.305  1.00  0.00     0.014 A 
ATOM     32  C   UNL A   1      38.171  30.103  29.010  1.00  0.00     0.014 A 
ATOM     33  C   UNL A   1      40.215  30.030  30.916  1.00  0.00     0.010 A 
ATOM     34  C   UNL A   1      39.455  29.720  28.635  1.00  0.00     0.010 A 
ATOM     35  C   UNL A   1      40.487  29.673  29.585  1.00  0.00    -0.014 A 
BRANCH  35  36
ATOM     36  C   UNL A   1      41.839  29.233  29.159  1.00  0.00     0.031 A 
ATOM     37  C   UNL A   1      42.959  30.232  29.074  1.00  0.00     0.074 A 
ATOM     38  C   UNL A   1      42.034  27.960  28.763  1.00  0.00     0.049 A 
ATOM     39  N   UNL A   1      44.171  30.077  28.607  1.00  0.00    -0.248 NA
ATOM     40  C   UNL A   1      42.668  31.594  29.550  1.00  0.00     0.031 C 
ATOM     41  C   UNL A   1      41.013  26.909  28.756  1.00  0.00     0.029 A 
ATOM     42  N   UNL A   1      43.152  27.337  28.269  1.00  0.00    -0.354 N 
ATOM     43  C   UNL A   1      44.778  31.321  28.710  1.00  0.00     0.074 A 
ATOM     44  C   UNL A   1      43.790  32.231  29.248  1.00  0.00     0.031 C 
ATOM     45  C   UNL A   1      41.555  25.772  28.290  1.00  0.00     0.029 A 
ATOM     46  C   UNL A   1      42.948  26.019  27.932  1.00  0.00     0.049 A 
ATOM     47  H   UNL A   1      44.020  27.791  28.165  1.00  0.00     0.167 HD
ATOM     48  C   UNL A   1      46.049  31.670  28.400  1.00  0.00     0.037 A 
ATOM     49  C   UNL A   1      43.785  25.116  27.385  1.00  0.00     0.037 A 
ATOM     50  C   UNL A   1      47.038  30.752  27.898  1.00  0.00     0.049 A 
ATOM     51  C   UNL A   1      45.198  25.522  27.067  1.00  0.00     0.074 A 
ATOM     52  C   UNL A   1      48.370  30.996  27.610  1.00  0.00     0.029 A 
ATOM     53  N   UNL A   1      46.805  29.415  27.614  1.00  0.00    -0.354 N 
ATOM     54  N   UNL A   1      45.771  26.692  27.219  1.00  0.00    -0.248 NA
ATOM     55  C   UNL A   1      46.081  24.487  26.509  1.00  0.00     0.031 C 
ATOM     56  C   UNL A   1      48.935  29.812  27.125  1.00  0.00     0.029 A 
ATOM     57  C   UNL A   1      47.965  28.822  27.146  1.00  0.00     0.049 A 
ATOM     58  H   UNL A   1      45.942  28.956  27.730  1.00  0.00     0.167 HD
ATOM     59  C   UNL A   1      47.088  26.527  26.802  1.00  0.00     0.074 A 
ATOM     60  C   UNL A   1      47.227  25.143  26.395  1.00  0.00     0.031 C 
ATOM     61  C   UNL A   1      48.090  27.438  26.762  1.00  0.00     0.037 A 
BRANCH  48  62
ATOM     62  C   UNL A   1      46.444  33.106  28.601  1.00  0.00     0.058 A 
ATOM     63  C   UNL A   1      46.277  34.063  27.587  1.00  0.00     0.135 A 
ATOM     64  C   UNL A   1      46.972  33.537  29.828  1.00  0.00     0.135 A 
ATOM     65  F   UNL A   1      45.793  33.700  26.388  1.00  0.00    -0.206 F 
ATOM     66  C   UNL A   1      46.648  35.390  27.771  1.00  0.00     0.059 A 
ATOM     67  C   UNL A   1      47.325  34.866  30.044  1.00  0.00     0.059 A 
ATOM     68  F   UNL A   1      47.152  32.663  30.831  1.00  0.00    -0.206 F 
ATOM     69  C   UNL A   1      47.175  35.781  29.003  1.00  0.00     0.060 A 
BRANCH  69  70
ATOM     70  S   UNL A   1      47.656  37.507  29.228  1.00  0.00     0.124 S 
ATOM     71  O   UNL A   1      48.165  37.841  27.901  1.00  0.00    -0.237 OA
ATOM     72  O   UNL A   1      46.395  38.139  29.600  1.00  0.00    -0.237 OA
ATOM     73  O   UNL A   1      48.658  37.444  30.287  1.00  0.00    -0.744 OA
ENDBRANCH  69  70
ENDBRANCH  48  62
BRANCH  49  74
ATOM     74  C   UNL A   1      43.312  23.732  27.123  1.00  0.00     0.058 A 
ATOM     75  C   UNL A   1      42.994  23.316  25.823  1.00  0.00     0.135 A 
ATOM     76  C   UNL A   1      43.189  22.794  28.160  1.00  0.00     0.135 A 
ATOM     77  F   UNL A   1      43.091  24.179  24.801  1.00  0.00    -0.206 F 
ATOM     78  C   UNL A   1      42.556  22.023  25.558  1.00  0.00     0.059 A 
ATOM     79  C   UNL A   1      42.773  21.489  27.918  1.00  0.00     0.059 A 
ATOM     80  F   UNL A   1      43.498  23.140  29.419  1.00  0.00    -0.206 F 
ATOM     81  C   UNL A   1      42.450  21.115  26.613  1.00  0.00     0.060 A 
BRANCH  81  82
ATOM     82  S   UNL A   1      41.932  19.422  26.253  1.00  0.00     0.124 S 
ATOM     83  O   UNL A   1      42.676  19.142  25.031  1.00  0.00    -0.237 OA
ATOM     84  O   UNL A   1      42.371  18.705  27.447  1.00  0.00    -0.237 OA
ATOM     85  O   UNL A   1      40.485  19.541  26.102  1.00  0.00    -0.744 OA
ENDBRANCH  81  82
ENDBRANCH  49  74
BRANCH  61  86
ATOM     86  C   UNL A   1      49.440  26.967  26.301  1.00  0.00     0.058 A 
ATOM     87  C   UNL A   1      50.329  26.320  27.172  1.00  0.00     0.135 A 
ATOM     88  C   UNL A   1      49.814  27.099  24.955  1.00  0.00     0.135 A 
ATOM     89  F   UNL A   1      50.019  26.175  28.470  1.00  0.00    -0.206 F 
ATOM     90  C   UNL A   1      51.550  25.826  26.724  1.00  0.00     0.059 A 
ATOM     91  C   UNL A   1      51.020  26.596  24.481  1.00  0.00     0.059 A 
ATOM     92  F   UNL A   1      48.992  27.704  24.081  1.00  0.00    -0.206 F 
ATOM     93  C   UNL A   1      51.885  25.966  25.376  1.00  0.00     0.060 A 
BRANCH  93  94
ATOM     94  S   UNL A   1      53.447  25.272  24.792  1.00  0.00     0.124 S 
ATOM     95  O   UNL A   1      53.348  23.893  25.259  1.00  0.00    -0.237 OA
ATOM     96  O   UNL A   1      53.354  25.462  23.348  1.00  0.00    -0.237 OA
ATOM     97  O   UNL A   1      54.452  26.092  25.462  1.00  0.00    -0.744 OA
ENDBRANCH  93  94
ENDBRANCH  61  86
ENDBRANCH  35  36
ENDBRANCH  27  30
ENDBRANCH  25  26
ENDBRANCH  24  25
ENDBRANCH   1  24
TORSDOF 17
ENDMDL
