MODEL 1
REMARK VINA RESULT:     -11.8      0.000      0.000
REMARK SMILES Cc1ccc(Br)cc1C(=O)N1CCO[C@H](CC(=O)NCCCCNC(=O)c2ccc(-c3c4nc(c(-c5c(F)cc(S(=O)(=O)[O-])cc5F)c5ccc([nH]5)c(-c5c(F)cc(S(=O)(=O)[O-])cc5F)c5nc(c(-c6c(F)cc(S(=O)(=O)[O-])cc6F)c6ccc3[nH]6)C=C5)C=C4)cc2)C1
REMARK SMILES IDX 21 1 20 2 19 3 17 4 18 5 16 7 15 8 11 9 12 10 93 11 13 12
REMARK SMILES IDX 14 13 9 14 10 15 8 16 1 17 2 18 3 19 4 20 7 21 5 22 6 23
REMARK SMILES IDX 22 24 23 25 24 26 25 27 26 29 27 30 28 31 92 32 29 33 91 34
REMARK SMILES IDX 30 35 31 36 32 37 85 38 33 39 90 40 84 41 86 42 34 43 89 44
REMARK SMILES IDX 83 45 82 46 35 48 69 49 48 50 68 51 49 52 52 53 67 54 87 55
REMARK SMILES IDX 50 56 51 57 66 59 88 60 53 61 36 62 37 63 46 64 38 65 39 66
REMARK SMILES IDX 45 67 47 68 40 69 41 70 42 71 43 72 44 73 70 74 71 75 80 76
REMARK SMILES IDX 72 77 73 78 79 79 81 80 74 81 75 82 76 83 77 84 78 85 54 86
REMARK SMILES IDX 55 87 64 88 56 89 57 90 63 91 65 92 58 93 59 94 60 95 61 96
REMARK SMILES IDX 62 97
REMARK H PARENT 19 6 24 28 86 47 52 58
REMARK Flexibility Score: inf
ROOT
ATOM      1  C   UNL A   1      38.865  22.845  26.347  1.00  0.00     0.023 C 
ENDROOT
BRANCH   1   2
ATOM      2  C   UNL A   1      37.994  21.864  25.571  1.00  0.00     0.116 C 
BRANCH   2   3
ATOM      3  N   UNL A   1      37.567  22.459  24.321  1.00  0.00    -0.356 N 
ATOM      4  C   UNL A   1      36.304  22.827  23.965  1.00  0.00     0.222 C 
ATOM      5  O   UNL A   1      36.051  23.078  22.789  1.00  0.00    -0.275 OA
ATOM      6  H   UNL A   1      38.272  22.617  23.651  1.00  0.00     0.163 HD
BRANCH   4   7
ATOM      7  C   UNL A   1      35.278  23.011  25.050  1.00  0.00     0.133 C 
BRANCH   7   8
ATOM      8  C   UNL A   1      34.231  21.893  25.163  1.00  0.00     0.147 C 
ATOM      9  N   UNL A   1      32.610  23.411  26.145  1.00  0.00    -0.334 N 
ATOM     10  C   UNL A   1      32.592  22.714  27.423  1.00  0.00     0.148 C 
ATOM     11  C   UNL A   1      32.829  22.499  25.017  1.00  0.00     0.152 C 
ATOM     12  C   UNL A   1      33.823  21.797  27.586  1.00  0.00     0.182 C 
ATOM     13  O   UNL A   1      34.280  21.131  26.393  1.00  0.00    -0.374 OA
BRANCH   9  14
ATOM     14  C   UNL A   1      32.071  24.657  25.874  1.00  0.00     0.254 C 
ATOM     15  O   UNL A   1      30.852  24.811  26.008  1.00  0.00    -0.269 OA
BRANCH  14  16
ATOM     16  C   UNL A   1      32.854  25.805  25.258  1.00  0.00     0.044 A 
ATOM     17  C   UNL A   1      32.784  25.266  22.710  1.00  0.00     0.045 C 
ATOM     18  C   UNL A   1      33.088  26.117  23.898  1.00  0.00    -0.038 A 
ATOM     19  C   UNL A   1      33.672  27.361  23.554  1.00  0.00     0.005 A 
ATOM     20  C   UNL A   1      33.998  28.309  24.514  1.00  0.00     0.016 A 
ATOM     21  C   UNL A   1      33.230  26.782  26.213  1.00  0.00     0.029 A 
ATOM     22  C   UNL A   1      33.778  28.012  25.846  1.00  0.00     0.018 A 
ATOM     23  Br  UNL A   1      34.183  29.300  27.168  1.00  0.00    -0.051 Br
ENDBRANCH  14  16
ENDBRANCH   9  14
ENDBRANCH   7   8
ENDBRANCH   4   7
ENDBRANCH   2   3
ENDBRANCH   1   2
BRANCH   1  24
ATOM     24  C   UNL A   1      40.078  22.182  27.001  1.00  0.00     0.023 C 
BRANCH  24  25
ATOM     25  C   UNL A   1      41.253  23.121  27.249  1.00  0.00     0.116 C 
BRANCH  25  26
ATOM     26  N   UNL A   1      41.525  23.983  26.110  1.00  0.00    -0.352 N 
ATOM     27  C   UNL A   1      41.517  25.357  26.053  1.00  0.00     0.251 C 
ATOM     28  H   UNL A   1      41.743  23.523  25.268  1.00  0.00     0.163 HD
ATOM     29  O   UNL A   1      41.609  25.924  24.972  1.00  0.00    -0.269 OA
BRANCH  27  30
ATOM     30  C   UNL A   1      41.365  26.133  27.302  1.00  0.00     0.039 A 
ATOM     31  C   UNL A   1      42.341  27.075  27.626  1.00  0.00     0.014 A 
ATOM     32  C   UNL A   1      40.255  25.950  28.131  1.00  0.00     0.014 A 
ATOM     33  C   UNL A   1      42.173  27.874  28.758  1.00  0.00     0.010 A 
ATOM     34  C   UNL A   1      40.049  26.803  29.213  1.00  0.00     0.010 A 
ATOM     35  C   UNL A   1      41.009  27.771  29.541  1.00  0.00    -0.014 A 
BRANCH  35  36
ATOM     36  C   UNL A   1      40.789  28.685  30.691  1.00  0.00     0.031 A 
ATOM     37  C   UNL A   1      41.621  28.562  31.939  1.00  0.00     0.074 A 
ATOM     38  C   UNL A   1      39.813  29.613  30.618  1.00  0.00     0.049 A 
ATOM     39  N   UNL A   1      41.585  29.286  33.028  1.00  0.00    -0.248 NA
ATOM     40  C   UNL A   1      42.605  27.468  31.982  1.00  0.00     0.031 C 
ATOM     41  C   UNL A   1      38.897  29.788  29.487  1.00  0.00     0.029 A 
ATOM     42  N   UNL A   1      39.430  30.586  31.505  1.00  0.00    -0.354 N 
ATOM     43  C   UNL A   1      42.537  28.739  33.881  1.00  0.00     0.074 A 
ATOM     44  C   UNL A   1      43.087  27.582  33.211  1.00  0.00     0.031 C 
ATOM     45  C   UNL A   1      38.089  30.830  29.733  1.00  0.00     0.029 A 
ATOM     46  C   UNL A   1      38.400  31.375  31.049  1.00  0.00     0.049 A 
ATOM     47  H   UNL A   1      39.853  30.707  32.386  1.00  0.00     0.167 HD
ATOM     48  C   UNL A   1      42.935  29.177  35.100  1.00  0.00     0.037 A 
ATOM     49  C   UNL A   1      37.778  32.422  31.626  1.00  0.00     0.037 A 
ATOM     50  C   UNL A   1      42.389  30.338  35.756  1.00  0.00     0.049 A 
ATOM     51  C   UNL A   1      38.239  32.890  32.980  1.00  0.00     0.074 A 
ATOM     52  C   UNL A   1      42.761  30.898  36.966  1.00  0.00     0.029 A 
ATOM     53  N   UNL A   1      41.349  31.114  35.262  1.00  0.00    -0.354 N 
ATOM     54  N   UNL A   1      39.196  32.408  33.738  1.00  0.00    -0.248 NA
ATOM     55  C   UNL A   1      37.544  34.050  33.551  1.00  0.00     0.031 C 
ATOM     56  C   UNL A   1      41.913  31.978  37.229  1.00  0.00     0.029 A 
ATOM     57  C   UNL A   1      41.050  32.131  36.156  1.00  0.00     0.049 A 
ATOM     58  H   UNL A   1      40.892  30.965  34.404  1.00  0.00     0.167 HD
ATOM     59  C   UNL A   1      39.232  33.221  34.866  1.00  0.00     0.074 A 
ATOM     60  C   UNL A   1      38.218  34.237  34.677  1.00  0.00     0.031 C 
ATOM     61  C   UNL A   1      40.030  33.133  35.959  1.00  0.00     0.037 A 
BRANCH  48  62
ATOM     62  C   UNL A   1      44.018  28.401  35.802  1.00  0.00     0.058 A 
ATOM     63  C   UNL A   1      45.378  28.701  35.617  1.00  0.00     0.135 A 
ATOM     64  C   UNL A   1      43.694  27.372  36.700  1.00  0.00     0.135 A 
ATOM     65  F   UNL A   1      45.749  29.664  34.759  1.00  0.00    -0.206 F 
ATOM     66  C   UNL A   1      46.377  27.988  36.274  1.00  0.00     0.059 A 
ATOM     67  C   UNL A   1      44.675  26.667  37.393  1.00  0.00     0.059 A 
ATOM     68  F   UNL A   1      42.411  27.042  36.916  1.00  0.00    -0.206 F 
ATOM     69  C   UNL A   1      46.015  26.974  37.161  1.00  0.00     0.060 A 
BRANCH  69  70
ATOM     70  S   UNL A   1      47.325  26.066  38.009  1.00  0.00     0.124 S 
ATOM     71  O   UNL A   1      46.624  25.587  39.197  1.00  0.00    -0.237 OA
ATOM     72  O   UNL A   1      47.681  25.045  37.030  1.00  0.00    -0.237 OA
ATOM     73  O   UNL A   1      48.343  27.083  38.250  1.00  0.00    -0.744 OA
ENDBRANCH  69  70
ENDBRANCH  48  62
BRANCH  49  74
ATOM     74  C   UNL A   1      36.673  33.116  30.912  1.00  0.00     0.058 A 
ATOM     75  C   UNL A   1      36.939  34.094  29.941  1.00  0.00     0.135 A 
ATOM     76  C   UNL A   1      35.329  32.810  31.177  1.00  0.00     0.135 A 
ATOM     77  F   UNL A   1      38.207  34.427  29.654  1.00  0.00    -0.206 F 
ATOM     78  C   UNL A   1      35.914  34.758  29.274  1.00  0.00     0.059 A 
ATOM     79  C   UNL A   1      34.288  33.438  30.502  1.00  0.00     0.059 A 
ATOM     80  F   UNL A   1      35.020  31.869  32.083  1.00  0.00    -0.206 F 
ATOM     81  C   UNL A   1      34.590  34.420  29.560  1.00  0.00     0.060 A 
BRANCH  81  82
ATOM     82  S   UNL A   1      33.269  35.255  28.655  1.00  0.00     0.124 S 
ATOM     83  O   UNL A   1      32.567  35.944  29.730  1.00  0.00    -0.237 OA
ATOM     84  O   UNL A   1      34.020  36.104  27.734  1.00  0.00    -0.237 OA
ATOM     85  O   UNL A   1      32.544  34.153  28.029  1.00  0.00    -0.744 OA
ENDBRANCH  81  82
ENDBRANCH  49  74
BRANCH  61  86
ATOM     86  C   UNL A   1      39.854  34.182  37.025  1.00  0.00     0.058 A 
ATOM     87  C   UNL A   1      39.029  33.970  38.142  1.00  0.00     0.135 A 
ATOM     88  C   UNL A   1      40.533  35.408  36.937  1.00  0.00     0.135 A 
ATOM     89  F   UNL A   1      38.354  32.818  38.274  1.00  0.00    -0.206 F 
ATOM     90  C   UNL A   1      38.849  34.953  39.110  1.00  0.00     0.059 A 
ATOM     91  C   UNL A   1      40.395  36.391  37.911  1.00  0.00     0.059 A 
ATOM     92  F   UNL A   1      41.346  35.659  35.899  1.00  0.00    -0.206 F 
ATOM     93  C   UNL A   1      39.534  36.162  38.983  1.00  0.00     0.060 A 
BRANCH  93  94
ATOM     94  S   UNL A   1      39.293  37.429  40.246  1.00  0.00     0.124 S 
ATOM     95  O   UNL A   1      40.655  37.915  40.438  1.00  0.00    -0.237 OA
ATOM     96  O   UNL A   1      38.376  38.354  39.590  1.00  0.00    -0.237 OA
ATOM     97  O   UNL A   1      38.727  36.687  41.369  1.00  0.00    -0.744 OA
ENDBRANCH  93  94
ENDBRANCH  61  86
ENDBRANCH  35  36
ENDBRANCH  27  30
ENDBRANCH  25  26
ENDBRANCH  24  25
ENDBRANCH   1  24
TORSDOF 17
ENDMDL
MODEL 2
REMARK VINA RESULT:     -11.8      3.330      9.255
REMARK SMILES Cc1ccc(Br)cc1C(=O)N1CCO[C@H](CC(=O)NCCCCNC(=O)c2ccc(-c3c4nc(c(-c5c(F)cc(S(=O)(=O)[O-])cc5F)c5ccc([nH]5)c(-c5c(F)cc(S(=O)(=O)[O-])cc5F)c5nc(c(-c6c(F)cc(S(=O)(=O)[O-])cc6F)c6ccc3[nH]6)C=C5)C=C4)cc2)C1
REMARK SMILES IDX 21 1 20 2 19 3 17 4 18 5 16 7 15 8 11 9 12 10 93 11 13 12
REMARK SMILES IDX 14 13 9 14 10 15 8 16 1 17 2 18 3 19 4 20 7 21 5 22 6 23
REMARK SMILES IDX 22 24 23 25 24 26 25 27 26 29 27 30 28 31 92 32 29 33 91 34
REMARK SMILES IDX 30 35 31 36 32 37 85 38 33 39 90 40 84 41 86 42 34 43 89 44
REMARK SMILES IDX 83 45 82 46 35 48 69 49 48 50 68 51 49 52 52 53 67 54 87 55
REMARK SMILES IDX 50 56 51 57 66 59 88 60 53 61 36 62 37 63 46 64 38 65 39 66
REMARK SMILES IDX 45 67 47 68 40 69 41 70 42 71 43 72 44 73 70 74 71 75 80 76
REMARK SMILES IDX 72 77 73 78 79 79 81 80 74 81 75 82 76 83 77 84 78 85 54 86
REMARK SMILES IDX 55 87 64 88 56 89 57 90 63 91 65 92 58 93 59 94 60 95 61 96
REMARK SMILES IDX 62 97
REMARK H PARENT 19 6 24 28 86 47 52 58
REMARK Flexibility Score: inf
ROOT
ATOM      1  C   UNL A   1      31.857  28.055  26.764  1.00  0.00     0.023 C 
ENDROOT
BRANCH   1   2
ATOM      2  C   UNL A   1      31.052  26.958  26.080  1.00  0.00     0.116 C 
BRANCH   2   3
ATOM      3  N   UNL A   1      31.096  25.743  26.867  1.00  0.00    -0.356 N 
ATOM      4  C   UNL A   1      31.165  24.461  26.412  1.00  0.00     0.222 C 
ATOM      5  O   UNL A   1      30.939  23.527  27.180  1.00  0.00    -0.275 OA
ATOM      6  H   UNL A   1      31.075  25.857  27.846  1.00  0.00     0.163 HD
BRANCH   4   7
ATOM      7  C   UNL A   1      31.618  24.224  24.997  1.00  0.00     0.133 C 
BRANCH   7   8
ATOM      8  C   UNL A   1      33.091  23.820  24.836  1.00  0.00     0.147 C 
ATOM      9  N   UNL A   1      33.102  24.515  22.509  1.00  0.00    -0.334 N 
ATOM     10  C   UNL A   1      33.316  23.164  22.009  1.00  0.00     0.148 C 
ATOM     11  C   UNL A   1      33.756  24.739  23.803  1.00  0.00     0.152 C 
ATOM     12  C   UNL A   1      32.976  22.104  23.077  1.00  0.00     0.182 C 
ATOM     13  O   UNL A   1      33.307  22.444  24.437  1.00  0.00    -0.374 OA
BRANCH   9  14
ATOM     14  C   UNL A   1      32.742  25.626  21.765  1.00  0.00     0.254 C 
ATOM     15  O   UNL A   1      32.974  25.618  20.551  1.00  0.00    -0.269 OA
BRANCH  14  16
ATOM     16  C   UNL A   1      32.234  26.924  22.369  1.00  0.00     0.044 A 
ATOM     17  C   UNL A   1      34.375  28.405  22.469  1.00  0.00     0.045 C 
ATOM     18  C   UNL A   1      32.910  28.146  22.592  1.00  0.00    -0.038 A 
ATOM     19  C   UNL A   1      32.175  29.295  22.977  1.00  0.00     0.005 A 
ATOM     20  C   UNL A   1      30.794  29.270  23.112  1.00  0.00     0.016 A 
ATOM     21  C   UNL A   1      30.828  26.928  22.550  1.00  0.00     0.029 A 
ATOM     22  C   UNL A   1      30.124  28.080  22.902  1.00  0.00     0.018 A 
ATOM     23  Br  UNL A   1      28.241  28.030  23.048  1.00  0.00    -0.051 Br
ENDBRANCH  14  16
ENDBRANCH   9  14
ENDBRANCH   7   8
ENDBRANCH   4   7
ENDBRANCH   2   3
ENDBRANCH   1   2
BRANCH   1  24
ATOM     24  C   UNL A   1      33.365  27.807  26.723  1.00  0.00     0.023 C 
BRANCH  24  25
ATOM     25  C   UNL A   1      34.172  28.927  26.078  1.00  0.00     0.116 C 
BRANCH  25  26
ATOM     26  N   UNL A   1      33.832  30.236  26.612  1.00  0.00    -0.352 N 
ATOM     27  C   UNL A   1      34.449  30.939  27.619  1.00  0.00     0.251 C 
ATOM     28  H   UNL A   1      33.056  30.678  26.198  1.00  0.00     0.163 HD
ATOM     29  O   UNL A   1      33.934  31.960  28.057  1.00  0.00    -0.269 OA
BRANCH  27  30
ATOM     30  C   UNL A   1      35.717  30.432  28.184  1.00  0.00     0.039 A 
ATOM     31  C   UNL A   1      36.920  30.863  27.623  1.00  0.00     0.014 A 
ATOM     32  C   UNL A   1      35.719  29.557  29.275  1.00  0.00     0.014 A 
ATOM     33  C   UNL A   1      38.127  30.459  28.195  1.00  0.00     0.010 A 
ATOM     34  C   UNL A   1      36.922  29.222  29.893  1.00  0.00     0.010 A 
ATOM     35  C   UNL A   1      38.139  29.665  29.356  1.00  0.00    -0.014 A 
BRANCH  35  36
ATOM     36  C   UNL A   1      39.422  29.313  30.016  1.00  0.00     0.031 A 
ATOM     37  C   UNL A   1      39.885  30.058  31.239  1.00  0.00     0.074 A 
ATOM     38  C   UNL A   1      40.187  28.335  29.490  1.00  0.00     0.049 A 
ATOM     39  N   UNL A   1      40.961  29.871  31.959  1.00  0.00    -0.248 NA
ATOM     40  C   UNL A   1      39.043  31.172  31.702  1.00  0.00     0.031 C 
ATOM     41  C   UNL A   1      39.878  27.585  28.270  1.00  0.00     0.029 A 
ATOM     42  N   UNL A   1      41.375  27.797  29.914  1.00  0.00    -0.354 N 
ATOM     43  C   UNL A   1      40.926  30.840  32.955  1.00  0.00     0.074 A 
ATOM     44  C   UNL A   1      39.758  31.655  32.708  1.00  0.00     0.031 C 
ATOM     45  C   UNL A   1      40.829  26.660  28.068  1.00  0.00     0.029 A 
ATOM     46  C   UNL A   1      41.834  26.773  29.119  1.00  0.00     0.049 A 
ATOM     47  H   UNL A   1      41.856  28.117  30.713  1.00  0.00     0.167 HD
ATOM     48  C   UNL A   1      41.776  31.017  33.996  1.00  0.00     0.037 A 
ATOM     49  C   UNL A   1      42.937  26.007  29.227  1.00  0.00     0.037 A 
ATOM     50  C   UNL A   1      42.932  30.194  34.241  1.00  0.00     0.049 A 
ATOM     51  C   UNL A   1      43.864  26.224  30.392  1.00  0.00     0.074 A 
ATOM     52  C   UNL A   1      43.825  30.255  35.297  1.00  0.00     0.029 A 
ATOM     53  N   UNL A   1      43.362  29.163  33.416  1.00  0.00    -0.354 N 
ATOM     54  N   UNL A   1      43.772  27.094  31.370  1.00  0.00    -0.248 NA
ATOM     55  C   UNL A   1      45.039  25.347  30.475  1.00  0.00     0.031 C 
ATOM     56  C   UNL A   1      44.823  29.299  35.083  1.00  0.00     0.029 A 
ATOM     57  C   UNL A   1      44.522  28.599  33.926  1.00  0.00     0.049 A 
ATOM     58  H   UNL A   1      42.911  28.875  32.591  1.00  0.00     0.167 HD
ATOM     59  C   UNL A   1      44.865  26.854  32.197  1.00  0.00     0.074 A 
ATOM     60  C   UNL A   1      45.588  25.741  31.615  1.00  0.00     0.031 C 
ATOM     61  C   UNL A   1      45.237  27.496  33.332  1.00  0.00     0.037 A 
BRANCH  48  62
ATOM     62  C   UNL A   1      41.482  32.142  34.954  1.00  0.00     0.058 A 
ATOM     63  C   UNL A   1      42.094  33.400  34.825  1.00  0.00     0.135 A 
ATOM     64  C   UNL A   1      40.549  31.974  35.989  1.00  0.00     0.135 A 
ATOM     65  F   UNL A   1      43.005  33.614  33.862  1.00  0.00    -0.206 F 
ATOM     66  C   UNL A   1      41.813  34.440  35.705  1.00  0.00     0.059 A 
ATOM     67  C   UNL A   1      40.229  33.011  36.863  1.00  0.00     0.059 A 
ATOM     68  F   UNL A   1      39.934  30.793  36.162  1.00  0.00    -0.206 F 
ATOM     69  C   UNL A   1      40.879  34.236  36.721  1.00  0.00     0.060 A 
BRANCH  69  70
ATOM     70  S   UNL A   1      40.523  35.600  37.849  1.00  0.00     0.124 S 
ATOM     71  O   UNL A   1      41.864  35.961  38.301  1.00  0.00    -0.237 OA
ATOM     72  O   UNL A   1      39.869  36.566  36.973  1.00  0.00    -0.237 OA
ATOM     73  O   UNL A   1      39.664  34.991  38.859  1.00  0.00    -0.744 OA
ENDBRANCH  69  70
ENDBRANCH  48  62
BRANCH  49  74
ATOM     74  C   UNL A   1      43.209  24.948  28.219  1.00  0.00     0.058 A 
ATOM     75  C   UNL A   1      43.811  25.255  26.989  1.00  0.00     0.135 A 
ATOM     76  C   UNL A   1      42.882  23.605  28.466  1.00  0.00     0.135 A 
ATOM     77  F   UNL A   1      44.139  26.524  26.702  1.00  0.00    -0.206 F 
ATOM     78  C   UNL A   1      44.061  24.275  26.034  1.00  0.00     0.059 A 
ATOM     79  C   UNL A   1      43.149  22.603  27.539  1.00  0.00     0.059 A 
ATOM     80  F   UNL A   1      42.321  23.255  29.634  1.00  0.00    -0.206 F 
ATOM     81  C   UNL A   1      43.728  22.950  26.320  1.00  0.00     0.060 A 
BRANCH  81  82
ATOM     82  S   UNL A   1      44.099  21.680  25.091  1.00  0.00     0.124 S 
ATOM     83  O   UNL A   1      45.440  21.269  25.488  1.00  0.00    -0.237 OA
ATOM     84  O   UNL A   1      43.035  20.708  25.328  1.00  0.00    -0.237 OA
ATOM     85  O   UNL A   1      44.007  22.402  23.825  1.00  0.00    -0.744 OA
ENDBRANCH  81  82
ENDBRANCH  49  74
BRANCH  61  86
ATOM     86  C   UNL A   1      46.470  26.992  34.033  1.00  0.00     0.058 A 
ATOM     87  C   UNL A   1      47.745  27.513  33.755  1.00  0.00     0.135 A 
ATOM     88  C   UNL A   1      46.373  25.988  35.011  1.00  0.00     0.135 A 
ATOM     89  F   UNL A   1      47.895  28.471  32.827  1.00  0.00    -0.206 F 
ATOM     90  C   UNL A   1      48.884  27.025  34.387  1.00  0.00     0.059 A 
ATOM     91  C   UNL A   1      47.495  25.509  35.680  1.00  0.00     0.059 A 
ATOM     92  F   UNL A   1      45.179  25.464  35.328  1.00  0.00    -0.206 F 
ATOM     93  C   UNL A   1      48.748  26.020  35.346  1.00  0.00     0.060 A 
BRANCH  93  94
ATOM     94  S   UNL A   1      50.234  25.396  36.160  1.00  0.00     0.124 S 
ATOM     95  O   UNL A   1      51.283  26.114  35.445  1.00  0.00    -0.237 OA
ATOM     96  O   UNL A   1      50.023  25.798  37.547  1.00  0.00    -0.237 OA
ATOM     97  O   UNL A   1      50.178  23.958  35.916  1.00  0.00    -0.744 OA
ENDBRANCH  93  94
ENDBRANCH  61  86
ENDBRANCH  35  36
ENDBRANCH  27  30
ENDBRANCH  25  26
ENDBRANCH  24  25
ENDBRANCH   1  24
TORSDOF 17
ENDMDL
MODEL 3
REMARK VINA RESULT:     -11.5      2.641      8.857
REMARK SMILES Cc1ccc(Br)cc1C(=O)N1CCO[C@H](CC(=O)NCCCCNC(=O)c2ccc(-c3c4nc(c(-c5c(F)cc(S(=O)(=O)[O-])cc5F)c5ccc([nH]5)c(-c5c(F)cc(S(=O)(=O)[O-])cc5F)c5nc(c(-c6c(F)cc(S(=O)(=O)[O-])cc6F)c6ccc3[nH]6)C=C5)C=C4)cc2)C1
REMARK SMILES IDX 21 1 20 2 19 3 17 4 18 5 16 7 15 8 11 9 12 10 93 11 13 12
REMARK SMILES IDX 14 13 9 14 10 15 8 16 1 17 2 18 3 19 4 20 7 21 5 22 6 23
REMARK SMILES IDX 22 24 23 25 24 26 25 27 26 29 27 30 28 31 92 32 29 33 91 34
REMARK SMILES IDX 30 35 31 36 32 37 85 38 33 39 90 40 84 41 86 42 34 43 89 44
REMARK SMILES IDX 83 45 82 46 35 48 69 49 48 50 68 51 49 52 52 53 67 54 87 55
REMARK SMILES IDX 50 56 51 57 66 59 88 60 53 61 36 62 37 63 46 64 38 65 39 66
REMARK SMILES IDX 45 67 47 68 40 69 41 70 42 71 43 72 44 73 70 74 71 75 80 76
REMARK SMILES IDX 72 77 73 78 79 79 81 80 74 81 75 82 76 83 77 84 78 85 54 86
REMARK SMILES IDX 55 87 64 88 56 89 57 90 63 91 65 92 58 93 59 94 60 95 61 96
REMARK SMILES IDX 62 97
REMARK H PARENT 19 6 24 28 86 47 52 58
REMARK Flexibility Score: inf
ROOT
ATOM      1  C   UNL A   1      32.044  30.221  26.859  1.00  0.00     0.023 C 
ENDROOT
BRANCH   1   2
ATOM      2  C   UNL A   1      33.317  29.793  26.137  1.00  0.00     0.116 C 
BRANCH   2   3
ATOM      3  N   UNL A   1      33.080  29.724  24.710  1.00  0.00    -0.356 N 
ATOM      4  C   UNL A   1      33.380  28.695  23.868  1.00  0.00     0.222 C 
ATOM      5  O   UNL A   1      33.357  28.876  22.652  1.00  0.00    -0.275 OA
ATOM      6  H   UNL A   1      32.652  30.511  24.300  1.00  0.00     0.163 HD
BRANCH   4   7
ATOM      7  C   UNL A   1      33.632  27.335  24.458  1.00  0.00     0.133 C 
BRANCH   7   8
ATOM      8  C   UNL A   1      32.407  26.648  25.078  1.00  0.00     0.147 C 
ATOM      9  N   UNL A   1      32.506  24.845  23.454  1.00  0.00    -0.334 N 
ATOM     10  C   UNL A   1      31.232  25.197  22.845  1.00  0.00     0.148 C 
ATOM     11  C   UNL A   1      32.533  25.129  24.893  1.00  0.00     0.152 C 
ATOM     12  C   UNL A   1      30.809  26.636  23.209  1.00  0.00     0.182 C 
ATOM     13  O   UNL A   1      31.131  27.074  24.542  1.00  0.00    -0.374 OA
BRANCH   9  14
ATOM     14  C   UNL A   1      33.448  23.963  22.951  1.00  0.00     0.254 C 
ATOM     15  O   UNL A   1      33.693  23.994  21.741  1.00  0.00    -0.269 OA
BRANCH  14  16
ATOM     16  C   UNL A   1      34.080  22.842  23.760  1.00  0.00     0.044 A 
ATOM     17  C   UNL A   1      36.044  24.036  24.987  1.00  0.00     0.045 C 
ATOM     18  C   UNL A   1      35.137  22.886  24.699  1.00  0.00    -0.038 A 
ATOM     19  C   UNL A   1      35.420  21.745  25.491  1.00  0.00     0.005 A 
ATOM     20  C   UNL A   1      34.667  20.583  25.398  1.00  0.00     0.016 A 
ATOM     21  C   UNL A   1      33.355  21.628  23.669  1.00  0.00     0.029 A 
ATOM     22  C   UNL A   1      33.635  20.528  24.479  1.00  0.00     0.018 A 
ATOM     23  Br  UNL A   1      32.576  18.968  24.359  1.00  0.00    -0.051 Br
ENDBRANCH  14  16
ENDBRANCH   9  14
ENDBRANCH   7   8
ENDBRANCH   4   7
ENDBRANCH   2   3
ENDBRANCH   1   2
BRANCH   1  24
ATOM     24  C   UNL A   1      31.841  31.737  26.868  1.00  0.00     0.023 C 
BRANCH  24  25
ATOM     25  C   UNL A   1      33.038  32.530  27.378  1.00  0.00     0.116 C 
BRANCH  25  26
ATOM     26  N   UNL A   1      32.701  33.910  27.685  1.00  0.00    -0.352 N 
ATOM     27  C   UNL A   1      33.227  34.726  28.658  1.00  0.00     0.251 C 
ATOM     28  H   UNL A   1      32.004  34.315  27.121  1.00  0.00     0.163 HD
ATOM     29  O   UNL A   1      32.714  35.814  28.887  1.00  0.00    -0.269 OA
BRANCH  27  30
ATOM     30  C   UNL A   1      34.392  34.262  29.441  1.00  0.00     0.039 A 
ATOM     31  C   UNL A   1      34.166  33.592  30.644  1.00  0.00     0.014 A 
ATOM     32  C   UNL A   1      35.696  34.464  28.978  1.00  0.00     0.014 A 
ATOM     33  C   UNL A   1      35.249  33.076  31.355  1.00  0.00     0.010 A 
ATOM     34  C   UNL A   1      36.767  33.878  29.647  1.00  0.00     0.010 A 
ATOM     35  C   UNL A   1      36.556  33.182  30.846  1.00  0.00    -0.014 A 
BRANCH  35  36
ATOM     36  C   UNL A   1      37.698  32.551  31.558  1.00  0.00     0.031 A 
ATOM     37  C   UNL A   1      38.163  33.085  32.886  1.00  0.00     0.074 A 
ATOM     38  C   UNL A   1      38.335  31.509  30.986  1.00  0.00     0.049 A 
ATOM     39  N   UNL A   1      39.123  32.647  33.658  1.00  0.00    -0.248 NA
ATOM     40  C   UNL A   1      37.478  34.280  33.403  1.00  0.00     0.031 C 
ATOM     41  C   UNL A   1      38.019  30.943  29.672  1.00  0.00     0.029 A 
ATOM     42  N   UNL A   1      39.374  30.736  31.437  1.00  0.00    -0.354 N 
ATOM     43  C   UNL A   1      39.157  33.509  34.749  1.00  0.00     0.074 A 
ATOM     44  C   UNL A   1      38.166  34.534  34.506  1.00  0.00     0.031 C 
ATOM     45  C   UNL A   1      38.819  29.890  29.443  1.00  0.00     0.029 A 
ATOM     46  C   UNL A   1      39.728  29.727  30.572  1.00  0.00     0.049 A 
ATOM     47  H   UNL A   1      39.826  30.890  32.299  1.00  0.00     0.167 HD
ATOM     48  C   UNL A   1      39.925  33.437  35.863  1.00  0.00     0.037 A 
ATOM     49  C   UNL A   1      40.676  28.775  30.677  1.00  0.00     0.037 A 
ATOM     50  C   UNL A   1      40.902  32.406  36.102  1.00  0.00     0.049 A 
ATOM     51  C   UNL A   1      41.515  28.716  31.925  1.00  0.00     0.074 A 
ATOM     52  C   UNL A   1      41.692  32.211  37.222  1.00  0.00     0.029 A 
ATOM     53  N   UNL A   1      41.230  31.399  35.205  1.00  0.00    -0.354 N 
ATOM     54  N   UNL A   1      41.478  29.493  32.982  1.00  0.00    -0.248 NA
ATOM     55  C   UNL A   1      42.516  27.645  31.999  1.00  0.00     0.031 C 
ATOM     56  C   UNL A   1      42.534  31.121  36.980  1.00  0.00     0.029 A 
ATOM     57  C   UNL A   1      42.228  30.597  35.735  1.00  0.00     0.049 A 
ATOM     58  H   UNL A   1      40.815  31.272  34.322  1.00  0.00     0.167 HD
ATOM     59  C   UNL A   1      42.436  28.990  33.856  1.00  0.00     0.074 A 
ATOM     60  C   UNL A   1      43.016  27.828  33.213  1.00  0.00     0.031 C 
ATOM     61  C   UNL A   1      42.804  29.447  35.079  1.00  0.00     0.037 A 
BRANCH  48  62
ATOM     62  C   UNL A   1      39.734  34.500  36.913  1.00  0.00     0.058 A 
ATOM     63  C   UNL A   1      38.931  34.284  38.045  1.00  0.00     0.135 A 
ATOM     64  C   UNL A   1      40.393  35.736  36.807  1.00  0.00     0.135 A 
ATOM     65  F   UNL A   1      38.266  33.127  38.192  1.00  0.00    -0.206 F 
ATOM     66  C   UNL A   1      38.765  35.264  39.019  1.00  0.00     0.059 A 
ATOM     67  C   UNL A   1      40.266  36.720  37.785  1.00  0.00     0.059 A 
ATOM     68  F   UNL A   1      41.172  35.999  35.746  1.00  0.00    -0.206 F 
ATOM     69  C   UNL A   1      39.437  36.479  38.880  1.00  0.00     0.060 A 
BRANCH  69  70
ATOM     70  S   UNL A   1      39.214  37.736  40.156  1.00  0.00     0.124 S 
ATOM     71  O   UNL A   1      40.529  38.370  40.173  1.00  0.00    -0.237 OA
ATOM     72  O   UNL A   1      38.129  38.545  39.611  1.00  0.00    -0.237 OA
ATOM     73  O   UNL A   1      38.877  36.959  41.345  1.00  0.00    -0.744 OA
ENDBRANCH  69  70
ENDBRANCH  48  62
BRANCH  49  74
ATOM     74  C   UNL A   1      40.861  27.785  29.583  1.00  0.00     0.058 A 
ATOM     75  C   UNL A   1      41.948  27.874  28.701  1.00  0.00     0.135 A 
ATOM     76  C   UNL A   1      39.959  26.724  29.401  1.00  0.00     0.135 A 
ATOM     77  F   UNL A   1      42.835  28.872  28.829  1.00  0.00    -0.206 F 
ATOM     78  C   UNL A   1      42.126  26.960  27.667  1.00  0.00     0.059 A 
ATOM     79  C   UNL A   1      40.132  25.780  28.393  1.00  0.00     0.059 A 
ATOM     80  F   UNL A   1      38.912  26.582  30.228  1.00  0.00    -0.206 F 
ATOM     81  C   UNL A   1      41.213  25.914  27.523  1.00  0.00     0.060 A 
BRANCH  81  82
ATOM     82  S   UNL A   1      41.479  24.708  26.206  1.00  0.00     0.124 S 
ATOM     83  O   UNL A   1      41.529  25.565  25.028  1.00  0.00    -0.237 OA
ATOM     84  O   UNL A   1      42.743  24.094  26.605  1.00  0.00    -0.237 OA
ATOM     85  O   UNL A   1      40.310  23.839  26.307  1.00  0.00    -0.744 OA
ENDBRANCH  81  82
ENDBRANCH  49  74
BRANCH  61  86
ATOM     86  C   UNL A   1      43.867  28.673  35.811  1.00  0.00     0.058 A 
ATOM     87  C   UNL A   1      43.549  27.594  36.653  1.00  0.00     0.135 A 
ATOM     88  C   UNL A   1      45.224  29.002  35.654  1.00  0.00     0.135 A 
ATOM     89  F   UNL A   1      42.269  27.239  36.842  1.00  0.00    -0.206 F 
ATOM     90  C   UNL A   1      44.534  26.899  37.347  1.00  0.00     0.059 A 
ATOM     91  C   UNL A   1      46.227  28.298  36.312  1.00  0.00     0.059 A 
ATOM     92  F   UNL A   1      45.586  30.014  34.851  1.00  0.00    -0.206 F 
ATOM     93  C   UNL A   1      45.871  27.261  37.172  1.00  0.00     0.060 A 
BRANCH  93  94
ATOM     94  S   UNL A   1      47.139  26.350  38.078  1.00  0.00     0.124 S 
ATOM     95  O   UNL A   1      48.264  27.277  38.018  1.00  0.00    -0.237 OA
ATOM     96  O   UNL A   1      46.526  26.181  39.390  1.00  0.00    -0.237 OA
ATOM     97  O   UNL A   1      47.295  25.122  37.303  1.00  0.00    -0.744 OA
ENDBRANCH  93  94
ENDBRANCH  61  86
ENDBRANCH  35  36
ENDBRANCH  27  30
ENDBRANCH  25  26
ENDBRANCH  24  25
ENDBRANCH   1  24
TORSDOF 17
ENDMDL
