MODEL 1
REMARK VINA RESULT:     -11.5      0.000      0.000
REMARK SMILES CC[C@@](C)(NC(=O)[C@@H](C)NC(=O)c1ccco1)C(=O)NCCCCNC(=O)c1ccc(-c2c3nc(c(-c4c(F)cc(S(=O)(=O)[O-])cc4F)c4ccc([nH]4)c(-c4c(F)cc(S(=O)(=O)[O-])cc4F)c4nc(c(-c5c(F)cc(S(=O)(=O)[O-])cc5F)c5ccc2[nH]5)C=C4)C=C3)cc1
REMARK SMILES IDX 22 1 21 2 20 3 18 4 19 5 3 7 4 8 2 9 1 10 5 11 6 12 7 14
REMARK SMILES IDX 8 15 9 16 10 17 11 18 12 20 13 21 14 22 17 23 15 24 16 25
REMARK SMILES IDX 23 26 24 27 25 28 26 29 27 31 28 32 29 33 93 34 30 35 92 36
REMARK SMILES IDX 31 37 32 38 33 39 86 40 34 41 91 42 85 43 87 44 35 45 90 46
REMARK SMILES IDX 84 47 83 48 36 50 70 51 49 52 69 53 50 54 53 55 68 56 88 57
REMARK SMILES IDX 51 58 52 59 67 61 89 62 54 63 37 64 38 65 47 66 39 67 40 68
REMARK SMILES IDX 46 69 48 70 41 71 42 72 43 73 44 74 45 75 71 76 72 77 81 78
REMARK SMILES IDX 73 79 74 80 80 81 82 82 75 83 76 84 77 85 78 86 79 87 55 88
REMARK SMILES IDX 56 89 65 90 57 91 58 92 64 93 66 94 59 95 60 96 61 97 62 98
REMARK SMILES IDX 63 99
REMARK H PARENT 20 6 5 13 10 19 25 30 87 49 53 60
REMARK Flexibility Score: inf
ROOT
ATOM      1  C   UNL A   1      37.382  22.681  25.018  1.00  0.00     0.023 C 
ENDROOT
BRANCH   1   2
ATOM      2  C   UNL A   1      36.390  21.582  25.403  1.00  0.00     0.116 C 
BRANCH   2   3
ATOM      3  N   UNL A   1      35.617  21.809  26.617  1.00  0.00    -0.354 N 
ATOM      4  C   UNL A   1      34.342  22.252  26.839  1.00  0.00     0.245 C 
ATOM      5  O   UNL A   1      33.954  22.271  28.011  1.00  0.00    -0.272 OA
ATOM      6  H   UNL A   1      36.111  21.603  27.443  1.00  0.00     0.163 HD
BRANCH   4   7
ATOM      7  C   UNL A   1      33.441  22.794  25.709  1.00  0.00     0.116 C 
ATOM      8  C   UNL A   1      33.886  24.232  25.340  1.00  0.00     0.045 C 
BRANCH   7   9
ATOM      9  C   UNL A   1      33.474  21.983  24.382  1.00  0.00     0.035 C 
ATOM     10  C   UNL A   1      33.420  22.762  23.071  1.00  0.00     0.007 C 
ENDBRANCH   7   9
BRANCH   7  11
ATOM     11  N   UNL A   1      32.049  22.787  26.218  1.00  0.00    -0.340 N 
ATOM     12  C   UNL A   1      31.112  23.745  26.462  1.00  0.00     0.243 C 
ATOM     13  H   UNL A   1      31.726  21.880  26.428  1.00  0.00     0.164 HD
ATOM     14  O   UNL A   1      30.246  23.387  27.279  1.00  0.00    -0.273 OA
BRANCH  12  15
ATOM     15  C   UNL A   1      31.069  25.233  25.956  1.00  0.00     0.168 C 
ATOM     16  C   UNL A   1      30.106  25.413  24.788  1.00  0.00     0.041 C 
BRANCH  15  17
ATOM     17  N   UNL A   1      30.887  26.350  26.875  1.00  0.00    -0.338 N 
ATOM     18  C   UNL A   1      31.473  27.599  26.895  1.00  0.00     0.287 C 
ATOM     19  H   UNL A   1      30.241  26.187  27.599  1.00  0.00     0.164 HD
ATOM     20  O   UNL A   1      31.262  28.284  27.898  1.00  0.00    -0.266 OA
BRANCH  18  21
ATOM     21  C   UNL A   1      32.338  28.035  25.815  1.00  0.00     0.191 A 
ATOM     22  C   UNL A   1      33.706  28.004  25.611  1.00  0.00     0.056 A 
ATOM     23  O   UNL A   1      31.737  28.552  24.692  1.00  0.00    -0.459 OA
ATOM     24  C   UNL A   1      33.946  28.537  24.319  1.00  0.00     0.043 A 
ATOM     25  C   UNL A   1      32.715  28.860  23.804  1.00  0.00     0.196 A 
ENDBRANCH  18  21
ENDBRANCH  15  17
ENDBRANCH  12  15
ENDBRANCH   7  11
ENDBRANCH   4   7
ENDBRANCH   2   3
ENDBRANCH   1   2
BRANCH   1  26
ATOM     26  C   UNL A   1      37.592  23.787  26.039  1.00  0.00     0.023 C 
BRANCH  26  27
ATOM     27  C   UNL A   1      38.869  23.736  26.858  1.00  0.00     0.116 C 
BRANCH  27  28
ATOM     28  N   UNL A   1      40.036  24.076  26.066  1.00  0.00    -0.352 N 
ATOM     29  C   UNL A   1      40.861  25.173  26.150  1.00  0.00     0.251 C 
ATOM     30  H   UNL A   1      40.274  23.425  25.367  1.00  0.00     0.163 HD
ATOM     31  O   UNL A   1      41.660  25.383  25.239  1.00  0.00    -0.269 OA
BRANCH  29  32
ATOM     32  C   UNL A   1      40.797  26.110  27.304  1.00  0.00     0.039 A 
ATOM     33  C   UNL A   1      39.827  25.891  28.290  1.00  0.00     0.014 A 
ATOM     34  C   UNL A   1      41.623  27.233  27.398  1.00  0.00     0.014 A 
ATOM     35  C   UNL A   1      39.710  26.775  29.369  1.00  0.00     0.010 A 
ATOM     36  C   UNL A   1      41.568  28.058  28.521  1.00  0.00     0.010 A 
ATOM     37  C   UNL A   1      40.589  27.860  29.505  1.00  0.00    -0.014 A 
BRANCH  37  38
ATOM     38  C   UNL A   1      40.453  28.832  30.626  1.00  0.00     0.031 A 
ATOM     39  C   UNL A   1      41.350  28.721  31.835  1.00  0.00     0.074 A 
ATOM     40  C   UNL A   1      39.509  29.794  30.579  1.00  0.00     0.049 A 
ATOM     41  N   UNL A   1      41.363  29.444  32.927  1.00  0.00    -0.248 NA
ATOM     42  C   UNL A   1      42.349  27.639  31.827  1.00  0.00     0.031 C 
ATOM     43  C   UNL A   1      38.547  29.984  29.492  1.00  0.00     0.029 A 
ATOM     44  N   UNL A   1      39.201  30.791  31.471  1.00  0.00    -0.354 N 
ATOM     45  C   UNL A   1      42.346  28.890  33.740  1.00  0.00     0.074 A 
ATOM     46  C   UNL A   1      42.876  27.743  33.038  1.00  0.00     0.031 C 
ATOM     47  C   UNL A   1      37.777  31.050  29.767  1.00  0.00     0.029 A 
ATOM     48  C   UNL A   1      38.165  31.600  31.063  1.00  0.00     0.049 A 
ATOM     49  H   UNL A   1      39.677  30.917  32.323  1.00  0.00     0.167 HD
ATOM     50  C   UNL A   1      42.787  29.310  34.950  1.00  0.00     0.037 A 
ATOM     51  C   UNL A   1      37.591  32.660  31.665  1.00  0.00     0.037 A 
ATOM     52  C   UNL A   1      42.293  30.481  35.627  1.00  0.00     0.049 A 
ATOM     53  C   UNL A   1      38.110  33.120  33.001  1.00  0.00     0.074 A 
ATOM     54  C   UNL A   1      42.726  31.031  36.820  1.00  0.00     0.029 A 
ATOM     55  N   UNL A   1      41.256  31.281  35.169  1.00  0.00    -0.354 N 
ATOM     56  N   UNL A   1      39.085  32.622  33.724  1.00  0.00    -0.248 NA
ATOM     57  C   UNL A   1      37.455  34.291  33.602  1.00  0.00     0.031 C 
ATOM     58  C   UNL A   1      41.926  32.143  37.105  1.00  0.00     0.029 A 
ATOM     59  C   UNL A   1      41.024  32.311  36.065  1.00  0.00     0.049 A 
ATOM     60  H   UNL A   1      40.760  31.139  34.332  1.00  0.00     0.167 HD
ATOM     61  C   UNL A   1      39.177  33.433  34.850  1.00  0.00     0.074 A 
ATOM     62  C   UNL A   1      38.167  34.461  34.708  1.00  0.00     0.031 C 
ATOM     63  C   UNL A   1      40.022  33.335  35.906  1.00  0.00     0.037 A 
BRANCH  50  64
ATOM     64  C   UNL A   1      43.869  28.506  35.619  1.00  0.00     0.058 A 
ATOM     65  C   UNL A   1      45.230  28.762  35.388  1.00  0.00     0.135 A 
ATOM     66  C   UNL A   1      43.542  27.491  36.532  1.00  0.00     0.135 A 
ATOM     67  F   UNL A   1      45.600  29.712  34.514  1.00  0.00    -0.206 F 
ATOM     68  C   UNL A   1      46.227  28.022  36.014  1.00  0.00     0.059 A 
ATOM     69  C   UNL A   1      44.523  26.756  37.192  1.00  0.00     0.059 A 
ATOM     70  F   UNL A   1      42.256  27.204  36.793  1.00  0.00    -0.206 F 
ATOM     71  C   UNL A   1      45.864  27.019  36.914  1.00  0.00     0.060 A 
BRANCH  71  72
ATOM     72  S   UNL A   1      47.169  26.072  37.725  1.00  0.00     0.124 S 
ATOM     73  O   UNL A   1      46.478  25.580  38.912  1.00  0.00    -0.237 OA
ATOM     74  O   UNL A   1      47.495  25.064  36.719  1.00  0.00    -0.237 OA
ATOM     75  O   UNL A   1      48.209  27.065  37.970  1.00  0.00    -0.744 OA
ENDBRANCH  71  72
ENDBRANCH  50  64
BRANCH  51  76
ATOM     76  C   UNL A   1      36.475  33.381  30.996  1.00  0.00     0.058 A 
ATOM     77  C   UNL A   1      35.157  33.260  31.462  1.00  0.00     0.135 A 
ATOM     78  C   UNL A   1      36.701  34.210  29.886  1.00  0.00     0.135 A 
ATOM     79  F   UNL A   1      34.889  32.471  32.515  1.00  0.00    -0.206 F 
ATOM     80  C   UNL A   1      34.101  33.921  30.844  1.00  0.00     0.059 A 
ATOM     81  C   UNL A   1      35.664  34.900  29.266  1.00  0.00     0.059 A 
ATOM     82  F   UNL A   1      37.945  34.371  29.410  1.00  0.00    -0.206 F 
ATOM     83  C   UNL A   1      34.366  34.742  29.747  1.00  0.00     0.060 A 
BRANCH  83  84
ATOM     84  S   UNL A   1      32.996  35.637  28.983  1.00  0.00     0.124 S 
ATOM     85  O   UNL A   1      32.234  36.063  30.152  1.00  0.00    -0.237 OA
ATOM     86  O   UNL A   1      33.686  36.694  28.250  1.00  0.00    -0.237 OA
ATOM     87  O   UNL A   1      32.357  34.623  28.148  1.00  0.00    -0.744 OA
ENDBRANCH  83  84
ENDBRANCH  51  76
BRANCH  63  88
ATOM     88  C   UNL A   1      39.919  34.384  36.978  1.00  0.00     0.058 A 
ATOM     89  C   UNL A   1      39.073  34.226  38.086  1.00  0.00     0.135 A 
ATOM     90  C   UNL A   1      40.718  35.538  36.920  1.00  0.00     0.135 A 
ATOM     91  F   UNL A   1      38.285  33.143  38.185  1.00  0.00    -0.206 F 
ATOM     92  C   UNL A   1      39.007  35.184  39.091  1.00  0.00     0.059 A 
ATOM     93  C   UNL A   1      40.687  36.498  37.928  1.00  0.00     0.059 A 
ATOM     94  F   UNL A   1      41.552  35.733  35.887  1.00  0.00    -0.206 F 
ATOM     95  C   UNL A   1      39.819  36.318  39.004  1.00  0.00     0.060 A 
BRANCH  95  96
ATOM     96  S   UNL A   1      39.750  37.539  40.332  1.00  0.00     0.124 S 
ATOM     97  O   UNL A   1      40.674  38.557  39.843  1.00  0.00    -0.237 OA
ATOM     98  O   UNL A   1      38.339  37.915  40.341  1.00  0.00    -0.237 OA
ATOM     99  O   UNL A   1      40.201  36.793  41.503  1.00  0.00    -0.744 OA
ENDBRANCH  95  96
ENDBRANCH  63  88
ENDBRANCH  37  38
ENDBRANCH  29  32
ENDBRANCH  27  28
ENDBRANCH  26  27
ENDBRANCH   1  26
TORSDOF 19
ENDMDL
MODEL 2
REMARK VINA RESULT:     -11.4      1.294      2.331
REMARK SMILES CC[C@@](C)(NC(=O)[C@@H](C)NC(=O)c1ccco1)C(=O)NCCCCNC(=O)c1ccc(-c2c3nc(c(-c4c(F)cc(S(=O)(=O)[O-])cc4F)c4ccc([nH]4)c(-c4c(F)cc(S(=O)(=O)[O-])cc4F)c4nc(c(-c5c(F)cc(S(=O)(=O)[O-])cc5F)c5ccc2[nH]5)C=C4)C=C3)cc1
REMARK SMILES IDX 22 1 21 2 20 3 18 4 19 5 3 7 4 8 2 9 1 10 5 11 6 12 7 14
REMARK SMILES IDX 8 15 9 16 10 17 11 18 12 20 13 21 14 22 17 23 15 24 16 25
REMARK SMILES IDX 23 26 24 27 25 28 26 29 27 31 28 32 29 33 93 34 30 35 92 36
REMARK SMILES IDX 31 37 32 38 33 39 86 40 34 41 91 42 85 43 87 44 35 45 90 46
REMARK SMILES IDX 84 47 83 48 36 50 70 51 49 52 69 53 50 54 53 55 68 56 88 57
REMARK SMILES IDX 51 58 52 59 67 61 89 62 54 63 37 64 38 65 47 66 39 67 40 68
REMARK SMILES IDX 46 69 48 70 41 71 42 72 43 73 44 74 45 75 71 76 72 77 81 78
REMARK SMILES IDX 73 79 74 80 80 81 82 82 75 83 76 84 77 85 78 86 79 87 55 88
REMARK SMILES IDX 56 89 65 90 57 91 58 92 64 93 66 94 59 95 60 96 61 97 62 98
REMARK SMILES IDX 63 99
REMARK H PARENT 20 6 5 13 10 19 25 30 87 49 53 60
REMARK Flexibility Score: inf
ROOT
ATOM      1  C   UNL A   1      36.439  23.447  25.747  1.00  0.00     0.023 C 
ENDROOT
BRANCH   1   2
ATOM      2  C   UNL A   1      35.767  23.294  24.382  1.00  0.00     0.116 C 
BRANCH   2   3
ATOM      3  N   UNL A   1      34.654  22.354  24.314  1.00  0.00    -0.354 N 
ATOM      4  C   UNL A   1      33.324  22.507  24.035  1.00  0.00     0.245 C 
ATOM      5  O   UNL A   1      32.641  21.478  23.993  1.00  0.00    -0.272 OA
ATOM      6  H   UNL A   1      34.912  21.424  24.508  1.00  0.00     0.163 HD
BRANCH   4   7
ATOM      7  C   UNL A   1      32.662  23.891  23.868  1.00  0.00     0.116 C 
ATOM      8  C   UNL A   1      31.123  23.722  23.812  1.00  0.00     0.045 C 
BRANCH   7   9
ATOM      9  C   UNL A   1      32.939  24.905  25.014  1.00  0.00     0.035 C 
ATOM     10  C   UNL A   1      32.647  24.460  26.444  1.00  0.00     0.007 C 
ENDBRANCH   7   9
BRANCH   7  11
ATOM     11  N   UNL A   1      33.176  24.473  22.605  1.00  0.00    -0.340 N 
ATOM     12  C   UNL A   1      33.143  25.711  22.038  1.00  0.00     0.243 C 
ATOM     13  H   UNL A   1      33.650  23.813  22.048  1.00  0.00     0.164 HD
ATOM     14  O   UNL A   1      33.299  25.688  20.805  1.00  0.00    -0.273 OA
BRANCH  12  15
ATOM     15  C   UNL A   1      32.818  27.094  22.709  1.00  0.00     0.168 C 
ATOM     16  C   UNL A   1      33.861  28.154  22.373  1.00  0.00     0.041 C 
BRANCH  15  17
ATOM     17  N   UNL A   1      31.497  27.704  22.606  1.00  0.00    -0.338 N 
ATOM     18  C   UNL A   1      30.726  28.340  23.556  1.00  0.00     0.287 C 
ATOM     19  H   UNL A   1      31.089  27.655  21.711  1.00  0.00     0.164 HD
ATOM     20  O   UNL A   1      29.567  28.604  23.231  1.00  0.00    -0.266 OA
BRANCH  18  21
ATOM     21  C   UNL A   1      31.250  28.613  24.882  1.00  0.00     0.191 A 
ATOM     22  C   UNL A   1      31.843  29.715  25.469  1.00  0.00     0.056 A 
ATOM     23  O   UNL A   1      31.115  27.627  25.830  1.00  0.00    -0.459 OA
ATOM     24  C   UNL A   1      32.091  29.381  26.825  1.00  0.00     0.043 A 
ATOM     25  C   UNL A   1      31.634  28.097  26.992  1.00  0.00     0.196 A 
ENDBRANCH  18  21
ENDBRANCH  15  17
ENDBRANCH  12  15
ENDBRANCH   7  11
ENDBRANCH   4   7
ENDBRANCH   2   3
ENDBRANCH   1   2
BRANCH   1  26
ATOM     26  C   UNL A   1      37.816  24.089  25.753  1.00  0.00     0.023 C 
BRANCH  26  27
ATOM     27  C   UNL A   1      38.819  23.563  26.764  1.00  0.00     0.116 C 
BRANCH  27  28
ATOM     28  N   UNL A   1      40.184  23.686  26.290  1.00  0.00    -0.352 N 
ATOM     29  C   UNL A   1      41.113  24.667  26.545  1.00  0.00     0.251 C 
ATOM     30  H   UNL A   1      40.492  22.960  25.700  1.00  0.00     0.163 HD
ATOM     31  O   UNL A   1      42.138  24.702  25.865  1.00  0.00    -0.269 OA
BRANCH  29  32
ATOM     32  C   UNL A   1      40.900  25.686  27.608  1.00  0.00     0.039 A 
ATOM     33  C   UNL A   1      41.815  26.739  27.718  1.00  0.00     0.014 A 
ATOM     34  C   UNL A   1      39.862  25.585  28.537  1.00  0.00     0.014 A 
ATOM     35  C   UNL A   1      41.671  27.693  28.732  1.00  0.00     0.010 A 
ATOM     36  C   UNL A   1      39.664  26.588  29.487  1.00  0.00     0.010 A 
ATOM     37  C   UNL A   1      40.584  27.637  29.619  1.00  0.00    -0.014 A 
BRANCH  37  38
ATOM     38  C   UNL A   1      40.437  28.622  30.728  1.00  0.00     0.031 A 
ATOM     39  C   UNL A   1      41.309  28.513  31.954  1.00  0.00     0.074 A 
ATOM     40  C   UNL A   1      39.505  29.593  30.651  1.00  0.00     0.049 A 
ATOM     41  N   UNL A   1      41.308  29.248  33.039  1.00  0.00    -0.248 NA
ATOM     42  C   UNL A   1      42.296  27.421  31.978  1.00  0.00     0.031 C 
ATOM     43  C   UNL A   1      38.567  29.782  29.544  1.00  0.00     0.029 A 
ATOM     44  N   UNL A   1      39.191  30.603  31.527  1.00  0.00    -0.354 N 
ATOM     45  C   UNL A   1      42.269  28.691  33.877  1.00  0.00     0.074 A 
ATOM     46  C   UNL A   1      42.800  27.531  33.198  1.00  0.00     0.031 C 
ATOM     47  C   UNL A   1      37.804  30.860  29.793  1.00  0.00     0.029 A 
ATOM     48  C   UNL A   1      38.172  31.419  31.091  1.00  0.00     0.049 A 
ATOM     49  H   UNL A   1      39.652  30.733  32.387  1.00  0.00     0.167 HD
ATOM     50  C   UNL A   1      42.691  29.119  35.091  1.00  0.00     0.037 A 
ATOM     51  C   UNL A   1      37.598  32.492  31.670  1.00  0.00     0.037 A 
ATOM     52  C   UNL A   1      42.196  30.303  35.746  1.00  0.00     0.049 A 
ATOM     53  C   UNL A   1      38.096  32.960  33.012  1.00  0.00     0.074 A 
ATOM     54  C   UNL A   1      42.612  30.861  36.942  1.00  0.00     0.029 A 
ATOM     55  N   UNL A   1      41.178  31.109  35.260  1.00  0.00    -0.354 N 
ATOM     56  N   UNL A   1      39.051  32.459  33.758  1.00  0.00    -0.248 NA
ATOM     57  C   UNL A   1      37.442  34.144  33.587  1.00  0.00     0.031 C 
ATOM     58  C   UNL A   1      41.819  31.984  37.200  1.00  0.00     0.029 A 
ATOM     59  C   UNL A   1      40.940  32.151  36.141  1.00  0.00     0.049 A 
ATOM     60  H   UNL A   1      40.696  30.964  34.414  1.00  0.00     0.167 HD
ATOM     61  C   UNL A   1      39.130  33.280  34.878  1.00  0.00     0.074 A 
ATOM     62  C   UNL A   1      38.134  34.318  34.705  1.00  0.00     0.031 C 
ATOM     63  C   UNL A   1      39.953  33.184  35.951  1.00  0.00     0.037 A 
BRANCH  50  64
ATOM     64  C   UNL A   1      43.750  28.311  35.790  1.00  0.00     0.058 A 
ATOM     65  C   UNL A   1      45.118  28.545  35.578  1.00  0.00     0.135 A 
ATOM     66  C   UNL A   1      43.394  27.313  36.712  1.00  0.00     0.135 A 
ATOM     67  F   UNL A   1      45.516  29.477  34.697  1.00  0.00    -0.206 F 
ATOM     68  C   UNL A   1      46.094  27.800  36.231  1.00  0.00     0.059 A 
ATOM     69  C   UNL A   1      44.354  26.574  37.399  1.00  0.00     0.059 A 
ATOM     70  F   UNL A   1      42.100  27.048  36.955  1.00  0.00    -0.206 F 
ATOM     71  C   UNL A   1      45.703  26.815  37.140  1.00  0.00     0.060 A 
BRANCH  71  72
ATOM     72  S   UNL A   1      46.981  25.862  37.986  1.00  0.00     0.124 S 
ATOM     73  O   UNL A   1      46.300  25.496  39.223  1.00  0.00    -0.237 OA
ATOM     74  O   UNL A   1      47.227  24.768  37.050  1.00  0.00    -0.237 OA
ATOM     75  O   UNL A   1      48.076  26.815  38.130  1.00  0.00    -0.744 OA
ENDBRANCH  71  72
ENDBRANCH  50  64
BRANCH  51  76
ATOM     76  C   UNL A   1      36.504  33.218  30.972  1.00  0.00     0.058 A 
ATOM     77  C   UNL A   1      36.771  34.024  29.856  1.00  0.00     0.135 A 
ATOM     78  C   UNL A   1      35.170  33.114  31.398  1.00  0.00     0.135 A 
ATOM     79  F   UNL A   1      38.032  34.162  29.415  1.00  0.00    -0.206 F 
ATOM     80  C   UNL A   1      35.761  34.715  29.195  1.00  0.00     0.059 A 
ATOM     81  C   UNL A   1      34.139  33.777  30.739  1.00  0.00     0.059 A 
ATOM     82  F   UNL A   1      34.859  32.345  32.452  1.00  0.00    -0.206 F 
ATOM     83  C   UNL A   1      34.446  34.583  29.644  1.00  0.00     0.060 A 
BRANCH  83  84
ATOM     84  S   UNL A   1      33.133  35.442  28.749  1.00  0.00     0.124 S 
ATOM     85  O   UNL A   1      33.894  36.418  27.977  1.00  0.00    -0.237 OA
ATOM     86  O   UNL A   1      32.521  34.361  27.985  1.00  0.00    -0.237 OA
ATOM     87  O   UNL A   1      32.303  35.991  29.817  1.00  0.00    -0.744 OA
ENDBRANCH  83  84
ENDBRANCH  51  76
BRANCH  63  88
ATOM     88  C   UNL A   1      39.840  34.246  37.010  1.00  0.00     0.058 A 
ATOM     89  C   UNL A   1      40.480  35.488  36.880  1.00  0.00     0.135 A 
ATOM     90  C   UNL A   1      39.037  34.035  38.143  1.00  0.00     0.135 A 
ATOM     91  F   UNL A   1      41.263  35.737  35.818  1.00  0.00    -0.206 F 
ATOM     92  C   UNL A   1      40.345  36.478  37.847  1.00  0.00     0.059 A 
ATOM     93  C   UNL A   1      38.867  35.021  39.110  1.00  0.00     0.059 A 
ATOM     94  F   UNL A   1      38.394  32.869  38.310  1.00  0.00    -0.206 F 
ATOM     95  C   UNL A   1      39.535  36.236  38.959  1.00  0.00     0.060 A 
BRANCH  95  96
ATOM     96  S   UNL A   1      39.339  37.541  40.191  1.00  0.00     0.124 S 
ATOM     97  O   UNL A   1      40.672  38.135  40.204  1.00  0.00    -0.237 OA
ATOM     98  O   UNL A   1      38.284  38.366  39.610  1.00  0.00    -0.237 OA
ATOM     99  O   UNL A   1      38.963  36.815  41.400  1.00  0.00    -0.744 OA
ENDBRANCH  95  96
ENDBRANCH  63  88
ENDBRANCH  37  38
ENDBRANCH  29  32
ENDBRANCH  27  28
ENDBRANCH  26  27
ENDBRANCH   1  26
TORSDOF 19
ENDMDL
MODEL 3
REMARK VINA RESULT:     -11.1      6.572     12.089
REMARK SMILES CC[C@@](C)(NC(=O)[C@@H](C)NC(=O)c1ccco1)C(=O)NCCCCNC(=O)c1ccc(-c2c3nc(c(-c4c(F)cc(S(=O)(=O)[O-])cc4F)c4ccc([nH]4)c(-c4c(F)cc(S(=O)(=O)[O-])cc4F)c4nc(c(-c5c(F)cc(S(=O)(=O)[O-])cc5F)c5ccc2[nH]5)C=C4)C=C3)cc1
REMARK SMILES IDX 22 1 21 2 20 3 18 4 19 5 3 7 4 8 2 9 1 10 5 11 6 12 7 14
REMARK SMILES IDX 8 15 9 16 10 17 11 18 12 20 13 21 14 22 17 23 15 24 16 25
REMARK SMILES IDX 23 26 24 27 25 28 26 29 27 31 28 32 29 33 93 34 30 35 92 36
REMARK SMILES IDX 31 37 32 38 33 39 86 40 34 41 91 42 85 43 87 44 35 45 90 46
REMARK SMILES IDX 84 47 83 48 36 50 70 51 49 52 69 53 50 54 53 55 68 56 88 57
REMARK SMILES IDX 51 58 52 59 67 61 89 62 54 63 37 64 38 65 47 66 39 67 40 68
REMARK SMILES IDX 46 69 48 70 41 71 42 72 43 73 44 74 45 75 71 76 72 77 81 78
REMARK SMILES IDX 73 79 74 80 80 81 82 82 75 83 76 84 77 85 78 86 79 87 55 88
REMARK SMILES IDX 56 89 65 90 57 91 58 92 64 93 66 94 59 95 60 96 61 97 62 98
REMARK SMILES IDX 63 99
REMARK H PARENT 20 6 5 13 10 19 25 30 87 49 53 60
REMARK Flexibility Score: inf
ROOT
ATOM      1  C   UNL A   1      33.082  31.091  27.286  1.00  0.00     0.023 C 
ENDROOT
BRANCH   1   2
ATOM      2  C   UNL A   1      33.407  29.732  26.665  1.00  0.00     0.116 C 
BRANCH   2   3
ATOM      3  N   UNL A   1      33.552  29.706  25.214  1.00  0.00    -0.354 N 
ATOM      4  C   UNL A   1      33.158  28.813  24.256  1.00  0.00     0.245 C 
ATOM      5  O   UNL A   1      33.380  29.121  23.080  1.00  0.00    -0.272 OA
ATOM      6  H   UNL A   1      34.029  30.487  24.852  1.00  0.00     0.163 HD
BRANCH   4   7
ATOM      7  C   UNL A   1      32.547  27.438  24.600  1.00  0.00     0.116 C 
ATOM      8  C   UNL A   1      33.649  26.514  25.176  1.00  0.00     0.045 C 
BRANCH   7   9
ATOM      9  C   UNL A   1      31.410  27.460  25.661  1.00  0.00     0.035 C 
ATOM     10  C   UNL A   1      30.850  26.120  26.131  1.00  0.00     0.007 C 
ENDBRANCH   7   9
BRANCH   7  11
ATOM     11  N   UNL A   1      31.992  26.879  23.344  1.00  0.00    -0.340 N 
ATOM     12  C   UNL A   1      32.140  25.704  22.671  1.00  0.00     0.243 C 
ATOM     13  H   UNL A   1      31.374  27.499  22.892  1.00  0.00     0.164 HD
ATOM     14  O   UNL A   1      31.856  25.792  21.464  1.00  0.00    -0.273 OA
BRANCH  12  15
ATOM     15  C   UNL A   1      32.726  24.339  23.186  1.00  0.00     0.168 C 
ATOM     16  C   UNL A   1      31.705  23.211  23.109  1.00  0.00     0.041 C 
BRANCH  15  17
ATOM     17  N   UNL A   1      34.008  23.828  22.714  1.00  0.00    -0.338 N 
ATOM     18  C   UNL A   1      34.978  23.097  23.368  1.00  0.00     0.287 C 
ATOM     19  H   UNL A   1      34.215  24.040  21.775  1.00  0.00     0.164 HD
ATOM     20  O   UNL A   1      36.046  22.953  22.771  1.00  0.00    -0.266 OA
BRANCH  18  21
ATOM     21  C   UNL A   1      34.754  22.592  24.709  1.00  0.00     0.191 A 
ATOM     22  C   UNL A   1      34.925  23.124  25.975  1.00  0.00     0.056 A 
ATOM     23  O   UNL A   1      34.200  21.339  24.829  1.00  0.00    -0.459 OA
ATOM     24  C   UNL A   1      34.472  22.149  26.900  1.00  0.00     0.043 A 
ATOM     25  C   UNL A   1      34.047  21.080  26.152  1.00  0.00     0.196 A 
ENDBRANCH  18  21
ENDBRANCH  15  17
ENDBRANCH  12  15
ENDBRANCH   7  11
ENDBRANCH   4   7
ENDBRANCH   2   3
ENDBRANCH   1   2
BRANCH   1  26
ATOM     26  C   UNL A   1      34.263  31.899  27.797  1.00  0.00     0.023 C 
BRANCH  26  27
ATOM     27  C   UNL A   1      35.457  31.121  28.319  1.00  0.00     0.116 C 
BRANCH  27  28
ATOM     28  N   UNL A   1      35.457  31.031  29.766  1.00  0.00    -0.352 N 
ATOM     29  C   UNL A   1      36.370  30.439  30.607  1.00  0.00     0.251 C 
ATOM     30  H   UNL A   1      34.690  31.458  30.214  1.00  0.00     0.163 HD
ATOM     31  O   UNL A   1      36.068  30.278  31.788  1.00  0.00    -0.269 OA
BRANCH  29  32
ATOM     32  C   UNL A   1      37.697  29.982  30.117  1.00  0.00     0.039 A 
ATOM     33  C   UNL A   1      38.624  29.496  31.048  1.00  0.00     0.014 A 
ATOM     34  C   UNL A   1      38.072  30.086  28.774  1.00  0.00     0.014 A 
ATOM     35  C   UNL A   1      39.898  29.096  30.629  1.00  0.00     0.010 A 
ATOM     36  C   UNL A   1      39.307  29.598  28.346  1.00  0.00     0.010 A 
ATOM     37  C   UNL A   1      40.249  29.129  29.271  1.00  0.00    -0.014 A 
BRANCH  37  38
ATOM     38  C   UNL A   1      41.614  28.743  28.814  1.00  0.00     0.031 A 
ATOM     39  C   UNL A   1      42.713  29.776  28.763  1.00  0.00     0.074 A 
ATOM     40  C   UNL A   1      41.863  27.479  28.416  1.00  0.00     0.049 A 
ATOM     41  N   UNL A   1      43.953  29.647  28.361  1.00  0.00    -0.248 NA
ATOM     42  C   UNL A   1      42.368  31.139  29.199  1.00  0.00     0.031 C 
ATOM     43  C   UNL A   1      40.880  26.396  28.370  1.00  0.00     0.029 A 
ATOM     44  N   UNL A   1      43.022  26.893  27.968  1.00  0.00    -0.354 N 
ATOM     45  C   UNL A   1      44.522  30.912  28.470  1.00  0.00     0.074 A 
ATOM     46  C   UNL A   1      43.482  31.804  28.931  1.00  0.00     0.031 C 
ATOM     47  C   UNL A   1      41.483  25.271  27.950  1.00  0.00     0.029 A 
ATOM     48  C   UNL A   1      42.886  25.559  27.661  1.00  0.00     0.049 A 
ATOM     49  H   UNL A   1      43.871  27.382  27.876  1.00  0.00     0.167 HD
ATOM     50  C   UNL A   1      45.800  31.293  28.233  1.00  0.00     0.037 A 
ATOM     51  C   UNL A   1      43.786  24.669  27.199  1.00  0.00     0.037 A 
ATOM     52  C   UNL A   1      46.847  30.395  27.821  1.00  0.00     0.049 A 
ATOM     53  C   UNL A   1      45.205  25.112  26.961  1.00  0.00     0.074 A 
ATOM     54  C   UNL A   1      48.189  30.671  27.627  1.00  0.00     0.029 A 
ATOM     55  N   UNL A   1      46.670  29.049  27.541  1.00  0.00    -0.354 N 
ATOM     56  N   UNL A   1      45.740  26.297  27.133  1.00  0.00    -0.248 NA
ATOM     57  C   UNL A   1      46.146  24.094  26.471  1.00  0.00     0.031 C 
ATOM     58  C   UNL A   1      48.818  29.499  27.192  1.00  0.00     0.029 A 
ATOM     59  C   UNL A   1      47.875  28.483  27.159  1.00  0.00     0.049 A 
ATOM     60  H   UNL A   1      45.815  28.566  27.604  1.00  0.00     0.167 HD
ATOM     61  C   UNL A   1      47.083  26.162  26.797  1.00  0.00     0.074 A 
ATOM     62  C   UNL A   1      47.282  24.777  26.424  1.00  0.00     0.031 C 
ATOM     63  C   UNL A   1      48.062  27.100  26.799  1.00  0.00     0.037 A 
BRANCH  50  64
ATOM     64  C   UNL A   1      46.144  32.746  28.425  1.00  0.00     0.058 A 
ATOM     65  C   UNL A   1      46.594  33.242  29.659  1.00  0.00     0.135 A 
ATOM     66  C   UNL A   1      46.059  33.647  27.351  1.00  0.00     0.135 A 
ATOM     67  F   UNL A   1      46.682  32.428  30.723  1.00  0.00    -0.206 F 
ATOM     68  C   UNL A   1      46.919  34.584  29.830  1.00  0.00     0.059 A 
ATOM     69  C   UNL A   1      46.405  34.988  27.492  1.00  0.00     0.059 A 
ATOM     70  F   UNL A   1      45.636  33.227  26.148  1.00  0.00    -0.206 F 
ATOM     71  C   UNL A   1      46.820  35.451  28.740  1.00  0.00     0.060 A 
BRANCH  71  72
ATOM     72  S   UNL A   1      47.251  37.187  28.976  1.00  0.00     0.124 S 
ATOM     73  O   UNL A   1      46.674  37.796  27.782  1.00  0.00    -0.237 OA
ATOM     74  O   UNL A   1      46.584  37.507  30.235  1.00  0.00    -0.237 OA
ATOM     75  O   UNL A   1      48.709  37.171  29.031  1.00  0.00    -0.744 OA
ENDBRANCH  71  72
ENDBRANCH  50  64
BRANCH  51  76
ATOM     76  C   UNL A   1      43.381  23.258  26.956  1.00  0.00     0.058 A 
ATOM     77  C   UNL A   1      43.212  22.364  28.023  1.00  0.00     0.135 A 
ATOM     78  C   UNL A   1      43.146  22.779  25.658  1.00  0.00     0.135 A 
ATOM     79  F   UNL A   1      43.434  22.772  29.282  1.00  0.00    -0.206 F 
ATOM     80  C   UNL A   1      42.841  21.039  27.813  1.00  0.00     0.059 A 
ATOM     81  C   UNL A   1      42.750  21.465  25.425  1.00  0.00     0.059 A 
ATOM     82  F   UNL A   1      43.280  23.598  24.604  1.00  0.00    -0.206 F 
ATOM     83  C   UNL A   1      42.609  20.600  26.509  1.00  0.00     0.060 A 
BRANCH  83  84
ATOM     84  S   UNL A   1      42.077  18.894  26.250  1.00  0.00     0.124 S 
ATOM     85  O   UNL A   1      43.037  18.435  25.252  1.00  0.00    -0.237 OA
ATOM     86  O   UNL A   1      42.218  18.320  27.584  1.00  0.00    -0.237 OA
ATOM     87  O   UNL A   1      40.701  19.040  25.782  1.00  0.00    -0.744 OA
ENDBRANCH  83  84
ENDBRANCH  51  76
BRANCH  63  88
ATOM     88  C   UNL A   1      49.448  26.658  26.419  1.00  0.00     0.058 A 
ATOM     89  C   UNL A   1      50.338  26.126  27.365  1.00  0.00     0.135 A 
ATOM     90  C   UNL A   1      49.869  26.718  25.081  1.00  0.00     0.135 A 
ATOM     91  F   UNL A   1      49.984  26.052  28.658  1.00  0.00    -0.206 F 
ATOM     92  C   UNL A   1      51.606  25.687  27.001  1.00  0.00     0.059 A 
ATOM     93  C   UNL A   1      51.125  26.261  24.690  1.00  0.00     0.059 A 
ATOM     94  F   UNL A   1      49.053  27.208  24.135  1.00  0.00    -0.206 F 
ATOM     95  C   UNL A   1      51.991  25.759  25.660  1.00  0.00     0.060 A 
BRANCH  95  96
ATOM     96  S   UNL A   1      53.627  25.154  25.194  1.00  0.00     0.124 S 
ATOM     97  O   UNL A   1      53.758  25.678  23.838  1.00  0.00    -0.237 OA
ATOM     98  O   UNL A   1      54.489  25.772  26.198  1.00  0.00    -0.237 OA
ATOM     99  O   UNL A   1      53.496  23.704  25.296  1.00  0.00    -0.744 OA
ENDBRANCH  95  96
ENDBRANCH  63  88
ENDBRANCH  37  38
ENDBRANCH  29  32
ENDBRANCH  27  28
ENDBRANCH  26  27
ENDBRANCH   1  26
TORSDOF 19
ENDMDL
