MODEL 1
REMARK VINA RESULT:     -12.9      0.000      0.000
REMARK SMILES COc1ccc(-n2c(=O)[nH]c3cc(C(=O)NCCCCNC(=O)c4ccc(-c5c6nc(c(-c7c(F)cc(S(=O)(=O)[O-])cc7F)c7ccc([nH]7)c(-c7c(F)cc(S(=O)(=O)[O-])cc7F)c7nc(c(-c8c(F)cc(S(=O)(=O)[O-])cc8F)c8ccc5[nH]8)C=C7)C=C6)cc4)ccc3c2=O)cc1
REMARK SMILES IDX 19 1 18 2 17 3 16 4 14 5 15 6 13 8 7 9 8 10 93 11 9 12 10 13
REMARK SMILES IDX 92 14 94 15 11 16 91 18 12 19 90 20 6 21 3 22 4 23 96 24
REMARK SMILES IDX 5 25 95 26 2 27 1 28 20 29 21 30 22 31 23 33 24 34 25 35
REMARK SMILES IDX 89 36 26 37 88 38 27 39 28 40 29 41 82 42 30 43 87 44 81 45
REMARK SMILES IDX 83 46 31 47 86 48 80 49 79 50 32 52 66 53 45 54 65 55 46 56
REMARK SMILES IDX 49 57 64 58 84 59 47 60 48 61 63 63 85 64 50 65 33 66 34 67
REMARK SMILES IDX 43 68 35 69 36 70 42 71 44 72 37 73 38 74 39 75 40 76 41 77
REMARK SMILES IDX 67 78 68 79 77 80 69 81 70 82 76 83 78 84 71 85 72 86 73 87
REMARK SMILES IDX 74 88 75 89 51 90 52 91 61 92 53 93 54 94 60 95 62 96 55 97
REMARK SMILES IDX 56 98 57 99 58 100 59 101
REMARK H PARENT 16 7 10 17 21 32 83 51 49 62
REMARK Flexibility Score: inf
ROOT
ATOM      1  C   UNL A   1      33.270  28.313  25.797  1.00  0.00     0.023 C 
ENDROOT
BRANCH   1   2
ATOM      2  C   UNL A   1      32.797  29.531  25.008  1.00  0.00     0.023 C 
BRANCH   2   3
ATOM      3  C   UNL A   1      31.295  29.794  25.016  1.00  0.00     0.116 C 
BRANCH   3   4
ATOM      4  N   UNL A   1      30.694  29.778  23.693  1.00  0.00    -0.352 N 
ATOM      5  C   UNL A   1      30.435  28.728  22.848  1.00  0.00     0.251 C 
ATOM      6  O   UNL A   1      29.996  28.951  21.722  1.00  0.00    -0.269 OA
ATOM      7  H   UNL A   1      30.431  30.661  23.348  1.00  0.00     0.163 HD
BRANCH   5   8
ATOM      8  C   UNL A   1      30.699  27.322  23.243  1.00  0.00     0.041 A 
ATOM      9  N   UNL A   1      32.700  22.712  23.626  1.00  0.00    -0.228 N 
ATOM     10  C   UNL A   1      33.667  23.488  22.971  1.00  0.00     0.333 A 
ATOM     11  C   UNL A   1      31.660  23.330  24.338  1.00  0.00     0.268 A 
ATOM     12  O   UNL A   1      34.729  23.102  22.482  1.00  0.00    -0.247 OA
ATOM     13  N   UNL A   1      33.399  24.831  22.832  1.00  0.00    -0.306 N 
ATOM     14  C   UNL A   1      31.294  24.694  23.940  1.00  0.00     0.064 A 
ATOM     15  O   UNL A   1      31.055  22.866  25.304  1.00  0.00    -0.268 OA
ATOM     16  C   UNL A   1      32.215  25.437  23.226  1.00  0.00     0.056 A 
ATOM     17  H   UNL A   1      34.094  25.398  22.428  1.00  0.00     0.171 HD
ATOM     18  C   UNL A   1      30.047  25.229  24.269  1.00  0.00     0.017 A 
ATOM     19  C   UNL A   1      31.939  26.762  22.894  1.00  0.00     0.040 A 
ATOM     20  C   UNL A   1      29.734  26.530  23.878  1.00  0.00     0.015 A 
BRANCH   9  21
ATOM     21  C   UNL A   1      32.786  21.258  23.666  1.00  0.00     0.054 A 
ATOM     22  C   UNL A   1      32.965  18.414  23.848  1.00  0.00     0.119 A 
ATOM     23  C   UNL A   1      33.571  19.220  24.800  1.00  0.00     0.048 A 
ATOM     24  C   UNL A   1      32.239  19.013  22.826  1.00  0.00     0.048 A 
ATOM     25  C   UNL A   1      33.481  20.614  24.709  1.00  0.00     0.031 A 
ATOM     26  C   UNL A   1      32.154  20.416  22.737  1.00  0.00     0.031 A 
BRANCH  22  27
ATOM     27  O   UNL A   1      33.117  17.070  24.040  1.00  0.00    -0.497 OA
ATOM     28  C   UNL A   1      33.233  16.654  25.395  1.00  0.00     0.278 C 
ENDBRANCH  22  27
ENDBRANCH   9  21
ENDBRANCH   5   8
ENDBRANCH   3   4
ENDBRANCH   2   3
ENDBRANCH   1   2
BRANCH   1  29
ATOM     29  C   UNL A   1      33.470  28.523  27.293  1.00  0.00     0.116 C 
BRANCH  29  30
ATOM     30  N   UNL A   1      33.466  29.924  27.688  1.00  0.00    -0.352 N 
ATOM     31  C   UNL A   1      34.468  30.690  28.242  1.00  0.00     0.251 C 
ATOM     32  H   UNL A   1      32.616  30.396  27.536  1.00  0.00     0.163 HD
ATOM     33  O   UNL A   1      34.229  31.834  28.601  1.00  0.00    -0.269 OA
BRANCH  31  34
ATOM     34  C   UNL A   1      35.818  30.112  28.438  1.00  0.00     0.039 A 
ATOM     35  C   UNL A   1      36.711  30.109  27.364  1.00  0.00     0.014 A 
ATOM     36  C   UNL A   1      36.209  29.601  29.678  1.00  0.00     0.014 A 
ATOM     37  C   UNL A   1      38.027  29.681  27.560  1.00  0.00     0.010 A 
ATOM     38  C   UNL A   1      37.540  29.251  29.891  1.00  0.00     0.010 A 
ATOM     39  C   UNL A   1      38.466  29.296  28.837  1.00  0.00    -0.014 A 
BRANCH  39  40
ATOM     40  C   UNL A   1      39.888  28.950  29.097  1.00  0.00     0.031 A 
ATOM     41  C   UNL A   1      40.823  29.982  29.669  1.00  0.00     0.074 A 
ATOM     42  C   UNL A   1      40.355  27.734  28.749  1.00  0.00     0.049 A 
ATOM     43  N   UNL A   1      42.114  29.904  29.873  1.00  0.00    -0.248 NA
ATOM     44  C   UNL A   1      40.238  31.283  30.029  1.00  0.00     0.031 C 
ATOM     45  C   UNL A   1      39.562  26.664  28.138  1.00  0.00     0.029 A 
ATOM     46  N   UNL A   1      41.614  27.195  28.845  1.00  0.00    -0.354 N 
ATOM     47  C   UNL A   1      42.495  31.145  30.368  1.00  0.00     0.074 A 
ATOM     48  C   UNL A   1      41.310  31.975  30.386  1.00  0.00     0.031 C 
ATOM     49  C   UNL A   1      40.348  25.594  27.933  1.00  0.00     0.029 A 
ATOM     50  C   UNL A   1      41.706  25.911  28.362  1.00  0.00     0.049 A 
ATOM     51  H   UNL A   1      42.381  27.683  29.224  1.00  0.00     0.167 HD
ATOM     52  C   UNL A   1      43.715  31.550  30.793  1.00  0.00     0.037 A 
ATOM     53  C   UNL A   1      42.766  25.084  28.267  1.00  0.00     0.037 A 
ATOM     54  C   UNL A   1      44.884  30.711  30.808  1.00  0.00     0.049 A 
ATOM     55  C   UNL A   1      44.109  25.554  28.758  1.00  0.00     0.074 A 
ATOM     56  C   UNL A   1      46.153  31.010  31.273  1.00  0.00     0.029 A 
ATOM     57  N   UNL A   1      44.927  29.405  30.343  1.00  0.00    -0.354 N 
ATOM     58  N   UNL A   1      44.437  26.713  29.275  1.00  0.00    -0.248 NA
ATOM     59  C   UNL A   1      45.224  24.601  28.656  1.00  0.00     0.031 C 
ATOM     60  C   UNL A   1      46.972  29.896  31.060  1.00  0.00     0.029 A 
ATOM     61  C   UNL A   1      46.203  28.889  30.499  1.00  0.00     0.049 A 
ATOM     62  H   UNL A   1      44.164  28.916  29.958  1.00  0.00     0.167 HD
ATOM     63  C   UNL A   1      45.790  26.620  29.585  1.00  0.00     0.074 A 
ATOM     64  C   UNL A   1      46.216  25.288  29.209  1.00  0.00     0.031 C 
ATOM     65  C   UNL A   1      46.606  27.555  30.131  1.00  0.00     0.037 A 
BRANCH  52  66
ATOM     66  C   UNL A   1      43.846  32.961  31.296  1.00  0.00     0.058 A 
ATOM     67  C   UNL A   1      43.726  33.266  32.662  1.00  0.00     0.135 A 
ATOM     68  C   UNL A   1      44.135  34.014  30.414  1.00  0.00     0.135 A 
ATOM     69  F   UNL A   1      43.434  32.300  33.547  1.00  0.00    -0.206 F 
ATOM     70  C   UNL A   1      43.863  34.568  33.131  1.00  0.00     0.059 A 
ATOM     71  C   UNL A   1      44.302  35.320  30.864  1.00  0.00     0.059 A 
ATOM     72  F   UNL A   1      44.259  33.777  29.097  1.00  0.00    -0.206 F 
ATOM     73  C   UNL A   1      44.151  35.588  32.224  1.00  0.00     0.060 A 
BRANCH  73  74
ATOM     74  S   UNL A   1      44.338  37.270  32.852  1.00  0.00     0.124 S 
ATOM     75  O   UNL A   1      43.086  37.449  33.580  1.00  0.00    -0.237 OA
ATOM     76  O   UNL A   1      45.539  37.165  33.674  1.00  0.00    -0.237 OA
ATOM     77  O   UNL A   1      44.480  38.071  31.640  1.00  0.00    -0.744 OA
ENDBRANCH  73  74
ENDBRANCH  52  66
BRANCH  53  78
ATOM     78  C   UNL A   1      42.601  23.718  27.703  1.00  0.00     0.058 A 
ATOM     79  C   UNL A   1      42.439  22.607  28.544  1.00  0.00     0.135 A 
ATOM     80  C   UNL A   1      42.608  23.493  26.318  1.00  0.00     0.135 A 
ATOM     81  F   UNL A   1      42.432  22.770  29.876  1.00  0.00    -0.206 F 
ATOM     82  C   UNL A   1      42.315  21.317  28.035  1.00  0.00     0.059 A 
ATOM     83  C   UNL A   1      42.461  22.216  25.783  1.00  0.00     0.059 A 
ATOM     84  F   UNL A   1      42.742  24.525  25.469  1.00  0.00    -0.206 F 
ATOM     85  C   UNL A   1      42.329  21.133  26.652  1.00  0.00     0.060 A 
BRANCH  85  86
ATOM     86  S   UNL A   1      42.135  19.460  25.997  1.00  0.00     0.124 S 
ATOM     87  O   UNL A   1      40.699  19.408  25.749  1.00  0.00    -0.237 OA
ATOM     88  O   UNL A   1      42.987  19.493  24.812  1.00  0.00    -0.237 OA
ATOM     89  O   UNL A   1      42.622  18.617  27.085  1.00  0.00    -0.744 OA
ENDBRANCH  85  86
ENDBRANCH  53  78
BRANCH  65  90
ATOM     90  C   UNL A   1      48.032  27.161  30.390  1.00  0.00     0.058 A 
ATOM     91  C   UNL A   1      49.045  27.403  29.449  1.00  0.00     0.135 A 
ATOM     92  C   UNL A   1      48.398  26.581  31.616  1.00  0.00     0.135 A 
ATOM     93  F   UNL A   1      48.747  27.948  28.260  1.00  0.00    -0.206 F 
ATOM     94  C   UNL A   1      50.371  27.067  29.709  1.00  0.00     0.059 A 
ATOM     95  C   UNL A   1      49.720  26.260  31.906  1.00  0.00     0.059 A 
ATOM     96  F   UNL A   1      47.467  26.338  32.553  1.00  0.00    -0.206 F 
ATOM     97  C   UNL A   1      50.698  26.497  30.940  1.00  0.00     0.060 A 
BRANCH  97  98
ATOM     98  S   UNL A   1      52.426  26.100  31.279  1.00  0.00     0.124 S 
ATOM     99  O   UNL A   1      52.313  24.764  31.853  1.00  0.00    -0.237 OA
ATOM    100  O   UNL A   1      53.030  26.170  29.952  1.00  0.00    -0.237 OA
ATOM    101  O   UNL A   1      52.840  27.150  32.206  1.00  0.00    -0.744 OA
ENDBRANCH  97  98
ENDBRANCH  65  90
ENDBRANCH  39  40
ENDBRANCH  31  34
ENDBRANCH  29  30
ENDBRANCH   1  29
TORSDOF 16
ENDMDL
MODEL 2
REMARK VINA RESULT:     -12.6      4.740     10.752
REMARK SMILES COc1ccc(-n2c(=O)[nH]c3cc(C(=O)NCCCCNC(=O)c4ccc(-c5c6nc(c(-c7c(F)cc(S(=O)(=O)[O-])cc7F)c7ccc([nH]7)c(-c7c(F)cc(S(=O)(=O)[O-])cc7F)c7nc(c(-c8c(F)cc(S(=O)(=O)[O-])cc8F)c8ccc5[nH]8)C=C7)C=C6)cc4)ccc3c2=O)cc1
REMARK SMILES IDX 19 1 18 2 17 3 16 4 14 5 15 6 13 8 7 9 8 10 93 11 9 12 10 13
REMARK SMILES IDX 92 14 94 15 11 16 91 18 12 19 90 20 6 21 3 22 4 23 96 24
REMARK SMILES IDX 5 25 95 26 2 27 1 28 20 29 21 30 22 31 23 33 24 34 25 35
REMARK SMILES IDX 89 36 26 37 88 38 27 39 28 40 29 41 82 42 30 43 87 44 81 45
REMARK SMILES IDX 83 46 31 47 86 48 80 49 79 50 32 52 66 53 45 54 65 55 46 56
REMARK SMILES IDX 49 57 64 58 84 59 47 60 48 61 63 63 85 64 50 65 33 66 34 67
REMARK SMILES IDX 43 68 35 69 36 70 42 71 44 72 37 73 38 74 39 75 40 76 41 77
REMARK SMILES IDX 67 78 68 79 77 80 69 81 70 82 76 83 78 84 71 85 72 86 73 87
REMARK SMILES IDX 74 88 75 89 51 90 52 91 61 92 53 93 54 94 60 95 62 96 55 97
REMARK SMILES IDX 56 98 57 99 58 100 59 101
REMARK H PARENT 16 7 10 17 21 32 83 51 49 62
REMARK Flexibility Score: inf
ROOT
ATOM      1  C   UNL A   1      37.549  23.603  25.233  1.00  0.00     0.023 C 
ENDROOT
BRANCH   1   2
ATOM      2  C   UNL A   1      37.367  22.098  25.054  1.00  0.00     0.023 C 
BRANCH   2   3
ATOM      3  C   UNL A   1      36.429  21.413  26.043  1.00  0.00     0.116 C 
BRANCH   3   4
ATOM      4  N   UNL A   1      35.487  20.503  25.414  1.00  0.00    -0.352 N 
ATOM      5  C   UNL A   1      34.330  20.760  24.723  1.00  0.00     0.251 C 
ATOM      6  O   UNL A   1      33.629  19.824  24.346  1.00  0.00    -0.269 OA
ATOM      7  H   UNL A   1      35.715  19.550  25.498  1.00  0.00     0.163 HD
BRANCH   5   8
ATOM      8  C   UNL A   1      33.880  22.145  24.437  1.00  0.00     0.041 A 
ATOM      9  N   UNL A   1      31.417  26.541  24.565  1.00  0.00    -0.228 N 
ATOM     10  C   UNL A   1      31.078  25.885  25.757  1.00  0.00     0.333 A 
ATOM     11  C   UNL A   1      32.538  26.131  23.827  1.00  0.00     0.268 A 
ATOM     12  O   UNL A   1      30.258  26.247  26.602  1.00  0.00    -0.247 OA
ATOM     13  N   UNL A   1      31.709  24.690  26.013  1.00  0.00    -0.306 N 
ATOM     14  C   UNL A   1      32.985  24.744  24.001  1.00  0.00     0.064 A 
ATOM     15  O   UNL A   1      33.225  26.833  23.084  1.00  0.00    -0.268 OA
ATOM     16  C   UNL A   1      32.588  24.067  25.139  1.00  0.00     0.056 A 
ATOM     17  H   UNL A   1      31.526  24.248  26.872  1.00  0.00     0.171 HD
ATOM     18  C   UNL A   1      33.785  24.120  23.042  1.00  0.00     0.017 A 
ATOM     19  C   UNL A   1      33.051  22.775  25.381  1.00  0.00     0.040 A 
ATOM     20  C   UNL A   1      34.194  22.803  23.242  1.00  0.00     0.015 A 
BRANCH   9  21
ATOM     21  C   UNL A   1      30.683  27.710  24.100  1.00  0.00     0.054 A 
ATOM     22  C   UNL A   1      29.156  29.943  23.184  1.00  0.00     0.119 A 
ATOM     23  C   UNL A   1      28.783  28.649  22.849  1.00  0.00     0.048 A 
ATOM     24  C   UNL A   1      30.263  30.130  24.002  1.00  0.00     0.048 A 
ATOM     25  C   UNL A   1      29.532  27.557  23.300  1.00  0.00     0.031 A 
ATOM     26  C   UNL A   1      31.016  29.028  24.451  1.00  0.00     0.031 A 
BRANCH  22  27
ATOM     27  O   UNL A   1      28.350  30.929  22.690  1.00  0.00    -0.497 OA
ATOM     28  C   UNL A   1      28.092  30.867  21.292  1.00  0.00     0.278 C 
ENDBRANCH  22  27
ENDBRANCH   9  21
ENDBRANCH   5   8
ENDBRANCH   3   4
ENDBRANCH   2   3
ENDBRANCH   1   2
BRANCH   1  29
ATOM     29  C   UNL A   1      38.417  24.035  26.409  1.00  0.00     0.116 C 
BRANCH  29  30
ATOM     30  N   UNL A   1      39.843  23.875  26.168  1.00  0.00    -0.352 N 
ATOM     31  C   UNL A   1      40.906  24.627  26.617  1.00  0.00     0.251 C 
ATOM     32  H   UNL A   1      40.085  23.112  25.595  1.00  0.00     0.163 HD
ATOM     33  O   UNL A   1      42.034  24.387  26.212  1.00  0.00    -0.269 OA
BRANCH  31  34
ATOM     34  C   UNL A   1      40.674  25.750  27.555  1.00  0.00     0.039 A 
ATOM     35  C   UNL A   1      39.696  25.609  28.543  1.00  0.00     0.014 A 
ATOM     36  C   UNL A   1      41.430  26.921  27.479  1.00  0.00     0.014 A 
ATOM     37  C   UNL A   1      39.543  26.604  29.512  1.00  0.00     0.010 A 
ATOM     38  C   UNL A   1      41.333  27.874  28.490  1.00  0.00     0.010 A 
ATOM     39  C   UNL A   1      40.395  27.721  29.523  1.00  0.00    -0.014 A 
BRANCH  39  40
ATOM     40  C   UNL A   1      40.333  28.734  30.610  1.00  0.00     0.031 A 
ATOM     41  C   UNL A   1      41.230  28.607  31.812  1.00  0.00     0.074 A 
ATOM     42  C   UNL A   1      39.417  29.722  30.551  1.00  0.00     0.049 A 
ATOM     43  N   UNL A   1      41.255  29.329  32.903  1.00  0.00    -0.248 NA
ATOM     44  C   UNL A   1      42.207  27.507  31.799  1.00  0.00     0.031 C 
ATOM     45  C   UNL A   1      38.454  29.923  29.465  1.00  0.00     0.029 A 
ATOM     46  N   UNL A   1      39.136  30.738  31.431  1.00  0.00    -0.354 N 
ATOM     47  C   UNL A   1      42.234  28.761  33.711  1.00  0.00     0.074 A 
ATOM     48  C   UNL A   1      42.745  27.605  33.006  1.00  0.00     0.031 C 
ATOM     49  C   UNL A   1      37.704  31.004  29.735  1.00  0.00     0.029 A 
ATOM     50  C   UNL A   1      38.104  31.552  31.026  1.00  0.00     0.049 A 
ATOM     51  H   UNL A   1      39.626  30.871  32.275  1.00  0.00     0.167 HD
ATOM     52  C   UNL A   1      42.684  29.180  34.917  1.00  0.00     0.037 A 
ATOM     53  C   UNL A   1      37.539  32.616  31.630  1.00  0.00     0.037 A 
ATOM     54  C   UNL A   1      42.200  30.351  35.598  1.00  0.00     0.049 A 
ATOM     55  C   UNL A   1      38.066  33.068  32.965  1.00  0.00     0.074 A 
ATOM     56  C   UNL A   1      42.632  30.890  36.798  1.00  0.00     0.029 A 
ATOM     57  N   UNL A   1      41.179  31.169  35.138  1.00  0.00    -0.354 N 
ATOM     58  N   UNL A   1      39.031  32.550  33.688  1.00  0.00    -0.248 NA
ATOM     59  C   UNL A   1      37.431  34.250  33.566  1.00  0.00     0.031 C 
ATOM     60  C   UNL A   1      41.851  32.016  37.079  1.00  0.00     0.029 A 
ATOM     61  C   UNL A   1      40.960  32.201  36.035  1.00  0.00     0.049 A 
ATOM     62  H   UNL A   1      40.683  31.036  34.298  1.00  0.00     0.167 HD
ATOM     63  C   UNL A   1      39.137  33.359  34.814  1.00  0.00     0.074 A 
ATOM     64  C   UNL A   1      38.147  34.406  34.672  1.00  0.00     0.031 C 
ATOM     65  C   UNL A   1      39.978  33.244  35.871  1.00  0.00     0.037 A 
BRANCH  52  66
ATOM     66  C   UNL A   1      43.772  28.375  35.572  1.00  0.00     0.058 A 
ATOM     67  C   UNL A   1      43.476  27.344  36.479  1.00  0.00     0.135 A 
ATOM     68  C   UNL A   1      45.122  28.606  35.263  1.00  0.00     0.135 A 
ATOM     69  F   UNL A   1      42.204  27.091  36.823  1.00  0.00    -0.206 F 
ATOM     70  C   UNL A   1      44.481  26.587  37.074  1.00  0.00     0.059 A 
ATOM     71  C   UNL A   1      46.142  27.844  35.826  1.00  0.00     0.059 A 
ATOM     72  F   UNL A   1      45.461  29.581  34.403  1.00  0.00    -0.206 F 
ATOM     73  C   UNL A   1      45.810  26.845  36.740  1.00  0.00     0.060 A 
BRANCH  73  74
ATOM     74  S   UNL A   1      47.101  25.846  37.512  1.00  0.00     0.124 S 
ATOM     75  O   UNL A   1      47.999  25.613  36.386  1.00  0.00    -0.237 OA
ATOM     76  O   UNL A   1      47.606  26.737  38.551  1.00  0.00    -0.237 OA
ATOM     77  O   UNL A   1      46.379  24.672  37.994  1.00  0.00    -0.744 OA
ENDBRANCH  73  74
ENDBRANCH  52  66
BRANCH  53  78
ATOM     78  C   UNL A   1      36.421  33.344  30.972  1.00  0.00     0.058 A 
ATOM     79  C   UNL A   1      36.651  34.145  29.843  1.00  0.00     0.135 A 
ATOM     80  C   UNL A   1      35.108  33.261  31.458  1.00  0.00     0.135 A 
ATOM     81  F   UNL A   1      37.891  34.261  29.345  1.00  0.00    -0.206 F 
ATOM     82  C   UNL A   1      35.623  34.858  29.233  1.00  0.00     0.059 A 
ATOM     83  C   UNL A   1      34.059  33.945  30.850  1.00  0.00     0.059 A 
ATOM     84  F   UNL A   1      34.832  32.494  32.524  1.00  0.00    -0.206 F 
ATOM     85  C   UNL A   1      34.330  34.753  29.746  1.00  0.00     0.060 A 
BRANCH  85  86
ATOM     86  S   UNL A   1      32.996  35.656  28.929  1.00  0.00     0.124 S 
ATOM     87  O   UNL A   1      32.369  34.601  28.139  1.00  0.00    -0.237 OA
ATOM     88  O   UNL A   1      32.220  36.150  30.063  1.00  0.00    -0.237 OA
ATOM     89  O   UNL A   1      33.703  36.682  28.170  1.00  0.00    -0.744 OA
ENDBRANCH  85  86
ENDBRANCH  53  78
BRANCH  65  90
ATOM     90  C   UNL A   1      39.892  34.295  36.941  1.00  0.00     0.058 A 
ATOM     91  C   UNL A   1      40.589  35.509  36.837  1.00  0.00     0.135 A 
ATOM     92  C   UNL A   1      39.061  34.107  38.058  1.00  0.00     0.135 A 
ATOM     93  F   UNL A   1      41.401  35.735  35.794  1.00  0.00    -0.206 F 
ATOM     94  C   UNL A   1      40.479  36.494  37.815  1.00  0.00     0.059 A 
ATOM     95  C   UNL A   1      38.917  35.087  39.034  1.00  0.00     0.059 A 
ATOM     96  F   UNL A   1      38.367  32.966  38.198  1.00  0.00    -0.206 F 
ATOM     97  C   UNL A   1      39.639  36.274  38.908  1.00  0.00     0.060 A 
BRANCH  97  98
ATOM     98  S   UNL A   1      39.476  37.573  40.150  1.00  0.00     0.124 S 
ATOM     99  O   UNL A   1      40.833  38.108  40.196  1.00  0.00    -0.237 OA
ATOM    100  O   UNL A   1      38.469  38.448  39.558  1.00  0.00    -0.237 OA
ATOM    101  O   UNL A   1      39.045  36.850  41.344  1.00  0.00    -0.744 OA
ENDBRANCH  97  98
ENDBRANCH  65  90
ENDBRANCH  39  40
ENDBRANCH  31  34
ENDBRANCH  29  30
ENDBRANCH   1  29
TORSDOF 16
ENDMDL
MODEL 3
REMARK VINA RESULT:     -12.6      3.012      9.644
REMARK SMILES COc1ccc(-n2c(=O)[nH]c3cc(C(=O)NCCCCNC(=O)c4ccc(-c5c6nc(c(-c7c(F)cc(S(=O)(=O)[O-])cc7F)c7ccc([nH]7)c(-c7c(F)cc(S(=O)(=O)[O-])cc7F)c7nc(c(-c8c(F)cc(S(=O)(=O)[O-])cc8F)c8ccc5[nH]8)C=C7)C=C6)cc4)ccc3c2=O)cc1
REMARK SMILES IDX 19 1 18 2 17 3 16 4 14 5 15 6 13 8 7 9 8 10 93 11 9 12 10 13
REMARK SMILES IDX 92 14 94 15 11 16 91 18 12 19 90 20 6 21 3 22 4 23 96 24
REMARK SMILES IDX 5 25 95 26 2 27 1 28 20 29 21 30 22 31 23 33 24 34 25 35
REMARK SMILES IDX 89 36 26 37 88 38 27 39 28 40 29 41 82 42 30 43 87 44 81 45
REMARK SMILES IDX 83 46 31 47 86 48 80 49 79 50 32 52 66 53 45 54 65 55 46 56
REMARK SMILES IDX 49 57 64 58 84 59 47 60 48 61 63 63 85 64 50 65 33 66 34 67
REMARK SMILES IDX 43 68 35 69 36 70 42 71 44 72 37 73 38 74 39 75 40 76 41 77
REMARK SMILES IDX 67 78 68 79 77 80 69 81 70 82 76 83 78 84 71 85 72 86 73 87
REMARK SMILES IDX 74 88 75 89 51 90 52 91 61 92 53 93 54 94 60 95 62 96 55 97
REMARK SMILES IDX 56 98 57 99 58 100 59 101
REMARK H PARENT 16 7 10 17 21 32 83 51 49 62
REMARK Flexibility Score: inf
ROOT
ATOM      1  C   UNL A   1      35.719  23.104  25.748  1.00  0.00     0.023 C 
ENDROOT
BRANCH   1   2
ATOM      2  C   UNL A   1      35.746  21.625  26.125  1.00  0.00     0.023 C 
BRANCH   2   3
ATOM      3  C   UNL A   1      35.494  20.639  24.990  1.00  0.00     0.116 C 
BRANCH   3   4
ATOM      4  N   UNL A   1      34.336  19.788  25.206  1.00  0.00    -0.352 N 
ATOM      5  C   UNL A   1      32.998  20.061  25.078  1.00  0.00     0.251 C 
ATOM      6  O   UNL A   1      32.172  19.208  25.399  1.00  0.00    -0.269 OA
ATOM      7  H   UNL A   1      34.545  18.869  25.487  1.00  0.00     0.163 HD
BRANCH   5   8
ATOM      8  C   UNL A   1      32.510  21.374  24.587  1.00  0.00     0.041 A 
ATOM      9  N   UNL A   1      30.560  26.015  24.354  1.00  0.00    -0.228 N 
ATOM     10  C   UNL A   1      30.821  25.786  25.712  1.00  0.00     0.333 A 
ATOM     11  C   UNL A   1      31.168  25.218  23.372  1.00  0.00     0.268 A 
ATOM     12  O   UNL A   1      30.527  26.511  26.663  1.00  0.00    -0.247 OA
ATOM     13  N   UNL A   1      31.459  24.610  26.034  1.00  0.00    -0.306 N 
ATOM     14  C   UNL A   1      31.599  23.874  23.772  1.00  0.00     0.064 A 
ATOM     15  O   UNL A   1      31.430  25.550  22.216  1.00  0.00    -0.268 OA
ATOM     16  C   UNL A   1      31.783  23.620  25.118  1.00  0.00     0.056 A 
ATOM     17  H   UNL A   1      31.701  24.462  26.976  1.00  0.00     0.171 HD
ATOM     18  C   UNL A   1      31.813  22.874  22.821  1.00  0.00     0.017 A 
ATOM     19  C   UNL A   1      32.264  22.380  25.537  1.00  0.00     0.040 A 
ATOM     20  C   UNL A   1      32.225  21.609  23.237  1.00  0.00     0.015 A 
BRANCH   9  21
ATOM     21  C   UNL A   1      29.729  27.129  23.913  1.00  0.00     0.054 A 
ATOM     22  C   UNL A   1      28.186  29.352  23.003  1.00  0.00     0.119 A 
ATOM     23  C   UNL A   1      29.552  29.481  23.213  1.00  0.00     0.048 A 
ATOM     24  C   UNL A   1      27.591  28.114  23.208  1.00  0.00     0.048 A 
ATOM     25  C   UNL A   1      30.306  28.390  23.658  1.00  0.00     0.031 A 
ATOM     26  C   UNL A   1      28.353  27.020  23.660  1.00  0.00     0.031 A 
BRANCH  22  27
ATOM     27  O   UNL A   1      27.554  30.482  22.566  1.00  0.00    -0.497 OA
ATOM     28  C   UNL A   1      27.752  31.642  23.365  1.00  0.00     0.278 C 
ENDBRANCH  22  27
ENDBRANCH   9  21
ENDBRANCH   5   8
ENDBRANCH   3   4
ENDBRANCH   2   3
ENDBRANCH   1   2
BRANCH   1  29
ATOM     29  C   UNL A   1      37.024  23.681  25.213  1.00  0.00     0.116 C 
BRANCH  29  30
ATOM     30  N   UNL A   1      38.169  22.806  25.410  1.00  0.00    -0.352 N 
ATOM     31  C   UNL A   1      39.357  23.038  26.068  1.00  0.00     0.251 C 
ATOM     32  H   UNL A   1      38.082  21.910  25.012  1.00  0.00     0.163 HD
ATOM     33  O   UNL A   1      40.245  22.198  26.032  1.00  0.00    -0.269 OA
BRANCH  31  34
ATOM     34  C   UNL A   1      39.570  24.319  26.779  1.00  0.00     0.039 A 
ATOM     35  C   UNL A   1      39.024  24.479  28.055  1.00  0.00     0.014 A 
ATOM     36  C   UNL A   1      40.324  25.345  26.206  1.00  0.00     0.014 A 
ATOM     37  C   UNL A   1      39.313  25.630  28.793  1.00  0.00     0.010 A 
ATOM     38  C   UNL A   1      40.677  26.454  26.971  1.00  0.00     0.010 A 
ATOM     39  C   UNL A   1      40.183  26.604  28.276  1.00  0.00    -0.014 A 
BRANCH  39  40
ATOM     40  C   UNL A   1      40.602  27.779  29.086  1.00  0.00     0.031 A 
ATOM     41  C   UNL A   1      41.915  27.760  29.822  1.00  0.00     0.074 A 
ATOM     42  C   UNL A   1      39.767  28.829  29.220  1.00  0.00     0.049 A 
ATOM     43  N   UNL A   1      42.408  28.640  30.654  1.00  0.00    -0.248 NA
ATOM     44  C   UNL A   1      42.773  26.581  29.620  1.00  0.00     0.031 C 
ATOM     45  C   UNL A   1      38.444  28.947  28.601  1.00  0.00     0.029 A 
ATOM     46  N   UNL A   1      39.900  29.995  29.933  1.00  0.00    -0.354 N 
ATOM     47  C   UNL A   1      43.620  28.117  31.086  1.00  0.00     0.074 A 
ATOM     48  C   UNL A   1      43.766  26.819  30.464  1.00  0.00     0.031 C 
ATOM     49  C   UNL A   1      37.898  30.125  28.945  1.00  0.00     0.029 A 
ATOM     50  C   UNL A   1      38.811  30.831  29.837  1.00  0.00     0.049 A 
ATOM     51  H   UNL A   1      40.699  30.213  30.465  1.00  0.00     0.167 HD
ATOM     52  C   UNL A   1      44.541  28.677  31.906  1.00  0.00     0.037 A 
ATOM     53  C   UNL A   1      38.573  32.028  30.409  1.00  0.00     0.037 A 
ATOM     54  C   UNL A   1      44.411  29.984  32.494  1.00  0.00     0.049 A 
ATOM     55  C   UNL A   1      39.618  32.634  31.306  1.00  0.00     0.074 A 
ATOM     56  C   UNL A   1      45.315  30.663  33.292  1.00  0.00     0.029 A 
ATOM     57  N   UNL A   1      43.310  30.814  32.344  1.00  0.00    -0.354 N 
ATOM     58  N   UNL A   1      40.784  32.147  31.658  1.00  0.00    -0.248 NA
ATOM     59  C   UNL A   1      39.317  33.953  31.881  1.00  0.00     0.031 C 
ATOM     60  C   UNL A   1      44.747  31.890  33.651  1.00  0.00     0.029 A 
ATOM     61  C   UNL A   1      43.506  31.992  33.043  1.00  0.00     0.049 A 
ATOM     62  H   UNL A   1      42.505  30.597  31.817  1.00  0.00     0.167 HD
ATOM     63  C   UNL A   1      41.366  33.111  32.473  1.00  0.00     0.074 A 
ATOM     64  C   UNL A   1      40.431  34.214  32.553  1.00  0.00     0.031 C 
ATOM     65  C   UNL A   1      42.568  33.086  33.100  1.00  0.00     0.037 A 
BRANCH  52  66
ATOM     66  C   UNL A   1      45.785  27.885  32.202  1.00  0.00     0.058 A 
ATOM     67  C   UNL A   1      45.847  26.996  33.286  1.00  0.00     0.135 A 
ATOM     68  C   UNL A   1      46.913  27.984  31.372  1.00  0.00     0.135 A 
ATOM     69  F   UNL A   1      44.802  26.875  34.121  1.00  0.00    -0.206 F 
ATOM     70  C   UNL A   1      46.990  26.250  33.552  1.00  0.00     0.059 A 
ATOM     71  C   UNL A   1      48.059  27.229  31.603  1.00  0.00     0.059 A 
ATOM     72  F   UNL A   1      46.908  28.822  30.321  1.00  0.00    -0.206 F 
ATOM     73  C   UNL A   1      48.091  26.374  32.704  1.00  0.00     0.060 A 
BRANCH  73  74
ATOM     74  S   UNL A   1      49.564  25.390  33.056  1.00  0.00     0.124 S 
ATOM     75  O   UNL A   1      48.985  24.235  33.735  1.00  0.00    -0.237 OA
ATOM     76  O   UNL A   1      50.097  25.138  31.721  1.00  0.00    -0.237 OA
ATOM     77  O   UNL A   1      50.370  26.272  33.893  1.00  0.00    -0.744 OA
ENDBRANCH  73  74
ENDBRANCH  52  66
BRANCH  53  78
ATOM     78  C   UNL A   1      37.299  32.746  30.137  1.00  0.00     0.058 A 
ATOM     79  C   UNL A   1      36.158  32.507  30.916  1.00  0.00     0.135 A 
ATOM     80  C   UNL A   1      37.194  33.678  29.092  1.00  0.00     0.135 A 
ATOM     81  F   UNL A   1      36.207  31.621  31.922  1.00  0.00    -0.206 F 
ATOM     82  C   UNL A   1      34.949  33.146  30.656  1.00  0.00     0.059 A 
ATOM     83  C   UNL A   1      36.003  34.348  28.827  1.00  0.00     0.059 A 
ATOM     84  F   UNL A   1      38.262  33.956  28.328  1.00  0.00    -0.206 F 
ATOM     85  C   UNL A   1      34.882  34.064  29.607  1.00  0.00     0.060 A 
BRANCH  85  86
ATOM     86  S   UNL A   1      33.319  34.914  29.296  1.00  0.00     0.124 S 
ATOM     87  O   UNL A   1      33.780  36.197  28.777  1.00  0.00    -0.237 OA
ATOM     88  O   UNL A   1      32.674  34.029  28.329  1.00  0.00    -0.237 OA
ATOM     89  O   UNL A   1      32.691  34.951  30.613  1.00  0.00    -0.744 OA
ENDBRANCH  85  86
ENDBRANCH  53  78
BRANCH  65  90
ATOM     90  C   UNL A   1      42.959  34.298  33.897  1.00  0.00     0.058 A 
ATOM     91  C   UNL A   1      42.674  34.401  35.268  1.00  0.00     0.135 A 
ATOM     92  C   UNL A   1      43.673  35.346  33.293  1.00  0.00     0.135 A 
ATOM     93  F   UNL A   1      41.988  33.430  35.890  1.00  0.00    -0.206 F 
ATOM     94  C   UNL A   1      43.068  35.511  36.008  1.00  0.00     0.059 A 
ATOM     95  C   UNL A   1      44.098  36.453  34.020  1.00  0.00     0.059 A 
ATOM     96  F   UNL A   1      43.978  35.290  31.987  1.00  0.00    -0.206 F 
ATOM     97  C   UNL A   1      43.781  36.532  35.376  1.00  0.00     0.060 A 
BRANCH  97  98
ATOM     98  S   UNL A   1      44.318  37.949  36.355  1.00  0.00     0.124 S 
ATOM     99  O   UNL A   1      44.028  39.057  35.452  1.00  0.00    -0.237 OA
ATOM    100  O   UNL A   1      43.466  37.855  37.537  1.00  0.00    -0.237 OA
ATOM    101  O   UNL A   1      45.735  37.682  36.589  1.00  0.00    -0.744 OA
ENDBRANCH  97  98
ENDBRANCH  65  90
ENDBRANCH  39  40
ENDBRANCH  31  34
ENDBRANCH  29  30
ENDBRANCH   1  29
TORSDOF 16
ENDMDL
