MODEL 1
REMARK VINA RESULT:     -11.7      0.000      0.000
REMARK SMILES O=C(NCCCCNC(=O)[C@@H]1CS[C@H](c2cccc([N+](=O)[O-])c2)[NH2+]1)c1ccc(-c2c3nc(c(-c4c(F)cc(S(=O)(=O)[O-])cc4F)c4ccc([nH]4)c(-c4c(F)cc(S(=O)(=O)[O-])cc4F)c4nc(c(-c5c(F)cc(S(=O)(=O)[O-])cc5F)c5ccc2[nH]5)C=C4)C=C3)cc1
REMARK SMILES IDX 5 1 4 2 3 3 1 4 2 5 25 7 26 8 90 9 27 10 89 11 28 12 29 13
REMARK SMILES IDX 30 14 83 15 31 16 88 17 82 18 84 19 32 20 87 21 81 22 80 23
REMARK SMILES IDX 33 25 67 26 46 27 66 28 47 29 50 30 65 31 85 32 48 33 49 34
REMARK SMILES IDX 64 36 86 37 51 38 34 39 35 40 44 41 36 42 37 43 43 44 45 45
REMARK SMILES IDX 38 46 39 47 40 48 41 49 42 50 68 51 69 52 78 53 70 54 71 55
REMARK SMILES IDX 77 56 79 57 72 58 73 59 74 60 75 61 76 62 52 63 53 64 62 65
REMARK SMILES IDX 54 66 55 67 61 68 63 69 56 70 57 71 58 72 59 73 60 74 6 75
REMARK SMILES IDX 7 76 8 77 9 78 10 80 11 81 12 82 24 83 13 84 14 85 15 88
REMARK SMILES IDX 16 89 23 90 17 91 19 92 18 93 20 94 21 95 22 96
REMARK H PARENT 3 6 84 24 50 35 8 79 24 86 24 87
REMARK Flexibility Score: inf
ROOT
ATOM      1  C   UNL A   1      40.930  21.813  27.615  1.00  0.00     0.023 C 
ENDROOT
BRANCH   1   2
ATOM      2  C   UNL A   1      41.737  23.104  27.606  1.00  0.00     0.116 C 
BRANCH   2   3
ATOM      3  N   UNL A   1      41.580  23.867  26.377  1.00  0.00    -0.352 N 
ATOM      4  O   UNL A   1      41.061  25.640  25.090  1.00  0.00    -0.269 OA
ATOM      5  C   UNL A   1      41.263  25.196  26.217  1.00  0.00     0.251 C 
ATOM      6  H   UNL A   1      41.722  23.362  25.544  1.00  0.00     0.163 HD
BRANCH   5   7
ATOM      7  C   UNL A   1      41.135  26.074  27.401  1.00  0.00     0.039 A 
ATOM      8  C   UNL A   1      40.093  25.897  28.314  1.00  0.00     0.014 A 
ATOM      9  C   UNL A   1      42.077  27.087  27.603  1.00  0.00     0.014 A 
ATOM     10  C   UNL A   1      39.919  26.808  29.351  1.00  0.00     0.010 A 
ATOM     11  C   UNL A   1      41.943  27.958  28.689  1.00  0.00     0.010 A 
ATOM     12  C   UNL A   1      40.848  27.841  29.557  1.00  0.00    -0.014 A 
BRANCH  12  13
ATOM     13  C   UNL A   1      40.685  28.738  30.730  1.00  0.00     0.031 A 
ATOM     14  C   UNL A   1      41.581  28.626  31.931  1.00  0.00     0.074 A 
ATOM     15  C   UNL A   1      39.728  29.686  30.682  1.00  0.00     0.049 A 
ATOM     16  N   UNL A   1      41.588  29.350  33.021  1.00  0.00    -0.248 NA
ATOM     17  C   UNL A   1      42.597  27.562  31.914  1.00  0.00     0.031 C 
ATOM     18  C   UNL A   1      38.786  29.876  29.575  1.00  0.00     0.029 A 
ATOM     19  N   UNL A   1      39.399  30.679  31.569  1.00  0.00    -0.354 N 
ATOM     20  C   UNL A   1      42.594  28.828  33.825  1.00  0.00     0.074 A 
ATOM     21  C   UNL A   1      43.162  27.706  33.107  1.00  0.00     0.031 C 
ATOM     22  C   UNL A   1      38.017  30.944  29.828  1.00  0.00     0.029 A 
ATOM     23  C   UNL A   1      38.372  31.483  31.136  1.00  0.00     0.049 A 
ATOM     24  H   UNL A   1      39.854  30.804  32.433  1.00  0.00     0.167 HD
ATOM     25  C   UNL A   1      43.008  29.250  35.044  1.00  0.00     0.037 A 
ATOM     26  C   UNL A   1      37.773  32.534  31.728  1.00  0.00     0.037 A 
ATOM     27  C   UNL A   1      42.448  30.381  35.743  1.00  0.00     0.049 A 
ATOM     28  C   UNL A   1      38.251  32.978  33.079  1.00  0.00     0.074 A 
ATOM     29  C   UNL A   1      42.822  30.907  36.968  1.00  0.00     0.029 A 
ATOM     30  N   UNL A   1      41.396  31.159  35.280  1.00  0.00    -0.354 N 
ATOM     31  N   UNL A   1      39.221  32.485  33.811  1.00  0.00    -0.248 NA
ATOM     32  C   UNL A   1      37.552  34.117  33.688  1.00  0.00     0.031 C 
ATOM     33  C   UNL A   1      41.973  31.981  37.262  1.00  0.00     0.029 A 
ATOM     34  C   UNL A   1      41.097  32.148  36.204  1.00  0.00     0.049 A 
ATOM     35  H   UNL A   1      40.931  31.027  34.423  1.00  0.00     0.167 HD
ATOM     36  C   UNL A   1      39.254  33.257  34.965  1.00  0.00     0.074 A 
ATOM     37  C   UNL A   1      38.224  34.266  34.821  1.00  0.00     0.031 C 
ATOM     38  C   UNL A   1      40.062  33.139  36.047  1.00  0.00     0.037 A 
BRANCH  25  39
ATOM     39  C   UNL A   1      44.119  28.487  35.714  1.00  0.00     0.058 A 
ATOM     40  C   UNL A   1      43.858  27.416  36.583  1.00  0.00     0.135 A 
ATOM     41  C   UNL A   1      45.461  28.792  35.437  1.00  0.00     0.135 A 
ATOM     42  F   UNL A   1      42.594  27.089  36.893  1.00  0.00    -0.206 F 
ATOM     43  C   UNL A   1      44.890  26.684  37.165  1.00  0.00     0.059 A 
ATOM     44  C   UNL A   1      46.508  28.060  35.991  1.00  0.00     0.059 A 
ATOM     45  F   UNL A   1      45.766  29.807  34.612  1.00  0.00    -0.206 F 
ATOM     46  C   UNL A   1      46.212  27.014  36.862  1.00  0.00     0.060 A 
BRANCH  46  47
ATOM     47  S   UNL A   1      47.539  26.044  37.610  1.00  0.00     0.124 S 
ATOM     48  O   UNL A   1      47.148  26.053  39.017  1.00  0.00    -0.237 OA
ATOM     49  O   UNL A   1      47.416  24.761  36.927  1.00  0.00    -0.237 OA
ATOM     50  O   UNL A   1      48.741  26.808  37.289  1.00  0.00    -0.744 OA
ENDBRANCH  46  47
ENDBRANCH  25  39
BRANCH  26  51
ATOM     51  C   UNL A   1      36.651  33.225  31.042  1.00  0.00     0.058 A 
ATOM     52  C   UNL A   1      35.329  33.071  31.479  1.00  0.00     0.135 A 
ATOM     53  C   UNL A   1      36.887  34.074  29.949  1.00  0.00     0.135 A 
ATOM     54  F   UNL A   1      35.055  32.266  32.516  1.00  0.00    -0.206 F 
ATOM     55  C   UNL A   1      34.275  33.725  30.850  1.00  0.00     0.059 A 
ATOM     56  C   UNL A   1      35.853  34.760  29.321  1.00  0.00     0.059 A 
ATOM     57  F   UNL A   1      38.138  34.269  29.506  1.00  0.00    -0.206 F 
ATOM     58  C   UNL A   1      34.548  34.568  29.771  1.00  0.00     0.060 A 
BRANCH  58  59
ATOM     59  S   UNL A   1      33.183  35.456  28.991  1.00  0.00     0.124 S 
ATOM     60  O   UNL A   1      33.894  36.481  28.238  1.00  0.00    -0.237 OA
ATOM     61  O   UNL A   1      32.543  34.410  28.199  1.00  0.00    -0.237 OA
ATOM     62  O   UNL A   1      32.402  35.933  30.129  1.00  0.00    -0.744 OA
ENDBRANCH  58  59
ENDBRANCH  26  51
BRANCH  38  63
ATOM     63  C   UNL A   1      39.863  34.134  37.154  1.00  0.00     0.058 A 
ATOM     64  C   UNL A   1      40.571  35.347  37.185  1.00  0.00     0.135 A 
ATOM     65  C   UNL A   1      38.944  33.884  38.184  1.00  0.00     0.135 A 
ATOM     66  F   UNL A   1      41.469  35.628  36.227  1.00  0.00    -0.206 F 
ATOM     67  C   UNL A   1      40.393  36.264  38.213  1.00  0.00     0.059 A 
ATOM     68  C   UNL A   1      38.732  34.798  39.211  1.00  0.00     0.059 A 
ATOM     69  F   UNL A   1      38.237  32.742  38.197  1.00  0.00    -0.206 F 
ATOM     70  C   UNL A   1      39.474  35.980  39.224  1.00  0.00     0.060 A 
BRANCH  70  71
ATOM     71  S   UNL A   1      39.237  37.185  40.547  1.00  0.00     0.124 S 
ATOM     72  O   UNL A   1      38.225  38.062  39.968  1.00  0.00    -0.237 OA
ATOM     73  O   UNL A   1      38.792  36.350  41.658  1.00  0.00    -0.237 OA
ATOM     74  O   UNL A   1      40.563  37.776  40.708  1.00  0.00    -0.744 OA
ENDBRANCH  70  71
ENDBRANCH  38  63
ENDBRANCH  12  13
ENDBRANCH   5   7
ENDBRANCH   2   3
ENDBRANCH   1   2
BRANCH   1  75
ATOM     75  C   UNL A   1      40.729  21.141  26.254  1.00  0.00     0.023 C 
BRANCH  75  76
ATOM     76  C   UNL A   1      39.281  21.059  25.770  1.00  0.00     0.116 C 
BRANCH  76  77
ATOM     77  N   UNL A   1      38.649  22.356  25.668  1.00  0.00    -0.351 N 
ATOM     78  C   UNL A   1      37.375  22.785  25.839  1.00  0.00     0.279 C 
ATOM     79  H   UNL A   1      39.274  23.077  25.423  1.00  0.00     0.163 HD
ATOM     80  O   UNL A   1      37.244  24.014  25.929  1.00  0.00    -0.268 OA
BRANCH  78  81
ATOM     81  C   UNL A   1      36.139  21.856  25.975  1.00  0.00     0.283 C 
ATOM     82  C   UNL A   1      35.476  21.340  24.700  1.00  0.00     0.151 C 
ATOM     83  N   UNL A   1      35.120  22.567  26.831  1.00  0.00    -0.321 N 
ATOM     84  S   UNL A   1      33.723  21.261  25.103  1.00  0.00    -0.088 SA
ATOM     85  C   UNL A   1      33.873  22.769  26.094  1.00  0.00     0.274 C 
ATOM     86  H   UNL A   1      35.493  23.474  27.112  1.00  0.00     0.348 HD
ATOM     87  H   UNL A   1      34.924  21.994  27.652  1.00  0.00     0.348 HD
BRANCH  85  88
ATOM     88  C   UNL A   1      33.843  24.025  25.222  1.00  0.00     0.027 A 
ATOM     89  C   UNL A   1      33.874  25.297  25.828  1.00  0.00     0.011 A 
ATOM     90  C   UNL A   1      33.769  23.974  23.818  1.00  0.00     0.096 A 
ATOM     91  C   UNL A   1      33.760  26.470  25.074  1.00  0.00     0.008 A 
ATOM     92  C   UNL A   1      33.615  25.150  23.069  1.00  0.00     0.269 A 
ATOM     93  C   UNL A   1      33.611  26.401  23.691  1.00  0.00     0.085 A 
BRANCH  92  94
ATOM     94  N   UNL A   1      33.402  25.063  21.622  1.00  0.00     0.062 N 
ATOM     95  O   UNL A   1      33.343  26.127  20.989  1.00  0.00    -0.258 OA
ATOM     96  O   UNL A   1      33.258  23.936  21.128  1.00  0.00    -0.258 OA
ENDBRANCH  92  94
ENDBRANCH  85  88
ENDBRANCH  78  81
ENDBRANCH  76  77
ENDBRANCH  75  76
ENDBRANCH   1  75
TORSDOF 16
ENDMDL
MODEL 2
REMARK VINA RESULT:     -11.6      1.193      1.674
REMARK SMILES O=C(NCCCCNC(=O)[C@@H]1CS[C@H](c2cccc([N+](=O)[O-])c2)[NH2+]1)c1ccc(-c2c3nc(c(-c4c(F)cc(S(=O)(=O)[O-])cc4F)c4ccc([nH]4)c(-c4c(F)cc(S(=O)(=O)[O-])cc4F)c4nc(c(-c5c(F)cc(S(=O)(=O)[O-])cc5F)c5ccc2[nH]5)C=C4)C=C3)cc1
REMARK SMILES IDX 5 1 4 2 3 3 1 4 2 5 25 7 26 8 90 9 27 10 89 11 28 12 29 13
REMARK SMILES IDX 30 14 83 15 31 16 88 17 82 18 84 19 32 20 87 21 81 22 80 23
REMARK SMILES IDX 33 25 67 26 46 27 66 28 47 29 50 30 65 31 85 32 48 33 49 34
REMARK SMILES IDX 64 36 86 37 51 38 34 39 35 40 44 41 36 42 37 43 43 44 45 45
REMARK SMILES IDX 38 46 39 47 40 48 41 49 42 50 68 51 69 52 78 53 70 54 71 55
REMARK SMILES IDX 77 56 79 57 72 58 73 59 74 60 75 61 76 62 52 63 53 64 62 65
REMARK SMILES IDX 54 66 55 67 61 68 63 69 56 70 57 71 58 72 59 73 60 74 6 75
REMARK SMILES IDX 7 76 8 77 9 78 10 80 11 81 12 82 24 83 13 84 14 85 15 88
REMARK SMILES IDX 16 89 23 90 17 91 19 92 18 93 20 94 21 95 22 96
REMARK H PARENT 3 6 84 24 50 35 8 79 24 86 24 87
REMARK Flexibility Score: inf
ROOT
ATOM      1  C   UNL A   1      40.638  22.265  27.529  1.00  0.00     0.023 C 
ENDROOT
BRANCH   1   2
ATOM      2  C   UNL A   1      41.825  23.212  27.413  1.00  0.00     0.116 C 
BRANCH   2   3
ATOM      3  N   UNL A   1      41.796  24.019  26.203  1.00  0.00    -0.352 N 
ATOM      4  O   UNL A   1      41.466  25.857  24.945  1.00  0.00    -0.269 OA
ATOM      5  C   UNL A   1      41.566  25.368  26.067  1.00  0.00     0.251 C 
ATOM      6  H   UNL A   1      41.967  23.532  25.365  1.00  0.00     0.163 HD
BRANCH   5   7
ATOM      7  C   UNL A   1      41.405  26.217  27.268  1.00  0.00     0.039 A 
ATOM      8  C   UNL A   1      40.345  26.010  28.154  1.00  0.00     0.014 A 
ATOM      9  C   UNL A   1      42.336  27.230  27.515  1.00  0.00     0.014 A 
ATOM     10  C   UNL A   1      40.143  26.895  29.208  1.00  0.00     0.010 A 
ATOM     11  C   UNL A   1      42.172  28.074  28.619  1.00  0.00     0.010 A 
ATOM     12  C   UNL A   1      41.059  27.929  29.460  1.00  0.00    -0.014 A 
BRANCH  12  13
ATOM     13  C   UNL A   1      40.865  28.797  30.649  1.00  0.00     0.031 A 
ATOM     14  C   UNL A   1      41.756  28.683  31.854  1.00  0.00     0.074 A 
ATOM     15  C   UNL A   1      39.883  29.720  30.615  1.00  0.00     0.049 A 
ATOM     16  N   UNL A   1      41.736  29.384  32.959  1.00  0.00    -0.248 NA
ATOM     17  C   UNL A   1      42.801  27.648  31.822  1.00  0.00     0.031 C 
ATOM     18  C   UNL A   1      38.943  29.907  29.506  1.00  0.00     0.029 A 
ATOM     19  N   UNL A   1      39.522  30.684  31.521  1.00  0.00    -0.354 N 
ATOM     20  C   UNL A   1      42.751  28.872  33.759  1.00  0.00     0.074 A 
ATOM     21  C   UNL A   1      43.354  27.781  33.022  1.00  0.00     0.031 C 
ATOM     22  C   UNL A   1      38.144  30.948  29.776  1.00  0.00     0.029 A 
ATOM     23  C   UNL A   1      38.476  31.470  31.097  1.00  0.00     0.049 A 
ATOM     24  H   UNL A   1      39.968  30.803  32.390  1.00  0.00     0.167 HD
ATOM     25  C   UNL A   1      43.146  29.280  34.990  1.00  0.00     0.037 A 
ATOM     26  C   UNL A   1      37.845  32.491  31.706  1.00  0.00     0.037 A 
ATOM     27  C   UNL A   1      42.552  30.380  35.708  1.00  0.00     0.049 A 
ATOM     28  C   UNL A   1      38.303  32.919  33.070  1.00  0.00     0.074 A 
ATOM     29  C   UNL A   1      42.903  30.890  36.947  1.00  0.00     0.029 A 
ATOM     30  N   UNL A   1      41.482  31.139  35.255  1.00  0.00    -0.354 N 
ATOM     31  N   UNL A   1      39.281  32.436  33.798  1.00  0.00    -0.248 NA
ATOM     32  C   UNL A   1      37.569  34.026  33.698  1.00  0.00     0.031 C 
ATOM     33  C   UNL A   1      42.024  31.934  37.257  1.00  0.00     0.029 A 
ATOM     34  C   UNL A   1      41.150  32.100  36.196  1.00  0.00     0.049 A 
ATOM     35  H   UNL A   1      41.026  31.012  34.391  1.00  0.00     0.167 HD
ATOM     36  C   UNL A   1      39.286  33.185  34.968  1.00  0.00     0.074 A 
ATOM     37  C   UNL A   1      38.230  34.168  34.839  1.00  0.00     0.031 C 
ATOM     38  C   UNL A   1      40.089  33.066  36.054  1.00  0.00     0.037 A 
BRANCH  25  39
ATOM     39  C   UNL A   1      44.273  28.533  35.651  1.00  0.00     0.058 A 
ATOM     40  C   UNL A   1      45.614  28.895  35.453  1.00  0.00     0.135 A 
ATOM     41  C   UNL A   1      44.004  27.481  36.542  1.00  0.00     0.135 A 
ATOM     42  F   UNL A   1      45.929  29.884  34.602  1.00  0.00    -0.206 F 
ATOM     43  C   UNL A   1      46.650  28.230  36.103  1.00  0.00     0.059 A 
ATOM     44  C   UNL A   1      45.023  26.816  37.219  1.00  0.00     0.059 A 
ATOM     45  F   UNL A   1      42.738  27.095  36.769  1.00  0.00    -0.206 F 
ATOM     46  C   UNL A   1      46.345  27.192  36.985  1.00  0.00     0.060 A 
BRANCH  46  47
ATOM     47  S   UNL A   1      47.699  26.350  37.834  1.00  0.00     0.124 S 
ATOM     48  O   UNL A   1      46.995  25.246  38.480  1.00  0.00    -0.237 OA
ATOM     49  O   UNL A   1      48.580  25.980  36.732  1.00  0.00    -0.237 OA
ATOM     50  O   UNL A   1      48.222  27.372  38.735  1.00  0.00    -0.744 OA
ENDBRANCH  46  47
ENDBRANCH  25  39
BRANCH  26  51
ATOM     51  C   UNL A   1      36.710  33.165  31.027  1.00  0.00     0.058 A 
ATOM     52  C   UNL A   1      35.389  32.969  31.454  1.00  0.00     0.135 A 
ATOM     53  C   UNL A   1      36.929  34.042  29.952  1.00  0.00     0.135 A 
ATOM     54  F   UNL A   1      35.131  32.138  32.475  1.00  0.00    -0.206 F 
ATOM     55  C   UNL A   1      34.322  33.608  30.832  1.00  0.00     0.059 A 
ATOM     56  C   UNL A   1      35.881  34.712  29.331  1.00  0.00     0.059 A 
ATOM     57  F   UNL A   1      38.177  34.277  29.520  1.00  0.00    -0.206 F 
ATOM     58  C   UNL A   1      34.579  34.478  29.771  1.00  0.00     0.060 A 
BRANCH  58  59
ATOM     59  S   UNL A   1      33.195  35.345  29.000  1.00  0.00     0.124 S 
ATOM     60  O   UNL A   1      32.417  35.746  30.166  1.00  0.00    -0.237 OA
ATOM     61  O   UNL A   1      33.865  36.422  28.278  1.00  0.00    -0.237 OA
ATOM     62  O   UNL A   1      32.589  34.320  28.156  1.00  0.00    -0.744 OA
ENDBRANCH  58  59
ENDBRANCH  26  51
BRANCH  38  63
ATOM     63  C   UNL A   1      39.857  34.032  37.180  1.00  0.00     0.058 A 
ATOM     64  C   UNL A   1      40.481  35.290  37.206  1.00  0.00     0.135 A 
ATOM     65  C   UNL A   1      38.989  33.706  38.232  1.00  0.00     0.135 A 
ATOM     66  F   UNL A   1      41.327  35.644  36.226  1.00  0.00    -0.206 F 
ATOM     67  C   UNL A   1      40.272  36.181  38.252  1.00  0.00     0.059 A 
ATOM     68  C   UNL A   1      38.747  34.592  39.278  1.00  0.00     0.059 A 
ATOM     69  F   UNL A   1      38.362  32.519  38.250  1.00  0.00    -0.206 F 
ATOM     70  C   UNL A   1      39.405  35.822  39.285  1.00  0.00     0.060 A 
BRANCH  70  71
ATOM     71  S   UNL A   1      39.128  36.992  40.632  1.00  0.00     0.124 S 
ATOM     72  O   UNL A   1      38.535  36.131  41.651  1.00  0.00    -0.237 OA
ATOM     73  O   UNL A   1      40.477  37.473  40.915  1.00  0.00    -0.237 OA
ATOM     74  O   UNL A   1      38.228  37.980  40.042  1.00  0.00    -0.744 OA
ENDBRANCH  70  71
ENDBRANCH  38  63
ENDBRANCH  12  13
ENDBRANCH   5   7
ENDBRANCH   2   3
ENDBRANCH   1   2
BRANCH   1  75
ATOM     75  C   UNL A   1      39.403  22.638  26.704  1.00  0.00     0.023 C 
BRANCH  75  76
ATOM     76  C   UNL A   1      38.875  21.539  25.780  1.00  0.00     0.116 C 
BRANCH  76  77
ATOM     77  N   UNL A   1      37.992  22.047  24.754  1.00  0.00    -0.351 N 
ATOM     78  C   UNL A   1      36.649  22.000  24.578  1.00  0.00     0.279 C 
ATOM     79  H   UNL A   1      38.463  22.525  24.034  1.00  0.00     0.163 HD
ATOM     80  O   UNL A   1      36.207  22.773  23.716  1.00  0.00    -0.268 OA
BRANCH  78  81
ATOM     81  C   UNL A   1      35.679  21.110  25.400  1.00  0.00     0.283 C 
ATOM     82  C   UNL A   1      34.334  20.738  24.780  1.00  0.00     0.151 C 
ATOM     83  N   UNL A   1      35.460  21.778  26.736  1.00  0.00    -0.321 N 
ATOM     84  S   UNL A   1      33.193  20.690  26.171  1.00  0.00    -0.088 SA
ATOM     85  C   UNL A   1      34.045  22.094  26.933  1.00  0.00     0.274 C 
ATOM     86  H   UNL A   1      36.004  22.640  26.772  1.00  0.00     0.348 HD
ATOM     87  H   UNL A   1      35.758  21.140  27.474  1.00  0.00     0.348 HD
BRANCH  85  88
ATOM     88  C   UNL A   1      33.598  23.424  26.326  1.00  0.00     0.027 A 
ATOM     89  C   UNL A   1      34.558  24.414  26.029  1.00  0.00     0.011 A 
ATOM     90  C   UNL A   1      32.250  23.724  26.060  1.00  0.00     0.096 A 
ATOM     91  C   UNL A   1      34.185  25.676  25.556  1.00  0.00     0.008 A 
ATOM     92  C   UNL A   1      31.876  25.003  25.624  1.00  0.00     0.269 A 
ATOM     93  C   UNL A   1      32.839  25.983  25.369  1.00  0.00     0.085 A 
BRANCH  92  94
ATOM     94  N   UNL A   1      30.456  25.334  25.485  1.00  0.00     0.062 N 
ATOM     95  O   UNL A   1      29.755  25.288  26.506  1.00  0.00    -0.258 OA
ATOM     96  O   UNL A   1      30.037  25.605  24.351  1.00  0.00    -0.258 OA
ENDBRANCH  92  94
ENDBRANCH  85  88
ENDBRANCH  78  81
ENDBRANCH  76  77
ENDBRANCH  75  76
ENDBRANCH   1  75
TORSDOF 16
ENDMDL
MODEL 3
REMARK VINA RESULT:     -11.5      1.492      2.671
REMARK SMILES O=C(NCCCCNC(=O)[C@@H]1CS[C@H](c2cccc([N+](=O)[O-])c2)[NH2+]1)c1ccc(-c2c3nc(c(-c4c(F)cc(S(=O)(=O)[O-])cc4F)c4ccc([nH]4)c(-c4c(F)cc(S(=O)(=O)[O-])cc4F)c4nc(c(-c5c(F)cc(S(=O)(=O)[O-])cc5F)c5ccc2[nH]5)C=C4)C=C3)cc1
REMARK SMILES IDX 5 1 4 2 3 3 1 4 2 5 25 7 26 8 90 9 27 10 89 11 28 12 29 13
REMARK SMILES IDX 30 14 83 15 31 16 88 17 82 18 84 19 32 20 87 21 81 22 80 23
REMARK SMILES IDX 33 25 67 26 46 27 66 28 47 29 50 30 65 31 85 32 48 33 49 34
REMARK SMILES IDX 64 36 86 37 51 38 34 39 35 40 44 41 36 42 37 43 43 44 45 45
REMARK SMILES IDX 38 46 39 47 40 48 41 49 42 50 68 51 69 52 78 53 70 54 71 55
REMARK SMILES IDX 77 56 79 57 72 58 73 59 74 60 75 61 76 62 52 63 53 64 62 65
REMARK SMILES IDX 54 66 55 67 61 68 63 69 56 70 57 71 58 72 59 73 60 74 6 75
REMARK SMILES IDX 7 76 8 77 9 78 10 80 11 81 12 82 24 83 13 84 14 85 15 88
REMARK SMILES IDX 16 89 23 90 17 91 19 92 18 93 20 94 21 95 22 96
REMARK H PARENT 3 6 84 24 50 35 8 79 24 86 24 87
REMARK Flexibility Score: inf
ROOT
ATOM      1  C   UNL A   1      37.324  23.161  25.996  1.00  0.00     0.023 C 
ENDROOT
BRANCH   1   2
ATOM      2  C   UNL A   1      38.200  24.283  26.536  1.00  0.00     0.116 C 
BRANCH   2   3
ATOM      3  N   UNL A   1      39.582  24.191  26.093  1.00  0.00    -0.352 N 
ATOM      4  O   UNL A   1      41.749  24.782  25.925  1.00  0.00    -0.269 OA
ATOM      5  C   UNL A   1      40.673  24.924  26.500  1.00  0.00     0.251 C 
ATOM      6  H   UNL A   1      39.763  23.509  25.407  1.00  0.00     0.163 HD
BRANCH   5   7
ATOM      7  C   UNL A   1      40.538  25.902  27.602  1.00  0.00     0.039 A 
ATOM      8  C   UNL A   1      41.345  27.041  27.651  1.00  0.00     0.014 A 
ATOM      9  C   UNL A   1      39.584  25.677  28.598  1.00  0.00     0.014 A 
ATOM     10  C   UNL A   1      41.288  27.882  28.758  1.00  0.00     0.010 A 
ATOM     11  C   UNL A   1      39.476  26.564  29.675  1.00  0.00     0.010 A 
ATOM     12  C   UNL A   1      40.346  27.660  29.776  1.00  0.00    -0.014 A 
BRANCH  12  13
ATOM     13  C   UNL A   1      40.247  28.631  30.896  1.00  0.00     0.031 A 
ATOM     14  C   UNL A   1      41.160  28.546  32.087  1.00  0.00     0.074 A 
ATOM     15  C   UNL A   1      39.336  29.620  30.807  1.00  0.00     0.049 A 
ATOM     16  N   UNL A   1      41.221  29.331  33.132  1.00  0.00    -0.248 NA
ATOM     17  C   UNL A   1      42.124  27.435  32.117  1.00  0.00     0.031 C 
ATOM     18  C   UNL A   1      38.383  29.789  29.706  1.00  0.00     0.029 A 
ATOM     19  N   UNL A   1      39.071  30.677  31.639  1.00  0.00    -0.354 N 
ATOM     20  C   UNL A   1      42.216  28.809  33.950  1.00  0.00     0.074 A 
ATOM     21  C   UNL A   1      42.717  27.621  33.291  1.00  0.00     0.031 C 
ATOM     22  C   UNL A   1      37.671  30.907  29.908  1.00  0.00     0.029 A 
ATOM     23  C   UNL A   1      38.076  31.504  31.175  1.00  0.00     0.049 A 
ATOM     24  H   UNL A   1      39.548  30.830  32.487  1.00  0.00     0.167 HD
ATOM     25  C   UNL A   1      42.673  29.281  35.135  1.00  0.00     0.037 A 
ATOM     26  C   UNL A   1      37.538  32.615  31.713  1.00  0.00     0.037 A 
ATOM     27  C   UNL A   1      42.180  30.476  35.774  1.00  0.00     0.049 A 
ATOM     28  C   UNL A   1      38.062  33.113  33.028  1.00  0.00     0.074 A 
ATOM     29  C   UNL A   1      42.601  31.055  36.960  1.00  0.00     0.029 A 
ATOM     30  N   UNL A   1      41.158  31.276  35.283  1.00  0.00    -0.354 N 
ATOM     31  N   UNL A   1      39.020  32.617  33.772  1.00  0.00    -0.248 NA
ATOM     32  C   UNL A   1      37.429  34.318  33.579  1.00  0.00     0.031 C 
ATOM     33  C   UNL A   1      41.810  32.184  37.203  1.00  0.00     0.029 A 
ATOM     34  C   UNL A   1      40.923  32.331  36.151  1.00  0.00     0.049 A 
ATOM     35  H   UNL A   1      40.671  31.116  34.443  1.00  0.00     0.167 HD
ATOM     36  C   UNL A   1      39.112  33.454  34.878  1.00  0.00     0.074 A 
ATOM     37  C   UNL A   1      38.128  34.500  34.691  1.00  0.00     0.031 C 
ATOM     38  C   UNL A   1      39.933  33.360  35.953  1.00  0.00     0.037 A 
BRANCH  25  39
ATOM     39  C   UNL A   1      43.758  28.506  35.831  1.00  0.00     0.058 A 
ATOM     40  C   UNL A   1      45.116  28.810  35.646  1.00  0.00     0.135 A 
ATOM     41  C   UNL A   1      43.434  27.487  36.742  1.00  0.00     0.135 A 
ATOM     42  F   UNL A   1      45.483  29.766  34.779  1.00  0.00    -0.206 F 
ATOM     43  C   UNL A   1      46.115  28.119  36.328  1.00  0.00     0.059 A 
ATOM     44  C   UNL A   1      44.416  26.798  37.450  1.00  0.00     0.059 A 
ATOM     45  F   UNL A   1      42.151  27.156  36.957  1.00  0.00    -0.206 F 
ATOM     46  C   UNL A   1      45.755  27.115  37.228  1.00  0.00     0.060 A 
BRANCH  46  47
ATOM     47  S   UNL A   1      47.061  26.240  38.118  1.00  0.00     0.124 S 
ATOM     48  O   UNL A   1      47.355  25.144  37.199  1.00  0.00    -0.237 OA
ATOM     49  O   UNL A   1      48.097  27.260  38.238  1.00  0.00    -0.237 OA
ATOM     50  O   UNL A   1      46.418  25.853  39.370  1.00  0.00    -0.744 OA
ENDBRANCH  46  47
ENDBRANCH  25  39
BRANCH  26  51
ATOM     51  C   UNL A   1      36.438  33.318  31.005  1.00  0.00     0.058 A 
ATOM     52  C   UNL A   1      35.120  33.265  31.480  1.00  0.00     0.135 A 
ATOM     53  C   UNL A   1      36.691  34.078  29.852  1.00  0.00     0.135 A 
ATOM     54  F   UNL A   1      34.830  32.549  32.576  1.00  0.00    -0.206 F 
ATOM     55  C   UNL A   1      34.087  33.932  30.830  1.00  0.00     0.059 A 
ATOM     56  C   UNL A   1      35.679  34.774  29.200  1.00  0.00     0.059 A 
ATOM     57  F   UNL A   1      37.939  34.174  29.370  1.00  0.00    -0.206 F 
ATOM     58  C   UNL A   1      34.377  34.685  29.691  1.00  0.00     0.060 A 
BRANCH  58  59
ATOM     59  S   UNL A   1      33.042  35.590  28.881  1.00  0.00     0.124 S 
ATOM     60  O   UNL A   1      32.268  36.056  30.026  1.00  0.00    -0.237 OA
ATOM     61  O   UNL A   1      33.766  36.618  28.139  1.00  0.00    -0.237 OA
ATOM     62  O   UNL A   1      32.400  34.571  28.056  1.00  0.00    -0.744 OA
ENDBRANCH  58  59
ENDBRANCH  26  51
BRANCH  38  63
ATOM     63  C   UNL A   1      39.803  34.427  37.001  1.00  0.00     0.058 A 
ATOM     64  C   UNL A   1      38.983  34.250  38.128  1.00  0.00     0.135 A 
ATOM     65  C   UNL A   1      40.518  35.628  36.890  1.00  0.00     0.135 A 
ATOM     66  F   UNL A   1      38.272  33.121  38.274  1.00  0.00    -0.206 F 
ATOM     67  C   UNL A   1      38.857  35.240  39.095  1.00  0.00     0.059 A 
ATOM     68  C   UNL A   1      40.425  36.624  37.858  1.00  0.00     0.059 A 
ATOM     69  F   UNL A   1      41.321  35.843  35.836  1.00  0.00    -0.206 F 
ATOM     70  C   UNL A   1      39.580  36.425  38.950  1.00  0.00     0.060 A 
BRANCH  70  71
ATOM     71  S   UNL A   1      39.422  37.700  40.219  1.00  0.00     0.124 S 
ATOM     72  O   UNL A   1      39.091  36.902  41.396  1.00  0.00    -0.237 OA
ATOM     73  O   UNL A   1      40.748  38.310  40.220  1.00  0.00    -0.237 OA
ATOM     74  O   UNL A   1      38.347  38.550  39.714  1.00  0.00    -0.744 OA
ENDBRANCH  70  71
ENDBRANCH  38  63
ENDBRANCH  12  13
ENDBRANCH   5   7
ENDBRANCH   2   3
ENDBRANCH   1   2
BRANCH   1  75
ATOM     75  C   UNL A   1      36.955  23.255  24.514  1.00  0.00     0.023 C 
BRANCH  75  76
ATOM     76  C   UNL A   1      35.825  22.330  24.058  1.00  0.00     0.116 C 
BRANCH  76  77
ATOM     77  N   UNL A   1      35.001  22.918  23.025  1.00  0.00    -0.351 N 
ATOM     78  C   UNL A   1      33.803  23.550  23.040  1.00  0.00     0.279 C 
ATOM     79  H   UNL A   1      35.392  22.843  22.124  1.00  0.00     0.163 HD
ATOM     80  O   UNL A   1      33.519  24.159  21.998  1.00  0.00    -0.268 OA
BRANCH  78  81
ATOM     81  C   UNL A   1      32.839  23.593  24.256  1.00  0.00     0.283 C 
ATOM     82  C   UNL A   1      31.360  23.872  24.000  1.00  0.00     0.151 C 
ATOM     83  N   UNL A   1      33.387  24.595  25.243  1.00  0.00    -0.321 N 
ATOM     84  S   UNL A   1      30.826  24.826  25.430  1.00  0.00    -0.088 SA
ATOM     85  C   UNL A   1      32.426  25.673  25.475  1.00  0.00     0.274 C 
ATOM     86  H   UNL A   1      34.251  24.990  24.874  1.00  0.00     0.348 HD
ATOM     87  H   UNL A   1      33.564  24.119  26.129  1.00  0.00     0.348 HD
BRANCH  85  88
ATOM     88  C   UNL A   1      32.491  26.814  24.460  1.00  0.00     0.027 A 
ATOM     89  C   UNL A   1      33.739  27.219  23.942  1.00  0.00     0.011 A 
ATOM     90  C   UNL A   1      31.349  27.507  24.019  1.00  0.00     0.096 A 
ATOM     91  C   UNL A   1      33.853  28.314  23.079  1.00  0.00     0.008 A 
ATOM     92  C   UNL A   1      31.471  28.629  23.187  1.00  0.00     0.269 A 
ATOM     93  C   UNL A   1      32.721  29.036  22.712  1.00  0.00     0.085 A 
BRANCH  92  94
ATOM     94  N   UNL A   1      30.281  29.415  22.852  1.00  0.00     0.062 N 
ATOM     95  O   UNL A   1      29.925  29.437  21.666  1.00  0.00    -0.258 OA
ATOM     96  O   UNL A   1      29.727  30.038  23.769  1.00  0.00    -0.258 OA
ENDBRANCH  92  94
ENDBRANCH  85  88
ENDBRANCH  78  81
ENDBRANCH  76  77
ENDBRANCH  75  76
ENDBRANCH   1  75
TORSDOF 16
ENDMDL
