MODEL 1
REMARK VINA RESULT:     -11.0      0.000      0.000
REMARK SMILES Cc1cc(CNC(=O)C[C@H](C)CC(=O)NCCCCNC(=O)c2ccc(-c3c4nc(c(-c5c(F)cc(S(=O)(=O)[O-])cc5F)c5ccc([nH]5)c(-c5c(F)cc(S(=O)(=O)[O-])cc5F)c5nc(c(-c6c(F)cc(S(=O)(=O)[O-])cc6F)c6ccc3[nH]6)C=C5)C=C4)cc2)cc(C)c1F
REMARK SMILES IDX 16 1 15 2 13 3 14 4 12 6 10 7 11 8 9 9 7 10 6 11 8 13 5 14
REMARK SMILES IDX 4 15 1 16 2 17 3 18 92 19 90 20 93 21 89 22 91 23 17 24
REMARK SMILES IDX 18 25 19 26 20 27 21 28 22 30 23 31 24 32 88 33 25 34 87 35
REMARK SMILES IDX 26 36 27 37 28 38 81 39 29 40 86 41 80 42 82 43 30 44 85 45
REMARK SMILES IDX 79 46 78 47 31 49 65 50 44 51 64 52 45 53 48 54 63 55 83 56
REMARK SMILES IDX 46 57 47 58 62 60 84 61 49 62 32 63 33 64 42 65 34 66 35 67
REMARK SMILES IDX 41 68 43 69 36 70 37 71 38 72 39 73 40 74 66 75 67 76 76 77
REMARK SMILES IDX 68 78 69 79 75 80 77 81 70 82 71 83 72 84 73 85 74 86 50 87
REMARK SMILES IDX 51 88 60 89 52 90 53 91 59 92 61 93 54 94 55 95 56 96 57 97
REMARK SMILES IDX 58 98
REMARK H PARENT 15 5 6 12 20 29 82 48 48 59
REMARK Flexibility Score: inf
ROOT
ATOM      1  C   UNL A   1      33.133  33.622  27.951  1.00  0.00     0.116 C 
ENDROOT
BRANCH   1   2
ATOM      2  N   UNL A   1      33.283  35.063  27.960  1.00  0.00    -0.356 N 
ATOM      3  C   UNL A   1      33.132  35.936  28.994  1.00  0.00     0.220 C 
ATOM      4  O   UNL A   1      33.200  37.145  28.771  1.00  0.00    -0.275 OA
ATOM      5  H   UNL A   1      33.527  35.469  27.097  1.00  0.00     0.163 HD
BRANCH   3   6
ATOM      6  C   UNL A   1      32.875  35.421  30.401  1.00  0.00     0.103 C 
BRANCH   6   7
ATOM      7  C   UNL A   1      32.742  36.560  31.433  1.00  0.00     0.004 C 
ATOM      8  C   UNL A   1      31.703  36.230  32.515  1.00  0.00     0.009 C 
BRANCH   7   9
ATOM      9  C   UNL A   1      34.102  36.880  32.081  1.00  0.00     0.103 C 
BRANCH   9  10
ATOM     10  C   UNL A   1      34.126  36.540  33.563  1.00  0.00     0.220 C 
ATOM     11  N   UNL A   1      34.525  35.304  33.970  1.00  0.00    -0.352 N 
ATOM     12  H   UNL A   1      34.787  35.226  34.916  1.00  0.00     0.163 HD
ATOM     13  O   UNL A   1      33.835  37.385  34.412  1.00  0.00    -0.275 OA
BRANCH  11  14
ATOM     14  C   UNL A   1      34.612  34.091  33.188  1.00  0.00     0.151 C 
BRANCH  14  15
ATOM     15  C   UNL A   1      35.998  33.820  32.656  1.00  0.00    -0.028 A 
ATOM     16  C   UNL A   1      37.843  33.701  29.312  1.00  0.00     0.047 C 
ATOM     17  C   UNL A   1      37.544  33.599  30.777  1.00  0.00    -0.015 A 
ATOM     18  C   UNL A   1      36.307  34.000  31.297  1.00  0.00     0.012 A 
ATOM     19  C   UNL A   1      38.486  33.036  31.639  1.00  0.00     0.129 A 
ATOM     20  C   UNL A   1      38.222  32.873  33.001  1.00  0.00    -0.015 A 
ATOM     21  F   UNL A   1      39.665  32.632  31.141  1.00  0.00    -0.206 F 
ATOM     22  C   UNL A   1      36.973  33.266  33.500  1.00  0.00     0.012 A 
ATOM     23  C   UNL A   1      39.238  32.260  33.916  1.00  0.00     0.047 C 
ENDBRANCH  14  15
ENDBRANCH  11  14
ENDBRANCH   9  10
ENDBRANCH   7   9
ENDBRANCH   6   7
ENDBRANCH   3   6
ENDBRANCH   1   2
BRANCH   1  24
ATOM     24  C   UNL A   1      34.493  32.935  28.073  1.00  0.00     0.023 C 
BRANCH  24  25
ATOM     25  C   UNL A   1      34.506  31.477  27.636  1.00  0.00     0.023 C 
BRANCH  25  26
ATOM     26  C   UNL A   1      35.556  30.628  28.340  1.00  0.00     0.116 C 
BRANCH  26  27
ATOM     27  N   UNL A   1      35.471  30.701  29.795  1.00  0.00    -0.352 N 
ATOM     28  C   UNL A   1      36.382  30.255  30.721  1.00  0.00     0.251 C 
ATOM     29  H   UNL A   1      34.659  31.123  30.159  1.00  0.00     0.163 HD
ATOM     30  O   UNL A   1      36.130  30.283  31.922  1.00  0.00    -0.269 OA
BRANCH  28  31
ATOM     31  C   UNL A   1      37.659  29.711  30.230  1.00  0.00     0.039 A 
ATOM     32  C   UNL A   1      37.990  29.860  28.883  1.00  0.00     0.014 A 
ATOM     33  C   UNL A   1      38.566  29.158  31.140  1.00  0.00     0.014 A 
ATOM     34  C   UNL A   1      39.271  29.515  28.456  1.00  0.00     0.010 A 
ATOM     35  C   UNL A   1      39.863  28.890  30.729  1.00  0.00     0.010 A 
ATOM     36  C   UNL A   1      40.223  29.058  29.382  1.00  0.00    -0.014 A 
BRANCH  36  37
ATOM     37  C   UNL A   1      41.588  28.679  28.956  1.00  0.00     0.031 A 
ATOM     38  C   UNL A   1      42.666  29.726  28.966  1.00  0.00     0.074 A 
ATOM     39  C   UNL A   1      41.842  27.432  28.518  1.00  0.00     0.049 A 
ATOM     40  N   UNL A   1      43.905  29.639  28.561  1.00  0.00    -0.248 NA
ATOM     41  C   UNL A   1      42.287  31.059  29.469  1.00  0.00     0.031 C 
ATOM     42  C   UNL A   1      40.864  26.346  28.426  1.00  0.00     0.029 A 
ATOM     43  N   UNL A   1      43.006  26.868  28.060  1.00  0.00    -0.354 N 
ATOM     44  C   UNL A   1      44.447  30.903  28.753  1.00  0.00     0.074 A 
ATOM     45  C   UNL A   1      43.390  31.756  29.244  1.00  0.00     0.031 C 
ATOM     46  C   UNL A   1      41.475  25.239  27.969  1.00  0.00     0.029 A 
ATOM     47  C   UNL A   1      42.879  25.543  27.712  1.00  0.00     0.049 A 
ATOM     48  H   UNL A   1      43.853  27.364  27.988  1.00  0.00     0.167 HD
ATOM     49  C   UNL A   1      45.726  31.308  28.572  1.00  0.00     0.037 A 
ATOM     50  C   UNL A   1      43.799  24.678  27.243  1.00  0.00     0.037 A 
ATOM     51  C   UNL A   1      46.782  30.444  28.128  1.00  0.00     0.049 A 
ATOM     52  C   UNL A   1      45.213  25.153  27.042  1.00  0.00     0.074 A 
ATOM     53  C   UNL A   1      48.124  30.738  27.965  1.00  0.00     0.029 A 
ATOM     54  N   UNL A   1      46.615  29.111  27.786  1.00  0.00    -0.354 N 
ATOM     55  N   UNL A   1      45.722  26.341  27.268  1.00  0.00    -0.248 NA
ATOM     56  C   UNL A   1      46.177  24.174  26.521  1.00  0.00     0.031 C 
ATOM     57  C   UNL A   1      48.766  29.584  27.501  1.00  0.00     0.029 A 
ATOM     58  C   UNL A   1      47.828  28.568  27.401  1.00  0.00     0.049 A 
ATOM     59  H   UNL A   1      45.761  28.623  27.813  1.00  0.00     0.167 HD
ATOM     60  C   UNL A   1      47.067  26.250  26.931  1.00  0.00     0.074 A 
ATOM     61  C   UNL A   1      47.297  24.886  26.497  1.00  0.00     0.031 C 
ATOM     62  C   UNL A   1      48.027  27.206  26.974  1.00  0.00     0.037 A 
BRANCH  49  63
ATOM     63  C   UNL A   1      46.042  32.739  28.892  1.00  0.00     0.058 A 
ATOM     64  C   UNL A   1      45.981  33.736  27.905  1.00  0.00     0.135 A 
ATOM     65  C   UNL A   1      46.409  33.121  30.192  1.00  0.00     0.135 A 
ATOM     66  F   UNL A   1      45.659  33.416  26.642  1.00  0.00    -0.206 F 
ATOM     67  C   UNL A   1      46.301  35.058  28.187  1.00  0.00     0.059 A 
ATOM     68  C   UNL A   1      46.711  34.444  30.502  1.00  0.00     0.059 A 
ATOM     69  F   UNL A   1      46.490  32.205  31.169  1.00  0.00    -0.206 F 
ATOM     70  C   UNL A   1      46.668  35.402  29.489  1.00  0.00     0.060 A 
BRANCH  70  71
ATOM     71  S   UNL A   1      47.085  37.124  29.837  1.00  0.00     0.124 S 
ATOM     72  O   UNL A   1      48.514  37.024  30.118  1.00  0.00    -0.237 OA
ATOM     73  O   UNL A   1      46.729  37.790  28.589  1.00  0.00    -0.237 OA
ATOM     74  O   UNL A   1      46.242  37.452  30.982  1.00  0.00    -0.744 OA
ENDBRANCH  70  71
ENDBRANCH  49  63
BRANCH  50  75
ATOM     75  C   UNL A   1      43.425  23.267  26.968  1.00  0.00     0.058 A 
ATOM     76  C   UNL A   1      43.247  22.357  28.021  1.00  0.00     0.135 A 
ATOM     77  C   UNL A   1      43.226  22.801  25.659  1.00  0.00     0.135 A 
ATOM     78  F   UNL A   1      43.432  22.756  29.288  1.00  0.00    -0.206 F 
ATOM     79  C   UNL A   1      42.897  21.032  27.788  1.00  0.00     0.059 A 
ATOM     80  C   UNL A   1      42.859  21.483  25.402  1.00  0.00     0.059 A 
ATOM     81  F   UNL A   1      43.371  23.636  24.620  1.00  0.00    -0.206 F 
ATOM     82  C   UNL A   1      42.704  20.604  26.474  1.00  0.00     0.060 A 
BRANCH  82  83
ATOM     83  S   UNL A   1      42.206  18.891  26.186  1.00  0.00     0.124 S 
ATOM     84  O   UNL A   1      40.822  19.056  25.757  1.00  0.00    -0.237 OA
ATOM     85  O   UNL A   1      43.148  18.467  25.155  1.00  0.00    -0.237 OA
ATOM     86  O   UNL A   1      42.392  18.263  27.491  1.00  0.00    -0.744 OA
ENDBRANCH  82  83
ENDBRANCH  50  75
BRANCH  62  87
ATOM     87  C   UNL A   1      49.411  26.818  26.546  1.00  0.00     0.058 A 
ATOM     88  C   UNL A   1      50.292  26.186  27.433  1.00  0.00     0.135 A 
ATOM     89  C   UNL A   1      49.821  26.991  25.214  1.00  0.00     0.135 A 
ATOM     90  F   UNL A   1      49.945  26.005  28.717  1.00  0.00    -0.206 F 
ATOM     91  C   UNL A   1      51.539  25.737  27.015  1.00  0.00     0.059 A 
ATOM     92  C   UNL A   1      51.056  26.532  24.770  1.00  0.00     0.059 A 
ATOM     93  F   UNL A   1      49.005  27.584  24.327  1.00  0.00    -0.206 F 
ATOM     94  C   UNL A   1      51.909  25.907  25.679  1.00  0.00     0.060 A 
BRANCH  94  95
ATOM     95  S   UNL A   1      53.502  25.255  25.133  1.00  0.00     0.124 S 
ATOM     96  O   UNL A   1      54.426  25.964  26.012  1.00  0.00    -0.237 OA
ATOM     97  O   UNL A   1      53.357  23.825  25.388  1.00  0.00    -0.237 OA
ATOM     98  O   UNL A   1      53.557  25.632  23.724  1.00  0.00    -0.744 OA
ENDBRANCH  94  95
ENDBRANCH  62  87
ENDBRANCH  36  37
ENDBRANCH  28  31
ENDBRANCH  26  27
ENDBRANCH  25  26
ENDBRANCH  24  25
ENDBRANCH   1  24
TORSDOF 19
ENDMDL
MODEL 2
REMARK VINA RESULT:     -10.9      6.274     12.775
REMARK SMILES Cc1cc(CNC(=O)C[C@H](C)CC(=O)NCCCCNC(=O)c2ccc(-c3c4nc(c(-c5c(F)cc(S(=O)(=O)[O-])cc5F)c5ccc([nH]5)c(-c5c(F)cc(S(=O)(=O)[O-])cc5F)c5nc(c(-c6c(F)cc(S(=O)(=O)[O-])cc6F)c6ccc3[nH]6)C=C5)C=C4)cc2)cc(C)c1F
REMARK SMILES IDX 16 1 15 2 13 3 14 4 12 6 10 7 11 8 9 9 7 10 6 11 8 13 5 14
REMARK SMILES IDX 4 15 1 16 2 17 3 18 92 19 90 20 93 21 89 22 91 23 17 24
REMARK SMILES IDX 18 25 19 26 20 27 21 28 22 30 23 31 24 32 88 33 25 34 87 35
REMARK SMILES IDX 26 36 27 37 28 38 81 39 29 40 86 41 80 42 82 43 30 44 85 45
REMARK SMILES IDX 79 46 78 47 31 49 65 50 44 51 64 52 45 53 48 54 63 55 83 56
REMARK SMILES IDX 46 57 47 58 62 60 84 61 49 62 32 63 33 64 42 65 34 66 35 67
REMARK SMILES IDX 41 68 43 69 36 70 37 71 38 72 39 73 40 74 66 75 67 76 76 77
REMARK SMILES IDX 68 78 69 79 75 80 77 81 70 82 71 83 72 84 73 85 74 86 50 87
REMARK SMILES IDX 51 88 60 89 52 90 53 91 59 92 61 93 54 94 55 95 56 96 57 97
REMARK SMILES IDX 58 98
REMARK H PARENT 15 5 6 12 20 29 82 48 48 59
REMARK Flexibility Score: inf
ROOT
ATOM      1  C   UNL A   1      36.796  22.104  25.445  1.00  0.00     0.116 C 
ENDROOT
BRANCH   1   2
ATOM      2  N   UNL A   1      35.911  21.668  26.506  1.00  0.00    -0.356 N 
ATOM      3  C   UNL A   1      34.564  21.832  26.623  1.00  0.00     0.220 C 
ATOM      4  O   UNL A   1      34.007  21.478  27.662  1.00  0.00    -0.275 OA
ATOM      5  H   UNL A   1      36.344  21.186  27.247  1.00  0.00     0.163 HD
BRANCH   3   6
ATOM      6  C   UNL A   1      33.766  22.453  25.488  1.00  0.00     0.103 C 
BRANCH   6   7
ATOM      7  C   UNL A   1      33.402  23.927  25.757  1.00  0.00     0.004 C 
ATOM      8  C   UNL A   1      34.555  24.874  25.395  1.00  0.00     0.009 C 
BRANCH   7   9
ATOM      9  C   UNL A   1      32.124  24.330  24.997  1.00  0.00     0.103 C 
BRANCH   9  10
ATOM     10  C   UNL A   1      31.156  25.107  25.876  1.00  0.00     0.220 C 
ATOM     11  N   UNL A   1      30.821  26.386  25.551  1.00  0.00    -0.352 N 
ATOM     12  H   UNL A   1      30.003  26.737  25.972  1.00  0.00     0.163 HD
ATOM     13  O   UNL A   1      30.626  24.580  26.856  1.00  0.00    -0.275 OA
BRANCH  11  14
ATOM     14  C   UNL A   1      31.516  27.294  24.666  1.00  0.00     0.151 C 
BRANCH  14  15
ATOM     15  C   UNL A   1      32.164  28.451  25.385  1.00  0.00    -0.028 A 
ATOM     16  C   UNL A   1      35.203  29.150  27.594  1.00  0.00     0.047 C 
ATOM     17  C   UNL A   1      33.928  29.333  26.828  1.00  0.00    -0.015 A 
ATOM     18  C   UNL A   1      33.404  28.308  26.030  1.00  0.00     0.012 A 
ATOM     19  C   UNL A   1      33.208  30.523  26.954  1.00  0.00     0.129 A 
ATOM     20  C   UNL A   1      31.988  30.709  26.300  1.00  0.00    -0.015 A 
ATOM     21  F   UNL A   1      33.696  31.499  27.734  1.00  0.00    -0.206 F 
ATOM     22  C   UNL A   1      31.473  29.666  25.519  1.00  0.00     0.012 A 
ATOM     23  C   UNL A   1      31.219  31.987  26.449  1.00  0.00     0.047 C 
ENDBRANCH  14  15
ENDBRANCH  11  14
ENDBRANCH   9  10
ENDBRANCH   7   9
ENDBRANCH   6   7
ENDBRANCH   3   6
ENDBRANCH   1   2
BRANCH   1  24
ATOM     24  C   UNL A   1      37.829  23.098  25.974  1.00  0.00     0.023 C 
BRANCH  24  25
ATOM     25  C   UNL A   1      39.124  22.464  26.463  1.00  0.00     0.023 C 
BRANCH  25  26
ATOM     26  C   UNL A   1      40.136  23.463  27.007  1.00  0.00     0.116 C 
BRANCH  26  27
ATOM     27  N   UNL A   1      41.032  23.988  25.982  1.00  0.00    -0.352 N 
ATOM     28  C   UNL A   1      41.512  25.269  25.850  1.00  0.00     0.251 C 
ATOM     29  H   UNL A   1      41.329  23.345  25.299  1.00  0.00     0.163 HD
ATOM     30  O   UNL A   1      42.174  25.599  24.872  1.00  0.00    -0.269 OA
BRANCH  28  31
ATOM     31  C   UNL A   1      41.181  26.244  26.903  1.00  0.00     0.039 A 
ATOM     32  C   UNL A   1      40.284  25.883  27.908  1.00  0.00     0.014 A 
ATOM     33  C   UNL A   1      41.857  27.468  26.942  1.00  0.00     0.014 A 
ATOM     34  C   UNL A   1      40.113  26.730  29.002  1.00  0.00     0.010 A 
ATOM     35  C   UNL A   1      41.745  28.269  28.068  1.00  0.00     0.010 A 
ATOM     36  C   UNL A   1      40.866  27.911  29.102  1.00  0.00    -0.014 A 
BRANCH  36  37
ATOM     37  C   UNL A   1      40.701  28.832  30.249  1.00  0.00     0.031 A 
ATOM     38  C   UNL A   1      41.608  28.676  31.438  1.00  0.00     0.074 A 
ATOM     39  C   UNL A   1      39.721  29.754  30.246  1.00  0.00     0.049 A 
ATOM     40  N   UNL A   1      41.591  29.313  32.577  1.00  0.00    -0.248 NA
ATOM     41  C   UNL A   1      42.652  27.640  31.341  1.00  0.00     0.031 C 
ATOM     42  C   UNL A   1      38.757  29.968  29.164  1.00  0.00     0.029 A 
ATOM     43  N   UNL A   1      39.370  30.685  31.190  1.00  0.00    -0.354 N 
ATOM     44  C   UNL A   1      42.613  28.751  33.332  1.00  0.00     0.074 A 
ATOM     45  C   UNL A   1      43.185  27.678  32.552  1.00  0.00     0.031 C 
ATOM     46  C   UNL A   1      37.943  30.985  29.494  1.00  0.00     0.029 A 
ATOM     47  C   UNL A   1      38.309  31.478  30.819  1.00  0.00     0.049 A 
ATOM     48  H   UNL A   1      39.835  30.778  32.053  1.00  0.00     0.167 HD
ATOM     49  C   UNL A   1      43.061  29.122  34.553  1.00  0.00     0.037 A 
ATOM     50  C   UNL A   1      37.710  32.489  31.477  1.00  0.00     0.037 A 
ATOM     51  C   UNL A   1      42.520  30.219  35.304  1.00  0.00     0.049 A 
ATOM     52  C   UNL A   1      38.220  32.879  32.837  1.00  0.00     0.074 A 
ATOM     53  C   UNL A   1      42.935  30.716  36.526  1.00  0.00     0.029 A 
ATOM     54  N   UNL A   1      41.447  30.997  34.895  1.00  0.00    -0.354 N 
ATOM     55  N   UNL A   1      39.216  32.366  33.521  1.00  0.00    -0.248 NA
ATOM     56  C   UNL A   1      37.528  33.982  33.518  1.00  0.00     0.031 C 
ATOM     57  C   UNL A   1      42.098  31.783  36.867  1.00  0.00     0.029 A 
ATOM     58  C   UNL A   1      41.177  31.966  35.846  1.00  0.00     0.049 A 
ATOM     59  H   UNL A   1      40.951  30.878  34.054  1.00  0.00     0.167 HD
ATOM     60  C   UNL A   1      39.279  33.091  34.705  1.00  0.00     0.074 A 
ATOM     61  C   UNL A   1      38.228  34.088  34.640  1.00  0.00     0.031 C 
ATOM     62  C   UNL A   1      40.126  32.946  35.753  1.00  0.00     0.037 A 
BRANCH  49  63
ATOM     63  C   UNL A   1      44.214  28.350  35.123  1.00  0.00     0.058 A 
ATOM     64  C   UNL A   1      45.541  28.699  34.828  1.00  0.00     0.135 A 
ATOM     65  C   UNL A   1      43.995  27.252  35.971  1.00  0.00     0.135 A 
ATOM     66  F   UNL A   1      45.801  29.726  34.002  1.00  0.00    -0.206 F 
ATOM     67  C   UNL A   1      46.613  27.971  35.329  1.00  0.00     0.059 A 
ATOM     68  C   UNL A   1      45.054  26.523  36.503  1.00  0.00     0.059 A 
ATOM     69  F   UNL A   1      42.745  26.873  36.277  1.00  0.00    -0.206 F 
ATOM     70  C   UNL A   1      46.359  26.882  36.163  1.00  0.00     0.060 A 
BRANCH  70  71
ATOM     71  S   UNL A   1      47.763  25.943  36.801  1.00  0.00     0.124 S 
ATOM     72  O   UNL A   1      48.831  26.375  35.905  1.00  0.00    -0.237 OA
ATOM     73  O   UNL A   1      47.858  26.419  38.176  1.00  0.00    -0.237 OA
ATOM     74  O   UNL A   1      47.340  24.555  36.649  1.00  0.00    -0.744 OA
ENDBRANCH  70  71
ENDBRANCH  49  63
BRANCH  50  75
ATOM     75  C   UNL A   1      36.586  33.228  30.845  1.00  0.00     0.058 A 
ATOM     76  C   UNL A   1      35.270  33.044  31.292  1.00  0.00     0.135 A 
ATOM     77  C   UNL A   1      36.801  34.136  29.798  1.00  0.00     0.135 A 
ATOM     78  F   UNL A   1      35.015  32.182  32.288  1.00  0.00    -0.206 F 
ATOM     79  C   UNL A   1      34.202  33.724  30.717  1.00  0.00     0.059 A 
ATOM     80  C   UNL A   1      35.751  34.841  29.216  1.00  0.00     0.059 A 
ATOM     81  F   UNL A   1      38.044  34.356  29.343  1.00  0.00    -0.206 F 
ATOM     82  C   UNL A   1      34.453  34.623  29.679  1.00  0.00     0.060 A 
BRANCH  82  83
ATOM     83  S   UNL A   1      33.064  35.534  28.969  1.00  0.00     0.124 S 
ATOM     84  O   UNL A   1      32.354  35.966  30.167  1.00  0.00    -0.237 OA
ATOM     85  O   UNL A   1      33.741  36.584  28.214  1.00  0.00    -0.237 OA
ATOM     86  O   UNL A   1      32.382  34.529  28.158  1.00  0.00    -0.744 OA
ENDBRANCH  82  83
ENDBRANCH  50  75
BRANCH  62  87
ATOM     87  C   UNL A   1      39.959  33.882  36.913  1.00  0.00     0.058 A 
ATOM     88  C   UNL A   1      40.634  35.111  36.954  1.00  0.00     0.135 A 
ATOM     89  C   UNL A   1      39.046  33.594  37.939  1.00  0.00     0.135 A 
ATOM     90  F   UNL A   1      41.520  35.427  35.997  1.00  0.00    -0.206 F 
ATOM     91  C   UNL A   1      40.409  36.025  37.976  1.00  0.00     0.059 A 
ATOM     92  C   UNL A   1      38.791  34.501  38.961  1.00  0.00     0.059 A 
ATOM     93  F   UNL A   1      38.371  32.433  37.936  1.00  0.00    -0.206 F 
ATOM     94  C   UNL A   1      39.479  35.714  38.972  1.00  0.00     0.060 A 
BRANCH  94  95
ATOM     95  S   UNL A   1      39.145  36.940  40.254  1.00  0.00     0.124 S 
ATOM     96  O   UNL A   1      40.483  37.183  40.784  1.00  0.00    -0.237 OA
ATOM     97  O   UNL A   1      38.557  38.037  39.491  1.00  0.00    -0.237 OA
ATOM     98  O   UNL A   1      38.227  36.248  41.154  1.00  0.00    -0.744 OA
ENDBRANCH  94  95
ENDBRANCH  62  87
ENDBRANCH  36  37
ENDBRANCH  28  31
ENDBRANCH  26  27
ENDBRANCH  25  26
ENDBRANCH  24  25
ENDBRANCH   1  24
TORSDOF 19
ENDMDL
MODEL 3
REMARK VINA RESULT:     -10.8      0.655      8.246
REMARK SMILES Cc1cc(CNC(=O)C[C@H](C)CC(=O)NCCCCNC(=O)c2ccc(-c3c4nc(c(-c5c(F)cc(S(=O)(=O)[O-])cc5F)c5ccc([nH]5)c(-c5c(F)cc(S(=O)(=O)[O-])cc5F)c5nc(c(-c6c(F)cc(S(=O)(=O)[O-])cc6F)c6ccc3[nH]6)C=C5)C=C4)cc2)cc(C)c1F
REMARK SMILES IDX 16 1 15 2 13 3 14 4 12 6 10 7 11 8 9 9 7 10 6 11 8 13 5 14
REMARK SMILES IDX 4 15 1 16 2 17 3 18 92 19 90 20 93 21 89 22 91 23 17 24
REMARK SMILES IDX 18 25 19 26 20 27 21 28 22 30 23 31 24 32 88 33 25 34 87 35
REMARK SMILES IDX 26 36 27 37 28 38 81 39 29 40 86 41 80 42 82 43 30 44 85 45
REMARK SMILES IDX 79 46 78 47 31 49 65 50 44 51 64 52 45 53 48 54 63 55 83 56
REMARK SMILES IDX 46 57 47 58 62 60 84 61 49 62 32 63 33 64 42 65 34 66 35 67
REMARK SMILES IDX 41 68 43 69 36 70 37 71 38 72 39 73 40 74 66 75 67 76 76 77
REMARK SMILES IDX 68 78 69 79 75 80 77 81 70 82 71 83 72 84 73 85 74 86 50 87
REMARK SMILES IDX 51 88 60 89 52 90 53 91 59 92 61 93 54 94 55 95 56 96 57 97
REMARK SMILES IDX 58 98
REMARK H PARENT 15 5 6 12 20 29 82 48 48 59
REMARK Flexibility Score: inf
ROOT
ATOM      1  C   UNL A   1      33.313  33.427  28.033  1.00  0.00     0.116 C 
ENDROOT
BRANCH   1   2
ATOM      2  N   UNL A   1      33.419  34.871  28.000  1.00  0.00    -0.356 N 
ATOM      3  C   UNL A   1      33.210  35.771  29.001  1.00  0.00     0.220 C 
ATOM      4  O   UNL A   1      33.249  36.974  28.741  1.00  0.00    -0.275 OA
ATOM      5  H   UNL A   1      33.679  35.257  27.133  1.00  0.00     0.163 HD
BRANCH   3   6
ATOM      6  C   UNL A   1      32.922  35.293  30.415  1.00  0.00     0.103 C 
BRANCH   6   7
ATOM      7  C   UNL A   1      32.745  36.458  31.409  1.00  0.00     0.004 C 
ATOM      8  C   UNL A   1      31.708  36.130  32.493  1.00  0.00     0.009 C 
BRANCH   7   9
ATOM      9  C   UNL A   1      34.089  36.842  32.057  1.00  0.00     0.103 C 
BRANCH   9  10
ATOM     10  C   UNL A   1      34.116  36.534  33.546  1.00  0.00     0.220 C 
ATOM     11  N   UNL A   1      34.571  35.328  33.982  1.00  0.00    -0.352 N 
ATOM     12  H   UNL A   1      34.829  35.282  34.931  1.00  0.00     0.163 HD
ATOM     13  O   UNL A   1      33.779  37.382  34.375  1.00  0.00    -0.275 OA
BRANCH  11  14
ATOM     14  C   UNL A   1      34.722  34.104  33.226  1.00  0.00     0.151 C 
BRANCH  14  15
ATOM     15  C   UNL A   1      36.116  33.904  32.684  1.00  0.00    -0.028 A 
ATOM     16  C   UNL A   1      37.971  34.035  29.345  1.00  0.00     0.047 C 
ATOM     17  C   UNL A   1      37.672  33.838  30.801  1.00  0.00    -0.015 A 
ATOM     18  C   UNL A   1      36.423  34.173  31.340  1.00  0.00     0.012 A 
ATOM     19  C   UNL A   1      38.628  33.252  31.632  1.00  0.00     0.129 A 
ATOM     20  C   UNL A   1      38.367  33.002  32.981  1.00  0.00    -0.015 A 
ATOM     21  F   UNL A   1      39.819  32.912  31.116  1.00  0.00    -0.206 F 
ATOM     22  C   UNL A   1      37.106  33.330  33.498  1.00  0.00     0.012 A 
ATOM     23  C   UNL A   1      39.398  32.365  33.863  1.00  0.00     0.047 C 
ENDBRANCH  14  15
ENDBRANCH  11  14
ENDBRANCH   9  10
ENDBRANCH   7   9
ENDBRANCH   6   7
ENDBRANCH   3   6
ENDBRANCH   1   2
BRANCH   1  24
ATOM     24  C   UNL A   1      34.691  32.785  28.191  1.00  0.00     0.023 C 
BRANCH  24  25
ATOM     25  C   UNL A   1      34.773  31.340  27.718  1.00  0.00     0.023 C 
BRANCH  25  26
ATOM     26  C   UNL A   1      35.847  30.519  28.419  1.00  0.00     0.116 C 
BRANCH  26  27
ATOM     27  N   UNL A   1      35.681  30.474  29.868  1.00  0.00    -0.352 N 
ATOM     28  C   UNL A   1      36.642  30.253  30.825  1.00  0.00     0.251 C 
ATOM     29  H   UNL A   1      34.767  30.621  30.202  1.00  0.00     0.163 HD
ATOM     30  O   UNL A   1      36.341  30.134  32.008  1.00  0.00    -0.269 OA
BRANCH  28  31
ATOM     31  C   UNL A   1      38.042  30.131  30.385  1.00  0.00     0.039 A 
ATOM     32  C   UNL A   1      38.994  29.630  31.273  1.00  0.00     0.014 A 
ATOM     33  C   UNL A   1      38.370  30.409  29.054  1.00  0.00     0.014 A 
ATOM     34  C   UNL A   1      40.274  29.339  30.804  1.00  0.00     0.010 A 
ATOM     35  C   UNL A   1      39.619  30.045  28.572  1.00  0.00     0.010 A 
ATOM     36  C   UNL A   1      40.583  29.516  29.445  1.00  0.00    -0.014 A 
BRANCH  36  37
ATOM     37  C   UNL A   1      41.935  29.221  28.920  1.00  0.00     0.031 A 
ATOM     38  C   UNL A   1      42.239  27.828  28.447  1.00  0.00     0.074 A 
ATOM     39  C   UNL A   1      42.887  30.172  28.920  1.00  0.00     0.049 A 
ATOM     40  N   UNL A   1      43.369  27.327  28.027  1.00  0.00    -0.248 NA
ATOM     41  C   UNL A   1      41.127  26.860  28.483  1.00  0.00     0.031 C 
ATOM     42  C   UNL A   1      42.716  31.548  29.394  1.00  0.00     0.029 A 
ATOM     43  N   UNL A   1      44.194  30.125  28.509  1.00  0.00    -0.354 N 
ATOM     44  C   UNL A   1      43.106  25.990  27.758  1.00  0.00     0.074 A 
ATOM     45  C   UNL A   1      41.732  25.738  28.125  1.00  0.00     0.031 C 
ATOM     46  C   UNL A   1      43.867  32.220  29.220  1.00  0.00     0.029 A 
ATOM     47  C   UNL A   1      44.862  31.319  28.648  1.00  0.00     0.049 A 
ATOM     48  H   UNL A   1      44.616  29.312  28.148  1.00  0.00     0.167 HD
ATOM     49  C   UNL A   1      43.928  25.062  27.215  1.00  0.00     0.037 A 
ATOM     50  C   UNL A   1      46.134  31.642  28.341  1.00  0.00     0.037 A 
ATOM     51  C   UNL A   1      45.278  25.330  26.809  1.00  0.00     0.049 A 
ATOM     52  C   UNL A   1      47.031  30.591  27.746  1.00  0.00     0.074 A 
ATOM     53  C   UNL A   1      46.179  24.477  26.197  1.00  0.00     0.029 A 
ATOM     54  N   UNL A   1      45.918  26.550  26.965  1.00  0.00    -0.354 N 
ATOM     55  N   UNL A   1      46.756  29.341  27.458  1.00  0.00    -0.248 NA
ATOM     56  C   UNL A   1      48.411  30.991  27.437  1.00  0.00     0.031 C 
ATOM     57  C   UNL A   1      47.374  25.177  26.003  1.00  0.00     0.029 A 
ATOM     58  C   UNL A   1      47.208  26.472  26.472  1.00  0.00     0.049 A 
ATOM     59  H   UNL A   1      45.515  27.352  27.368  1.00  0.00     0.167 HD
ATOM     60  C   UNL A   1      47.922  28.809  26.921  1.00  0.00     0.074 A 
ATOM     61  C   UNL A   1      48.903  29.876  26.912  1.00  0.00     0.031 C 
ATOM     62  C   UNL A   1      48.162  27.551  26.476  1.00  0.00     0.037 A 
BRANCH  49  63
ATOM     63  C   UNL A   1      43.364  23.688  27.004  1.00  0.00     0.058 A 
ATOM     64  C   UNL A   1      43.213  22.791  28.073  1.00  0.00     0.135 A 
ATOM     65  C   UNL A   1      42.970  23.261  25.726  1.00  0.00     0.135 A 
ATOM     66  F   UNL A   1      43.599  23.145  29.310  1.00  0.00    -0.206 F 
ATOM     67  C   UNL A   1      42.719  21.507  27.882  1.00  0.00     0.059 A 
ATOM     68  C   UNL A   1      42.450  21.987  25.514  1.00  0.00     0.059 A 
ATOM     69  F   UNL A   1      43.101  24.077  24.670  1.00  0.00    -0.206 F 
ATOM     70  C   UNL A   1      42.342  21.113  26.596  1.00  0.00     0.060 A 
BRANCH  70  71
ATOM     71  S   UNL A   1      41.707  19.440  26.363  1.00  0.00     0.124 S 
ATOM     72  O   UNL A   1      42.140  18.791  27.597  1.00  0.00    -0.237 OA
ATOM     73  O   UNL A   1      40.272  19.665  26.236  1.00  0.00    -0.237 OA
ATOM     74  O   UNL A   1      42.378  18.988  25.148  1.00  0.00    -0.744 OA
ENDBRANCH  70  71
ENDBRANCH  49  63
BRANCH  50  75
ATOM     75  C   UNL A   1      46.623  33.029  28.554  1.00  0.00     0.058 A 
ATOM     76  C   UNL A   1      46.555  33.976  27.522  1.00  0.00     0.135 A 
ATOM     77  C   UNL A   1      47.154  33.440  29.786  1.00  0.00     0.135 A 
ATOM     78  F   UNL A   1      46.059  33.628  26.325  1.00  0.00    -0.206 F 
ATOM     79  C   UNL A   1      47.007  35.280  27.697  1.00  0.00     0.059 A 
ATOM     80  C   UNL A   1      47.598  34.743  29.991  1.00  0.00     0.059 A 
ATOM     81  F   UNL A   1      47.229  32.574  30.808  1.00  0.00    -0.206 F 
ATOM     82  C   UNL A   1      47.527  35.654  28.937  1.00  0.00     0.060 A 
BRANCH  82  83
ATOM     83  S   UNL A   1      48.069  37.362  29.167  1.00  0.00     0.124 S 
ATOM     84  O   UNL A   1      47.140  37.831  30.188  1.00  0.00    -0.237 OA
ATOM     85  O   UNL A   1      49.454  37.188  29.596  1.00  0.00    -0.237 OA
ATOM     86  O   UNL A   1      47.900  37.950  27.841  1.00  0.00    -0.744 OA
ENDBRANCH  82  83
ENDBRANCH  50  75
BRANCH  62  87
ATOM     87  C   UNL A   1      49.532  27.256  25.941  1.00  0.00     0.058 A 
ATOM     88  C   UNL A   1      50.548  26.776  26.779  1.00  0.00     0.135 A 
ATOM     89  C   UNL A   1      49.800  27.358  24.567  1.00  0.00     0.135 A 
ATOM     90  F   UNL A   1      50.339  26.667  28.101  1.00  0.00    -0.206 F 
ATOM     91  C   UNL A   1      51.789  26.408  26.273  1.00  0.00     0.059 A 
ATOM     92  C   UNL A   1      51.027  26.977  24.036  1.00  0.00     0.059 A 
ATOM     93  F   UNL A   1      48.853  27.804  23.725  1.00  0.00    -0.206 F 
ATOM     94  C   UNL A   1      52.016  26.504  24.898  1.00  0.00     0.060 A 
BRANCH  94  95
ATOM     95  S   UNL A   1      53.607  25.955  24.245  1.00  0.00     0.124 S 
ATOM     96  O   UNL A   1      54.509  26.971  24.776  1.00  0.00    -0.237 OA
ATOM     97  O   UNL A   1      53.741  24.623  24.827  1.00  0.00    -0.237 OA
ATOM     98  O   UNL A   1      53.408  25.984  22.799  1.00  0.00    -0.744 OA
ENDBRANCH  94  95
ENDBRANCH  62  87
ENDBRANCH  36  37
ENDBRANCH  28  31
ENDBRANCH  26  27
ENDBRANCH  25  26
ENDBRANCH  24  25
ENDBRANCH   1  24
TORSDOF 19
ENDMDL
