MODEL 1
REMARK VINA RESULT:     -12.2      0.000      0.000
REMARK SMILES CCOc1ccc(-n2ncc(C(=O)NCCCCNC(=O)c3ccc(-c4c5nc(c(-c6c(F)cc(S(=O)(=O)[O-])cc6F)c6ccc([nH]6)c(-c6c(F)cc(S(=O)(=O)[O-])cc6F)c6nc(c(-c7c(F)cc(S(=O)(=O)[O-])cc7F)c7ccc4[nH]7)C=C6)C=C5)cc3)c2C)nn1
REMARK SMILES IDX 16 1 15 2 14 3 12 4 13 5 11 7 8 8 9 9 88 10 10 11 89 12 7 13
REMARK SMILES IDX 4 14 5 15 91 16 6 17 90 18 3 19 2 20 1 21 17 22 18 23 19 24
REMARK SMILES IDX 20 25 21 27 22 28 23 29 87 30 24 31 86 32 25 33 26 34 27 35
REMARK SMILES IDX 80 36 28 37 85 38 79 39 81 40 29 41 84 42 78 43 77 44 30 46
REMARK SMILES IDX 64 47 43 48 63 49 44 50 47 51 62 52 82 53 45 54 46 55 61 57
REMARK SMILES IDX 83 58 48 59 31 60 32 61 41 62 33 63 34 64 40 65 42 66 35 67
REMARK SMILES IDX 36 68 37 69 38 70 39 71 65 72 66 73 75 74 67 75 68 76 74 77
REMARK SMILES IDX 76 78 69 79 70 80 71 81 72 82 73 83 49 84 50 85 59 86 51 87
REMARK SMILES IDX 52 88 58 89 60 90 53 91 54 92 55 93 56 94 57 95
REMARK H PARENT 14 6 19 26 81 45 47 56
REMARK Flexibility Score: inf
ROOT
ATOM      1  C   UNL A   1      35.974  22.079  24.454  1.00  0.00     0.023 C 
ENDROOT
BRANCH   1   2
ATOM      2  C   UNL A   1      34.587  22.677  24.211  1.00  0.00     0.116 C 
BRANCH   2   3
ATOM      3  N   UNL A   1      33.532  21.773  24.622  1.00  0.00    -0.352 N 
ATOM      4  C   UNL A   1      32.284  21.935  25.163  1.00  0.00     0.254 C 
ATOM      5  O   UNL A   1      31.701  20.890  25.461  1.00  0.00    -0.269 OA
ATOM      6  H   UNL A   1      33.765  20.828  24.479  1.00  0.00     0.163 HD
BRANCH   4   7
ATOM      7  C   UNL A   1      31.652  23.238  25.361  1.00  0.00     0.081 A 
ATOM      8  N   UNL A   1      30.822  25.276  24.917  1.00  0.00    -0.217 N 
ATOM      9  N   UNL A   1      30.843  25.176  26.274  1.00  0.00    -0.174 NA
ATOM     10  C   UNL A   1      31.307  24.119  24.325  1.00  0.00     0.056 A 
ATOM     11  C   UNL A   1      31.270  23.942  26.514  1.00  0.00     0.149 A 
ATOM     12  C   UNL A   1      31.514  23.951  22.855  1.00  0.00     0.068 C 
BRANCH   8  13
ATOM     13  C   UNL A   1      30.327  26.479  24.336  1.00  0.00     0.176 A 
ATOM     14  C   UNL A   1      29.365  28.698  23.121  1.00  0.00     0.233 A 
ATOM     15  C   UNL A   1      28.486  27.666  23.368  1.00  0.00     0.074 A 
ATOM     16  N   UNL A   1      30.672  28.641  23.451  1.00  0.00    -0.110 NA
ATOM     17  C   UNL A   1      28.978  26.531  23.992  1.00  0.00     0.057 A 
ATOM     18  N   UNL A   1      31.155  27.521  24.086  1.00  0.00    -0.127 NA
BRANCH  14  19
ATOM     19  O   UNL A   1      28.922  29.793  22.422  1.00  0.00    -0.477 OA
BRANCH  19  20
ATOM     20  C   UNL A   1      28.913  30.952  23.259  1.00  0.00     0.228 C 
ATOM     21  C   UNL A   1      27.492  31.308  23.676  1.00  0.00     0.049 C 
ENDBRANCH  19  20
ENDBRANCH  14  19
ENDBRANCH   8  13
ENDBRANCH   4   7
ENDBRANCH   2   3
ENDBRANCH   1   2
BRANCH   1  22
ATOM     22  C   UNL A   1      37.091  23.108  24.696  1.00  0.00     0.023 C 
BRANCH  22  23
ATOM     23  C   UNL A   1      37.638  23.150  26.121  1.00  0.00     0.116 C 
BRANCH  23  24
ATOM     24  N   UNL A   1      38.765  22.243  26.325  1.00  0.00    -0.352 N 
ATOM     25  C   UNL A   1      40.101  22.566  26.491  1.00  0.00     0.251 C 
ATOM     26  H   UNL A   1      38.548  21.283  26.347  1.00  0.00     0.163 HD
ATOM     27  O   UNL A   1      40.974  21.747  26.257  1.00  0.00    -0.269 OA
BRANCH  25  28
ATOM     28  C   UNL A   1      40.446  23.923  26.959  1.00  0.00     0.039 A 
ATOM     29  C   UNL A   1      39.783  25.049  26.471  1.00  0.00     0.014 A 
ATOM     30  C   UNL A   1      41.429  24.046  27.936  1.00  0.00     0.014 A 
ATOM     31  C   UNL A   1      40.052  26.289  27.049  1.00  0.00     0.010 A 
ATOM     32  C   UNL A   1      41.597  25.240  28.596  1.00  0.00     0.010 A 
ATOM     33  C   UNL A   1      40.940  26.377  28.136  1.00  0.00    -0.014 A 
BRANCH  33  34
ATOM     34  C   UNL A   1      41.085  27.632  28.872  1.00  0.00     0.031 A 
ATOM     35  C   UNL A   1      42.181  28.517  28.384  1.00  0.00     0.074 A 
ATOM     36  C   UNL A   1      40.196  28.080  29.786  1.00  0.00     0.049 A 
ATOM     37  N   UNL A   1      43.293  28.793  28.978  1.00  0.00    -0.248 NA
ATOM     38  C   UNL A   1      42.099  29.045  27.012  1.00  0.00     0.031 C 
ATOM     39  C   UNL A   1      38.900  27.503  30.161  1.00  0.00     0.029 A 
ATOM     40  N   UNL A   1      40.226  29.232  30.512  1.00  0.00    -0.354 N 
ATOM     41  C   UNL A   1      43.948  29.717  28.168  1.00  0.00     0.074 A 
ATOM     42  C   UNL A   1      43.267  29.681  26.899  1.00  0.00     0.031 C 
ATOM     43  C   UNL A   1      38.177  28.418  30.846  1.00  0.00     0.029 A 
ATOM     44  C   UNL A   1      39.019  29.569  31.116  1.00  0.00     0.049 A 
ATOM     45  H   UNL A   1      41.037  29.781  30.604  1.00  0.00     0.167 HD
ATOM     46  C   UNL A   1      44.843  30.606  28.687  1.00  0.00     0.037 A 
ATOM     47  C   UNL A   1      38.725  30.720  31.773  1.00  0.00     0.037 A 
ATOM     48  C   UNL A   1      45.247  30.214  30.017  1.00  0.00     0.049 A 
ATOM     49  C   UNL A   1      40.017  31.326  32.184  1.00  0.00     0.074 A 
ATOM     50  C   UNL A   1      45.825  29.085  30.565  1.00  0.00     0.029 A 
ATOM     51  N   UNL A   1      44.700  30.899  31.077  1.00  0.00    -0.354 N 
ATOM     52  N   UNL A   1      40.819  30.798  33.065  1.00  0.00    -0.248 NA
ATOM     53  C   UNL A   1      40.631  32.284  31.279  1.00  0.00     0.031 C 
ATOM     54  C   UNL A   1      45.159  28.900  31.813  1.00  0.00     0.029 A 
ATOM     55  C   UNL A   1      44.277  29.967  31.989  1.00  0.00     0.049 A 
ATOM     56  H   UNL A   1      44.626  31.877  31.164  1.00  0.00     0.167 HD
ATOM     57  C   UNL A   1      42.091  30.999  32.551  1.00  0.00     0.074 A 
ATOM     58  C   UNL A   1      41.918  32.002  31.501  1.00  0.00     0.031 C 
ATOM     59  C   UNL A   1      43.113  30.135  32.829  1.00  0.00     0.037 A 
BRANCH  46  60
ATOM     60  C   UNL A   1      45.072  32.009  28.168  1.00  0.00     0.058 A 
ATOM     61  C   UNL A   1      46.382  32.410  27.823  1.00  0.00     0.135 A 
ATOM     62  C   UNL A   1      44.128  33.054  28.273  1.00  0.00     0.135 A 
ATOM     63  F   UNL A   1      47.363  31.503  27.695  1.00  0.00    -0.206 F 
ATOM     64  C   UNL A   1      46.742  33.750  27.681  1.00  0.00     0.059 A 
ATOM     65  C   UNL A   1      44.455  34.393  28.080  1.00  0.00     0.059 A 
ATOM     66  F   UNL A   1      42.866  32.844  28.661  1.00  0.00    -0.206 F 
ATOM     67  C   UNL A   1      45.773  34.736  27.831  1.00  0.00     0.060 A 
BRANCH  67  68
ATOM     68  S   UNL A   1      46.254  36.470  27.759  1.00  0.00     0.124 S 
ATOM     69  O   UNL A   1      47.592  36.423  28.337  1.00  0.00    -0.237 OA
ATOM     70  O   UNL A   1      46.184  36.744  26.327  1.00  0.00    -0.237 OA
ATOM     71  O   UNL A   1      45.236  37.134  28.567  1.00  0.00    -0.744 OA
ENDBRANCH  67  68
ENDBRANCH  46  60
BRANCH  47  72
ATOM     72  C   UNL A   1      37.446  31.477  31.793  1.00  0.00     0.058 A 
ATOM     73  C   UNL A   1      36.806  31.791  33.006  1.00  0.00     0.135 A 
ATOM     74  C   UNL A   1      36.987  32.169  30.653  1.00  0.00     0.135 A 
ATOM     75  F   UNL A   1      37.187  31.189  34.143  1.00  0.00    -0.206 F 
ATOM     76  C   UNL A   1      35.820  32.779  33.098  1.00  0.00     0.059 A 
ATOM     77  C   UNL A   1      35.999  33.151  30.718  1.00  0.00     0.059 A 
ATOM     78  F   UNL A   1      37.556  31.978  29.453  1.00  0.00    -0.206 F 
ATOM     79  C   UNL A   1      35.442  33.474  31.949  1.00  0.00     0.060 A 
BRANCH  79  80
ATOM     80  S   UNL A   1      34.319  34.885  32.095  1.00  0.00     0.124 S 
ATOM     81  O   UNL A   1      33.183  34.297  32.795  1.00  0.00    -0.237 OA
ATOM     82  O   UNL A   1      35.117  35.837  32.858  1.00  0.00    -0.237 OA
ATOM     83  O   UNL A   1      34.068  35.261  30.705  1.00  0.00    -0.744 OA
ENDBRANCH  79  80
ENDBRANCH  47  72
BRANCH  59  84
ATOM     84  C   UNL A   1      42.935  29.155  33.961  1.00  0.00     0.058 A 
ATOM     85  C   UNL A   1      43.172  29.433  35.320  1.00  0.00     0.135 A 
ATOM     86  C   UNL A   1      42.386  27.900  33.656  1.00  0.00     0.135 A 
ATOM     87  F   UNL A   1      43.587  30.645  35.718  1.00  0.00    -0.206 F 
ATOM     88  C   UNL A   1      42.936  28.484  36.317  1.00  0.00     0.059 A 
ATOM     89  C   UNL A   1      42.108  26.953  34.636  1.00  0.00     0.059 A 
ATOM     90  F   UNL A   1      42.073  27.593  32.385  1.00  0.00    -0.206 F 
ATOM     91  C   UNL A   1      42.408  27.241  35.963  1.00  0.00     0.060 A 
BRANCH  91  92
ATOM     92  S   UNL A   1      42.078  26.021  37.253  1.00  0.00     0.124 S 
ATOM     93  O   UNL A   1      40.657  26.225  37.510  1.00  0.00    -0.237 OA
ATOM     94  O   UNL A   1      42.431  24.764  36.600  1.00  0.00    -0.237 OA
ATOM     95  O   UNL A   1      42.971  26.422  38.339  1.00  0.00    -0.744 OA
ENDBRANCH  91  92
ENDBRANCH  59  84
ENDBRANCH  33  34
ENDBRANCH  25  28
ENDBRANCH  23  24
ENDBRANCH  22  23
ENDBRANCH   1  22
TORSDOF 17
ENDMDL
MODEL 2
REMARK VINA RESULT:     -11.9      3.029      9.640
REMARK SMILES CCOc1ccc(-n2ncc(C(=O)NCCCCNC(=O)c3ccc(-c4c5nc(c(-c6c(F)cc(S(=O)(=O)[O-])cc6F)c6ccc([nH]6)c(-c6c(F)cc(S(=O)(=O)[O-])cc6F)c6nc(c(-c7c(F)cc(S(=O)(=O)[O-])cc7F)c7ccc4[nH]7)C=C6)C=C5)cc3)c2C)nn1
REMARK SMILES IDX 16 1 15 2 14 3 12 4 13 5 11 7 8 8 9 9 88 10 10 11 89 12 7 13
REMARK SMILES IDX 4 14 5 15 91 16 6 17 90 18 3 19 2 20 1 21 17 22 18 23 19 24
REMARK SMILES IDX 20 25 21 27 22 28 23 29 87 30 24 31 86 32 25 33 26 34 27 35
REMARK SMILES IDX 80 36 28 37 85 38 79 39 81 40 29 41 84 42 78 43 77 44 30 46
REMARK SMILES IDX 64 47 43 48 63 49 44 50 47 51 62 52 82 53 45 54 46 55 61 57
REMARK SMILES IDX 83 58 48 59 31 60 32 61 41 62 33 63 34 64 40 65 42 66 35 67
REMARK SMILES IDX 36 68 37 69 38 70 39 71 65 72 66 73 75 74 67 75 68 76 74 77
REMARK SMILES IDX 76 78 69 79 70 80 71 81 72 82 73 83 49 84 50 85 59 86 51 87
REMARK SMILES IDX 52 88 58 89 60 90 53 91 54 92 55 93 56 94 57 95
REMARK H PARENT 14 6 19 26 81 45 47 56
REMARK Flexibility Score: inf
ROOT
ATOM      1  C   UNL A   1      34.095  29.404  27.044  1.00  0.00     0.023 C 
ENDROOT
BRANCH   1   2
ATOM      2  C   UNL A   1      33.246  28.137  26.922  1.00  0.00     0.116 C 
BRANCH   2   3
ATOM      3  N   UNL A   1      32.181  28.294  25.953  1.00  0.00    -0.352 N 
ATOM      4  C   UNL A   1      31.784  27.601  24.839  1.00  0.00     0.254 C 
ATOM      5  O   UNL A   1      30.855  28.108  24.208  1.00  0.00    -0.269 OA
ATOM      6  H   UNL A   1      31.614  29.077  26.135  1.00  0.00     0.163 HD
BRANCH   4   7
ATOM      7  C   UNL A   1      32.383  26.335  24.421  1.00  0.00     0.081 A 
ATOM      8  N   UNL A   1      32.758  24.129  24.239  1.00  0.00    -0.217 N 
ATOM      9  N   UNL A   1      33.819  24.732  23.637  1.00  0.00    -0.174 NA
ATOM     10  C   UNL A   1      31.863  25.068  24.728  1.00  0.00     0.056 A 
ATOM     11  C   UNL A   1      33.546  26.030  23.694  1.00  0.00     0.149 A 
ATOM     12  C   UNL A   1      30.650  24.734  25.533  1.00  0.00     0.068 C 
BRANCH   8  13
ATOM     13  C   UNL A   1      32.718  22.705  24.268  1.00  0.00     0.176 A 
ATOM     14  C   UNL A   1      32.511  20.007  24.315  1.00  0.00     0.233 A 
ATOM     15  C   UNL A   1      32.174  20.660  23.148  1.00  0.00     0.074 A 
ATOM     16  N   UNL A   1      32.928  20.655  25.421  1.00  0.00    -0.110 NA
ATOM     17  C   UNL A   1      32.282  22.041  23.124  1.00  0.00     0.057 A 
ATOM     18  N   UNL A   1      33.052  22.025  25.390  1.00  0.00    -0.127 NA
BRANCH  14  19
ATOM     19  O   UNL A   1      32.324  18.650  24.392  1.00  0.00    -0.477 OA
BRANCH  19  20
ATOM     20  C   UNL A   1      32.561  18.037  23.122  1.00  0.00     0.228 C 
ATOM     21  C   UNL A   1      33.632  16.960  23.231  1.00  0.00     0.049 C 
ENDBRANCH  19  20
ENDBRANCH  14  19
ENDBRANCH   8  13
ENDBRANCH   4   7
ENDBRANCH   2   3
ENDBRANCH   1   2
BRANCH   1  22
ATOM     22  C   UNL A   1      33.306  30.686  27.357  1.00  0.00     0.023 C 
BRANCH  22  23
ATOM     23  C   UNL A   1      34.157  31.940  27.555  1.00  0.00     0.116 C 
BRANCH  23  24
ATOM     24  N   UNL A   1      34.098  32.457  28.921  1.00  0.00    -0.352 N 
ATOM     25  C   UNL A   1      34.886  32.100  30.002  1.00  0.00     0.251 C 
ATOM     26  H   UNL A   1      33.414  33.143  29.093  1.00  0.00     0.163 HD
ATOM     27  O   UNL A   1      34.501  32.291  31.144  1.00  0.00    -0.269 OA
BRANCH  25  28
ATOM     28  C   UNL A   1      36.204  31.488  29.743  1.00  0.00     0.039 A 
ATOM     29  C   UNL A   1      37.329  32.271  29.483  1.00  0.00     0.014 A 
ATOM     30  C   UNL A   1      36.303  30.101  29.804  1.00  0.00     0.014 A 
ATOM     31  C   UNL A   1      38.572  31.646  29.385  1.00  0.00     0.010 A 
ATOM     32  C   UNL A   1      37.539  29.501  29.840  1.00  0.00     0.010 A 
ATOM     33  C   UNL A   1      38.678  30.260  29.594  1.00  0.00    -0.014 A 
BRANCH  33  34
ATOM     34  C   UNL A   1      39.992  29.625  29.684  1.00  0.00     0.031 A 
ATOM     35  C   UNL A   1      40.469  29.373  31.075  1.00  0.00     0.074 A 
ATOM     36  C   UNL A   1      40.658  29.111  28.627  1.00  0.00     0.049 A 
ATOM     37  N   UNL A   1      41.432  29.967  31.696  1.00  0.00    -0.248 NA
ATOM     38  C   UNL A   1      39.694  28.456  31.926  1.00  0.00     0.031 C 
ATOM     39  C   UNL A   1      40.206  28.979  27.237  1.00  0.00     0.029 A 
ATOM     40  N   UNL A   1      41.870  28.490  28.601  1.00  0.00    -0.354 N 
ATOM     41  C   UNL A   1      41.544  29.336  32.933  1.00  0.00     0.074 A 
ATOM     42  C   UNL A   1      40.339  28.562  33.090  1.00  0.00     0.031 C 
ATOM     43  C   UNL A   1      41.012  28.118  26.577  1.00  0.00     0.029 A 
ATOM     44  C   UNL A   1      42.135  27.782  27.433  1.00  0.00     0.049 A 
ATOM     45  H   UNL A   1      42.509  28.540  29.348  1.00  0.00     0.167 HD
ATOM     46  C   UNL A   1      42.725  29.316  33.613  1.00  0.00     0.037 A 
ATOM     47  C   UNL A   1      43.190  26.963  27.193  1.00  0.00     0.037 A 
ATOM     48  C   UNL A   1      43.647  30.289  33.076  1.00  0.00     0.049 A 
ATOM     49  C   UNL A   1      44.257  27.338  28.156  1.00  0.00     0.074 A 
ATOM     50  C   UNL A   1      43.613  31.657  32.880  1.00  0.00     0.029 A 
ATOM     51  N   UNL A   1      44.667  29.827  32.276  1.00  0.00    -0.354 N 
ATOM     52  N   UNL A   1      44.887  28.479  28.134  1.00  0.00    -0.248 NA
ATOM     53  C   UNL A   1      44.303  26.627  29.424  1.00  0.00     0.031 C 
ATOM     54  C   UNL A   1      44.247  31.863  31.619  1.00  0.00     0.029 A 
ATOM     55  C   UNL A   1      44.702  30.626  31.161  1.00  0.00     0.049 A 
ATOM     56  H   UNL A   1      45.260  29.066  32.469  1.00  0.00     0.167 HD
ATOM     57  C   UNL A   1      45.015  28.839  29.467  1.00  0.00     0.074 A 
ATOM     58  C   UNL A   1      44.724  27.617  30.216  1.00  0.00     0.031 C 
ATOM     59  C   UNL A   1      45.066  30.151  29.845  1.00  0.00     0.037 A 
BRANCH  46  60
ATOM     60  C   UNL A   1      43.193  28.186  34.504  1.00  0.00     0.058 A 
ATOM     61  C   UNL A   1      43.569  28.469  35.836  1.00  0.00     0.135 A 
ATOM     62  C   UNL A   1      43.565  26.909  34.031  1.00  0.00     0.135 A 
ATOM     63  F   UNL A   1      43.269  29.653  36.394  1.00  0.00    -0.206 F 
ATOM     64  C   UNL A   1      44.331  27.588  36.604  1.00  0.00     0.059 A 
ATOM     65  C   UNL A   1      44.277  25.992  34.799  1.00  0.00     0.059 A 
ATOM     66  F   UNL A   1      43.345  26.518  32.771  1.00  0.00    -0.206 F 
ATOM     67  C   UNL A   1      44.696  26.358  36.068  1.00  0.00     0.060 A 
BRANCH  67  68
ATOM     68  S   UNL A   1      45.771  25.263  37.011  1.00  0.00     0.124 S 
ATOM     69  O   UNL A   1      45.451  25.653  38.379  1.00  0.00    -0.237 OA
ATOM     70  O   UNL A   1      45.302  23.946  36.593  1.00  0.00    -0.237 OA
ATOM     71  O   UNL A   1      47.106  25.623  36.544  1.00  0.00    -0.744 OA
ENDBRANCH  67  68
ENDBRANCH  46  60
BRANCH  47  72
ATOM     72  C   UNL A   1      43.224  25.694  26.419  1.00  0.00     0.058 A 
ATOM     73  C   UNL A   1      44.149  25.505  25.375  1.00  0.00     0.135 A 
ATOM     74  C   UNL A   1      42.565  24.537  26.881  1.00  0.00     0.135 A 
ATOM     75  F   UNL A   1      44.830  26.551  24.881  1.00  0.00    -0.206 F 
ATOM     76  C   UNL A   1      44.453  24.238  24.866  1.00  0.00     0.059 A 
ATOM     77  C   UNL A   1      42.846  23.265  26.383  1.00  0.00     0.059 A 
ATOM     78  F   UNL A   1      41.697  24.597  27.902  1.00  0.00    -0.206 F 
ATOM     79  C   UNL A   1      43.814  23.118  25.397  1.00  0.00     0.060 A 
BRANCH  79  80
ATOM     80  S   UNL A   1      44.348  21.466  24.889  1.00  0.00     0.124 S 
ATOM     81  O   UNL A   1      44.516  21.632  23.449  1.00  0.00    -0.237 OA
ATOM     82  O   UNL A   1      45.575  21.288  25.657  1.00  0.00    -0.237 OA
ATOM     83  O   UNL A   1      43.234  20.612  25.292  1.00  0.00    -0.744 OA
ENDBRANCH  79  80
ENDBRANCH  47  72
BRANCH  59  84
ATOM     84  C   UNL A   1      45.320  31.194  28.786  1.00  0.00     0.058 A 
ATOM     85  C   UNL A   1      44.334  31.776  27.967  1.00  0.00     0.135 A 
ATOM     86  C   UNL A   1      46.620  31.709  28.678  1.00  0.00     0.135 A 
ATOM     87  F   UNL A   1      43.044  31.429  28.082  1.00  0.00    -0.206 F 
ATOM     88  C   UNL A   1      44.644  32.774  27.041  1.00  0.00     0.059 A 
ATOM     89  C   UNL A   1      46.944  32.729  27.789  1.00  0.00     0.059 A 
ATOM     90  F   UNL A   1      47.597  31.245  29.477  1.00  0.00    -0.206 F 
ATOM     91  C   UNL A   1      45.956  33.241  26.954  1.00  0.00     0.060 A 
BRANCH  91  92
ATOM     92  S   UNL A   1      46.354  34.549  25.775  1.00  0.00     0.124 S 
ATOM     93  O   UNL A   1      46.015  35.752  26.528  1.00  0.00    -0.237 OA
ATOM     94  O   UNL A   1      47.776  34.334  25.529  1.00  0.00    -0.237 OA
ATOM     95  O   UNL A   1      45.483  34.260  24.638  1.00  0.00    -0.744 OA
ENDBRANCH  91  92
ENDBRANCH  59  84
ENDBRANCH  33  34
ENDBRANCH  25  28
ENDBRANCH  23  24
ENDBRANCH  22  23
ENDBRANCH   1  22
TORSDOF 17
ENDMDL
MODEL 3
REMARK VINA RESULT:     -11.9      1.914      2.921
REMARK SMILES CCOc1ccc(-n2ncc(C(=O)NCCCCNC(=O)c3ccc(-c4c5nc(c(-c6c(F)cc(S(=O)(=O)[O-])cc6F)c6ccc([nH]6)c(-c6c(F)cc(S(=O)(=O)[O-])cc6F)c6nc(c(-c7c(F)cc(S(=O)(=O)[O-])cc7F)c7ccc4[nH]7)C=C6)C=C5)cc3)c2C)nn1
REMARK SMILES IDX 16 1 15 2 14 3 12 4 13 5 11 7 8 8 9 9 88 10 10 11 89 12 7 13
REMARK SMILES IDX 4 14 5 15 91 16 6 17 90 18 3 19 2 20 1 21 17 22 18 23 19 24
REMARK SMILES IDX 20 25 21 27 22 28 23 29 87 30 24 31 86 32 25 33 26 34 27 35
REMARK SMILES IDX 80 36 28 37 85 38 79 39 81 40 29 41 84 42 78 43 77 44 30 46
REMARK SMILES IDX 64 47 43 48 63 49 44 50 47 51 62 52 82 53 45 54 46 55 61 57
REMARK SMILES IDX 83 58 48 59 31 60 32 61 41 62 33 63 34 64 40 65 42 66 35 67
REMARK SMILES IDX 36 68 37 69 38 70 39 71 65 72 66 73 75 74 67 75 68 76 74 77
REMARK SMILES IDX 76 78 69 79 70 80 71 81 72 82 73 83 49 84 50 85 59 86 51 87
REMARK SMILES IDX 52 88 58 89 60 90 53 91 54 92 55 93 56 94 57 95
REMARK H PARENT 14 6 19 26 81 45 47 56
REMARK Flexibility Score: inf
ROOT
ATOM      1  C   UNL A   1      39.875  21.635  26.848  1.00  0.00     0.023 C 
ENDROOT
BRANCH   1   2
ATOM      2  C   UNL A   1      38.845  22.083  25.809  1.00  0.00     0.116 C 
BRANCH   2   3
ATOM      3  N   UNL A   1      38.033  20.977  25.345  1.00  0.00    -0.352 N 
ATOM      4  C   UNL A   1      36.685  20.753  25.236  1.00  0.00     0.254 C 
ATOM      5  O   UNL A   1      36.369  19.621  24.862  1.00  0.00    -0.269 OA
ATOM      6  H   UNL A   1      38.571  20.213  25.038  1.00  0.00     0.163 HD
BRANCH   4   7
ATOM      7  C   UNL A   1      35.673  21.771  25.509  1.00  0.00     0.081 A 
ATOM      8  N   UNL A   1      34.420  23.621  25.293  1.00  0.00    -0.217 N 
ATOM      9  N   UNL A   1      34.136  23.129  26.529  1.00  0.00    -0.174 NA
ATOM     10  C   UNL A   1      35.350  22.825  24.641  1.00  0.00     0.056 A 
ATOM     11  C   UNL A   1      34.832  22.001  26.611  1.00  0.00     0.149 A 
ATOM     12  C   UNL A   1      35.950  23.150  23.312  1.00  0.00     0.068 C 
BRANCH   8  13
ATOM     13  C   UNL A   1      33.753  24.807  24.869  1.00  0.00     0.176 A 
ATOM     14  C   UNL A   1      32.422  27.059  24.177  1.00  0.00     0.233 A 
ATOM     15  C   UNL A   1      33.323  27.136  25.217  1.00  0.00     0.074 A 
ATOM     16  N   UNL A   1      32.178  25.916  23.504  1.00  0.00    -0.110 NA
ATOM     17  C   UNL A   1      34.006  25.984  25.570  1.00  0.00     0.057 A 
ATOM     18  N   UNL A   1      32.869  24.776  23.844  1.00  0.00    -0.127 NA
BRANCH  14  19
ATOM     19  O   UNL A   1      31.668  28.164  23.870  1.00  0.00    -0.477 OA
BRANCH  19  20
ATOM     20  C   UNL A   1      31.009  27.988  22.613  1.00  0.00     0.228 C 
ATOM     21  C   UNL A   1      29.616  28.602  22.641  1.00  0.00     0.049 C 
ENDBRANCH  19  20
ENDBRANCH  14  19
ENDBRANCH   8  13
ENDBRANCH   4   7
ENDBRANCH   2   3
ENDBRANCH   1   2
BRANCH   1  22
ATOM     22  C   UNL A   1      40.672  20.375  26.470  1.00  0.00     0.023 C 
BRANCH  22  23
ATOM     23  C   UNL A   1      42.029  20.234  27.157  1.00  0.00     0.116 C 
BRANCH  23  24
ATOM     24  N   UNL A   1      43.148  20.573  26.280  1.00  0.00    -0.352 N 
ATOM     25  C   UNL A   1      43.559  21.830  25.869  1.00  0.00     0.251 C 
ATOM     26  H   UNL A   1      43.675  19.815  25.939  1.00  0.00     0.163 HD
ATOM     27  O   UNL A   1      44.226  21.968  24.856  1.00  0.00    -0.269 OA
BRANCH  25  28
ATOM     28  C   UNL A   1      43.176  22.999  26.684  1.00  0.00     0.039 A 
ATOM     29  C   UNL A   1      43.697  23.194  27.963  1.00  0.00     0.014 A 
ATOM     30  C   UNL A   1      42.304  23.929  26.124  1.00  0.00     0.014 A 
ATOM     31  C   UNL A   1      43.410  24.384  28.630  1.00  0.00     0.010 A 
ATOM     32  C   UNL A   1      42.130  25.154  26.721  1.00  0.00     0.010 A 
ATOM     33  C   UNL A   1      42.648  25.378  27.992  1.00  0.00    -0.014 A 
BRANCH  33  34
ATOM     34  C   UNL A   1      42.501  26.700  28.601  1.00  0.00     0.031 A 
ATOM     35  C   UNL A   1      43.597  27.659  28.280  1.00  0.00     0.074 A 
ATOM     36  C   UNL A   1      41.384  27.122  29.235  1.00  0.00     0.049 A 
ATOM     37  N   UNL A   1      44.508  28.108  29.078  1.00  0.00    -0.248 NA
ATOM     38  C   UNL A   1      43.795  28.055  26.877  1.00  0.00     0.031 C 
ATOM     39  C   UNL A   1      40.094  26.437  29.367  1.00  0.00     0.029 A 
ATOM     40  N   UNL A   1      41.138  28.327  29.819  1.00  0.00    -0.354 N 
ATOM     41  C   UNL A   1      45.250  29.027  28.341  1.00  0.00     0.074 A 
ATOM     42  C   UNL A   1      44.895  28.807  26.963  1.00  0.00     0.031 C 
ATOM     43  C   UNL A   1      39.150  27.319  29.766  1.00  0.00     0.029 A 
ATOM     44  C   UNL A   1      39.797  28.576  30.093  1.00  0.00     0.049 A 
ATOM     45  H   UNL A   1      41.852  28.970  30.033  1.00  0.00     0.167 HD
ATOM     46  C   UNL A   1      45.913  30.052  28.950  1.00  0.00     0.037 A 
ATOM     47  C   UNL A   1      39.254  29.738  30.536  1.00  0.00     0.037 A 
ATOM     48  C   UNL A   1      46.024  29.823  30.371  1.00  0.00     0.049 A 
ATOM     49  C   UNL A   1      40.352  30.519  31.161  1.00  0.00     0.074 A 
ATOM     50  C   UNL A   1      46.556  28.817  31.156  1.00  0.00     0.029 A 
ATOM     51  N   UNL A   1      45.183  30.530  31.198  1.00  0.00    -0.354 N 
ATOM     52  N   UNL A   1      40.967  30.162  32.254  1.00  0.00    -0.248 NA
ATOM     53  C   UNL A   1      41.075  31.460  30.320  1.00  0.00     0.031 C 
ATOM     54  C   UNL A   1      45.632  28.665  32.233  1.00  0.00     0.029 A 
ATOM     55  C   UNL A   1      44.642  29.637  32.087  1.00  0.00     0.049 A 
ATOM     56  H   UNL A   1      45.003  31.497  31.159  1.00  0.00     0.167 HD
ATOM     57  C   UNL A   1      42.301  30.461  32.023  1.00  0.00     0.074 A 
ATOM     58  C   UNL A   1      42.293  31.345  30.858  1.00  0.00     0.031 C 
ATOM     59  C   UNL A   1      43.301  29.744  32.617  1.00  0.00     0.037 A 
BRANCH  46  60
ATOM     60  C   UNL A   1      46.132  31.422  28.346  1.00  0.00     0.058 A 
ATOM     61  C   UNL A   1      45.019  32.151  27.872  1.00  0.00     0.135 A 
ATOM     62  C   UNL A   1      47.393  31.919  27.950  1.00  0.00     0.135 A 
ATOM     63  F   UNL A   1      43.770  31.773  28.184  1.00  0.00    -0.206 F 
ATOM     64  C   UNL A   1      45.149  33.233  27.000  1.00  0.00     0.059 A 
ATOM     65  C   UNL A   1      47.546  33.031  27.127  1.00  0.00     0.059 A 
ATOM     66  F   UNL A   1      48.537  31.299  28.258  1.00  0.00    -0.206 F 
ATOM     67  C   UNL A   1      46.418  33.653  26.619  1.00  0.00     0.060 A 
BRANCH  67  68
ATOM     68  S   UNL A   1      46.588  34.976  25.409  1.00  0.00     0.124 S 
ATOM     69  O   UNL A   1      47.992  34.848  25.035  1.00  0.00    -0.237 OA
ATOM     70  O   UNL A   1      45.616  34.583  24.394  1.00  0.00    -0.237 OA
ATOM     71  O   UNL A   1      46.241  36.173  26.170  1.00  0.00    -0.744 OA
ENDBRANCH  67  68
ENDBRANCH  46  60
BRANCH  47  72
ATOM     72  C   UNL A   1      37.944  30.346  30.183  1.00  0.00     0.058 A 
ATOM     73  C   UNL A   1      37.101  30.882  31.174  1.00  0.00     0.135 A 
ATOM     74  C   UNL A   1      37.631  30.688  28.851  1.00  0.00     0.135 A 
ATOM     75  F   UNL A   1      37.332  30.618  32.469  1.00  0.00    -0.206 F 
ATOM     76  C   UNL A   1      36.053  31.758  30.870  1.00  0.00     0.059 A 
ATOM     77  C   UNL A   1      36.587  31.552  28.524  1.00  0.00     0.059 A 
ATOM     78  F   UNL A   1      38.395  30.267  27.832  1.00  0.00    -0.206 F 
ATOM     79  C   UNL A   1      35.821  32.110  29.541  1.00  0.00     0.060 A 
BRANCH  79  80
ATOM     80  S   UNL A   1      34.605  33.394  29.161  1.00  0.00     0.124 S 
ATOM     81  O   UNL A   1      33.967  33.600  30.457  1.00  0.00    -0.237 OA
ATOM     82  O   UNL A   1      35.447  34.485  28.684  1.00  0.00    -0.237 OA
ATOM     83  O   UNL A   1      33.763  32.770  28.144  1.00  0.00    -0.744 OA
ENDBRANCH  79  80
ENDBRANCH  47  72
BRANCH  59  84
ATOM     84  C   UNL A   1      42.949  28.850  33.780  1.00  0.00     0.058 A 
ATOM     85  C   UNL A   1      42.789  29.276  35.112  1.00  0.00     0.135 A 
ATOM     86  C   UNL A   1      42.648  27.508  33.501  1.00  0.00     0.135 A 
ATOM     87  F   UNL A   1      42.942  30.564  35.451  1.00  0.00    -0.206 F 
ATOM     88  C   UNL A   1      42.412  28.392  36.126  1.00  0.00     0.059 A 
ATOM     89  C   UNL A   1      42.236  26.619  34.489  1.00  0.00     0.059 A 
ATOM     90  F   UNL A   1      42.716  27.051  32.239  1.00  0.00    -0.206 F 
ATOM     91  C   UNL A   1      42.144  27.061  35.805  1.00  0.00     0.060 A 
BRANCH  91  92
ATOM     92  S   UNL A   1      41.632  25.922  37.109  1.00  0.00     0.124 S 
ATOM     93  O   UNL A   1      40.324  26.450  37.480  1.00  0.00    -0.237 OA
ATOM     94  O   UNL A   1      41.625  24.634  36.423  1.00  0.00    -0.237 OA
ATOM     95  O   UNL A   1      42.675  26.073  38.122  1.00  0.00    -0.744 OA
ENDBRANCH  91  92
ENDBRANCH  59  84
ENDBRANCH  33  34
ENDBRANCH  25  28
ENDBRANCH  23  24
ENDBRANCH  22  23
ENDBRANCH   1  22
TORSDOF 17
ENDMDL
