MODEL 1
REMARK VINA RESULT:     -11.1      0.000      0.000
REMARK SMILES O=C(NCCCCNC(=O)[C@@H]1CCC(=O)N1C(=O)/C=C/c1ccccc1)c1ccc(-c2c3nc(c(-c4c(F)cc(S(=O)(=O)[O-])cc4F)c4ccc([nH]4)c(-c4c(F)cc(S(=O)(=O)[O-])cc4F)c4nc(c(-c5c(F)cc(S(=O)(=O)[O-])cc5F)c5ccc2[nH]5)C=C4)C=C3)cc1
REMARK SMILES IDX 5 1 4 2 3 3 1 4 2 5 27 7 28 8 92 9 29 10 91 11 30 12 31 13
REMARK SMILES IDX 32 14 85 15 33 16 90 17 84 18 86 19 34 20 89 21 83 22 82 23
REMARK SMILES IDX 35 25 69 26 48 27 68 28 49 29 52 30 67 31 87 32 50 33 51 34
REMARK SMILES IDX 66 36 88 37 53 38 36 39 37 40 46 41 38 42 39 43 45 44 47 45
REMARK SMILES IDX 40 46 41 47 42 48 43 49 44 50 70 51 71 52 80 53 72 54 73 55
REMARK SMILES IDX 79 56 81 57 74 58 75 59 76 60 77 61 78 62 54 63 55 64 64 65
REMARK SMILES IDX 56 66 57 67 63 68 65 69 58 70 59 71 60 72 61 73 62 74 6 75
REMARK SMILES IDX 7 76 8 77 9 78 10 80 11 81 12 82 16 83 13 84 14 85 15 86
REMARK SMILES IDX 17 87 18 88 19 89 20 90 21 91 22 92 26 93 23 94 25 95 24 96
REMARK H PARENT 3 6 86 24 52 35 8 79
REMARK Flexibility Score: inf
ROOT
ATOM      1  C   UNL A   1      34.903  31.626  27.720  1.00  0.00     0.023 C 
ENDROOT
BRANCH   1   2
ATOM      2  C   UNL A   1      35.580  30.416  28.354  1.00  0.00     0.116 C 
BRANCH   2   3
ATOM      3  N   UNL A   1      35.580  30.462  29.808  1.00  0.00    -0.352 N 
ATOM      4  O   UNL A   1      36.350  30.062  31.889  1.00  0.00    -0.269 OA
ATOM      5  C   UNL A   1      36.572  30.083  30.683  1.00  0.00     0.251 C 
ATOM      6  H   UNL A   1      34.758  30.813  30.223  1.00  0.00     0.163 HD
BRANCH   5   7
ATOM      7  C   UNL A   1      37.891  29.672  30.155  1.00  0.00     0.039 A 
ATOM      8  C   UNL A   1      38.823  29.043  30.983  1.00  0.00     0.014 A 
ATOM      9  C   UNL A   1      38.199  29.929  28.816  1.00  0.00     0.014 A 
ATOM     10  C   UNL A   1      40.107  28.796  30.512  1.00  0.00     0.010 A 
ATOM     11  C   UNL A   1      39.468  29.611  28.323  1.00  0.00     0.010 A 
ATOM     12  C   UNL A   1      40.443  29.071  29.175  1.00  0.00    -0.014 A 
BRANCH  12  13
ATOM     13  C   UNL A   1      41.801  28.730  28.683  1.00  0.00     0.031 A 
ATOM     14  C   UNL A   1      42.900  29.755  28.654  1.00  0.00     0.074 A 
ATOM     15  C   UNL A   1      42.042  27.464  28.286  1.00  0.00     0.049 A 
ATOM     16  N   UNL A   1      44.145  29.614  28.276  1.00  0.00    -0.248 NA
ATOM     17  C   UNL A   1      42.560  31.116  29.096  1.00  0.00     0.031 C 
ATOM     18  C   UNL A   1      41.047  26.390  28.252  1.00  0.00     0.029 A 
ATOM     19  N   UNL A   1      43.195  26.863  27.853  1.00  0.00    -0.354 N 
ATOM     20  C   UNL A   1      44.733  30.866  28.415  1.00  0.00     0.074 A 
ATOM     21  C   UNL A   1      43.702  31.762  28.895  1.00  0.00     0.031 C 
ATOM     22  C   UNL A   1      41.640  25.253  27.862  1.00  0.00     0.029 A 
ATOM     23  C   UNL A   1      43.042  25.527  27.569  1.00  0.00     0.049 A 
ATOM     24  H   UNL A   1      44.049  27.341  27.754  1.00  0.00     0.167 HD
ATOM     25  C   UNL A   1      46.015  31.229  28.170  1.00  0.00     0.037 A 
ATOM     26  C   UNL A   1      43.927  24.621  27.112  1.00  0.00     0.037 A 
ATOM     27  C   UNL A   1      47.041  30.326  27.712  1.00  0.00     0.049 A 
ATOM     28  C   UNL A   1      45.343  25.049  26.860  1.00  0.00     0.074 A 
ATOM     29  C   UNL A   1      48.378  30.591  27.472  1.00  0.00     0.029 A 
ATOM     30  N   UNL A   1      46.845  28.983  27.426  1.00  0.00    -0.354 N 
ATOM     31  N   UNL A   1      45.885  26.232  27.024  1.00  0.00    -0.248 NA
ATOM     32  C   UNL A   1      46.266  24.022  26.360  1.00  0.00     0.031 C 
ATOM     33  C   UNL A   1      48.984  29.417  27.009  1.00  0.00     0.029 A 
ATOM     34  C   UNL A   1      48.031  28.410  26.997  1.00  0.00     0.049 A 
ATOM     35  H   UNL A   1      45.988  28.506  27.515  1.00  0.00     0.167 HD
ATOM     36  C   UNL A   1      47.217  26.091  26.652  1.00  0.00     0.074 A 
ATOM     37  C   UNL A   1      47.401  24.704  26.276  1.00  0.00     0.031 C 
ATOM     38  C   UNL A   1      48.196  27.029  26.620  1.00  0.00     0.037 A 
BRANCH  25  39
ATOM     39  C   UNL A   1      46.386  32.672  28.378  1.00  0.00     0.058 A 
ATOM     40  C   UNL A   1      46.261  33.621  27.353  1.00  0.00     0.135 A 
ATOM     41  C   UNL A   1      46.825  33.120  29.635  1.00  0.00     0.135 A 
ATOM     42  F   UNL A   1      45.860  33.245  26.128  1.00  0.00    -0.206 F 
ATOM     43  C   UNL A   1      46.577  34.961  27.559  1.00  0.00     0.059 A 
ATOM     44  C   UNL A   1      47.128  34.458  29.870  1.00  0.00     0.059 A 
ATOM     45  F   UNL A   1      46.962  32.252  30.651  1.00  0.00    -0.206 F 
ATOM     46  C   UNL A   1      47.013  35.369  28.822  1.00  0.00     0.060 A 
BRANCH  46  47
ATOM     47  S   UNL A   1      47.414  37.112  29.077  1.00  0.00     0.124 S 
ATOM     48  O   UNL A   1      48.777  37.021  29.594  1.00  0.00    -0.237 OA
ATOM     49  O   UNL A   1      47.282  37.666  27.734  1.00  0.00    -0.237 OA
ATOM     50  O   UNL A   1      46.408  37.555  30.036  1.00  0.00    -0.744 OA
ENDBRANCH  46  47
ENDBRANCH  25  39
BRANCH  26  51
ATOM     51  C   UNL A   1      43.485  23.226  26.869  1.00  0.00     0.058 A 
ATOM     52  C   UNL A   1      43.334  22.732  25.565  1.00  0.00     0.135 A 
ATOM     53  C   UNL A   1      43.253  22.346  27.936  1.00  0.00     0.135 A 
ATOM     54  F   UNL A   1      43.544  23.538  24.514  1.00  0.00    -0.206 F 
ATOM     55  C   UNL A   1      42.965  21.412  25.328  1.00  0.00     0.059 A 
ATOM     56  C   UNL A   1      42.905  21.016  27.725  1.00  0.00     0.059 A 
ATOM     57  F   UNL A   1      43.403  22.769  29.202  1.00  0.00    -0.206 F 
ATOM     58  C   UNL A   1      42.757  20.561  26.415  1.00  0.00     0.060 A 
BRANCH  58  59
ATOM     59  S   UNL A   1      42.347  18.831  26.101  1.00  0.00     0.124 S 
ATOM     60  O   UNL A   1      40.962  18.935  25.657  1.00  0.00    -0.237 OA
ATOM     61  O   UNL A   1      43.320  18.462  25.078  1.00  0.00    -0.237 OA
ATOM     62  O   UNL A   1      42.549  18.199  27.402  1.00  0.00    -0.744 OA
ENDBRANCH  58  59
ENDBRANCH  26  51
BRANCH  38  63
ATOM     63  C   UNL A   1      49.556  26.577  26.173  1.00  0.00     0.058 A 
ATOM     64  C   UNL A   1      50.033  26.860  24.884  1.00  0.00     0.135 A 
ATOM     65  C   UNL A   1      50.400  25.882  27.051  1.00  0.00     0.135 A 
ATOM     66  F   UNL A   1      49.258  27.515  24.005  1.00  0.00    -0.206 F 
ATOM     67  C   UNL A   1      51.295  26.446  24.471  1.00  0.00     0.059 A 
ATOM     68  C   UNL A   1      51.675  25.477  26.666  1.00  0.00     0.059 A 
ATOM     69  F   UNL A   1      49.993  25.594  28.297  1.00  0.00    -0.206 F 
ATOM     70  C   UNL A   1      52.107  25.753  25.370  1.00  0.00     0.060 A 
BRANCH  70  71
ATOM     71  S   UNL A   1      53.754  25.238  24.833  1.00  0.00     0.124 S 
ATOM     72  O   UNL A   1      53.809  25.793  23.486  1.00  0.00    -0.237 OA
ATOM     73  O   UNL A   1      54.620  25.878  25.819  1.00  0.00    -0.237 OA
ATOM     74  O   UNL A   1      53.694  23.782  24.913  1.00  0.00    -0.744 OA
ENDBRANCH  70  71
ENDBRANCH  38  63
ENDBRANCH  12  13
ENDBRANCH   5   7
ENDBRANCH   2   3
ENDBRANCH   1   2
BRANCH   1  75
ATOM     75  C   UNL A   1      33.373  31.589  27.706  1.00  0.00     0.023 C 
BRANCH  75  76
ATOM     76  C   UNL A   1      32.701  32.958  27.771  1.00  0.00     0.116 C 
BRANCH  76  77
ATOM     77  N   UNL A   1      33.673  34.036  27.722  1.00  0.00    -0.354 N 
ATOM     78  C   UNL A   1      34.021  34.941  28.679  1.00  0.00     0.243 C 
ATOM     79  H   UNL A   1      34.153  34.126  26.868  1.00  0.00     0.163 HD
ATOM     80  O   UNL A   1      34.964  35.703  28.444  1.00  0.00    -0.273 OA
BRANCH  78  81
ATOM     81  C   UNL A   1      33.245  35.015  30.003  1.00  0.00     0.183 C 
ATOM     82  C   UNL A   1      32.672  36.418  30.157  1.00  0.00     0.046 C 
ATOM     83  N   UNL A   1      34.174  34.860  31.108  1.00  0.00    -0.266 N 
ATOM     84  C   UNL A   1      32.830  36.717  31.631  1.00  0.00     0.103 C 
ATOM     85  C   UNL A   1      34.043  35.914  32.024  1.00  0.00     0.230 C 
ATOM     86  O   UNL A   1      34.704  36.151  33.023  1.00  0.00    -0.274 OA
BRANCH  83  87
ATOM     87  C   UNL A   1      34.823  33.640  31.244  1.00  0.00     0.253 C 
ATOM     88  O   UNL A   1      34.223  32.564  31.207  1.00  0.00    -0.269 OA
BRANCH  87  89
ATOM     89  C   UNL A   1      36.291  33.617  31.413  1.00  0.00     0.072 C 
ATOM     90  C   UNL A   1      37.119  33.774  30.369  1.00  0.00     0.014 C 
BRANCH  90  91
ATOM     91  C   UNL A   1      38.590  33.835  30.435  1.00  0.00    -0.025 A 
ATOM     92  C   UNL A   1      39.246  33.018  31.369  1.00  0.00     0.008 A 
ATOM     93  C   UNL A   1      39.372  34.664  29.618  1.00  0.00     0.008 A 
ATOM     94  C   UNL A   1      40.639  33.024  31.479  1.00  0.00     0.001 A 
ATOM     95  C   UNL A   1      40.766  34.671  29.727  1.00  0.00     0.001 A 
ATOM     96  C   UNL A   1      41.400  33.850  30.657  1.00  0.00     0.000 A 
ENDBRANCH  90  91
ENDBRANCH  87  89
ENDBRANCH  83  87
ENDBRANCH  78  81
ENDBRANCH  76  77
ENDBRANCH  75  76
ENDBRANCH   1  75
TORSDOF 17
ENDMDL
MODEL 2
REMARK VINA RESULT:     -10.9      4.971     11.104
REMARK SMILES O=C(NCCCCNC(=O)[C@@H]1CCC(=O)N1C(=O)/C=C/c1ccccc1)c1ccc(-c2c3nc(c(-c4c(F)cc(S(=O)(=O)[O-])cc4F)c4ccc([nH]4)c(-c4c(F)cc(S(=O)(=O)[O-])cc4F)c4nc(c(-c5c(F)cc(S(=O)(=O)[O-])cc5F)c5ccc2[nH]5)C=C4)C=C3)cc1
REMARK SMILES IDX 5 1 4 2 3 3 1 4 2 5 27 7 28 8 92 9 29 10 91 11 30 12 31 13
REMARK SMILES IDX 32 14 85 15 33 16 90 17 84 18 86 19 34 20 89 21 83 22 82 23
REMARK SMILES IDX 35 25 69 26 48 27 68 28 49 29 52 30 67 31 87 32 50 33 51 34
REMARK SMILES IDX 66 36 88 37 53 38 36 39 37 40 46 41 38 42 39 43 45 44 47 45
REMARK SMILES IDX 40 46 41 47 42 48 43 49 44 50 70 51 71 52 80 53 72 54 73 55
REMARK SMILES IDX 79 56 81 57 74 58 75 59 76 60 77 61 78 62 54 63 55 64 64 65
REMARK SMILES IDX 56 66 57 67 63 68 65 69 58 70 59 71 60 72 61 73 62 74 6 75
REMARK SMILES IDX 7 76 8 77 9 78 10 80 11 81 12 82 16 83 13 84 14 85 15 86
REMARK SMILES IDX 17 87 18 88 19 89 20 90 21 91 22 92 26 93 23 94 25 95 24 96
REMARK H PARENT 3 6 86 24 52 35 8 79
REMARK Flexibility Score: inf
ROOT
ATOM      1  C   UNL A   1      38.216  20.007  24.984  1.00  0.00     0.023 C 
ENDROOT
BRANCH   1   2
ATOM      2  C   UNL A   1      39.315  20.298  25.999  1.00  0.00     0.116 C 
BRANCH   2   3
ATOM      3  N   UNL A   1      40.315  19.244  26.071  1.00  0.00    -0.352 N 
ATOM      4  O   UNL A   1      42.389  18.361  26.120  1.00  0.00    -0.269 OA
ATOM      5  C   UNL A   1      41.678  19.356  26.217  1.00  0.00     0.251 C 
ATOM      6  H   UNL A   1      39.968  18.324  26.006  1.00  0.00     0.163 HD
BRANCH   5   7
ATOM      7  C   UNL A   1      42.278  20.686  26.457  1.00  0.00     0.039 A 
ATOM      8  C   UNL A   1      42.483  21.149  27.759  1.00  0.00     0.014 A 
ATOM      9  C   UNL A   1      42.630  21.483  25.364  1.00  0.00     0.014 A 
ATOM     10  C   UNL A   1      42.911  22.455  27.967  1.00  0.00     0.010 A 
ATOM     11  C   UNL A   1      43.131  22.770  25.576  1.00  0.00     0.010 A 
ATOM     12  C   UNL A   1      43.246  23.278  26.879  1.00  0.00    -0.014 A 
BRANCH  12  13
ATOM     13  C   UNL A   1      43.768  24.644  27.136  1.00  0.00     0.031 A 
ATOM     14  C   UNL A   1      45.213  24.984  26.898  1.00  0.00     0.074 A 
ATOM     15  C   UNL A   1      42.909  25.591  27.561  1.00  0.00     0.049 A 
ATOM     16  N   UNL A   1      45.822  26.133  27.050  1.00  0.00    -0.248 NA
ATOM     17  C   UNL A   1      46.092  23.897  26.439  1.00  0.00     0.031 C 
ATOM     18  C   UNL A   1      41.489  25.371  27.845  1.00  0.00     0.029 A 
ATOM     19  N   UNL A   1      43.095  26.925  27.814  1.00  0.00    -0.354 N 
ATOM     20  C   UNL A   1      47.155  25.906  26.726  1.00  0.00     0.074 A 
ATOM     21  C   UNL A   1      47.271  24.503  26.387  1.00  0.00     0.031 C 
ATOM     22  C   UNL A   1      40.924  26.536  28.192  1.00  0.00     0.029 A 
ATOM     23  C   UNL A   1      41.948  27.573  28.205  1.00  0.00     0.049 A 
ATOM     24  H   UNL A   1      43.965  27.375  27.724  1.00  0.00     0.167 HD
ATOM     25  C   UNL A   1      48.182  26.789  26.709  1.00  0.00     0.037 A 
ATOM     26  C   UNL A   1      41.743  28.859  28.550  1.00  0.00     0.037 A 
ATOM     27  C   UNL A   1      48.054  28.189  27.029  1.00  0.00     0.049 A 
ATOM     28  C   UNL A   1      42.896  29.817  28.511  1.00  0.00     0.074 A 
ATOM     29  C   UNL A   1      49.029  29.172  27.003  1.00  0.00     0.029 A 
ATOM     30  N   UNL A   1      46.878  28.806  27.430  1.00  0.00    -0.354 N 
ATOM     31  N   UNL A   1      44.143  29.589  28.176  1.00  0.00    -0.248 NA
ATOM     32  C   UNL A   1      42.616  31.206  28.899  1.00  0.00     0.031 C 
ATOM     33  C   UNL A   1      48.451  30.376  27.421  1.00  0.00     0.029 A 
ATOM     34  C   UNL A   1      47.106  30.151  27.671  1.00  0.00     0.049 A 
ATOM     35  H   UNL A   1      46.009  28.355  27.530  1.00  0.00     0.167 HD
ATOM     36  C   UNL A   1      44.798  30.807  28.306  1.00  0.00     0.074 A 
ATOM     37  C   UNL A   1      43.804  31.773  28.730  1.00  0.00     0.031 C 
ATOM     38  C   UNL A   1      46.106  31.097  28.099  1.00  0.00     0.037 A 
BRANCH  25  39
ATOM     39  C   UNL A   1      49.546  26.270  26.345  1.00  0.00     0.058 A 
ATOM     40  C   UNL A   1      50.079  26.437  25.058  1.00  0.00     0.135 A 
ATOM     41  C   UNL A   1      50.350  25.641  27.310  1.00  0.00     0.135 A 
ATOM     42  F   UNL A   1      49.349  27.019  24.094  1.00  0.00    -0.206 F 
ATOM     43  C   UNL A   1      51.355  25.982  24.734  1.00  0.00     0.059 A 
ATOM     44  C   UNL A   1      51.636  25.196  27.014  1.00  0.00     0.059 A 
ATOM     45  F   UNL A   1      49.888  25.456  28.557  1.00  0.00    -0.206 F 
ATOM     46  C   UNL A   1      52.124  25.360  25.719  1.00  0.00     0.060 A 
BRANCH  46  47
ATOM     47  S   UNL A   1      53.778  24.779  25.286  1.00  0.00     0.124 S 
ATOM     48  O   UNL A   1      53.529  23.363  25.028  1.00  0.00    -0.237 OA
ATOM     49  O   UNL A   1      54.101  25.589  24.116  1.00  0.00    -0.237 OA
ATOM     50  O   UNL A   1      54.564  25.069  26.482  1.00  0.00    -0.744 OA
ENDBRANCH  46  47
ENDBRANCH  25  39
BRANCH  26  51
ATOM     51  C   UNL A   1      40.385  29.297  28.958  1.00  0.00     0.058 A 
ATOM     52  C   UNL A   1      40.075  29.531  30.305  1.00  0.00     0.135 A 
ATOM     53  C   UNL A   1      39.386  29.537  28.003  1.00  0.00     0.135 A 
ATOM     54  F   UNL A   1      40.998  29.313  31.254  1.00  0.00    -0.206 F 
ATOM     55  C   UNL A   1      38.820  29.986  30.692  1.00  0.00     0.059 A 
ATOM     56  C   UNL A   1      38.130  30.014  28.363  1.00  0.00     0.059 A 
ATOM     57  F   UNL A   1      39.642  29.344  26.699  1.00  0.00    -0.206 F 
ATOM     58  C   UNL A   1      37.855  30.228  29.713  1.00  0.00     0.060 A 
BRANCH  58  59
ATOM     59  S   UNL A   1      36.250  30.887  30.213  1.00  0.00     0.124 S 
ATOM     60  O   UNL A   1      35.899  29.996  31.313  1.00  0.00    -0.237 OA
ATOM     61  O   UNL A   1      36.579  32.260  30.583  1.00  0.00    -0.237 OA
ATOM     62  O   UNL A   1      35.442  30.750  29.005  1.00  0.00    -0.744 OA
ENDBRANCH  58  59
ENDBRANCH  26  51
BRANCH  38  63
ATOM     63  C   UNL A   1      46.530  32.521  28.318  1.00  0.00     0.058 A 
ATOM     64  C   UNL A   1      46.442  33.476  27.293  1.00  0.00     0.135 A 
ATOM     65  C   UNL A   1      47.000  32.940  29.571  1.00  0.00     0.135 A 
ATOM     66  F   UNL A   1      46.006  33.121  26.075  1.00  0.00    -0.206 F 
ATOM     67  C   UNL A   1      46.829  34.796  27.498  1.00  0.00     0.059 A 
ATOM     68  C   UNL A   1      47.373  34.260  29.805  1.00  0.00     0.059 A 
ATOM     69  F   UNL A   1      47.095  32.065  30.585  1.00  0.00    -0.206 F 
ATOM     70  C   UNL A   1      47.296  35.177  28.757  1.00  0.00     0.060 A 
BRANCH  70  71
ATOM     71  S   UNL A   1      47.777  36.898  29.021  1.00  0.00     0.124 S 
ATOM     72  O   UNL A   1      46.950  37.587  28.037  1.00  0.00    -0.237 OA
ATOM     73  O   UNL A   1      47.414  37.116  30.418  1.00  0.00    -0.237 OA
ATOM     74  O   UNL A   1      49.210  36.894  28.746  1.00  0.00    -0.744 OA
ENDBRANCH  70  71
ENDBRANCH  38  63
ENDBRANCH  12  13
ENDBRANCH   5   7
ENDBRANCH   2   3
ENDBRANCH   1   2
BRANCH   1  75
ATOM     75  C   UNL A   1      37.297  21.187  24.657  1.00  0.00     0.023 C 
BRANCH  75  76
ATOM     76  C   UNL A   1      35.899  21.093  25.263  1.00  0.00     0.116 C 
BRANCH  76  77
ATOM     77  N   UNL A   1      35.471  22.362  25.825  1.00  0.00    -0.354 N 
ATOM     78  C   UNL A   1      34.552  23.255  25.363  1.00  0.00     0.243 C 
ATOM     79  H   UNL A   1      35.912  22.615  26.668  1.00  0.00     0.163 HD
ATOM     80  O   UNL A   1      34.271  24.222  26.077  1.00  0.00    -0.273 OA
BRANCH  78  81
ATOM     81  C   UNL A   1      33.901  23.063  23.985  1.00  0.00     0.183 C 
ATOM     82  C   UNL A   1      34.193  24.291  23.131  1.00  0.00     0.046 C 
ATOM     83  N   UNL A   1      32.457  23.043  24.139  1.00  0.00    -0.266 N 
ATOM     84  C   UNL A   1      32.910  24.515  22.362  1.00  0.00     0.103 C 
ATOM     85  C   UNL A   1      31.849  23.975  23.286  1.00  0.00     0.230 C 
ATOM     86  O   UNL A   1      30.671  24.284  23.200  1.00  0.00    -0.274 OA
BRANCH  83  87
ATOM     87  C   UNL A   1      31.896  21.990  24.850  1.00  0.00     0.253 C 
ATOM     88  O   UNL A   1      31.114  22.166  25.786  1.00  0.00    -0.269 OA
BRANCH  87  89
ATOM     89  C   UNL A   1      32.220  20.602  24.460  1.00  0.00     0.072 C 
ATOM     90  C   UNL A   1      32.886  19.780  25.284  1.00  0.00     0.014 C 
BRANCH  90  91
ATOM     91  C   UNL A   1      33.202  18.364  25.023  1.00  0.00    -0.025 A 
ATOM     92  C   UNL A   1      32.517  17.385  25.760  1.00  0.00     0.008 A 
ATOM     93  C   UNL A   1      34.152  17.939  24.083  1.00  0.00     0.008 A 
ATOM     94  C   UNL A   1      32.765  16.025  25.558  1.00  0.00     0.001 A 
ATOM     95  C   UNL A   1      34.401  16.578  23.880  1.00  0.00     0.001 A 
ATOM     96  C   UNL A   1      33.707  15.621  24.617  1.00  0.00     0.000 A 
ENDBRANCH  90  91
ENDBRANCH  87  89
ENDBRANCH  83  87
ENDBRANCH  78  81
ENDBRANCH  76  77
ENDBRANCH  75  76
ENDBRANCH   1  75
TORSDOF 17
ENDMDL
MODEL 3
REMARK VINA RESULT:     -10.9      5.781     13.917
REMARK SMILES O=C(NCCCCNC(=O)[C@@H]1CCC(=O)N1C(=O)/C=C/c1ccccc1)c1ccc(-c2c3nc(c(-c4c(F)cc(S(=O)(=O)[O-])cc4F)c4ccc([nH]4)c(-c4c(F)cc(S(=O)(=O)[O-])cc4F)c4nc(c(-c5c(F)cc(S(=O)(=O)[O-])cc5F)c5ccc2[nH]5)C=C4)C=C3)cc1
REMARK SMILES IDX 5 1 4 2 3 3 1 4 2 5 27 7 28 8 92 9 29 10 91 11 30 12 31 13
REMARK SMILES IDX 32 14 85 15 33 16 90 17 84 18 86 19 34 20 89 21 83 22 82 23
REMARK SMILES IDX 35 25 69 26 48 27 68 28 49 29 52 30 67 31 87 32 50 33 51 34
REMARK SMILES IDX 66 36 88 37 53 38 36 39 37 40 46 41 38 42 39 43 45 44 47 45
REMARK SMILES IDX 40 46 41 47 42 48 43 49 44 50 70 51 71 52 80 53 72 54 73 55
REMARK SMILES IDX 79 56 81 57 74 58 75 59 76 60 77 61 78 62 54 63 55 64 64 65
REMARK SMILES IDX 56 66 57 67 63 68 65 69 58 70 59 71 60 72 61 73 62 74 6 75
REMARK SMILES IDX 7 76 8 77 9 78 10 80 11 81 12 82 16 83 13 84 14 85 15 86
REMARK SMILES IDX 17 87 18 88 19 89 20 90 21 91 22 92 26 93 23 94 25 95 24 96
REMARK H PARENT 3 6 86 24 52 35 8 79
REMARK Flexibility Score: inf
ROOT
ATOM      1  C   UNL A   1      45.835  26.018  24.965  1.00  0.00     0.023 C 
ENDROOT
BRANCH   1   2
ATOM      2  C   UNL A   1      44.585  26.356  25.770  1.00  0.00     0.116 C 
BRANCH   2   3
ATOM      3  N   UNL A   1      43.365  25.846  25.164  1.00  0.00    -0.352 N 
ATOM      4  O   UNL A   1      41.169  25.348  25.042  1.00  0.00    -0.269 OA
ATOM      5  C   UNL A   1      42.068  25.961  25.609  1.00  0.00     0.251 C 
ATOM      6  H   UNL A   1      43.484  25.349  24.322  1.00  0.00     0.163 HD
BRANCH   5   7
ATOM      7  C   UNL A   1      41.774  26.801  26.790  1.00  0.00     0.039 A 
ATOM      8  C   UNL A   1      41.951  28.185  26.740  1.00  0.00     0.014 A 
ATOM      9  C   UNL A   1      41.325  26.191  27.964  1.00  0.00     0.014 A 
ATOM     10  C   UNL A   1      41.811  28.941  27.898  1.00  0.00     0.010 A 
ATOM     11  C   UNL A   1      41.112  26.964  29.110  1.00  0.00     0.010 A 
ATOM     12  C   UNL A   1      41.383  28.341  29.094  1.00  0.00    -0.014 A 
BRANCH  12  13
ATOM     13  C   UNL A   1      41.174  29.186  30.296  1.00  0.00     0.031 A 
ATOM     14  C   UNL A   1      42.119  29.129  31.464  1.00  0.00     0.074 A 
ATOM     15  C   UNL A   1      40.129  30.037  30.310  1.00  0.00     0.049 A 
ATOM     16  N   UNL A   1      42.092  29.817  32.577  1.00  0.00    -0.248 NA
ATOM     17  C   UNL A   1      43.234  28.173  31.379  1.00  0.00     0.031 C 
ATOM     18  C   UNL A   1      39.135  30.164  29.241  1.00  0.00     0.029 A 
ATOM     19  N   UNL A   1      39.737  30.963  31.240  1.00  0.00    -0.354 N 
ATOM     20  C   UNL A   1      43.168  29.367  33.333  1.00  0.00     0.074 A 
ATOM     21  C   UNL A   1      43.820  28.330  32.559  1.00  0.00     0.031 C 
ATOM     22  C   UNL A   1      38.272  31.141  29.557  1.00  0.00     0.029 A 
ATOM     23  C   UNL A   1      38.619  31.672  30.870  1.00  0.00     0.049 A 
ATOM     24  H   UNL A   1      40.208  31.106  32.092  1.00  0.00     0.167 HD
ATOM     25  C   UNL A   1      43.575  29.784  34.556  1.00  0.00     0.037 A 
ATOM     26  C   UNL A   1      37.939  32.637  31.517  1.00  0.00     0.037 A 
ATOM     27  C   UNL A   1      42.933  30.831  35.311  1.00  0.00     0.049 A 
ATOM     28  C   UNL A   1      38.419  33.088  32.865  1.00  0.00     0.074 A 
ATOM     29  C   UNL A   1      43.294  31.352  36.542  1.00  0.00     0.029 A 
ATOM     30  N   UNL A   1      41.799  31.519  34.906  1.00  0.00    -0.354 N 
ATOM     31  N   UNL A   1      39.455  32.668  33.551  1.00  0.00    -0.248 NA
ATOM     32  C   UNL A   1      37.638  34.141  33.528  1.00  0.00     0.031 C 
ATOM     33  C   UNL A   1      42.360  32.330  36.897  1.00  0.00     0.029 A 
ATOM     34  C   UNL A   1      41.436  32.446  35.870  1.00  0.00     0.049 A 
ATOM     35  H   UNL A   1      41.320  31.370  34.059  1.00  0.00     0.167 HD
ATOM     36  C   UNL A   1      39.455  33.409  34.726  1.00  0.00     0.074 A 
ATOM     37  C   UNL A   1      38.329  34.318  34.647  1.00  0.00     0.031 C 
ATOM     38  C   UNL A   1      40.308  33.339  35.777  1.00  0.00     0.037 A 
BRANCH  25  39
ATOM     39  C   UNL A   1      44.767  29.101  35.168  1.00  0.00     0.058 A 
ATOM     40  C   UNL A   1      46.072  29.580  34.974  1.00  0.00     0.135 A 
ATOM     41  C   UNL A   1      44.598  27.983  36.001  1.00  0.00     0.135 A 
ATOM     42  F   UNL A   1      46.293  30.637  34.176  1.00  0.00    -0.206 F 
ATOM     43  C   UNL A   1      47.170  28.963  35.567  1.00  0.00     0.059 A 
ATOM     44  C   UNL A   1      45.679  27.361  36.621  1.00  0.00     0.059 A 
ATOM     45  F   UNL A   1      43.370  27.484  36.221  1.00  0.00    -0.206 F 
ATOM     46  C   UNL A   1      46.962  27.851  36.388  1.00  0.00     0.060 A 
BRANCH  46  47
ATOM     47  S   UNL A   1      48.394  27.063  37.155  1.00  0.00     0.124 S 
ATOM     48  O   UNL A   1      47.950  26.942  38.541  1.00  0.00    -0.237 OA
ATOM     49  O   UNL A   1      48.501  25.812  36.412  1.00  0.00    -0.237 OA
ATOM     50  O   UNL A   1      49.473  28.019  36.924  1.00  0.00    -0.744 OA
ENDBRANCH  46  47
ENDBRANCH  25  39
BRANCH  26  51
ATOM     51  C   UNL A   1      36.734  33.230  30.886  1.00  0.00     0.058 A 
ATOM     52  C   UNL A   1      35.452  32.970  31.389  1.00  0.00     0.135 A 
ATOM     53  C   UNL A   1      36.848  34.108  29.798  1.00  0.00     0.135 A 
ATOM     54  F   UNL A   1      35.294  32.135  32.427  1.00  0.00    -0.206 F 
ATOM     55  C   UNL A   1      34.321  33.558  30.832  1.00  0.00     0.059 A 
ATOM     56  C   UNL A   1      35.735  34.727  29.239  1.00  0.00     0.059 A 
ATOM     57  F   UNL A   1      38.058  34.402  29.294  1.00  0.00    -0.206 F 
ATOM     58  C   UNL A   1      34.474  34.439  29.760  1.00  0.00     0.060 A 
BRANCH  58  59
ATOM     59  S   UNL A   1      33.011  35.255  29.086  1.00  0.00     0.124 S 
ATOM     60  O   UNL A   1      32.537  34.262  28.129  1.00  0.00    -0.237 OA
ATOM     61  O   UNL A   1      32.184  35.441  30.275  1.00  0.00    -0.237 OA
ATOM     62  O   UNL A   1      33.550  36.483  28.510  1.00  0.00    -0.744 OA
ENDBRANCH  58  59
ENDBRANCH  26  51
BRANCH  38  63
ATOM     63  C   UNL A   1      40.059  34.281  36.920  1.00  0.00     0.058 A 
ATOM     64  C   UNL A   1      40.467  35.622  36.864  1.00  0.00     0.135 A 
ATOM     65  C   UNL A   1      39.380  33.845  38.067  1.00  0.00     0.135 A 
ATOM     66  F   UNL A   1      41.126  36.084  35.790  1.00  0.00    -0.206 F 
ATOM     67  C   UNL A   1      40.231  36.496  37.920  1.00  0.00     0.059 A 
ATOM     68  C   UNL A   1      39.115  34.707  39.127  1.00  0.00     0.059 A 
ATOM     69  F   UNL A   1      38.963  32.573  38.165  1.00  0.00    -0.206 F 
ATOM     70  C   UNL A   1      39.556  36.027  39.049  1.00  0.00     0.060 A 
BRANCH  70  71
ATOM     71  S   UNL A   1      39.234  37.173  40.407  1.00  0.00     0.124 S 
ATOM     72  O   UNL A   1      40.586  37.454  40.878  1.00  0.00    -0.237 OA
ATOM     73  O   UNL A   1      38.555  38.276  39.734  1.00  0.00    -0.237 OA
ATOM     74  O   UNL A   1      38.400  36.393  41.316  1.00  0.00    -0.744 OA
ENDBRANCH  70  71
ENDBRANCH  38  63
ENDBRANCH  12  13
ENDBRANCH   5   7
ENDBRANCH   2   3
ENDBRANCH   1   2
BRANCH   1  75
ATOM     75  C   UNL A   1      46.891  25.196  25.709  1.00  0.00     0.023 C 
BRANCH  75  76
ATOM     76  C   UNL A   1      46.762  23.685  25.532  1.00  0.00     0.116 C 
BRANCH  76  77
ATOM     77  N   UNL A   1      45.917  23.346  24.402  1.00  0.00    -0.354 N 
ATOM     78  C   UNL A   1      45.068  22.295  24.230  1.00  0.00     0.243 C 
ATOM     79  H   UNL A   1      45.966  23.972  23.643  1.00  0.00     0.163 HD
ATOM     80  O   UNL A   1      44.363  22.276  23.217  1.00  0.00    -0.273 OA
BRANCH  78  81
ATOM     81  C   UNL A   1      45.010  21.162  25.266  1.00  0.00     0.183 C 
ATOM     82  C   UNL A   1      45.573  19.894  24.636  1.00  0.00     0.046 C 
ATOM     83  N   UNL A   1      43.621  20.857  25.559  1.00  0.00    -0.266 N 
ATOM     84  C   UNL A   1      44.683  18.795  25.171  1.00  0.00     0.103 C 
ATOM     85  C   UNL A   1      43.363  19.488  25.392  1.00  0.00     0.230 C 
ATOM     86  O   UNL A   1      42.302  18.890  25.476  1.00  0.00    -0.274 OA
BRANCH  83  87
ATOM     87  C   UNL A   1      42.861  21.834  26.187  1.00  0.00     0.253 C 
ATOM     88  O   UNL A   1      41.872  22.344  25.659  1.00  0.00    -0.269 OA
BRANCH  87  89
ATOM     89  C   UNL A   1      43.227  22.267  27.552  1.00  0.00     0.072 C 
ATOM     90  C   UNL A   1      43.970  23.363  27.764  1.00  0.00     0.014 C 
BRANCH  90  91
ATOM     91  C   UNL A   1      44.335  23.919  29.080  1.00  0.00    -0.025 A 
ATOM     92  C   UNL A   1      43.847  23.278  30.229  1.00  0.00     0.008 A 
ATOM     93  C   UNL A   1      45.141  25.054  29.248  1.00  0.00     0.008 A 
ATOM     94  C   UNL A   1      44.160  23.750  31.506  1.00  0.00     0.001 A 
ATOM     95  C   UNL A   1      45.455  25.528  30.526  1.00  0.00     0.001 A 
ATOM     96  C   UNL A   1      44.965  24.875  31.655  1.00  0.00     0.000 A 
ENDBRANCH  90  91
ENDBRANCH  87  89
ENDBRANCH  83  87
ENDBRANCH  78  81
ENDBRANCH  76  77
ENDBRANCH  75  76
ENDBRANCH   1  75
TORSDOF 17
ENDMDL
