MODEL 1
REMARK VINA RESULT:     -11.4      0.000      0.000
REMARK SMILES N#C/C(=C/c1cccc(OC2CCCC2)c1)C(=O)NCCCCNC(=O)c1ccc(-c2c3nc(c(-c4c(F)cc(S(=O)(=O)[O-])cc4F)c4ccc([nH]4)c(-c4c(F)cc(S(=O)(=O)[O-])cc4F)c4nc(c(-c5c(F)cc(S(=O)(=O)[O-])cc5F)c5ccc2[nH]5)C=C4)C=C3)cc1
REMARK SMILES IDX 21 1 20 2 19 3 17 4 18 5 3 7 4 8 2 9 1 10 5 11 6 12 16 13
REMARK SMILES IDX 7 14 9 15 8 16 10 17 11 18 12 19 15 20 13 21 14 22 22 23
REMARK SMILES IDX 23 24 24 25 25 26 26 28 27 29 28 30 92 31 29 32 91 33 30 34
REMARK SMILES IDX 31 35 32 36 85 37 33 38 90 39 84 40 86 41 34 42 89 43 83 44
REMARK SMILES IDX 82 45 35 47 69 48 48 49 68 50 49 51 52 52 67 53 87 54 50 55
REMARK SMILES IDX 51 56 66 58 88 59 53 60 36 61 37 62 46 63 38 64 39 65 45 66
REMARK SMILES IDX 47 67 40 68 41 69 42 70 43 71 44 72 70 73 71 74 80 75 72 76
REMARK SMILES IDX 73 77 79 78 81 79 74 80 75 81 76 82 77 83 78 84 54 85 55 86
REMARK SMILES IDX 64 87 56 88 57 89 63 90 65 91 58 92 59 93 60 94 61 95 62 96
REMARK H PARENT 19 6 24 27 86 46 52 57
REMARK Flexibility Score: inf
ROOT
ATOM      1  C   UNL A   1      35.238  30.397  27.656  1.00  0.00     0.023 C 
ENDROOT
BRANCH   1   2
ATOM      2  C   UNL A   1      34.028  30.031  26.800  1.00  0.00     0.116 C 
BRANCH   2   3
ATOM      3  N   UNL A   1      32.922  29.387  27.484  1.00  0.00    -0.351 N 
ATOM      4  C   UNL A   1      31.978  28.502  27.029  1.00  0.00     0.261 C 
ATOM      5  O   UNL A   1      31.182  28.047  27.854  1.00  0.00    -0.268 OA
ATOM      6  H   UNL A   1      32.833  29.625  28.435  1.00  0.00     0.163 HD
BRANCH   4   7
ATOM      7  C   UNL A   1      31.826  28.113  25.590  1.00  0.00     0.117 C 
ATOM      8  C   UNL A   1      32.250  27.007  24.930  1.00  0.00     0.033 C 
BRANCH   7   9
ATOM      9  C   UNL A   1      30.932  28.987  24.726  1.00  0.00     0.105 C 
ATOM     10  N   UNL A   1      30.190  29.712  24.009  1.00  0.00    -0.192 NA
ENDBRANCH   7   9
BRANCH   8  11
ATOM     11  C   UNL A   1      32.912  25.813  25.448  1.00  0.00    -0.020 A 
ATOM     12  C   UNL A   1      32.209  24.870  26.203  1.00  0.00     0.008 A 
ATOM     13  C   UNL A   1      34.262  25.604  25.150  1.00  0.00     0.054 A 
ATOM     14  C   UNL A   1      32.836  23.680  26.573  1.00  0.00     0.004 A 
ATOM     15  C   UNL A   1      34.875  24.393  25.455  1.00  0.00     0.120 A 
ATOM     16  C   UNL A   1      34.158  23.440  26.184  1.00  0.00     0.046 A 
BRANCH  15  17
ATOM     17  O   UNL A   1      36.123  24.013  25.065  1.00  0.00    -0.490 OA
BRANCH  17  18
ATOM     18  C   UNL A   1      37.058  23.412  25.960  1.00  0.00     0.173 C 
ATOM     19  C   UNL A   1      37.838  22.192  25.459  1.00  0.00     0.045 C 
ATOM     20  C   UNL A   1      38.075  24.377  26.579  1.00  0.00     0.045 C 
ATOM     21  C   UNL A   1      39.082  22.174  26.334  1.00  0.00     0.004 C 
ATOM     22  C   UNL A   1      39.415  23.644  26.555  1.00  0.00     0.004 C 
ENDBRANCH  17  18
ENDBRANCH  15  17
ENDBRANCH   8  11
ENDBRANCH   4   7
ENDBRANCH   2   3
ENDBRANCH   1   2
BRANCH   1  23
ATOM     23  C   UNL A   1      35.333  31.845  28.152  1.00  0.00     0.023 C 
BRANCH  23  24
ATOM     24  C   UNL A   1      35.905  32.106  29.548  1.00  0.00     0.116 C 
BRANCH  24  25
ATOM     25  N   UNL A   1      35.816  30.996  30.481  1.00  0.00    -0.352 N 
ATOM     26  C   UNL A   1      36.770  30.092  30.897  1.00  0.00     0.251 C 
ATOM     27  H   UNL A   1      34.926  30.870  30.884  1.00  0.00     0.163 HD
ATOM     28  O   UNL A   1      36.464  29.263  31.754  1.00  0.00    -0.269 OA
BRANCH  26  29
ATOM     29  C   UNL A   1      38.126  30.045  30.289  1.00  0.00     0.039 A 
ATOM     30  C   UNL A   1      39.232  30.187  31.137  1.00  0.00     0.014 A 
ATOM     31  C   UNL A   1      38.338  29.856  28.921  1.00  0.00     0.014 A 
ATOM     32  C   UNL A   1      40.529  30.016  30.639  1.00  0.00     0.010 A 
ATOM     33  C   UNL A   1      39.631  29.622  28.435  1.00  0.00     0.010 A 
ATOM     34  C   UNL A   1      40.738  29.664  29.296  1.00  0.00    -0.014 A 
BRANCH  34  35
ATOM     35  C   UNL A   1      42.090  29.244  28.827  1.00  0.00     0.031 A 
ATOM     36  C   UNL A   1      43.228  30.223  28.713  1.00  0.00     0.074 A 
ATOM     37  C   UNL A   1      42.280  27.962  28.450  1.00  0.00     0.049 A 
ATOM     38  N   UNL A   1      44.458  30.013  28.314  1.00  0.00    -0.248 NA
ATOM     39  C   UNL A   1      42.946  31.619  29.078  1.00  0.00     0.031 C 
ATOM     40  C   UNL A   1      41.246  26.923  28.440  1.00  0.00     0.029 A 
ATOM     41  N   UNL A   1      43.402  27.310  27.997  1.00  0.00    -0.354 N 
ATOM     42  C   UNL A   1      45.099  31.244  28.383  1.00  0.00     0.074 A 
ATOM     43  C   UNL A   1      44.106  32.207  28.814  1.00  0.00     0.031 C 
ATOM     44  C   UNL A   1      41.786  25.766  28.024  1.00  0.00     0.029 A 
ATOM     45  C   UNL A   1      43.194  25.981  27.713  1.00  0.00     0.049 A 
ATOM     46  H   UNL A   1      44.274  27.755  27.886  1.00  0.00     0.167 HD
ATOM     47  C   UNL A   1      46.399  31.542  28.133  1.00  0.00     0.037 A 
ATOM     48  C   UNL A   1      44.038  25.036  27.255  1.00  0.00     0.037 A 
ATOM     49  C   UNL A   1      47.391  30.587  27.708  1.00  0.00     0.049 A 
ATOM     50  C   UNL A   1      45.479  25.386  27.011  1.00  0.00     0.074 A 
ATOM     51  C   UNL A   1      48.739  30.796  27.457  1.00  0.00     0.029 A 
ATOM     52  N   UNL A   1      47.150  29.241  27.472  1.00  0.00    -0.354 N 
ATOM     53  N   UNL A   1      46.077  26.546  27.139  1.00  0.00    -0.248 NA
ATOM     54  C   UNL A   1      46.364  24.296  26.573  1.00  0.00     0.031 C 
ATOM     55  C   UNL A   1      49.305  29.583  27.048  1.00  0.00     0.029 A 
ATOM     56  C   UNL A   1      48.320  28.611  27.076  1.00  0.00     0.049 A 
ATOM     57  H   UNL A   1      46.277  28.799  27.572  1.00  0.00     0.167 HD
ATOM     58  C   UNL A   1      47.410  26.323  26.812  1.00  0.00     0.074 A 
ATOM     59  C   UNL A   1      47.536  24.914  26.503  1.00  0.00     0.031 C 
ATOM     60  C   UNL A   1      48.436  27.208  26.769  1.00  0.00     0.037 A 
BRANCH  47  61
ATOM     61  C   UNL A   1      46.834  32.968  28.336  1.00  0.00     0.058 A 
ATOM     62  C   UNL A   1      46.754  33.907  27.294  1.00  0.00     0.135 A 
ATOM     63  C   UNL A   1      47.283  33.416  29.587  1.00  0.00     0.135 A 
ATOM     64  F   UNL A   1      46.341  33.528  26.074  1.00  0.00    -0.206 F 
ATOM     65  C   UNL A   1      47.129  35.233  27.479  1.00  0.00     0.059 A 
ATOM     66  C   UNL A   1      47.643  34.744  29.801  1.00  0.00     0.059 A 
ATOM     67  F   UNL A   1      47.375  32.562  30.618  1.00  0.00    -0.206 F 
ATOM     68  C   UNL A   1      47.576  35.642  28.736  1.00  0.00     0.060 A 
BRANCH  68  69
ATOM     69  S   UNL A   1      48.056  37.368  28.962  1.00  0.00     0.124 S 
ATOM     70  O   UNL A   1      49.510  37.280  28.862  1.00  0.00    -0.237 OA
ATOM     71  O   UNL A   1      47.384  38.029  27.847  1.00  0.00    -0.237 OA
ATOM     72  O   UNL A   1      47.535  37.695  30.285  1.00  0.00    -0.744 OA
ENDBRANCH  68  69
ENDBRANCH  47  61
BRANCH  48  73
ATOM     73  C   UNL A   1      43.545  23.654  27.013  1.00  0.00     0.058 A 
ATOM     74  C   UNL A   1      43.262  23.203  25.715  1.00  0.00     0.135 A 
ATOM     75  C   UNL A   1      43.349  22.758  28.075  1.00  0.00     0.135 A 
ATOM     76  F   UNL A   1      43.430  24.025  24.669  1.00  0.00    -0.206 F 
ATOM     77  C   UNL A   1      42.778  21.921  25.479  1.00  0.00     0.059 A 
ATOM     78  C   UNL A   1      42.888  21.463  27.862  1.00  0.00     0.059 A 
ATOM     79  F   UNL A   1      43.624  23.137  29.333  1.00  0.00    -0.206 F 
ATOM     80  C   UNL A   1      42.592  21.058  26.561  1.00  0.00     0.060 A 
BRANCH  80  81
ATOM     81  S   UNL A   1      42.001  19.381  26.247  1.00  0.00     0.124 S 
ATOM     82  O   UNL A   1      40.568  19.599  26.095  1.00  0.00    -0.237 OA
ATOM     83  O   UNL A   1      42.726  19.019  25.032  1.00  0.00    -0.237 OA
ATOM     84  O   UNL A   1      42.408  18.656  27.447  1.00  0.00    -0.744 OA
ENDBRANCH  80  81
ENDBRANCH  48  73
BRANCH  60  85
ATOM     85  C   UNL A   1      49.788  26.670  26.391  1.00  0.00     0.058 A 
ATOM     86  C   UNL A   1      50.653  26.117  27.348  1.00  0.00     0.135 A 
ATOM     87  C   UNL A   1      50.217  26.694  25.054  1.00  0.00     0.135 A 
ATOM     88  F   UNL A   1      50.292  26.075  28.640  1.00  0.00    -0.206 F 
ATOM     89  C   UNL A   1      51.910  25.635  26.999  1.00  0.00     0.059 A 
ATOM     90  C   UNL A   1      51.462  26.198  24.679  1.00  0.00     0.059 A 
ATOM     91  F   UNL A   1      49.425  27.205  24.098  1.00  0.00    -0.206 F 
ATOM     92  C   UNL A   1      52.309  25.685  25.662  1.00  0.00     0.060 A 
BRANCH  92  93
ATOM     93  S   UNL A   1      53.939  25.050  25.215  1.00  0.00     0.124 S 
ATOM     94  O   UNL A   1      54.686  25.269  26.449  1.00  0.00    -0.237 OA
ATOM     95  O   UNL A   1      53.656  23.656  24.885  1.00  0.00    -0.237 OA
ATOM     96  O   UNL A   1      54.330  25.887  24.086  1.00  0.00    -0.744 OA
ENDBRANCH  92  93
ENDBRANCH  60  85
ENDBRANCH  34  35
ENDBRANCH  26  29
ENDBRANCH  24  25
ENDBRANCH  23  24
ENDBRANCH   1  23
TORSDOF 18
ENDMDL
MODEL 2
REMARK VINA RESULT:     -11.2      1.015      2.014
REMARK SMILES N#C/C(=C/c1cccc(OC2CCCC2)c1)C(=O)NCCCCNC(=O)c1ccc(-c2c3nc(c(-c4c(F)cc(S(=O)(=O)[O-])cc4F)c4ccc([nH]4)c(-c4c(F)cc(S(=O)(=O)[O-])cc4F)c4nc(c(-c5c(F)cc(S(=O)(=O)[O-])cc5F)c5ccc2[nH]5)C=C4)C=C3)cc1
REMARK SMILES IDX 21 1 20 2 19 3 17 4 18 5 3 7 4 8 2 9 1 10 5 11 6 12 16 13
REMARK SMILES IDX 7 14 9 15 8 16 10 17 11 18 12 19 15 20 13 21 14 22 22 23
REMARK SMILES IDX 23 24 24 25 25 26 26 28 27 29 28 30 92 31 29 32 91 33 30 34
REMARK SMILES IDX 31 35 32 36 85 37 33 38 90 39 84 40 86 41 34 42 89 43 83 44
REMARK SMILES IDX 82 45 35 47 69 48 48 49 68 50 49 51 52 52 67 53 87 54 50 55
REMARK SMILES IDX 51 56 66 58 88 59 53 60 36 61 37 62 46 63 38 64 39 65 45 66
REMARK SMILES IDX 47 67 40 68 41 69 42 70 43 71 44 72 70 73 71 74 80 75 72 76
REMARK SMILES IDX 73 77 79 78 81 79 74 80 75 81 76 82 77 83 78 84 54 85 55 86
REMARK SMILES IDX 64 87 56 88 57 89 63 90 65 91 58 92 59 93 60 94 61 95 62 96
REMARK H PARENT 19 6 24 27 86 46 52 57
REMARK Flexibility Score: inf
ROOT
ATOM      1  C   UNL A   1      33.405  28.475  27.205  1.00  0.00     0.023 C 
ENDROOT
BRANCH   1   2
ATOM      2  C   UNL A   1      31.891  28.413  27.017  1.00  0.00     0.116 C 
BRANCH   2   3
ATOM      3  N   UNL A   1      31.276  27.105  27.140  1.00  0.00    -0.351 N 
ATOM      4  C   UNL A   1      31.064  26.120  26.209  1.00  0.00     0.261 C 
ATOM      5  O   UNL A   1      30.577  25.060  26.606  1.00  0.00    -0.268 OA
ATOM      6  H   UNL A   1      30.955  26.886  28.046  1.00  0.00     0.163 HD
BRANCH   4   7
ATOM      7  C   UNL A   1      31.332  26.287  24.745  1.00  0.00     0.117 C 
ATOM      8  C   UNL A   1      32.021  25.500  23.883  1.00  0.00     0.033 C 
BRANCH   7   9
ATOM      9  C   UNL A   1      30.614  27.422  24.033  1.00  0.00     0.105 C 
ATOM     10  N   UNL A   1      30.017  28.364  23.443  1.00  0.00    -0.192 NA
ENDBRANCH   7   9
BRANCH   8  11
ATOM     11  C   UNL A   1      32.639  24.197  24.106  1.00  0.00    -0.020 A 
ATOM     12  C   UNL A   1      31.864  23.034  24.175  1.00  0.00     0.008 A 
ATOM     13  C   UNL A   1      34.030  24.116  24.219  1.00  0.00     0.054 A 
ATOM     14  C   UNL A   1      32.494  21.793  24.262  1.00  0.00     0.004 A 
ATOM     15  C   UNL A   1      34.669  22.881  24.236  1.00  0.00     0.120 A 
ATOM     16  C   UNL A   1      33.890  21.720  24.275  1.00  0.00     0.046 A 
BRANCH  15  17
ATOM     17  O   UNL A   1      36.014  22.680  24.172  1.00  0.00    -0.490 OA
BRANCH  17  18
ATOM     18  C   UNL A   1      36.827  22.537  25.336  1.00  0.00     0.173 C 
ATOM     19  C   UNL A   1      38.078  21.659  25.227  1.00  0.00     0.045 C 
ATOM     20  C   UNL A   1      37.254  23.854  25.995  1.00  0.00     0.045 C 
ATOM     21  C   UNL A   1      38.976  22.169  26.342  1.00  0.00     0.004 C 
ATOM     22  C   UNL A   1      38.719  23.670  26.385  1.00  0.00     0.004 C 
ENDBRANCH  17  18
ENDBRANCH  15  17
ENDBRANCH   8  11
ENDBRANCH   4   7
ENDBRANCH   2   3
ENDBRANCH   1   2
BRANCH   1  23
ATOM     23  C   UNL A   1      34.095  29.808  26.895  1.00  0.00     0.023 C 
BRANCH  23  24
ATOM     24  C   UNL A   1      35.360  30.178  27.674  1.00  0.00     0.116 C 
BRANCH  24  25
ATOM     25  N   UNL A   1      35.345  29.848  29.088  1.00  0.00    -0.352 N 
ATOM     26  C   UNL A   1      36.380  29.673  29.983  1.00  0.00     0.251 C 
ATOM     27  H   UNL A   1      34.446  29.732  29.473  1.00  0.00     0.163 HD
ATOM     28  O   UNL A   1      36.110  29.452  31.163  1.00  0.00    -0.269 OA
BRANCH  26  29
ATOM     29  C   UNL A   1      37.802  29.672  29.547  1.00  0.00     0.039 A 
ATOM     30  C   UNL A   1      38.790  29.534  30.530  1.00  0.00     0.014 A 
ATOM     31  C   UNL A   1      38.186  29.790  28.208  1.00  0.00     0.014 A 
ATOM     32  C   UNL A   1      40.134  29.391  30.164  1.00  0.00     0.010 A 
ATOM     33  C   UNL A   1      39.521  29.583  27.839  1.00  0.00     0.010 A 
ATOM     34  C   UNL A   1      40.505  29.346  28.811  1.00  0.00    -0.014 A 
BRANCH  34  35
ATOM     35  C   UNL A   1      41.889  28.949  28.420  1.00  0.00     0.031 A 
ATOM     36  C   UNL A   1      43.005  29.955  28.332  1.00  0.00     0.074 A 
ATOM     37  C   UNL A   1      42.130  27.663  28.090  1.00  0.00     0.049 A 
ATOM     38  N   UNL A   1      44.258  29.769  27.998  1.00  0.00    -0.248 NA
ATOM     39  C   UNL A   1      42.669  31.353  28.641  1.00  0.00     0.031 C 
ATOM     40  C   UNL A   1      41.125  26.596  28.061  1.00  0.00     0.029 A 
ATOM     41  N   UNL A   1      43.289  27.030  27.711  1.00  0.00    -0.354 N 
ATOM     42  C   UNL A   1      44.862  31.018  28.061  1.00  0.00     0.074 A 
ATOM     43  C   UNL A   1      43.825  31.965  28.416  1.00  0.00     0.031 C 
ATOM     44  C   UNL A   1      41.714  25.443  27.706  1.00  0.00     0.029 A 
ATOM     45  C   UNL A   1      43.130  25.688  27.456  1.00  0.00     0.049 A 
ATOM     46  H   UNL A   1      44.154  27.495  27.629  1.00  0.00     0.167 HD
ATOM     47  C   UNL A   1      46.165  31.345  27.865  1.00  0.00     0.037 A 
ATOM     48  C   UNL A   1      44.020  24.754  27.067  1.00  0.00     0.037 A 
ATOM     49  C   UNL A   1      47.201  30.405  27.516  1.00  0.00     0.049 A 
ATOM     50  C   UNL A   1      45.461  25.137  26.882  1.00  0.00     0.074 A 
ATOM     51  C   UNL A   1      48.553  30.644  27.324  1.00  0.00     0.029 A 
ATOM     52  N   UNL A   1      47.007  29.048  27.309  1.00  0.00    -0.354 N 
ATOM     53  N   UNL A   1      46.021  26.316  27.004  1.00  0.00    -0.248 NA
ATOM     54  C   UNL A   1      46.395  24.060  26.519  1.00  0.00     0.031 C 
ATOM     55  C   UNL A   1      49.170  29.437  26.979  1.00  0.00     0.029 A 
ATOM     56  C   UNL A   1      48.211  28.439  26.988  1.00  0.00     0.049 A 
ATOM     57  H   UNL A   1      46.142  28.584  27.380  1.00  0.00     0.167 HD
ATOM     58  C   UNL A   1      47.375  26.120  26.749  1.00  0.00     0.074 A 
ATOM     59  C   UNL A   1      47.552  24.707  26.488  1.00  0.00     0.031 C 
ATOM     60  C   UNL A   1      48.378  27.032  26.729  1.00  0.00     0.037 A 
BRANCH  47  61
ATOM     61  C   UNL A   1      46.551  32.787  28.046  1.00  0.00     0.058 A 
ATOM     62  C   UNL A   1      47.082  33.249  29.262  1.00  0.00     0.135 A 
ATOM     63  C   UNL A   1      46.442  33.704  26.990  1.00  0.00     0.135 A 
ATOM     64  F   UNL A   1      47.198  32.416  30.308  1.00  0.00    -0.206 F 
ATOM     65  C   UNL A   1      47.466  34.574  29.431  1.00  0.00     0.059 A 
ATOM     66  C   UNL A   1      46.841  35.031  27.130  1.00  0.00     0.059 A 
ATOM     67  F   UNL A   1      45.945  33.315  25.805  1.00  0.00    -0.206 F 
ATOM     68  C   UNL A   1      47.340  35.459  28.360  1.00  0.00     0.060 A 
BRANCH  68  69
ATOM     69  S   UNL A   1      47.847  37.177  28.594  1.00  0.00     0.124 S 
ATOM     70  O   UNL A   1      48.456  37.120  29.920  1.00  0.00    -0.237 OA
ATOM     71  O   UNL A   1      48.769  37.386  27.482  1.00  0.00    -0.237 OA
ATOM     72  O   UNL A   1      46.592  37.916  28.511  1.00  0.00    -0.744 OA
ENDBRANCH  68  69
ENDBRANCH  47  61
BRANCH  48  73
ATOM     73  C   UNL A   1      43.576  23.352  26.843  1.00  0.00     0.058 A 
ATOM     74  C   UNL A   1      43.258  22.513  27.921  1.00  0.00     0.135 A 
ATOM     75  C   UNL A   1      43.460  22.827  25.547  1.00  0.00     0.135 A 
ATOM     76  F   UNL A   1      43.358  22.970  29.178  1.00  0.00    -0.206 F 
ATOM     77  C   UNL A   1      42.864  21.193  27.724  1.00  0.00     0.059 A 
ATOM     78  C   UNL A   1      43.047  21.518  25.324  1.00  0.00     0.059 A 
ATOM     79  F   UNL A   1      43.735  23.597  24.483  1.00  0.00    -0.206 F 
ATOM     80  C   UNL A   1      42.764  20.704  26.421  1.00  0.00     0.060 A 
BRANCH  80  81
ATOM     81  S   UNL A   1      42.214  19.003  26.168  1.00  0.00     0.124 S 
ATOM     82  O   UNL A   1      42.412  18.432  27.495  1.00  0.00    -0.237 OA
ATOM     83  O   UNL A   1      40.827  19.183  25.750  1.00  0.00    -0.237 OA
ATOM     84  O   UNL A   1      43.114  18.514  25.127  1.00  0.00    -0.744 OA
ENDBRANCH  80  81
ENDBRANCH  48  73
BRANCH  60  85
ATOM     85  C   UNL A   1      49.760  26.521  26.431  1.00  0.00     0.058 A 
ATOM     86  C   UNL A   1      50.297  26.566  25.135  1.00  0.00     0.135 A 
ATOM     87  C   UNL A   1      50.562  25.994  27.457  1.00  0.00     0.135 A 
ATOM     88  F   UNL A   1      49.569  27.054  24.119  1.00  0.00    -0.206 F 
ATOM     89  C   UNL A   1      51.570  26.077  24.859  1.00  0.00     0.059 A 
ATOM     90  C   UNL A   1      51.846  25.520  27.207  1.00  0.00     0.059 A 
ATOM     91  F   UNL A   1      50.099  25.936  28.715  1.00  0.00    -0.206 F 
ATOM     92  C   UNL A   1      52.336  25.550  25.901  1.00  0.00     0.060 A 
BRANCH  92  93
ATOM     93  S   UNL A   1      53.990  24.925  25.536  1.00  0.00     0.124 S 
ATOM     94  O   UNL A   1      53.742  23.492  25.419  1.00  0.00    -0.237 OA
ATOM     95  O   UNL A   1      54.321  25.613  24.292  1.00  0.00    -0.237 OA
ATOM     96  O   UNL A   1      54.771  25.336  26.698  1.00  0.00    -0.744 OA
ENDBRANCH  92  93
ENDBRANCH  60  85
ENDBRANCH  34  35
ENDBRANCH  26  29
ENDBRANCH  24  25
ENDBRANCH  23  24
ENDBRANCH   1  23
TORSDOF 18
ENDMDL
MODEL 3
REMARK VINA RESULT:     -11.1      3.423      4.578
REMARK SMILES N#C/C(=C/c1cccc(OC2CCCC2)c1)C(=O)NCCCCNC(=O)c1ccc(-c2c3nc(c(-c4c(F)cc(S(=O)(=O)[O-])cc4F)c4ccc([nH]4)c(-c4c(F)cc(S(=O)(=O)[O-])cc4F)c4nc(c(-c5c(F)cc(S(=O)(=O)[O-])cc5F)c5ccc2[nH]5)C=C4)C=C3)cc1
REMARK SMILES IDX 21 1 20 2 19 3 17 4 18 5 3 7 4 8 2 9 1 10 5 11 6 12 16 13
REMARK SMILES IDX 7 14 9 15 8 16 10 17 11 18 12 19 15 20 13 21 14 22 22 23
REMARK SMILES IDX 23 24 24 25 25 26 26 28 27 29 28 30 92 31 29 32 91 33 30 34
REMARK SMILES IDX 31 35 32 36 85 37 33 38 90 39 84 40 86 41 34 42 89 43 83 44
REMARK SMILES IDX 82 45 35 47 69 48 48 49 68 50 49 51 52 52 67 53 87 54 50 55
REMARK SMILES IDX 51 56 66 58 88 59 53 60 36 61 37 62 46 63 38 64 39 65 45 66
REMARK SMILES IDX 47 67 40 68 41 69 42 70 43 71 44 72 70 73 71 74 80 75 72 76
REMARK SMILES IDX 73 77 79 78 81 79 74 80 75 81 76 82 77 83 78 84 54 85 55 86
REMARK SMILES IDX 64 87 56 88 57 89 63 90 65 91 58 92 59 93 60 94 61 95 62 96
REMARK H PARENT 19 6 24 27 86 46 52 57
REMARK Flexibility Score: inf
ROOT
ATOM      1  C   UNL A   1      32.281  27.687  25.010  1.00  0.00     0.023 C 
ENDROOT
BRANCH   1   2
ATOM      2  C   UNL A   1      31.934  26.274  25.474  1.00  0.00     0.116 C 
BRANCH   2   3
ATOM      3  N   UNL A   1      31.015  25.525  24.639  1.00  0.00    -0.351 N 
ATOM      4  C   UNL A   1      31.245  24.692  23.574  1.00  0.00     0.261 C 
ATOM      5  O   UNL A   1      30.271  24.116  23.083  1.00  0.00    -0.268 OA
ATOM      6  H   UNL A   1      30.065  25.632  24.876  1.00  0.00     0.163 HD
BRANCH   4   7
ATOM      7  C   UNL A   1      32.590  24.495  22.945  1.00  0.00     0.117 C 
ATOM      8  C   UNL A   1      33.627  23.707  23.319  1.00  0.00     0.033 C 
BRANCH   7   9
ATOM      9  C   UNL A   1      32.822  25.141  21.589  1.00  0.00     0.105 C 
ATOM     10  N   UNL A   1      33.015  25.677  20.464  1.00  0.00    -0.192 NA
ENDBRANCH   7   9
BRANCH   8  11
ATOM     11  C   UNL A   1      33.712  22.738  24.408  1.00  0.00    -0.020 A 
ATOM     12  C   UNL A   1      34.272  23.087  25.641  1.00  0.00     0.008 A 
ATOM     13  C   UNL A   1      33.193  21.455  24.216  1.00  0.00     0.054 A 
ATOM     14  C   UNL A   1      34.223  22.181  26.699  1.00  0.00     0.004 A 
ATOM     15  C   UNL A   1      33.077  20.570  25.282  1.00  0.00     0.120 A 
ATOM     16  C   UNL A   1      33.612  20.935  26.521  1.00  0.00     0.046 A 
BRANCH  15  17
ATOM     17  O   UNL A   1      32.439  19.368  25.253  1.00  0.00    -0.490 OA
BRANCH  17  18
ATOM     18  C   UNL A   1      33.137  18.124  25.292  1.00  0.00     0.173 C 
ATOM     19  C   UNL A   1      32.304  16.843  25.400  1.00  0.00     0.045 C 
ATOM     20  C   UNL A   1      34.147  17.913  24.157  1.00  0.00     0.045 C 
ATOM     21  C   UNL A   1      33.219  15.767  24.838  1.00  0.00     0.004 C 
ATOM     22  C   UNL A   1      33.979  16.461  23.714  1.00  0.00     0.004 C 
ENDBRANCH  17  18
ENDBRANCH  15  17
ENDBRANCH   8  11
ENDBRANCH   4   7
ENDBRANCH   2   3
ENDBRANCH   1   2
BRANCH   1  23
ATOM     23  C   UNL A   1      32.306  28.788  26.076  1.00  0.00     0.023 C 
BRANCH  23  24
ATOM     24  C   UNL A   1      33.659  29.246  26.626  1.00  0.00     0.116 C 
BRANCH  24  25
ATOM     25  N   UNL A   1      33.619  30.387  27.522  1.00  0.00    -0.352 N 
ATOM     26  C   UNL A   1      34.588  30.918  28.348  1.00  0.00     0.251 C 
ATOM     27  H   UNL A   1      32.756  30.862  27.544  1.00  0.00     0.163 HD
ATOM     28  O   UNL A   1      34.330  31.943  28.979  1.00  0.00    -0.269 OA
BRANCH  26  29
ATOM     29  C   UNL A   1      35.901  30.249  28.548  1.00  0.00     0.039 A 
ATOM     30  C   UNL A   1      36.791  30.212  27.468  1.00  0.00     0.014 A 
ATOM     31  C   UNL A   1      36.281  29.673  29.763  1.00  0.00     0.014 A 
ATOM     32  C   UNL A   1      38.089  29.717  27.640  1.00  0.00     0.010 A 
ATOM     33  C   UNL A   1      37.599  29.236  29.953  1.00  0.00     0.010 A 
ATOM     34  C   UNL A   1      38.527  29.287  28.903  1.00  0.00    -0.014 A 
BRANCH  34  35
ATOM     35  C   UNL A   1      39.971  28.993  29.141  1.00  0.00     0.031 A 
ATOM     36  C   UNL A   1      40.905  30.027  29.711  1.00  0.00     0.074 A 
ATOM     37  C   UNL A   1      40.457  27.784  28.790  1.00  0.00     0.049 A 
ATOM     38  N   UNL A   1      42.185  29.927  29.968  1.00  0.00    -0.248 NA
ATOM     39  C   UNL A   1      40.333  31.347  30.016  1.00  0.00     0.031 C 
ATOM     40  C   UNL A   1      39.679  26.712  28.161  1.00  0.00     0.029 A 
ATOM     41  N   UNL A   1      41.718  27.250  28.904  1.00  0.00    -0.354 N 
ATOM     42  C   UNL A   1      42.574  31.164  30.468  1.00  0.00     0.074 A 
ATOM     43  C   UNL A   1      41.402  32.015  30.430  1.00  0.00     0.031 C 
ATOM     44  C   UNL A   1      40.474  25.647  27.964  1.00  0.00     0.029 A 
ATOM     45  C   UNL A   1      41.820  25.964  28.428  1.00  0.00     0.049 A 
ATOM     46  H   UNL A   1      42.477  27.743  29.291  1.00  0.00     0.167 HD
ATOM     47  C   UNL A   1      43.787  31.550  30.937  1.00  0.00     0.037 A 
ATOM     48  C   UNL A   1      42.874  25.128  28.369  1.00  0.00     0.037 A 
ATOM     49  C   UNL A   1      44.954  30.705  30.980  1.00  0.00     0.049 A 
ATOM     50  C   UNL A   1      44.201  25.570  28.919  1.00  0.00     0.074 A 
ATOM     51  C   UNL A   1      46.219  31.005  31.464  1.00  0.00     0.029 A 
ATOM     52  N   UNL A   1      45.006  29.395  30.528  1.00  0.00    -0.354 N 
ATOM     53  N   UNL A   1      44.530  26.726  29.442  1.00  0.00    -0.248 NA
ATOM     54  C   UNL A   1      45.297  24.589  28.884  1.00  0.00     0.031 C 
ATOM     55  C   UNL A   1      47.039  29.885  31.282  1.00  0.00     0.029 A 
ATOM     56  C   UNL A   1      46.278  28.876  30.716  1.00  0.00     0.049 A 
ATOM     57  H   UNL A   1      44.250  28.906  30.131  1.00  0.00     0.167 HD
ATOM     58  C   UNL A   1      45.866  26.608  29.812  1.00  0.00     0.074 A 
ATOM     59  C   UNL A   1      46.277  25.261  29.474  1.00  0.00     0.031 C 
ATOM     60  C   UNL A   1      46.678  27.535  30.376  1.00  0.00     0.037 A 
BRANCH  47  61
ATOM     61  C   UNL A   1      43.911  32.952  31.467  1.00  0.00     0.058 A 
ATOM     62  C   UNL A   1      43.665  33.241  32.819  1.00  0.00     0.135 A 
ATOM     63  C   UNL A   1      44.325  34.005  30.638  1.00  0.00     0.135 A 
ATOM     64  F   UNL A   1      43.256  32.272  33.653  1.00  0.00    -0.206 F 
ATOM     65  C   UNL A   1      43.802  34.530  33.324  1.00  0.00     0.059 A 
ATOM     66  C   UNL A   1      44.490  35.299  31.126  1.00  0.00     0.059 A 
ATOM     67  F   UNL A   1      44.577  33.784  29.338  1.00  0.00    -0.206 F 
ATOM     68  C   UNL A   1      44.212  35.553  32.469  1.00  0.00     0.060 A 
BRANCH  68  69
ATOM     69  S   UNL A   1      44.388  37.220  33.141  1.00  0.00     0.124 S 
ATOM     70  O   UNL A   1      43.530  37.149  34.320  1.00  0.00    -0.237 OA
ATOM     71  O   UNL A   1      45.821  37.302  33.406  1.00  0.00    -0.237 OA
ATOM     72  O   UNL A   1      43.904  38.074  32.062  1.00  0.00    -0.744 OA
ENDBRANCH  68  69
ENDBRANCH  47  61
BRANCH  48  73
ATOM     73  C   UNL A   1      42.715  23.771  27.780  1.00  0.00     0.058 A 
ATOM     74  C   UNL A   1      42.501  22.649  28.595  1.00  0.00     0.135 A 
ATOM     75  C   UNL A   1      42.774  23.571  26.393  1.00  0.00     0.135 A 
ATOM     76  F   UNL A   1      42.442  22.790  29.928  1.00  0.00    -0.206 F 
ATOM     77  C   UNL A   1      42.374  21.373  28.058  1.00  0.00     0.059 A 
ATOM     78  C   UNL A   1      42.627  22.307  25.831  1.00  0.00     0.059 A 
ATOM     79  F   UNL A   1      42.958  24.616  25.571  1.00  0.00    -0.206 F 
ATOM     80  C   UNL A   1      42.441  21.212  26.673  1.00  0.00     0.060 A 
BRANCH  80  81
ATOM     81  S   UNL A   1      42.237  19.558  25.976  1.00  0.00     0.124 S 
ATOM     82  O   UNL A   1      43.144  19.608  24.835  1.00  0.00    -0.237 OA
ATOM     83  O   UNL A   1      42.650  18.702  27.084  1.00  0.00    -0.237 OA
ATOM     84  O   UNL A   1      40.814  19.508  25.653  1.00  0.00    -0.744 OA
ENDBRANCH  80  81
ENDBRANCH  48  73
BRANCH  60  85
ATOM     85  C   UNL A   1      48.089  27.113  30.681  1.00  0.00     0.058 A 
ATOM     86  C   UNL A   1      48.441  26.573  31.928  1.00  0.00     0.135 A 
ATOM     87  C   UNL A   1      49.096  27.235  29.710  1.00  0.00     0.135 A 
ATOM     88  F   UNL A   1      47.516  26.440  32.892  1.00  0.00    -0.206 F 
ATOM     89  C   UNL A   1      49.750  26.199  32.214  1.00  0.00     0.059 A 
ATOM     90  C   UNL A   1      50.407  26.847  29.967  1.00  0.00     0.059 A 
ATOM     91  F   UNL A   1      48.810  27.737  28.499  1.00  0.00    -0.206 F 
ATOM     92  C   UNL A   1      50.728  26.345  31.229  1.00  0.00     0.060 A 
BRANCH  92  93
ATOM     93  S   UNL A   1      52.423  25.849  31.605  1.00  0.00     0.124 S 
ATOM     94  O   UNL A   1      52.232  24.476  32.060  1.00  0.00    -0.237 OA
ATOM     95  O   UNL A   1      53.091  26.001  30.316  1.00  0.00    -0.237 OA
ATOM     96  O   UNL A   1      52.834  26.801  32.632  1.00  0.00    -0.744 OA
ENDBRANCH  92  93
ENDBRANCH  60  85
ENDBRANCH  34  35
ENDBRANCH  26  29
ENDBRANCH  24  25
ENDBRANCH  23  24
ENDBRANCH   1  23
TORSDOF 18
ENDMDL
