MODEL 1
REMARK VINA RESULT:     -11.1      0.000      0.000
REMARK SMILES O=C(NCCCCNC(=O)C1CCN(S(=O)(=O)C2CC2)CC1)c1ccc(-c2c3nc(c(-c4c(F)cc(S(=O)(=O)[O-])cc4F)c4ccc([nH]4)c(-c4c(F)cc(S(=O)(=O)[O-])cc4F)c4nc(c(-c5c(F)cc(S(=O)(=O)[O-])cc5F)c5ccc2[nH]5)C=C4)C=C3)cc1
REMARK SMILES IDX 5 1 4 2 3 3 1 4 2 5 23 7 24 8 88 9 25 10 87 11 26 12 27 13
REMARK SMILES IDX 28 14 81 15 29 16 86 17 80 18 82 19 30 20 85 21 79 22 78 23
REMARK SMILES IDX 31 25 65 26 44 27 64 28 45 29 48 30 63 31 83 32 46 33 47 34
REMARK SMILES IDX 62 36 84 37 49 38 32 39 33 40 42 41 34 42 35 43 41 44 43 45
REMARK SMILES IDX 36 46 37 47 38 48 39 49 40 50 66 51 67 52 76 53 68 54 69 55
REMARK SMILES IDX 75 56 77 57 70 58 71 59 72 60 73 61 74 62 50 63 51 64 60 65
REMARK SMILES IDX 52 66 53 67 59 68 61 69 54 70 55 71 56 72 57 73 58 74 6 75
REMARK SMILES IDX 7 76 8 77 9 78 10 80 11 81 12 82 22 83 13 84 21 85 14 86
REMARK SMILES IDX 15 87 16 88 17 89 18 90 19 91 20 92
REMARK H PARENT 3 6 82 24 48 35 8 79
REMARK Flexibility Score: inf
ROOT
ATOM      1  C   UNL A   1      41.657  22.038  27.524  1.00  0.00     0.023 C 
ENDROOT
BRANCH   1   2
ATOM      2  C   UNL A   1      42.558  23.221  27.200  1.00  0.00     0.116 C 
BRANCH   2   3
ATOM      3  N   UNL A   1      42.086  24.004  26.066  1.00  0.00    -0.352 N 
ATOM      4  O   UNL A   1      41.057  25.718  25.017  1.00  0.00    -0.269 OA
ATOM      5  C   UNL A   1      41.521  25.259  26.055  1.00  0.00     0.251 C 
ATOM      6  H   UNL A   1      42.187  23.577  25.184  1.00  0.00     0.163 HD
BRANCH   5   7
ATOM      7  C   UNL A   1      41.450  26.027  27.316  1.00  0.00     0.039 A 
ATOM      8  C   UNL A   1      40.409  25.800  28.218  1.00  0.00     0.014 A 
ATOM      9  C   UNL A   1      42.399  27.021  27.572  1.00  0.00     0.014 A 
ATOM     10  C   UNL A   1      40.205  26.688  29.264  1.00  0.00     0.010 A 
ATOM     11  C   UNL A   1      42.254  27.841  28.695  1.00  0.00     0.010 A 
ATOM     12  C   UNL A   1      41.130  27.713  29.526  1.00  0.00    -0.014 A 
BRANCH  12  13
ATOM     13  C   UNL A   1      40.910  28.599  30.700  1.00  0.00     0.031 A 
ATOM     14  C   UNL A   1      41.791  28.521  31.919  1.00  0.00     0.074 A 
ATOM     15  C   UNL A   1      39.926  29.517  30.635  1.00  0.00     0.049 A 
ATOM     16  N   UNL A   1      41.760  29.253  33.004  1.00  0.00    -0.248 NA
ATOM     17  C   UNL A   1      42.836  27.484  31.931  1.00  0.00     0.031 C 
ATOM     18  C   UNL A   1      39.002  29.680  29.508  1.00  0.00     0.029 A 
ATOM     19  N   UNL A   1      39.549  30.499  31.514  1.00  0.00    -0.354 N 
ATOM     20  C   UNL A   1      42.755  28.752  33.836  1.00  0.00     0.074 A 
ATOM     21  C   UNL A   1      43.359  27.636  33.140  1.00  0.00     0.031 C 
ATOM     22  C   UNL A   1      38.213  30.739  29.734  1.00  0.00     0.029 A 
ATOM     23  C   UNL A   1      38.519  31.283  31.051  1.00  0.00     0.049 A 
ATOM     24  H   UNL A   1      39.976  30.631  32.391  1.00  0.00     0.167 HD
ATOM     25  C   UNL A   1      43.132  29.189  35.064  1.00  0.00     0.037 A 
ATOM     26  C   UNL A   1      37.877  32.317  31.625  1.00  0.00     0.037 A 
ATOM     27  C   UNL A   1      42.533  30.314  35.739  1.00  0.00     0.049 A 
ATOM     28  C   UNL A   1      38.302  32.764  32.994  1.00  0.00     0.074 A 
ATOM     29  C   UNL A   1      42.875  30.863  36.964  1.00  0.00     0.029 A 
ATOM     30  N   UNL A   1      41.466  31.057  35.256  1.00  0.00    -0.354 N 
ATOM     31  N   UNL A   1      39.270  32.302  33.749  1.00  0.00    -0.248 NA
ATOM     32  C   UNL A   1      37.543  33.869  33.592  1.00  0.00     0.031 C 
ATOM     33  C   UNL A   1      41.977  31.898  37.247  1.00  0.00     0.029 A 
ATOM     34  C   UNL A   1      41.116  32.038  36.171  1.00  0.00     0.049 A 
ATOM     35  H   UNL A   1      41.021  30.908  34.391  1.00  0.00     0.167 HD
ATOM     36  C   UNL A   1      39.256  33.080  34.900  1.00  0.00     0.074 A 
ATOM     37  C   UNL A   1      38.192  34.049  34.733  1.00  0.00     0.031 C 
ATOM     38  C   UNL A   1      40.054  32.999  35.994  1.00  0.00     0.037 A 
BRANCH  25  39
ATOM     39  C   UNL A   1      44.223  28.430  35.778  1.00  0.00     0.058 A 
ATOM     40  C   UNL A   1      43.946  27.366  36.650  1.00  0.00     0.135 A 
ATOM     41  C   UNL A   1      45.573  28.750  35.551  1.00  0.00     0.135 A 
ATOM     42  F   UNL A   1      42.676  27.021  36.916  1.00  0.00    -0.206 F 
ATOM     43  C   UNL A   1      44.964  26.670  37.298  1.00  0.00     0.059 A 
ATOM     44  C   UNL A   1      46.607  28.049  36.163  1.00  0.00     0.059 A 
ATOM     45  F   UNL A   1      45.899  29.755  34.723  1.00  0.00    -0.206 F 
ATOM     46  C   UNL A   1      46.292  27.020  37.050  1.00  0.00     0.060 A 
BRANCH  46  47
ATOM     47  S   UNL A   1      47.600  26.115  37.905  1.00  0.00     0.124 S 
ATOM     48  O   UNL A   1      47.550  24.823  37.229  1.00  0.00    -0.237 OA
ATOM     49  O   UNL A   1      48.777  26.931  37.626  1.00  0.00    -0.237 OA
ATOM     50  O   UNL A   1      47.159  26.111  39.297  1.00  0.00    -0.744 OA
ENDBRANCH  46  47
ENDBRANCH  25  39
BRANCH  26  51
ATOM     51  C   UNL A   1      36.773  32.999  30.899  1.00  0.00     0.058 A 
ATOM     52  C   UNL A   1      35.435  32.787  31.258  1.00  0.00     0.135 A 
ATOM     53  C   UNL A   1      37.036  33.895  29.850  1.00  0.00     0.135 A 
ATOM     54  F   UNL A   1      35.132  31.939  32.252  1.00  0.00    -0.206 F 
ATOM     55  C   UNL A   1      34.393  33.426  30.593  1.00  0.00     0.059 A 
ATOM     56  C   UNL A   1      36.015  34.571  29.192  1.00  0.00     0.059 A 
ATOM     57  F   UNL A   1      38.302  34.148  29.482  1.00  0.00    -0.206 F 
ATOM     58  C   UNL A   1      34.695  34.320  29.563  1.00  0.00     0.060 A 
BRANCH  58  59
ATOM     59  S   UNL A   1      33.338  35.180  28.740  1.00  0.00     0.124 S 
ATOM     60  O   UNL A   1      32.768  34.115  27.925  1.00  0.00    -0.237 OA
ATOM     61  O   UNL A   1      32.529  35.626  29.870  1.00  0.00    -0.237 OA
ATOM     62  O   UNL A   1      34.014  36.245  28.004  1.00  0.00    -0.744 OA
ENDBRANCH  58  59
ENDBRANCH  26  51
BRANCH  38  63
ATOM     63  C   UNL A   1      39.834  34.018  37.079  1.00  0.00     0.058 A 
ATOM     64  C   UNL A   1      39.105  33.721  38.241  1.00  0.00     0.135 A 
ATOM     65  C   UNL A   1      40.380  35.307  36.960  1.00  0.00     0.135 A 
ATOM     66  F   UNL A   1      38.553  32.508  38.402  1.00  0.00    -0.206 F 
ATOM     67  C   UNL A   1      38.895  34.676  39.231  1.00  0.00     0.059 A 
ATOM     68  C   UNL A   1      40.211  36.267  37.953  1.00  0.00     0.059 A 
ATOM     69  F   UNL A   1      41.093  35.642  35.874  1.00  0.00    -0.206 F 
ATOM     70  C   UNL A   1      39.451  35.947  39.077  1.00  0.00     0.060 A 
BRANCH  70  71
ATOM     71  S   UNL A   1      39.185  37.173  40.375  1.00  0.00     0.124 S 
ATOM     72  O   UNL A   1      38.541  38.252  39.632  1.00  0.00    -0.237 OA
ATOM     73  O   UNL A   1      38.330  36.452  41.314  1.00  0.00    -0.237 OA
ATOM     74  O   UNL A   1      40.532  37.459  40.855  1.00  0.00    -0.744 OA
ENDBRANCH  70  71
ENDBRANCH  38  63
ENDBRANCH  12  13
ENDBRANCH   5   7
ENDBRANCH   2   3
ENDBRANCH   1   2
BRANCH   1  75
ATOM     75  C   UNL A   1      41.155  21.258  26.312  1.00  0.00     0.023 C 
BRANCH  75  76
ATOM     76  C   UNL A   1      39.643  21.057  26.264  1.00  0.00     0.116 C 
BRANCH  76  77
ATOM     77  N   UNL A   1      38.926  22.313  26.373  1.00  0.00    -0.356 N 
ATOM     78  C   UNL A   1      37.826  22.746  25.698  1.00  0.00     0.223 C 
ATOM     79  H   UNL A   1      39.287  22.946  27.034  1.00  0.00     0.163 HD
ATOM     80  O   UNL A   1      37.330  23.819  26.033  1.00  0.00    -0.275 OA
BRANCH  78  81
ATOM     81  C   UNL A   1      37.254  21.892  24.572  1.00  0.00     0.081 C 
ATOM     82  C   UNL A   1      36.656  22.746  23.451  1.00  0.00     0.030 C 
ATOM     83  C   UNL A   1      36.209  20.909  25.100  1.00  0.00     0.030 C 
ATOM     84  C   UNL A   1      35.318  23.368  23.840  1.00  0.00     0.103 C 
ATOM     85  C   UNL A   1      34.887  21.588  25.455  1.00  0.00     0.103 C 
ATOM     86  N   UNL A   1      34.352  22.297  24.256  1.00  0.00    -0.202 NA
BRANCH  86  87
ATOM     87  S   UNL A   1      32.765  22.954  24.439  1.00  0.00     0.216 S 
ATOM     88  O   UNL A   1      32.767  24.271  23.838  1.00  0.00    -0.212 OA
ATOM     89  O   UNL A   1      31.842  21.938  23.974  1.00  0.00    -0.212 OA
BRANCH  87  90
ATOM     90  C   UNL A   1      32.290  23.191  26.175  1.00  0.00     0.124 C 
ATOM     91  C   UNL A   1      31.411  24.361  26.501  1.00  0.00     0.022 C 
ATOM     92  C   UNL A   1      30.838  22.965  26.495  1.00  0.00     0.022 C 
ENDBRANCH  87  90
ENDBRANCH  86  87
ENDBRANCH  78  81
ENDBRANCH  76  77
ENDBRANCH  75  76
ENDBRANCH   1  75
TORSDOF 16
ENDMDL
MODEL 2
REMARK VINA RESULT:     -11.1      0.669      1.444
REMARK SMILES O=C(NCCCCNC(=O)C1CCN(S(=O)(=O)C2CC2)CC1)c1ccc(-c2c3nc(c(-c4c(F)cc(S(=O)(=O)[O-])cc4F)c4ccc([nH]4)c(-c4c(F)cc(S(=O)(=O)[O-])cc4F)c4nc(c(-c5c(F)cc(S(=O)(=O)[O-])cc5F)c5ccc2[nH]5)C=C4)C=C3)cc1
REMARK SMILES IDX 5 1 4 2 3 3 1 4 2 5 23 7 24 8 88 9 25 10 87 11 26 12 27 13
REMARK SMILES IDX 28 14 81 15 29 16 86 17 80 18 82 19 30 20 85 21 79 22 78 23
REMARK SMILES IDX 31 25 65 26 44 27 64 28 45 29 48 30 63 31 83 32 46 33 47 34
REMARK SMILES IDX 62 36 84 37 49 38 32 39 33 40 42 41 34 42 35 43 41 44 43 45
REMARK SMILES IDX 36 46 37 47 38 48 39 49 40 50 66 51 67 52 76 53 68 54 69 55
REMARK SMILES IDX 75 56 77 57 70 58 71 59 72 60 73 61 74 62 50 63 51 64 60 65
REMARK SMILES IDX 52 66 53 67 59 68 61 69 54 70 55 71 56 72 57 73 58 74 6 75
REMARK SMILES IDX 7 76 8 77 9 78 10 80 11 81 12 82 22 83 13 84 21 85 14 86
REMARK SMILES IDX 15 87 16 88 17 89 18 90 19 91 20 92
REMARK H PARENT 3 6 82 24 48 35 8 79
REMARK Flexibility Score: inf
ROOT
ATOM      1  C   UNL A   1      41.234  22.064  28.019  1.00  0.00     0.023 C 
ENDROOT
BRANCH   1   2
ATOM      2  C   UNL A   1      42.274  23.170  27.900  1.00  0.00     0.116 C 
BRANCH   2   3
ATOM      3  N   UNL A   1      42.297  23.791  26.583  1.00  0.00    -0.352 N 
ATOM      4  O   UNL A   1      41.902  25.392  25.041  1.00  0.00    -0.269 OA
ATOM      5  C   UNL A   1      41.947  25.073  26.224  1.00  0.00     0.251 C 
ATOM      6  H   UNL A   1      42.608  23.215  25.847  1.00  0.00     0.163 HD
BRANCH   5   7
ATOM      7  C   UNL A   1      41.591  26.045  27.280  1.00  0.00     0.039 A 
ATOM      8  C   UNL A   1      42.395  27.162  27.505  1.00  0.00     0.014 A 
ATOM      9  C   UNL A   1      40.475  25.807  28.087  1.00  0.00     0.014 A 
ATOM     10  C   UNL A   1      42.203  27.925  28.648  1.00  0.00     0.010 A 
ATOM     11  C   UNL A   1      40.216  26.648  29.173  1.00  0.00     0.010 A 
ATOM     12  C   UNL A   1      41.104  27.688  29.492  1.00  0.00    -0.014 A 
BRANCH  12  13
ATOM     13  C   UNL A   1      40.894  28.573  30.668  1.00  0.00     0.031 A 
ATOM     14  C   UNL A   1      41.787  28.498  31.878  1.00  0.00     0.074 A 
ATOM     15  C   UNL A   1      39.906  29.489  30.612  1.00  0.00     0.049 A 
ATOM     16  N   UNL A   1      41.764  29.230  32.963  1.00  0.00    -0.248 NA
ATOM     17  C   UNL A   1      42.834  27.464  31.880  1.00  0.00     0.031 C 
ATOM     18  C   UNL A   1      38.971  29.650  29.493  1.00  0.00     0.029 A 
ATOM     19  N   UNL A   1      39.536  30.470  31.494  1.00  0.00    -0.354 N 
ATOM     20  C   UNL A   1      42.768  28.732  33.786  1.00  0.00     0.074 A 
ATOM     21  C   UNL A   1      43.368  27.617  33.084  1.00  0.00     0.031 C 
ATOM     22  C   UNL A   1      38.182  30.707  29.727  1.00  0.00     0.029 A 
ATOM     23  C   UNL A   1      38.499  31.252  31.041  1.00  0.00     0.049 A 
ATOM     24  H   UNL A   1      39.971  30.604  32.367  1.00  0.00     0.167 HD
ATOM     25  C   UNL A   1      43.156  29.169  35.010  1.00  0.00     0.037 A 
ATOM     26  C   UNL A   1      37.860  32.284  31.621  1.00  0.00     0.037 A 
ATOM     27  C   UNL A   1      42.561  30.293  35.691  1.00  0.00     0.049 A 
ATOM     28  C   UNL A   1      38.297  32.732  32.986  1.00  0.00     0.074 A 
ATOM     29  C   UNL A   1      42.913  30.844  36.912  1.00  0.00     0.029 A 
ATOM     30  N   UNL A   1      41.486  31.033  35.218  1.00  0.00    -0.354 N 
ATOM     31  N   UNL A   1      39.274  32.273  33.731  1.00  0.00    -0.248 NA
ATOM     32  C   UNL A   1      37.540  33.835  33.591  1.00  0.00     0.031 C 
ATOM     33  C   UNL A   1      42.014  31.876  37.204  1.00  0.00     0.029 A 
ATOM     34  C   UNL A   1      41.143  32.014  36.136  1.00  0.00     0.049 A 
ATOM     35  H   UNL A   1      41.034  30.883  34.357  1.00  0.00     0.167 HD
ATOM     36  C   UNL A   1      39.268  33.051  34.883  1.00  0.00     0.074 A 
ATOM     37  C   UNL A   1      38.200  34.017  34.726  1.00  0.00     0.031 C 
ATOM     38  C   UNL A   1      40.077  32.972  35.969  1.00  0.00     0.037 A 
BRANCH  25  39
ATOM     39  C   UNL A   1      44.255  28.413  35.714  1.00  0.00     0.058 A 
ATOM     40  C   UNL A   1      43.990  27.345  36.584  1.00  0.00     0.135 A 
ATOM     41  C   UNL A   1      45.602  28.741  35.479  1.00  0.00     0.135 A 
ATOM     42  F   UNL A   1      42.723  26.992  36.856  1.00  0.00    -0.206 F 
ATOM     43  C   UNL A   1      45.015  26.651  37.222  1.00  0.00     0.059 A 
ATOM     44  C   UNL A   1      46.644  28.043  36.082  1.00  0.00     0.059 A 
ATOM     45  F   UNL A   1      45.917  29.751  34.652  1.00  0.00    -0.206 F 
ATOM     46  C   UNL A   1      46.340  27.009  36.966  1.00  0.00     0.060 A 
BRANCH  46  47
ATOM     47  S   UNL A   1      47.658  26.108  37.809  1.00  0.00     0.124 S 
ATOM     48  O   UNL A   1      47.699  24.868  37.041  1.00  0.00    -0.237 OA
ATOM     49  O   UNL A   1      48.803  26.997  37.638  1.00  0.00    -0.237 OA
ATOM     50  O   UNL A   1      47.165  25.982  39.178  1.00  0.00    -0.744 OA
ENDBRANCH  46  47
ENDBRANCH  25  39
BRANCH  26  51
ATOM     51  C   UNL A   1      36.748  32.963  30.905  1.00  0.00     0.058 A 
ATOM     52  C   UNL A   1      35.412  32.729  31.261  1.00  0.00     0.135 A 
ATOM     53  C   UNL A   1      37.000  33.877  29.870  1.00  0.00     0.135 A 
ATOM     54  F   UNL A   1      35.121  31.863  32.243  1.00  0.00    -0.206 F 
ATOM     55  C   UNL A   1      34.363  33.366  30.607  1.00  0.00     0.059 A 
ATOM     56  C   UNL A   1      35.970  34.550  29.222  1.00  0.00     0.059 A 
ATOM     57  F   UNL A   1      38.262  34.152  29.505  1.00  0.00    -0.206 F 
ATOM     58  C   UNL A   1      34.653  34.278  29.590  1.00  0.00     0.060 A 
BRANCH  58  59
ATOM     59  S   UNL A   1      33.285  35.134  28.780  1.00  0.00     0.124 S 
ATOM     60  O   UNL A   1      32.500  35.578  29.925  1.00  0.00    -0.237 OA
ATOM     61  O   UNL A   1      33.977  36.179  28.033  1.00  0.00    -0.237 OA
ATOM     62  O   UNL A   1      32.674  34.090  27.963  1.00  0.00    -0.744 OA
ENDBRANCH  58  59
ENDBRANCH  26  51
BRANCH  38  63
ATOM     63  C   UNL A   1      39.864  33.991  37.056  1.00  0.00     0.058 A 
ATOM     64  C   UNL A   1      40.375  35.295  36.965  1.00  0.00     0.135 A 
ATOM     65  C   UNL A   1      39.117  33.659  38.199  1.00  0.00     0.135 A 
ATOM     66  F   UNL A   1      41.104  35.662  35.899  1.00  0.00    -0.206 F 
ATOM     67  C   UNL A   1      40.184  36.222  37.984  1.00  0.00     0.059 A 
ATOM     68  C   UNL A   1      38.885  34.581  39.214  1.00  0.00     0.059 A 
ATOM     69  F   UNL A   1      38.597  32.429  38.334  1.00  0.00    -0.206 F 
ATOM     70  C   UNL A   1      39.438  35.856  39.105  1.00  0.00     0.060 A 
BRANCH  70  71
ATOM     71  S   UNL A   1      39.184  37.073  40.413  1.00  0.00     0.124 S 
ATOM     72  O   UNL A   1      40.558  37.364  40.815  1.00  0.00    -0.237 OA
ATOM     73  O   UNL A   1      38.489  38.147  39.710  1.00  0.00    -0.237 OA
ATOM     74  O   UNL A   1      38.382  36.354  41.397  1.00  0.00    -0.744 OA
ENDBRANCH  70  71
ENDBRANCH  38  63
ENDBRANCH  12  13
ENDBRANCH   5   7
ENDBRANCH   2   3
ENDBRANCH   1   2
BRANCH   1  75
ATOM     75  C   UNL A   1      41.177  21.102  26.836  1.00  0.00     0.023 C 
BRANCH  75  76
ATOM     76  C   UNL A   1      39.812  21.004  26.159  1.00  0.00     0.116 C 
BRANCH  76  77
ATOM     77  N   UNL A   1      39.014  22.195  26.373  1.00  0.00    -0.356 N 
ATOM     78  C   UNL A   1      37.873  22.598  25.751  1.00  0.00     0.223 C 
ATOM     79  H   UNL A   1      39.346  22.802  27.074  1.00  0.00     0.163 HD
ATOM     80  O   UNL A   1      37.312  23.607  26.174  1.00  0.00    -0.275 OA
BRANCH  78  81
ATOM     81  C   UNL A   1      37.336  21.792  24.574  1.00  0.00     0.081 C 
ATOM     82  C   UNL A   1      36.633  22.679  23.543  1.00  0.00     0.030 C 
ATOM     83  C   UNL A   1      36.392  20.685  25.047  1.00  0.00     0.030 C 
ATOM     84  C   UNL A   1      35.262  23.153  24.017  1.00  0.00     0.103 C 
ATOM     85  C   UNL A   1      35.032  21.220  25.491  1.00  0.00     0.103 C 
ATOM     86  N   UNL A   1      34.402  21.975  24.369  1.00  0.00    -0.202 NA
BRANCH  86  87
ATOM     87  S   UNL A   1      32.773  22.478  24.646  1.00  0.00     0.216 S 
ATOM     88  O   UNL A   1      31.989  21.289  24.910  1.00  0.00    -0.212 OA
ATOM     89  O   UNL A   1      32.833  23.547  25.622  1.00  0.00    -0.212 OA
BRANCH  87  90
ATOM     90  C   UNL A   1      32.018  23.271  23.199  1.00  0.00     0.124 C 
ATOM     91  C   UNL A   1      30.633  23.826  23.353  1.00  0.00     0.022 C 
ATOM     92  C   UNL A   1      31.818  24.758  23.293  1.00  0.00     0.022 C 
ENDBRANCH  87  90
ENDBRANCH  86  87
ENDBRANCH  78  81
ENDBRANCH  76  77
ENDBRANCH  75  76
ENDBRANCH   1  75
TORSDOF 16
ENDMDL
MODEL 3
REMARK VINA RESULT:     -11.1      5.086     11.622
REMARK SMILES O=C(NCCCCNC(=O)C1CCN(S(=O)(=O)C2CC2)CC1)c1ccc(-c2c3nc(c(-c4c(F)cc(S(=O)(=O)[O-])cc4F)c4ccc([nH]4)c(-c4c(F)cc(S(=O)(=O)[O-])cc4F)c4nc(c(-c5c(F)cc(S(=O)(=O)[O-])cc5F)c5ccc2[nH]5)C=C4)C=C3)cc1
REMARK SMILES IDX 5 1 4 2 3 3 1 4 2 5 23 7 24 8 88 9 25 10 87 11 26 12 27 13
REMARK SMILES IDX 28 14 81 15 29 16 86 17 80 18 82 19 30 20 85 21 79 22 78 23
REMARK SMILES IDX 31 25 65 26 44 27 64 28 45 29 48 30 63 31 83 32 46 33 47 34
REMARK SMILES IDX 62 36 84 37 49 38 32 39 33 40 42 41 34 42 35 43 41 44 43 45
REMARK SMILES IDX 36 46 37 47 38 48 39 49 40 50 66 51 67 52 76 53 68 54 69 55
REMARK SMILES IDX 75 56 77 57 70 58 71 59 72 60 73 61 74 62 50 63 51 64 60 65
REMARK SMILES IDX 52 66 53 67 59 68 61 69 54 70 55 71 56 72 57 73 58 74 6 75
REMARK SMILES IDX 7 76 8 77 9 78 10 80 11 81 12 82 22 83 13 84 21 85 14 86
REMARK SMILES IDX 15 87 16 88 17 89 18 90 19 91 20 92
REMARK H PARENT 3 6 82 24 48 35 8 79
REMARK Flexibility Score: inf
ROOT
ATOM      1  C   UNL A   1      33.439  33.603  28.069  1.00  0.00     0.023 C 
ENDROOT
BRANCH   1   2
ATOM      2  C   UNL A   1      34.450  32.467  28.138  1.00  0.00     0.116 C 
BRANCH   2   3
ATOM      3  N   UNL A   1      33.857  31.161  27.888  1.00  0.00    -0.352 N 
ATOM      4  O   UNL A   1      33.834  28.936  27.502  1.00  0.00    -0.269 OA
ATOM      5  C   UNL A   1      34.464  29.925  27.861  1.00  0.00     0.251 C 
ATOM      6  H   UNL A   1      32.887  31.160  27.717  1.00  0.00     0.163 HD
BRANCH   5   7
ATOM      7  C   UNL A   1      35.891  29.816  28.233  1.00  0.00     0.039 A 
ATOM      8  C   UNL A   1      36.884  30.068  27.286  1.00  0.00     0.014 A 
ATOM      9  C   UNL A   1      36.236  29.403  29.523  1.00  0.00     0.014 A 
ATOM     10  C   UNL A   1      38.198  29.721  27.564  1.00  0.00     0.010 A 
ATOM     11  C   UNL A   1      37.578  29.165  29.835  1.00  0.00     0.010 A 
ATOM     12  C   UNL A   1      38.567  29.276  28.845  1.00  0.00    -0.014 A 
BRANCH  12  13
ATOM     13  C   UNL A   1      39.998  28.982  29.122  1.00  0.00     0.031 A 
ATOM     14  C   UNL A   1      40.622  27.671  28.724  1.00  0.00     0.074 A 
ATOM     15  C   UNL A   1      40.748  29.940  29.702  1.00  0.00     0.049 A 
ATOM     16  N   UNL A   1      41.865  27.279  28.853  1.00  0.00    -0.248 NA
ATOM     17  C   UNL A   1      39.742  26.663  28.112  1.00  0.00     0.031 C 
ATOM     18  C   UNL A   1      40.251  31.248  30.139  1.00  0.00     0.029 A 
ATOM     19  N   UNL A   1      42.085  29.980  30.000  1.00  0.00    -0.354 N 
ATOM     20  C   UNL A   1      41.912  25.977  28.367  1.00  0.00     0.074 A 
ATOM     21  C   UNL A   1      40.565  25.635  27.961  1.00  0.00     0.031 C 
ATOM     22  C   UNL A   1      41.277  31.984  30.587  1.00  0.00     0.029 A 
ATOM     23  C   UNL A   1      42.490  31.178  30.541  1.00  0.00     0.049 A 
ATOM     24  H   UNL A   1      42.697  29.226  29.841  1.00  0.00     0.167 HD
ATOM     25  C   UNL A   1      42.981  25.149  28.264  1.00  0.00     0.037 A 
ATOM     26  C   UNL A   1      43.700  31.582  30.970  1.00  0.00     0.037 A 
ATOM     27  C   UNL A   1      44.321  25.509  28.656  1.00  0.00     0.049 A 
ATOM     28  C   UNL A   1      44.861  30.635  30.865  1.00  0.00     0.074 A 
ATOM     29  C   UNL A   1      45.480  24.759  28.549  1.00  0.00     0.029 A 
ATOM     30  N   UNL A   1      44.684  26.716  29.238  1.00  0.00    -0.354 N 
ATOM     31  N   UNL A   1      44.893  29.423  30.366  1.00  0.00    -0.248 NA
ATOM     32  C   UNL A   1      46.148  31.111  31.384  1.00  0.00     0.031 C 
ATOM     33  C   UNL A   1      46.530  25.486  29.120  1.00  0.00     0.029 A 
ATOM     34  C   UNL A   1      46.041  26.718  29.524  1.00  0.00     0.049 A 
ATOM     35  H   UNL A   1      44.068  27.461  29.422  1.00  0.00     0.167 HD
ATOM     36  C   UNL A   1      46.211  28.999  30.486  1.00  0.00     0.074 A 
ATOM     37  C   UNL A   1      46.945  30.093  31.090  1.00  0.00     0.031 C 
ATOM     38  C   UNL A   1      46.762  27.814  30.125  1.00  0.00     0.037 A 
BRANCH  25  39
ATOM     39  C   UNL A   1      42.745  23.756  27.737  1.00  0.00     0.058 A 
ATOM     40  C   UNL A   1      42.511  22.663  28.587  1.00  0.00     0.135 A 
ATOM     41  C   UNL A   1      42.714  23.519  26.351  1.00  0.00     0.135 A 
ATOM     42  F   UNL A   1      42.540  22.825  29.919  1.00  0.00    -0.206 F 
ATOM     43  C   UNL A   1      42.289  21.383  28.086  1.00  0.00     0.059 A 
ATOM     44  C   UNL A   1      42.464  22.254  25.827  1.00  0.00     0.059 A 
ATOM     45  F   UNL A   1      42.926  24.526  25.489  1.00  0.00    -0.206 F 
ATOM     46  C   UNL A   1      42.269  21.188  26.704  1.00  0.00     0.060 A 
BRANCH  46  47
ATOM     47  S   UNL A   1      41.991  19.520  26.069  1.00  0.00     0.124 S 
ATOM     48  O   UNL A   1      42.446  18.703  27.190  1.00  0.00    -0.237 OA
ATOM     49  O   UNL A   1      40.552  19.515  25.825  1.00  0.00    -0.237 OA
ATOM     50  O   UNL A   1      42.827  19.465  24.874  1.00  0.00    -0.744 OA
ENDBRANCH  46  47
ENDBRANCH  25  39
BRANCH  26  51
ATOM     51  C   UNL A   1      43.868  32.949  31.530  1.00  0.00     0.058 A 
ATOM     52  C   UNL A   1      43.660  33.201  32.893  1.00  0.00     0.135 A 
ATOM     53  C   UNL A   1      44.266  34.024  30.718  1.00  0.00     0.135 A 
ATOM     54  F   UNL A   1      43.277  32.208  33.709  1.00  0.00    -0.206 F 
ATOM     55  C   UNL A   1      43.824  34.473  33.431  1.00  0.00     0.059 A 
ATOM     56  C   UNL A   1      44.467  35.298  31.238  1.00  0.00     0.059 A 
ATOM     57  F   UNL A   1      44.498  33.831  29.410  1.00  0.00    -0.206 F 
ATOM     58  C   UNL A   1      44.232  35.515  32.595  1.00  0.00     0.060 A 
BRANCH  58  59
ATOM     59  S   UNL A   1      44.487  37.151  33.314  1.00  0.00     0.124 S 
ATOM     60  O   UNL A   1      45.928  37.152  33.533  1.00  0.00    -0.237 OA
ATOM     61  O   UNL A   1      43.999  38.029  32.256  1.00  0.00    -0.237 OA
ATOM     62  O   UNL A   1      43.666  37.119  34.520  1.00  0.00    -0.744 OA
ENDBRANCH  58  59
ENDBRANCH  26  51
BRANCH  38  63
ATOM     63  C   UNL A   1      48.243  27.655  30.335  1.00  0.00     0.058 A 
ATOM     64  C   UNL A   1      49.177  28.005  29.347  1.00  0.00     0.135 A 
ATOM     65  C   UNL A   1      48.736  27.163  31.556  1.00  0.00     0.135 A 
ATOM     66  F   UNL A   1      48.761  28.472  28.159  1.00  0.00    -0.206 F 
ATOM     67  C   UNL A   1      50.543  27.841  29.548  1.00  0.00     0.059 A 
ATOM     68  C   UNL A   1      50.100  27.022  31.790  1.00  0.00     0.059 A 
ATOM     69  F   UNL A   1      47.888  26.821  32.539  1.00  0.00    -0.206 F 
ATOM     70  C   UNL A   1      50.996  27.347  30.773  1.00  0.00     0.060 A 
BRANCH  70  71
ATOM     71  S   UNL A   1      52.771  27.152  31.026  1.00  0.00     0.124 S 
ATOM     72  O   UNL A   1      53.288  27.388  29.681  1.00  0.00    -0.237 OA
ATOM     73  O   UNL A   1      53.063  28.191  32.009  1.00  0.00    -0.237 OA
ATOM     74  O   UNL A   1      52.897  25.782  31.515  1.00  0.00    -0.744 OA
ENDBRANCH  70  71
ENDBRANCH  38  63
ENDBRANCH  12  13
ENDBRANCH   5   7
ENDBRANCH   2   3
ENDBRANCH   1   2
BRANCH   1  75
ATOM     75  C   UNL A   1      33.907  34.922  28.678  1.00  0.00     0.023 C 
BRANCH  75  76
ATOM     76  C   UNL A   1      33.051  35.432  29.834  1.00  0.00     0.116 C 
BRANCH  76  77
ATOM     77  N   UNL A   1      33.859  35.948  30.920  1.00  0.00    -0.356 N 
ATOM     78  C   UNL A   1      34.528  35.279  31.898  1.00  0.00     0.223 C 
ATOM     79  H   UNL A   1      33.938  36.929  30.956  1.00  0.00     0.163 HD
ATOM     80  O   UNL A   1      35.237  35.932  32.662  1.00  0.00    -0.275 OA
BRANCH  78  81
ATOM     81  C   UNL A   1      34.382  33.766  32.006  1.00  0.00     0.081 C 
ATOM     82  C   UNL A   1      34.144  33.312  33.449  1.00  0.00     0.030 C 
ATOM     83  C   UNL A   1      35.601  33.050  31.422  1.00  0.00     0.030 C 
ATOM     84  C   UNL A   1      35.409  33.385  34.300  1.00  0.00     0.103 C 
ATOM     85  C   UNL A   1      36.828  33.142  32.327  1.00  0.00     0.103 C 
ATOM     86  N   UNL A   1      36.503  32.575  33.669  1.00  0.00    -0.202 NA
BRANCH  86  87
ATOM     87  S   UNL A   1      37.844  32.428  34.747  1.00  0.00     0.216 S 
ATOM     88  O   UNL A   1      38.842  33.393  34.335  1.00  0.00    -0.212 OA
ATOM     89  O   UNL A   1      37.300  32.465  36.089  1.00  0.00    -0.212 OA
BRANCH  87  90
ATOM     90  C   UNL A   1      38.648  30.803  34.664  1.00  0.00     0.124 C 
ATOM     91  C   UNL A   1      38.725  30.133  33.324  1.00  0.00     0.022 C 
ATOM     92  C   UNL A   1      39.959  30.755  33.929  1.00  0.00     0.022 C 
ENDBRANCH  87  90
ENDBRANCH  86  87
ENDBRANCH  78  81
ENDBRANCH  76  77
ENDBRANCH  75  76
ENDBRANCH   1  75
TORSDOF 16
ENDMDL
