MODEL 1
REMARK VINA RESULT:     -12.3      0.000      0.000
REMARK SMILES O=C(NCCCCNC(=O)c1cccc([C@@H]2CCC[N@@H+](Cc3cccc(OCCO)c3)C2)c1)c1ccc(-c2c3nc(c(-c4c(F)cc(S(=O)(=O)[O-])cc4F)c4ccc([nH]4)c(-c4c(F)cc(S(=O)(=O)[O-])cc4F)c4nc(c(-c5c(F)cc(S(=O)(=O)[O-])cc5F)c5ccc2[nH]5)C=C4)C=C3)cc1
REMARK SMILES IDX 8 1 9 2 10 3 7 5 6 6 5 7 4 8 3 9 1 10 2 11 34 13 35 14 99 15
REMARK SMILES IDX 36 16 98 17 37 18 38 19 39 20 92 21 40 22 97 23 91 24 93 25
REMARK SMILES IDX 41 26 96 27 90 28 89 29 42 31 76 32 55 33 75 34 56 35 59 36
REMARK SMILES IDX 74 37 94 38 57 39 58 40 73 42 95 43 60 44 43 45 44 46 53 47
REMARK SMILES IDX 45 48 46 49 52 50 54 51 47 52 48 53 49 54 50 55 51 56 77 57
REMARK SMILES IDX 78 58 87 59 79 60 80 61 86 62 88 63 81 64 82 65 83 66 84 67
REMARK SMILES IDX 85 68 61 69 62 70 71 71 63 72 64 73 70 74 72 75 65 76 66 77
REMARK SMILES IDX 67 78 68 79 69 80 11 81 12 82 33 83 13 84 15 85 14 86 16 87
REMARK SMILES IDX 17 88 32 89 18 90 20 91 19 92 21 94 22 95 23 96 31 97 24 98
REMARK SMILES IDX 26 99 25 100 27 101 28 102 29 103 30 104
REMARK H PARENT 8 4 3 12 93 30 59 41 20 93 30 105
REMARK Flexibility Score: inf
ROOT
ATOM      1  N   UNL A   1      31.312  30.426  25.379  1.00  0.00    -0.352 N 
ATOM      2  C   UNL A   1      30.944  29.734  24.253  1.00  0.00     0.251 C 
ATOM      3  O   UNL A   1      29.897  30.002  23.673  1.00  0.00    -0.269 OA
ATOM      4  H   UNL A   1      30.619  31.005  25.769  1.00  0.00     0.163 HD
ENDROOT
BRANCH   1   5
ATOM      5  C   UNL A   1      32.591  30.417  26.071  1.00  0.00     0.116 C 
BRANCH   5   6
ATOM      6  C   UNL A   1      32.628  29.381  27.186  1.00  0.00     0.023 C 
BRANCH   6   7
ATOM      7  C   UNL A   1      33.897  28.533  27.227  1.00  0.00     0.023 C 
BRANCH   7   8
ATOM      8  C   UNL A   1      35.179  29.320  27.467  1.00  0.00     0.116 C 
BRANCH   8   9
ATOM      9  N   UNL A   1      35.168  30.028  28.739  1.00  0.00    -0.352 N 
ATOM     10  O   UNL A   1      35.940  30.651  30.763  1.00  0.00    -0.269 OA
ATOM     11  C   UNL A   1      36.178  30.180  29.662  1.00  0.00     0.251 C 
ATOM     12  H   UNL A   1      34.315  30.461  28.972  1.00  0.00     0.163 HD
BRANCH  11  13
ATOM     13  C   UNL A   1      37.547  29.747  29.309  1.00  0.00     0.039 A 
ATOM     14  C   UNL A   1      38.407  29.260  30.296  1.00  0.00     0.014 A 
ATOM     15  C   UNL A   1      37.978  29.844  27.983  1.00  0.00     0.014 A 
ATOM     16  C   UNL A   1      39.740  29.020  29.990  1.00  0.00     0.010 A 
ATOM     17  C   UNL A   1      39.296  29.511  27.660  1.00  0.00     0.010 A 
ATOM     18  C   UNL A   1      40.197  29.128  28.667  1.00  0.00    -0.014 A 
BRANCH  18  19
ATOM     19  C   UNL A   1      41.601  28.763  28.353  1.00  0.00     0.031 A 
ATOM     20  C   UNL A   1      42.699  29.789  28.375  1.00  0.00     0.074 A 
ATOM     21  C   UNL A   1      41.876  27.478  28.055  1.00  0.00     0.049 A 
ATOM     22  N   UNL A   1      43.972  29.634  28.116  1.00  0.00    -0.248 NA
ATOM     23  C   UNL A   1      42.321  31.167  28.723  1.00  0.00     0.031 C 
ATOM     24  C   UNL A   1      40.882  26.403  27.982  1.00  0.00     0.029 A 
ATOM     25  N   UNL A   1      43.060  26.855  27.763  1.00  0.00    -0.354 N 
ATOM     26  C   UNL A   1      44.546  30.893  28.243  1.00  0.00     0.074 A 
ATOM     27  C   UNL A   1      43.476  31.808  28.585  1.00  0.00     0.031 C 
ATOM     28  C   UNL A   1      41.502  25.250  27.696  1.00  0.00     0.029 A 
ATOM     29  C   UNL A   1      42.922  25.513  27.501  1.00  0.00     0.049 A 
ATOM     30  H   UNL A   1      43.926  27.324  27.742  1.00  0.00     0.167 HD
ATOM     31  C   UNL A   1      45.845  31.250  28.094  1.00  0.00     0.037 A 
ATOM     32  C   UNL A   1      43.830  24.597  27.118  1.00  0.00     0.037 A 
ATOM     33  C   UNL A   1      46.902  30.324  27.769  1.00  0.00     0.049 A 
ATOM     34  C   UNL A   1      45.261  25.015  26.955  1.00  0.00     0.074 A 
ATOM     35  C   UNL A   1      48.258  30.576  27.644  1.00  0.00     0.029 A 
ATOM     36  N   UNL A   1      46.723  28.973  27.506  1.00  0.00    -0.354 N 
ATOM     37  N   UNL A   1      45.792  26.203  27.123  1.00  0.00    -0.248 NA
ATOM     38  C   UNL A   1      46.214  23.976  26.551  1.00  0.00     0.031 C 
ATOM     39  C   UNL A   1      48.891  29.387  27.262  1.00  0.00     0.029 A 
ATOM     40  C   UNL A   1      47.938  28.383  27.195  1.00  0.00     0.049 A 
ATOM     41  H   UNL A   1      45.859  28.502  27.538  1.00  0.00     0.167 HD
ATOM     42  C   UNL A   1      47.146  26.053  26.852  1.00  0.00     0.074 A 
ATOM     43  C   UNL A   1      47.354  24.656  26.528  1.00  0.00     0.031 C 
ATOM     44  C   UNL A   1      48.125  26.990  26.867  1.00  0.00     0.037 A 
BRANCH  31  45
ATOM     45  C   UNL A   1      46.193  32.705  28.251  1.00  0.00     0.058 A 
ATOM     46  C   UNL A   1      46.682  33.226  29.460  1.00  0.00     0.135 A 
ATOM     47  C   UNL A   1      46.059  33.589  27.168  1.00  0.00     0.135 A 
ATOM     48  F   UNL A   1      46.821  32.430  30.532  1.00  0.00    -0.206 F 
ATOM     49  C   UNL A   1      46.991  34.576  29.600  1.00  0.00     0.059 A 
ATOM     50  C   UNL A   1      46.385  34.938  27.277  1.00  0.00     0.059 A 
ATOM     51  F   UNL A   1      45.600  33.146  25.987  1.00  0.00    -0.206 F 
ATOM     52  C   UNL A   1      46.833  35.426  28.504  1.00  0.00     0.060 A 
BRANCH  52  53
ATOM     53  S   UNL A   1      47.217  37.180  28.704  1.00  0.00     0.124 S 
ATOM     54  O   UNL A   1      45.880  37.764  28.758  1.00  0.00    -0.237 OA
ATOM     55  O   UNL A   1      47.965  37.196  29.958  1.00  0.00    -0.237 OA
ATOM     56  O   UNL A   1      47.993  37.497  27.510  1.00  0.00    -0.744 OA
ENDBRANCH  52  53
ENDBRANCH  31  45
BRANCH  32  57
ATOM     57  C   UNL A   1      43.386  23.206  26.852  1.00  0.00     0.058 A 
ATOM     58  C   UNL A   1      43.346  22.692  25.549  1.00  0.00     0.135 A 
ATOM     59  C   UNL A   1      43.066  22.339  27.910  1.00  0.00     0.135 A 
ATOM     60  F   UNL A   1      43.641  23.483  24.507  1.00  0.00    -0.206 F 
ATOM     61  C   UNL A   1      43.005  21.367  25.301  1.00  0.00     0.059 A 
ATOM     62  C   UNL A   1      42.749  21.003  27.690  1.00  0.00     0.059 A 
ATOM     63  F   UNL A   1      43.112  22.778  29.177  1.00  0.00    -0.206 F 
ATOM     64  C   UNL A   1      42.716  20.527  26.381  1.00  0.00     0.060 A 
BRANCH  64  65
ATOM     65  S   UNL A   1      42.360  18.788  26.057  1.00  0.00     0.124 S 
ATOM     66  O   UNL A   1      42.659  18.181  27.349  1.00  0.00    -0.237 OA
ATOM     67  O   UNL A   1      40.951  18.826  25.679  1.00  0.00    -0.237 OA
ATOM     68  O   UNL A   1      43.281  18.453  24.974  1.00  0.00    -0.744 OA
ENDBRANCH  64  65
ENDBRANCH  32  57
BRANCH  44  69
ATOM     69  C   UNL A   1      49.517  26.531  26.535  1.00  0.00     0.058 A 
ATOM     70  C   UNL A   1      50.376  26.022  27.521  1.00  0.00     0.135 A 
ATOM     71  C   UNL A   1      49.980  26.560  25.210  1.00  0.00     0.135 A 
ATOM     72  F   UNL A   1      49.985  25.983  28.805  1.00  0.00    -0.206 F 
ATOM     73  C   UNL A   1      51.654  25.571  27.207  1.00  0.00     0.059 A 
ATOM     74  C   UNL A   1      51.244  26.092  24.870  1.00  0.00     0.059 A 
ATOM     75  F   UNL A   1      49.193  27.033  24.230  1.00  0.00    -0.206 F 
ATOM     76  C   UNL A   1      52.078  25.608  25.876  1.00  0.00     0.060 A 
BRANCH  76  77
ATOM     77  S   UNL A   1      53.723  24.984  25.475  1.00  0.00     0.124 S 
ATOM     78  O   UNL A   1      54.490  25.405  26.641  1.00  0.00    -0.237 OA
ATOM     79  O   UNL A   1      53.493  23.547  25.352  1.00  0.00    -0.237 OA
ATOM     80  O   UNL A   1      54.050  25.668  24.227  1.00  0.00    -0.744 OA
ENDBRANCH  76  77
ENDBRANCH  44  69
ENDBRANCH  18  19
ENDBRANCH  11  13
ENDBRANCH   8   9
ENDBRANCH   7   8
ENDBRANCH   6   7
ENDBRANCH   5   6
ENDBRANCH   1   5
BRANCH   2  81
ATOM     81  C   UNL A   1      31.799  28.639  23.752  1.00  0.00     0.040 A 
ATOM     82  C   UNL A   1      32.935  28.937  23.001  1.00  0.00     0.014 A 
ATOM     83  C   UNL A   1      31.406  27.310  23.938  1.00  0.00     0.018 A 
ATOM     84  C   UNL A   1      33.700  27.897  22.476  1.00  0.00     0.001 A 
ATOM     85  C   UNL A   1      32.131  26.261  23.375  1.00  0.00    -0.039 A 
ATOM     86  C   UNL A   1      33.301  26.570  22.663  1.00  0.00     0.004 A 
BRANCH  85  87
ATOM     87  C   UNL A   1      31.616  24.834  23.433  1.00  0.00     0.074 C 
ATOM     88  C   UNL A   1      30.507  24.672  24.487  1.00  0.00     0.020 C 
ATOM     89  C   UNL A   1      32.713  23.746  23.535  1.00  0.00     0.270 C 
ATOM     90  C   UNL A   1      31.028  24.277  25.863  1.00  0.00     0.062 C 
ATOM     91  N   UNL A   1      33.076  23.235  24.870  1.00  0.00    -0.331 N 
ATOM     92  C   UNL A   1      31.932  23.057  25.771  1.00  0.00     0.262 C 
ATOM     93  H   UNL A   1      33.648  23.970  25.285  1.00  0.00     0.348 HD
BRANCH  91  94
ATOM     94  C   UNL A   1      33.906  21.996  24.793  1.00  0.00     0.299 C 
BRANCH  94  95
ATOM     95  C   UNL A   1      33.209  20.770  24.206  1.00  0.00     0.010 A 
ATOM     96  C   UNL A   1      32.489  20.866  23.006  1.00  0.00     0.010 A 
ATOM     97  C   UNL A   1      33.396  19.499  24.776  1.00  0.00     0.056 A 
ATOM     98  C   UNL A   1      32.038  19.714  22.360  1.00  0.00     0.004 A 
ATOM     99  C   UNL A   1      33.033  18.340  24.090  1.00  0.00     0.119 A 
ATOM    100  C   UNL A   1      32.331  18.457  22.889  1.00  0.00     0.046 A 
BRANCH  99 101
ATOM    101  O   UNL A   1      33.353  17.060  24.453  1.00  0.00    -0.491 OA
BRANCH 101 102
ATOM    102  C   UNL A   1      32.933  16.577  25.737  1.00  0.00     0.257 C 
BRANCH 102 103
ATOM    103  C   UNL A   1      32.536  15.098  25.707  1.00  0.00     0.197 C 
BRANCH 103 104
ATOM    104  O   UNL A   1      31.850  14.688  26.881  1.00  0.00    -0.393 OA
ATOM    105  H   UNL A   1      31.248  15.392  27.166  1.00  0.00     0.210 HD
ENDBRANCH 103 104
ENDBRANCH 102 103
ENDBRANCH 101 102
ENDBRANCH  99 101
ENDBRANCH  94  95
ENDBRANCH  91  94
ENDBRANCH  85  87
ENDBRANCH   2  81
TORSDOF 21
ENDMDL
MODEL 2
REMARK VINA RESULT:     -11.8      2.768      3.688
REMARK SMILES O=C(NCCCCNC(=O)c1cccc([C@@H]2CCC[N@@H+](Cc3cccc(OCCO)c3)C2)c1)c1ccc(-c2c3nc(c(-c4c(F)cc(S(=O)(=O)[O-])cc4F)c4ccc([nH]4)c(-c4c(F)cc(S(=O)(=O)[O-])cc4F)c4nc(c(-c5c(F)cc(S(=O)(=O)[O-])cc5F)c5ccc2[nH]5)C=C4)C=C3)cc1
REMARK SMILES IDX 8 1 9 2 10 3 7 5 6 6 5 7 4 8 3 9 1 10 2 11 34 13 35 14 99 15
REMARK SMILES IDX 36 16 98 17 37 18 38 19 39 20 92 21 40 22 97 23 91 24 93 25
REMARK SMILES IDX 41 26 96 27 90 28 89 29 42 31 76 32 55 33 75 34 56 35 59 36
REMARK SMILES IDX 74 37 94 38 57 39 58 40 73 42 95 43 60 44 43 45 44 46 53 47
REMARK SMILES IDX 45 48 46 49 52 50 54 51 47 52 48 53 49 54 50 55 51 56 77 57
REMARK SMILES IDX 78 58 87 59 79 60 80 61 86 62 88 63 81 64 82 65 83 66 84 67
REMARK SMILES IDX 85 68 61 69 62 70 71 71 63 72 64 73 70 74 72 75 65 76 66 77
REMARK SMILES IDX 67 78 68 79 69 80 11 81 12 82 33 83 13 84 15 85 14 86 16 87
REMARK SMILES IDX 17 88 32 89 18 90 20 91 19 92 21 94 22 95 23 96 31 97 24 98
REMARK SMILES IDX 26 99 25 100 27 101 28 102 29 103 30 104
REMARK H PARENT 8 4 3 12 93 30 59 41 20 93 30 105
REMARK Flexibility Score: inf
ROOT
ATOM      1  N   UNL A   1      31.768  29.568  22.640  1.00  0.00    -0.352 N 
ATOM      2  C   UNL A   1      30.554  29.118  22.188  1.00  0.00     0.251 C 
ATOM      3  O   UNL A   1      29.945  29.738  21.322  1.00  0.00    -0.269 OA
ATOM      4  H   UNL A   1      32.019  30.477  22.358  1.00  0.00     0.163 HD
ENDROOT
BRANCH   1   5
ATOM      5  C   UNL A   1      32.735  28.879  23.479  1.00  0.00     0.116 C 
BRANCH   5   6
ATOM      6  C   UNL A   1      32.429  29.052  24.961  1.00  0.00     0.023 C 
BRANCH   6   7
ATOM      7  C   UNL A   1      32.942  27.925  25.854  1.00  0.00     0.023 C 
BRANCH   7   8
ATOM      8  C   UNL A   1      33.986  28.350  26.878  1.00  0.00     0.116 C 
BRANCH   8   9
ATOM      9  N   UNL A   1      33.733  29.682  27.410  1.00  0.00    -0.352 N 
ATOM     10  O   UNL A   1      34.099  31.494  28.700  1.00  0.00    -0.269 OA
ATOM     11  C   UNL A   1      34.543  30.478  28.188  1.00  0.00     0.251 C 
ATOM     12  H   UNL A   1      32.857  30.068  27.179  1.00  0.00     0.163 HD
BRANCH  11  13
ATOM     13  C   UNL A   1      35.948  30.077  28.411  1.00  0.00     0.039 A 
ATOM     14  C   UNL A   1      36.361  29.629  29.668  1.00  0.00     0.014 A 
ATOM     15  C   UNL A   1      36.863  30.164  27.358  1.00  0.00     0.014 A 
ATOM     16  C   UNL A   1      37.711  29.421  29.915  1.00  0.00     0.010 A 
ATOM     17  C   UNL A   1      38.208  29.861  27.586  1.00  0.00     0.010 A 
ATOM     18  C   UNL A   1      38.648  29.519  28.874  1.00  0.00    -0.014 A 
BRANCH  18  19
ATOM     19  C   UNL A   1      40.069  29.187  29.145  1.00  0.00     0.031 A 
ATOM     20  C   UNL A   1      40.999  30.185  29.774  1.00  0.00     0.074 A 
ATOM     21  C   UNL A   1      40.511  27.956  28.820  1.00  0.00     0.049 A 
ATOM     22  N   UNL A   1      42.268  30.054  30.067  1.00  0.00    -0.248 NA
ATOM     23  C   UNL A   1      40.439  31.502  30.112  1.00  0.00     0.031 C 
ATOM     24  C   UNL A   1      39.699  26.914  28.183  1.00  0.00     0.029 A 
ATOM     25  N   UNL A   1      41.737  27.368  28.982  1.00  0.00    -0.354 N 
ATOM     26  C   UNL A   1      42.667  31.274  30.598  1.00  0.00     0.074 A 
ATOM     27  C   UNL A   1      41.508  32.142  30.571  1.00  0.00     0.031 C 
ATOM     28  C   UNL A   1      40.440  25.807  28.036  1.00  0.00     0.029 A 
ATOM     29  C   UNL A   1      41.793  26.080  28.506  1.00  0.00     0.049 A 
ATOM     30  H   UNL A   1      42.505  27.824  29.398  1.00  0.00     0.167 HD
ATOM     31  C   UNL A   1      43.887  31.633  31.070  1.00  0.00     0.037 A 
ATOM     32  C   UNL A   1      42.824  25.218  28.427  1.00  0.00     0.037 A 
ATOM     33  C   UNL A   1      45.028  30.752  31.106  1.00  0.00     0.049 A 
ATOM     34  C   UNL A   1      44.164  25.639  28.951  1.00  0.00     0.074 A 
ATOM     35  C   UNL A   1      46.293  31.003  31.608  1.00  0.00     0.029 A 
ATOM     36  N   UNL A   1      45.047  29.456  30.610  1.00  0.00    -0.354 N 
ATOM     37  N   UNL A   1      44.512  26.783  29.490  1.00  0.00    -0.248 NA
ATOM     38  C   UNL A   1      45.251  24.658  28.856  1.00  0.00     0.031 C 
ATOM     39  C   UNL A   1      47.089  29.875  31.376  1.00  0.00     0.029 A 
ATOM     40  C   UNL A   1      46.308  28.903  30.771  1.00  0.00     0.049 A 
ATOM     41  H   UNL A   1      44.277  28.995  30.203  1.00  0.00     0.167 HD
ATOM     42  C   UNL A   1      45.858  26.658  29.807  1.00  0.00     0.074 A 
ATOM     43  C   UNL A   1      46.256  25.320  29.416  1.00  0.00     0.031 C 
ATOM     44  C   UNL A   1      46.689  27.571  30.368  1.00  0.00     0.037 A 
BRANCH  31  45
ATOM     45  C   UNL A   1      44.059  33.046  31.558  1.00  0.00     0.058 A 
ATOM     46  C   UNL A   1      43.861  33.397  32.903  1.00  0.00     0.135 A 
ATOM     47  C   UNL A   1      44.452  34.062  30.671  1.00  0.00     0.135 A 
ATOM     48  F   UNL A   1      43.474  32.470  33.794  1.00  0.00    -0.206 F 
ATOM     49  C   UNL A   1      44.013  34.708  33.344  1.00  0.00     0.059 A 
ATOM     50  C   UNL A   1      44.634  35.376  31.094  1.00  0.00     0.059 A 
ATOM     51  F   UNL A   1      44.660  33.783  29.374  1.00  0.00    -0.206 F 
ATOM     52  C   UNL A   1      44.393  35.693  32.430  1.00  0.00     0.060 A 
BRANCH  52  53
ATOM     53  S   UNL A   1      44.564  37.395  33.010  1.00  0.00     0.124 S 
ATOM     54  O   UNL A   1      45.829  37.327  33.736  1.00  0.00    -0.237 OA
ATOM     55  O   UNL A   1      44.592  38.152  31.762  1.00  0.00    -0.237 OA
ATOM     56  O   UNL A   1      43.377  37.594  33.834  1.00  0.00    -0.744 OA
ENDBRANCH  52  53
ENDBRANCH  31  45
BRANCH  32  57
ATOM     57  C   UNL A   1      42.607  23.886  27.809  1.00  0.00     0.058 A 
ATOM     58  C   UNL A   1      42.674  23.709  26.421  1.00  0.00     0.135 A 
ATOM     59  C   UNL A   1      42.405  22.748  28.607  1.00  0.00     0.135 A 
ATOM     60  F   UNL A   1      42.865  24.767  25.618  1.00  0.00    -0.206 F 
ATOM     61  C   UNL A   1      42.550  22.450  25.843  1.00  0.00     0.059 A 
ATOM     62  C   UNL A   1      42.304  21.476  28.055  1.00  0.00     0.059 A 
ATOM     63  F   UNL A   1      42.355  22.864  29.943  1.00  0.00    -0.206 F 
ATOM     64  C   UNL A   1      42.373  21.338  26.670  1.00  0.00     0.060 A 
BRANCH  64  65
ATOM     65  S   UNL A   1      42.300  19.699  25.917  1.00  0.00     0.124 S 
ATOM     66  O   UNL A   1      43.285  19.822  24.849  1.00  0.00    -0.237 OA
ATOM     67  O   UNL A   1      42.669  18.831  27.031  1.00  0.00    -0.237 OA
ATOM     68  O   UNL A   1      40.909  19.591  25.484  1.00  0.00    -0.744 OA
ENDBRANCH  64  65
ENDBRANCH  32  57
BRANCH  44  69
ATOM     69  C   UNL A   1      48.110  27.148  30.605  1.00  0.00     0.058 A 
ATOM     70  C   UNL A   1      49.134  27.477  29.702  1.00  0.00     0.135 A 
ATOM     71  C   UNL A   1      48.461  26.444  31.768  1.00  0.00     0.135 A 
ATOM     72  F   UNL A   1      48.849  28.139  28.569  1.00  0.00    -0.206 F 
ATOM     73  C   UNL A   1      50.454  27.110  29.937  1.00  0.00     0.059 A 
ATOM     74  C   UNL A   1      49.778  26.089  32.035  1.00  0.00     0.059 A 
ATOM     75  F   UNL A   1      47.519  26.111  32.665  1.00  0.00    -0.206 F 
ATOM     76  C   UNL A   1      50.767  26.417  31.109  1.00  0.00     0.060 A 
BRANCH  76  77
ATOM     77  S   UNL A   1      52.490  25.979  31.422  1.00  0.00     0.124 S 
ATOM     78  O   UNL A   1      52.911  27.057  32.309  1.00  0.00    -0.237 OA
ATOM     79  O   UNL A   1      52.372  24.661  32.037  1.00  0.00    -0.237 OA
ATOM     80  O   UNL A   1      53.090  25.991  30.090  1.00  0.00    -0.744 OA
ENDBRANCH  76  77
ENDBRANCH  44  69
ENDBRANCH  18  19
ENDBRANCH  11  13
ENDBRANCH   8   9
ENDBRANCH   7   8
ENDBRANCH   6   7
ENDBRANCH   5   6
ENDBRANCH   1   5
BRANCH   2  81
ATOM     81  C   UNL A   1      29.961  27.897  22.768  1.00  0.00     0.040 A 
ATOM     82  C   UNL A   1      28.709  27.959  23.379  1.00  0.00     0.014 A 
ATOM     83  C   UNL A   1      30.703  26.713  22.801  1.00  0.00     0.018 A 
ATOM     84  C   UNL A   1      28.184  26.818  23.981  1.00  0.00     0.001 A 
ATOM     85  C   UNL A   1      30.215  25.578  23.446  1.00  0.00    -0.039 A 
ATOM     86  C   UNL A   1      28.932  25.636  24.014  1.00  0.00     0.004 A 
BRANCH  85  87
ATOM     87  C   UNL A   1      31.085  24.347  23.630  1.00  0.00     0.074 C 
ATOM     88  C   UNL A   1      30.968  23.776  25.054  1.00  0.00     0.020 C 
ATOM     89  C   UNL A   1      32.551  24.506  23.159  1.00  0.00     0.270 C 
ATOM     90  C   UNL A   1      31.997  24.344  26.024  1.00  0.00     0.062 C 
ATOM     91  N   UNL A   1      33.574  24.875  24.154  1.00  0.00    -0.331 N 
ATOM     92  C   UNL A   1      33.403  24.220  25.456  1.00  0.00     0.262 C 
ATOM     93  H   UNL A   1      33.431  25.871  24.320  1.00  0.00     0.348 HD
BRANCH  91  94
ATOM     94  C   UNL A   1      34.962  24.691  23.632  1.00  0.00     0.299 C 
BRANCH  94  95
ATOM     95  C   UNL A   1      35.746  23.529  24.236  1.00  0.00     0.010 A 
ATOM     96  C   UNL A   1      36.778  23.767  25.157  1.00  0.00     0.010 A 
ATOM     97  C   UNL A   1      35.357  22.200  23.994  1.00  0.00     0.056 A 
ATOM     98  C   UNL A   1      37.346  22.710  25.869  1.00  0.00     0.004 A 
ATOM     99  C   UNL A   1      35.852  21.151  24.769  1.00  0.00     0.119 A 
ATOM    100  C   UNL A   1      36.867  21.411  25.692  1.00  0.00     0.046 A 
BRANCH  99 101
ATOM    101  O   UNL A   1      35.393  19.862  24.760  1.00  0.00    -0.491 OA
BRANCH 101 102
ATOM    102  C   UNL A   1      33.978  19.629  24.723  1.00  0.00     0.257 C 
BRANCH 102 103
ATOM    103  C   UNL A   1      33.229  20.387  25.825  1.00  0.00     0.197 C 
BRANCH 103 104
ATOM    104  O   UNL A   1      31.820  20.369  25.645  1.00  0.00    -0.393 OA
ATOM    105  H   UNL A   1      31.425  19.729  26.256  1.00  0.00     0.210 HD
ENDBRANCH 103 104
ENDBRANCH 102 103
ENDBRANCH 101 102
ENDBRANCH  99 101
ENDBRANCH  94  95
ENDBRANCH  91  94
ENDBRANCH  85  87
ENDBRANCH   2  81
TORSDOF 21
ENDMDL
MODEL 3
REMARK VINA RESULT:     -11.6      2.361      8.379
REMARK SMILES O=C(NCCCCNC(=O)c1cccc([C@@H]2CCC[N@@H+](Cc3cccc(OCCO)c3)C2)c1)c1ccc(-c2c3nc(c(-c4c(F)cc(S(=O)(=O)[O-])cc4F)c4ccc([nH]4)c(-c4c(F)cc(S(=O)(=O)[O-])cc4F)c4nc(c(-c5c(F)cc(S(=O)(=O)[O-])cc5F)c5ccc2[nH]5)C=C4)C=C3)cc1
REMARK SMILES IDX 8 1 9 2 10 3 7 5 6 6 5 7 4 8 3 9 1 10 2 11 34 13 35 14 99 15
REMARK SMILES IDX 36 16 98 17 37 18 38 19 39 20 92 21 40 22 97 23 91 24 93 25
REMARK SMILES IDX 41 26 96 27 90 28 89 29 42 31 76 32 55 33 75 34 56 35 59 36
REMARK SMILES IDX 74 37 94 38 57 39 58 40 73 42 95 43 60 44 43 45 44 46 53 47
REMARK SMILES IDX 45 48 46 49 52 50 54 51 47 52 48 53 49 54 50 55 51 56 77 57
REMARK SMILES IDX 78 58 87 59 79 60 80 61 86 62 88 63 81 64 82 65 83 66 84 67
REMARK SMILES IDX 85 68 61 69 62 70 71 71 63 72 64 73 70 74 72 75 65 76 66 77
REMARK SMILES IDX 67 78 68 79 69 80 11 81 12 82 33 83 13 84 15 85 14 86 16 87
REMARK SMILES IDX 17 88 32 89 18 90 20 91 19 92 21 94 22 95 23 96 31 97 24 98
REMARK SMILES IDX 26 99 25 100 27 101 28 102 29 103 30 104
REMARK H PARENT 8 4 3 12 93 30 59 41 20 93 30 105
REMARK Flexibility Score: inf
ROOT
ATOM      1  N   UNL A   1      31.057  30.079  23.671  1.00  0.00    -0.352 N 
ATOM      2  C   UNL A   1      30.361  29.348  22.742  1.00  0.00     0.251 C 
ATOM      3  O   UNL A   1      30.276  29.737  21.582  1.00  0.00    -0.269 OA
ATOM      4  H   UNL A   1      31.319  30.985  23.392  1.00  0.00     0.163 HD
ENDROOT
BRANCH   1   5
ATOM      5  C   UNL A   1      31.460  29.691  25.014  1.00  0.00     0.116 C 
BRANCH   5   6
ATOM      6  C   UNL A   1      32.914  29.243  25.065  1.00  0.00     0.023 C 
BRANCH   6   7
ATOM      7  C   UNL A   1      33.229  28.222  26.155  1.00  0.00     0.023 C 
BRANCH   7   8
ATOM      8  C   UNL A   1      34.399  28.594  27.056  1.00  0.00     0.116 C 
BRANCH   8   9
ATOM      9  N   UNL A   1      34.191  29.860  27.744  1.00  0.00    -0.352 N 
ATOM     10  O   UNL A   1      34.645  31.516  29.205  1.00  0.00    -0.269 OA
ATOM     11  C   UNL A   1      35.050  30.560  28.561  1.00  0.00     0.251 C 
ATOM     12  H   UNL A   1      33.309  30.275  27.604  1.00  0.00     0.163 HD
BRANCH  11  13
ATOM     13  C   UNL A   1      36.460  30.127  28.664  1.00  0.00     0.039 A 
ATOM     14  C   UNL A   1      36.986  29.733  29.897  1.00  0.00     0.014 A 
ATOM     15  C   UNL A   1      37.264  30.130  27.522  1.00  0.00     0.014 A 
ATOM     16  C   UNL A   1      38.349  29.496  30.019  1.00  0.00     0.010 A 
ATOM     17  C   UNL A   1      38.617  29.797  27.630  1.00  0.00     0.010 A 
ATOM     18  C   UNL A   1      39.177  29.510  28.885  1.00  0.00    -0.014 A 
BRANCH  18  19
ATOM     19  C   UNL A   1      40.609  29.147  29.030  1.00  0.00     0.031 A 
ATOM     20  C   UNL A   1      41.116  27.790  28.632  1.00  0.00     0.074 A 
ATOM     21  C   UNL A   1      41.456  30.073  29.522  1.00  0.00     0.049 A 
ATOM     22  N   UNL A   1      42.334  27.315  28.705  1.00  0.00    -0.248 NA
ATOM     23  C   UNL A   1      40.133  26.840  28.091  1.00  0.00     0.031 C 
ATOM     24  C   UNL A   1      41.067  31.417  29.961  1.00  0.00     0.029 A 
ATOM     25  N   UNL A   1      42.809  30.034  29.731  1.00  0.00    -0.354 N 
ATOM     26  C   UNL A   1      42.262  26.005  28.245  1.00  0.00     0.074 A 
ATOM     27  C   UNL A   1      40.875  25.754  27.913  1.00  0.00     0.031 C 
ATOM     28  C   UNL A   1      42.160  32.083  30.359  1.00  0.00     0.029 A 
ATOM     29  C   UNL A   1      43.313  31.196  30.265  1.00  0.00     0.049 A 
ATOM     30  H   UNL A   1      43.367  29.250  29.520  1.00  0.00     0.167 HD
ATOM     31  C   UNL A   1      43.263  25.101  28.109  1.00  0.00     0.037 A 
ATOM     32  C   UNL A   1      44.560  31.509  30.664  1.00  0.00     0.037 A 
ATOM     33  C   UNL A   1      44.642  25.372  28.430  1.00  0.00     0.049 A 
ATOM     34  C   UNL A   1      45.650  30.491  30.508  1.00  0.00     0.074 A 
ATOM     35  C   UNL A   1      45.740  24.541  28.281  1.00  0.00     0.029 A 
ATOM     36  N   UNL A   1      45.114  26.559  28.973  1.00  0.00    -0.354 N 
ATOM     37  N   UNL A   1      45.571  29.272  30.030  1.00  0.00    -0.248 NA
ATOM     38  C   UNL A   1      46.994  30.885  30.944  1.00  0.00     0.031 C 
ATOM     39  C   UNL A   1      46.866  25.208  28.777  1.00  0.00     0.029 A 
ATOM     40  C   UNL A   1      46.481  26.474  29.190  1.00  0.00     0.049 A 
ATOM     41  H   UNL A   1      44.559  27.347  29.175  1.00  0.00     0.167 HD
ATOM     42  C   UNL A   1      46.858  28.754  30.101  1.00  0.00     0.074 A 
ATOM     43  C   UNL A   1      47.698  29.800  30.650  1.00  0.00     0.031 C 
ATOM     44  C   UNL A   1      47.300  27.523  29.746  1.00  0.00     0.037 A 
BRANCH  31  45
ATOM     45  C   UNL A   1      42.900  23.725  27.620  1.00  0.00     0.058 A 
ATOM     46  C   UNL A   1      42.554  22.689  28.502  1.00  0.00     0.135 A 
ATOM     47  C   UNL A   1      42.875  23.444  26.244  1.00  0.00     0.135 A 
ATOM     48  F   UNL A   1      42.571  22.897  29.829  1.00  0.00    -0.206 F 
ATOM     49  C   UNL A   1      42.230  21.417  28.041  1.00  0.00     0.059 A 
ATOM     50  C   UNL A   1      42.530  22.186  25.758  1.00  0.00     0.059 A 
ATOM     51  F   UNL A   1      43.193  24.397  25.354  1.00  0.00    -0.206 F 
ATOM     52  C   UNL A   1      42.227  21.172  26.666  1.00  0.00     0.060 A 
BRANCH  52  53
ATOM     53  S   UNL A   1      41.827  19.511  26.081  1.00  0.00     0.124 S 
ATOM     54  O   UNL A   1      42.679  19.407  24.901  1.00  0.00    -0.237 OA
ATOM     55  O   UNL A   1      42.213  18.677  27.215  1.00  0.00    -0.237 OA
ATOM     56  O   UNL A   1      40.393  19.580  25.818  1.00  0.00    -0.744 OA
ENDBRANCH  52  53
ENDBRANCH  31  45
BRANCH  32  57
ATOM     57  C   UNL A   1      44.814  32.843  31.263  1.00  0.00     0.058 A 
ATOM     58  C   UNL A   1      45.214  33.929  30.474  1.00  0.00     0.135 A 
ATOM     59  C   UNL A   1      44.585  33.072  32.629  1.00  0.00     0.135 A 
ATOM     60  F   UNL A   1      45.447  33.758  29.164  1.00  0.00    -0.206 F 
ATOM     61  C   UNL A   1      45.378  35.200  31.017  1.00  0.00     0.059 A 
ATOM     62  C   UNL A   1      44.717  34.338  33.190  1.00  0.00     0.059 A 
ATOM     63  F   UNL A   1      44.179  32.068  33.422  1.00  0.00    -0.206 F 
ATOM     64  C   UNL A   1      45.118  35.395  32.376  1.00  0.00     0.060 A 
BRANCH  64  65
ATOM     65  S   UNL A   1      45.249  37.063  33.054  1.00  0.00     0.124 S 
ATOM     66  O   UNL A   1      46.201  36.864  34.141  1.00  0.00    -0.237 OA
ATOM     67  O   UNL A   1      45.737  37.824  31.908  1.00  0.00    -0.237 OA
ATOM     68  O   UNL A   1      43.880  37.368  33.461  1.00  0.00    -0.744 OA
ENDBRANCH  64  65
ENDBRANCH  32  57
BRANCH  44  69
ATOM     69  C   UNL A   1      48.765  27.243  29.928  1.00  0.00     0.058 A 
ATOM     70  C   UNL A   1      49.707  27.595  28.949  1.00  0.00     0.135 A 
ATOM     71  C   UNL A   1      49.236  26.657  31.114  1.00  0.00     0.135 A 
ATOM     72  F   UNL A   1      49.307  28.148  27.793  1.00  0.00    -0.206 F 
ATOM     73  C   UNL A   1      51.066  27.361  29.133  1.00  0.00     0.059 A 
ATOM     74  C   UNL A   1      50.592  26.437  31.329  1.00  0.00     0.059 A 
ATOM     75  F   UNL A   1      48.375  26.308  32.084  1.00  0.00    -0.206 F 
ATOM     76  C   UNL A   1      51.499  26.783  30.328  1.00  0.00     0.060 A 
BRANCH  76  77
ATOM     77  S   UNL A   1      53.268  26.520  30.572  1.00  0.00     0.124 S 
ATOM     78  O   UNL A   1      53.703  26.182  29.221  1.00  0.00    -0.237 OA
ATOM     79  O   UNL A   1      53.712  27.816  31.075  1.00  0.00    -0.237 OA
ATOM     80  O   UNL A   1      53.319  25.428  31.540  1.00  0.00    -0.744 OA
ENDBRANCH  76  77
ENDBRANCH  44  69
ENDBRANCH  18  19
ENDBRANCH  11  13
ENDBRANCH   8   9
ENDBRANCH   7   8
ENDBRANCH   6   7
ENDBRANCH   5   6
ENDBRANCH   1   5
BRANCH   2  81
ATOM     81  C   UNL A   1      29.686  28.099  23.147  1.00  0.00     0.040 A 
ATOM     82  C   UNL A   1      28.328  28.117  23.461  1.00  0.00     0.014 A 
ATOM     83  C   UNL A   1      30.433  26.930  23.320  1.00  0.00     0.018 A 
ATOM     84  C   UNL A   1      27.712  26.948  23.904  1.00  0.00     0.001 A 
ATOM     85  C   UNL A   1      29.843  25.767  23.813  1.00  0.00    -0.039 A 
ATOM     86  C   UNL A   1      28.465  25.783  24.079  1.00  0.00     0.004 A 
BRANCH  85  87
ATOM     87  C   UNL A   1      30.683  24.551  24.161  1.00  0.00     0.074 C 
ATOM     88  C   UNL A   1      30.683  24.274  25.675  1.00  0.00     0.020 C 
ATOM     89  C   UNL A   1      32.102  24.536  23.543  1.00  0.00     0.270 C 
ATOM     90  C   UNL A   1      31.819  24.963  26.420  1.00  0.00     0.062 C 
ATOM     91  N   UNL A   1      33.228  25.036  24.353  1.00  0.00    -0.331 N 
ATOM     92  C   UNL A   1      33.159  24.657  25.768  1.00  0.00     0.262 C 
ATOM     93  H   UNL A   1      33.137  26.051  24.330  1.00  0.00     0.348 HD
BRANCH  91  94
ATOM     94  C   UNL A   1      34.552  24.681  23.759  1.00  0.00     0.299 C 
BRANCH  94  95
ATOM     95  C   UNL A   1      35.167  23.372  24.251  1.00  0.00     0.010 A 
ATOM     96  C   UNL A   1      36.286  23.384  25.097  1.00  0.00     0.010 A 
ATOM     97  C   UNL A   1      34.540  22.143  23.987  1.00  0.00     0.056 A 
ATOM     98  C   UNL A   1      36.714  22.211  25.718  1.00  0.00     0.004 A 
ATOM     99  C   UNL A   1      34.902  20.986  24.677  1.00  0.00     0.119 A 
ATOM    100  C   UNL A   1      36.009  21.022  25.527  1.00  0.00     0.046 A 
BRANCH  99 101
ATOM    101  O   UNL A   1      34.229  19.794  24.652  1.00  0.00    -0.491 OA
BRANCH 101 102
ATOM    102  C   UNL A   1      33.077  19.628  25.490  1.00  0.00     0.257 C 
BRANCH 102 103
ATOM    103  C   UNL A   1      32.601  18.174  25.554  1.00  0.00     0.197 C 
BRANCH 103 104
ATOM    104  O   UNL A   1      32.313  17.632  24.273  1.00  0.00    -0.393 OA
ATOM    105  H   UNL A   1      33.117  17.242  23.899  1.00  0.00     0.210 HD
ENDBRANCH 103 104
ENDBRANCH 102 103
ENDBRANCH 101 102
ENDBRANCH  99 101
ENDBRANCH  94  95
ENDBRANCH  91  94
ENDBRANCH  85  87
ENDBRANCH   2  81
TORSDOF 21
ENDMDL
