MODEL 1
REMARK VINA RESULT:     -10.0      0.000      0.000
REMARK SMILES CCOCCS(=O)(=O)NCC(=O)NCCCCNC(=O)c1ccc(-c2c3nc(c(-c4c(F)cc(S(=O)(=O)[O-])cc4F)c4ccc([nH]4)c(-c4c(F)cc(S(=O)(=O)[O-])cc4F)c4nc(c(-c5c(F)cc(S(=O)(=O)[O-])cc5F)c5ccc2[nH]5)C=C4)C=C3)cc1
REMARK SMILES IDX 14 1 13 2 11 3 12 4 10 6 9 7 6 9 7 10 8 11 5 12 4 13 3 14
REMARK SMILES IDX 2 15 1 16 15 17 16 18 17 19 18 20 19 21 20 23 21 24 22 25
REMARK SMILES IDX 86 26 23 27 85 28 24 29 25 30 26 31 79 32 27 33 84 34 78 35
REMARK SMILES IDX 80 36 28 37 83 38 77 39 76 40 29 42 63 43 42 44 62 45 43 46
REMARK SMILES IDX 46 47 61 48 81 49 44 50 45 51 60 53 82 54 47 55 30 56 31 57
REMARK SMILES IDX 40 58 32 59 33 60 39 61 41 62 34 63 35 64 36 65 37 66 38 67
REMARK SMILES IDX 64 68 65 69 74 70 66 71 67 72 73 73 75 74 68 75 69 76 70 77
REMARK SMILES IDX 71 78 72 79 48 80 49 81 58 82 50 83 51 84 57 85 59 86 52 87
REMARK SMILES IDX 53 88 54 89 55 90 56 91
REMARK H PARENT 13 5 9 8 18 22 80 41 46 52
REMARK Flexibility Score: inf
ROOT
ATOM      1  C   UNL A   1      45.467  23.945  27.014  1.00  0.00     0.116 C 
ENDROOT
BRANCH   1   2
ATOM      2  N   UNL A   1      46.212  24.165  25.814  1.00  0.00    -0.355 N 
ATOM      3  C   UNL A   1      46.522  23.309  24.816  1.00  0.00     0.235 C 
ATOM      4  O   UNL A   1      47.143  23.821  23.870  1.00  0.00    -0.274 OA
ATOM      5  H   UNL A   1      46.551  25.081  25.697  1.00  0.00     0.163 HD
BRANCH   3   6
ATOM      6  C   UNL A   1      46.055  21.884  24.657  1.00  0.00     0.198 C 
BRANCH   6   7
ATOM      7  N   UNL A   1      46.547  20.505  24.532  1.00  0.00    -0.206 NA
ATOM      8  H   UNL A   1      47.098  20.517  23.675  1.00  0.00     0.141 HD
BRANCH   7   9
ATOM      9  S   UNL A   1      45.723  19.083  24.458  1.00  0.00     0.214 S 
ATOM     10  O   UNL A   1      46.215  18.177  25.466  1.00  0.00    -0.212 OA
ATOM     11  O   UNL A   1      45.820  18.707  23.065  1.00  0.00    -0.212 OA
BRANCH   9  12
ATOM     12  C   UNL A   1      43.990  19.481  24.735  1.00  0.00     0.182 C 
BRANCH  12  13
ATOM     13  C   UNL A   1      43.179  18.781  25.815  1.00  0.00     0.177 C 
BRANCH  13  14
ATOM     14  O   UNL A   1      41.781  19.069  25.797  1.00  0.00    -0.381 OA
BRANCH  14  15
ATOM     15  C   UNL A   1      41.250  19.840  26.869  1.00  0.00     0.156 C 
ATOM     16  C   UNL A   1      40.898  21.276  26.512  1.00  0.00     0.035 C 
ENDBRANCH  14  15
ENDBRANCH  13  14
ENDBRANCH  12  13
ENDBRANCH   9  12
ENDBRANCH   7   9
ENDBRANCH   6   7
ENDBRANCH   3   6
ENDBRANCH   1   2
BRANCH   1  17
ATOM     17  C   UNL A   1      44.053  24.509  26.951  1.00  0.00     0.023 C 
BRANCH  17  18
ATOM     18  C   UNL A   1      43.577  24.781  25.536  1.00  0.00     0.023 C 
BRANCH  18  19
ATOM     19  C   UNL A   1      42.424  25.773  25.471  1.00  0.00     0.116 C 
BRANCH  19  20
ATOM     20  N   UNL A   1      41.114  25.134  25.390  1.00  0.00    -0.352 N 
ATOM     21  C   UNL A   1      40.103  25.134  26.325  1.00  0.00     0.251 C 
ATOM     22  H   UNL A   1      40.930  24.639  24.560  1.00  0.00     0.163 HD
ATOM     23  O   UNL A   1      39.099  24.448  26.164  1.00  0.00    -0.269 OA
BRANCH  21  24
ATOM     24  C   UNL A   1      40.279  25.947  27.544  1.00  0.00     0.039 A 
ATOM     25  C   UNL A   1      41.097  27.074  27.499  1.00  0.00     0.014 A 
ATOM     26  C   UNL A   1      39.520  25.658  28.680  1.00  0.00     0.014 A 
ATOM     27  C   UNL A   1      41.082  27.967  28.571  1.00  0.00     0.010 A 
ATOM     28  C   UNL A   1      39.410  26.611  29.681  1.00  0.00     0.010 A 
ATOM     29  C   UNL A   1      40.198  27.771  29.646  1.00  0.00    -0.014 A 
BRANCH  29  30
ATOM     30  C   UNL A   1      40.097  28.754  30.757  1.00  0.00     0.031 A 
ATOM     31  C   UNL A   1      40.976  28.595  31.971  1.00  0.00     0.074 A 
ATOM     32  C   UNL A   1      39.188  29.748  30.701  1.00  0.00     0.049 A 
ATOM     33  N   UNL A   1      41.007  29.309  33.066  1.00  0.00    -0.248 NA
ATOM     34  C   UNL A   1      41.918  27.463  31.970  1.00  0.00     0.031 C 
ATOM     35  C   UNL A   1      38.233  29.966  29.609  1.00  0.00     0.029 A 
ATOM     36  N   UNL A   1      38.913  30.762  31.583  1.00  0.00    -0.354 N 
ATOM     37  C   UNL A   1      41.962  28.709  33.879  1.00  0.00     0.074 A 
ATOM     38  C   UNL A   1      42.422  27.525  33.192  1.00  0.00     0.031 C 
ATOM     39  C   UNL A   1      37.509  31.067  29.868  1.00  0.00     0.029 A 
ATOM     40  C   UNL A   1      37.914  31.610  31.161  1.00  0.00     0.049 A 
ATOM     41  H   UNL A   1      39.386  30.874  32.438  1.00  0.00     0.167 HD
ATOM     42  C   UNL A   1      42.445  29.128  35.072  1.00  0.00     0.037 A 
ATOM     43  C   UNL A   1      37.384  32.700  31.751  1.00  0.00     0.037 A 
ATOM     44  C   UNL A   1      42.003  30.323  35.737  1.00  0.00     0.049 A 
ATOM     45  C   UNL A   1      37.933  33.143  33.083  1.00  0.00     0.074 A 
ATOM     46  C   UNL A   1      42.456  30.864  36.927  1.00  0.00     0.029 A 
ATOM     47  N   UNL A   1      41.005  31.166  35.268  1.00  0.00    -0.354 N 
ATOM     48  N   UNL A   1      38.885  32.600  33.806  1.00  0.00    -0.248 NA
ATOM     49  C   UNL A   1      37.344  34.351  33.676  1.00  0.00     0.031 C 
ATOM     50  C   UNL A   1      41.700  32.007  37.201  1.00  0.00     0.029 A 
ATOM     51  C   UNL A   1      40.816  32.213  36.154  1.00  0.00     0.049 A 
ATOM     52  H   UNL A   1      40.506  31.039  34.429  1.00  0.00     0.167 HD
ATOM     53  C   UNL A   1      39.030  33.419  34.921  1.00  0.00     0.074 A 
ATOM     54  C   UNL A   1      38.079  34.501  34.768  1.00  0.00     0.031 C 
ATOM     55  C   UNL A   1      39.872  33.288  35.976  1.00  0.00     0.037 A 
BRANCH  42  56
ATOM     56  C   UNL A   1      43.521  28.297  35.717  1.00  0.00     0.058 A 
ATOM     57  C   UNL A   1      43.213  27.276  36.632  1.00  0.00     0.135 A 
ATOM     58  C   UNL A   1      44.874  28.505  35.403  1.00  0.00     0.135 A 
ATOM     59  F   UNL A   1      41.938  27.045  36.986  1.00  0.00    -0.206 F 
ATOM     60  C   UNL A   1      44.206  26.513  37.236  1.00  0.00     0.059 A 
ATOM     61  C   UNL A   1      45.883  27.730  35.969  1.00  0.00     0.059 A 
ATOM     62  F   UNL A   1      45.228  29.469  34.539  1.00  0.00    -0.206 F 
ATOM     63  C   UNL A   1      45.540  26.747  36.895  1.00  0.00     0.060 A 
BRANCH  63  64
ATOM     64  S   UNL A   1      46.814  25.739  37.681  1.00  0.00     0.124 S 
ATOM     65  O   UNL A   1      47.753  25.547  36.580  1.00  0.00    -0.237 OA
ATOM     66  O   UNL A   1      47.273  26.605  38.762  1.00  0.00    -0.237 OA
ATOM     67  O   UNL A   1      46.091  24.544  38.102  1.00  0.00    -0.744 OA
ENDBRANCH  63  64
ENDBRANCH  42  56
BRANCH  43  68
ATOM     68  C   UNL A   1      36.293  33.464  31.084  1.00  0.00     0.058 A 
ATOM     69  C   UNL A   1      36.544  34.233  29.937  1.00  0.00     0.135 A 
ATOM     70  C   UNL A   1      34.982  33.452  31.585  1.00  0.00     0.135 A 
ATOM     71  F   UNL A   1      37.781  34.283  29.420  1.00  0.00    -0.206 F 
ATOM     72  C   UNL A   1      35.543  34.986  29.329  1.00  0.00     0.059 A 
ATOM     73  C   UNL A   1      33.957  34.172  30.976  1.00  0.00     0.059 A 
ATOM     74  F   UNL A   1      34.682  32.719  32.668  1.00  0.00    -0.206 F 
ATOM     75  C   UNL A   1      34.253  34.949  29.858  1.00  0.00     0.060 A 
BRANCH  75  76
ATOM     76  S   UNL A   1      32.957  35.912  29.047  1.00  0.00     0.124 S 
ATOM     77  O   UNL A   1      32.157  36.345  30.186  1.00  0.00    -0.237 OA
ATOM     78  O   UNL A   1      33.725  36.953  28.373  1.00  0.00    -0.237 OA
ATOM     79  O   UNL A   1      32.320  34.940  28.163  1.00  0.00    -0.744 OA
ENDBRANCH  75  76
ENDBRANCH  43  68
BRANCH  55  80
ATOM     80  C   UNL A   1      39.836  34.364  37.028  1.00  0.00     0.058 A 
ATOM     81  C   UNL A   1      40.446  35.612  36.834  1.00  0.00     0.135 A 
ATOM     82  C   UNL A   1      39.137  34.154  38.229  1.00  0.00     0.135 A 
ATOM     83  F   UNL A   1      41.130  35.862  35.706  1.00  0.00    -0.206 F 
ATOM     84  C   UNL A   1      40.391  36.605  37.807  1.00  0.00     0.059 A 
ATOM     85  C   UNL A   1      39.040  35.145  39.200  1.00  0.00     0.059 A 
ATOM     86  F   UNL A   1      38.523  32.983  38.459  1.00  0.00    -0.206 F 
ATOM     87  C   UNL A   1      39.683  36.362  38.985  1.00  0.00     0.060 A 
BRANCH  87  88
ATOM     88  S   UNL A   1      39.599  37.670  40.226  1.00  0.00     0.124 S 
ATOM     89  O   UNL A   1      38.966  36.976  41.343  1.00  0.00    -0.237 OA
ATOM     90  O   UNL A   1      41.005  38.017  40.409  1.00  0.00    -0.237 OA
ATOM     91  O   UNL A   1      38.784  38.697  39.583  1.00  0.00    -0.744 OA
ENDBRANCH  87  88
ENDBRANCH  55  80
ENDBRANCH  29  30
ENDBRANCH  21  24
ENDBRANCH  19  20
ENDBRANCH  18  19
ENDBRANCH  17  18
ENDBRANCH   1  17
TORSDOF 20
ENDMDL
MODEL 2
REMARK VINA RESULT:      -9.9      5.787     11.780
REMARK SMILES CCOCCS(=O)(=O)NCC(=O)NCCCCNC(=O)c1ccc(-c2c3nc(c(-c4c(F)cc(S(=O)(=O)[O-])cc4F)c4ccc([nH]4)c(-c4c(F)cc(S(=O)(=O)[O-])cc4F)c4nc(c(-c5c(F)cc(S(=O)(=O)[O-])cc5F)c5ccc2[nH]5)C=C4)C=C3)cc1
REMARK SMILES IDX 14 1 13 2 11 3 12 4 10 6 9 7 6 9 7 10 8 11 5 12 4 13 3 14
REMARK SMILES IDX 2 15 1 16 15 17 16 18 17 19 18 20 19 21 20 23 21 24 22 25
REMARK SMILES IDX 86 26 23 27 85 28 24 29 25 30 26 31 79 32 27 33 84 34 78 35
REMARK SMILES IDX 80 36 28 37 83 38 77 39 76 40 29 42 63 43 42 44 62 45 43 46
REMARK SMILES IDX 46 47 61 48 81 49 44 50 45 51 60 53 82 54 47 55 30 56 31 57
REMARK SMILES IDX 40 58 32 59 33 60 39 61 41 62 34 63 35 64 36 65 37 66 38 67
REMARK SMILES IDX 64 68 65 69 74 70 66 71 67 72 73 73 75 74 68 75 69 76 70 77
REMARK SMILES IDX 71 78 72 79 48 80 49 81 58 82 50 83 51 84 57 85 59 86 52 87
REMARK SMILES IDX 53 88 54 89 55 90 56 91
REMARK H PARENT 13 5 9 8 18 22 80 41 46 52
REMARK Flexibility Score: inf
ROOT
ATOM      1  C   UNL A   1      30.841  26.354  25.839  1.00  0.00     0.116 C 
ENDROOT
BRANCH   1   2
ATOM      2  N   UNL A   1      30.495  25.026  26.240  1.00  0.00    -0.355 N 
ATOM      3  C   UNL A   1      31.166  23.865  26.067  1.00  0.00     0.235 C 
ATOM      4  O   UNL A   1      30.624  22.874  26.583  1.00  0.00    -0.274 OA
ATOM      5  H   UNL A   1      29.637  24.944  26.714  1.00  0.00     0.163 HD
BRANCH   3   6
ATOM      6  C   UNL A   1      32.544  23.685  25.483  1.00  0.00     0.198 C 
BRANCH   6   7
ATOM      7  N   UNL A   1      33.496  22.657  25.042  1.00  0.00    -0.206 NA
ATOM      8  H   UNL A   1      33.352  22.602  24.035  1.00  0.00     0.141 HD
BRANCH   7   9
ATOM      9  S   UNL A   1      33.661  21.088  25.508  1.00  0.00     0.214 S 
ATOM     10  O   UNL A   1      33.519  20.982  26.939  1.00  0.00    -0.212 OA
ATOM     11  O   UNL A   1      34.904  20.680  24.891  1.00  0.00    -0.212 OA
BRANCH   9  12
ATOM     12  C   UNL A   1      32.370  20.165  24.658  1.00  0.00     0.182 C 
BRANCH  12  13
ATOM     13  C   UNL A   1      32.476  18.661  24.455  1.00  0.00     0.177 C 
BRANCH  13  14
ATOM     14  O   UNL A   1      32.314  17.883  25.640  1.00  0.00    -0.381 OA
BRANCH  14  15
ATOM     15  C   UNL A   1      32.695  16.513  25.591  1.00  0.00     0.156 C 
ATOM     16  C   UNL A   1      33.860  16.206  24.662  1.00  0.00     0.035 C 
ENDBRANCH  14  15
ENDBRANCH  13  14
ENDBRANCH  12  13
ENDBRANCH   9  12
ENDBRANCH   7   9
ENDBRANCH   6   7
ENDBRANCH   3   6
ENDBRANCH   1   2
BRANCH   1  17
ATOM     17  C   UNL A   1      31.578  27.132  26.923  1.00  0.00     0.023 C 
BRANCH  17  18
ATOM     18  C   UNL A   1      32.289  28.365  26.399  1.00  0.00     0.023 C 
BRANCH  18  19
ATOM     19  C   UNL A   1      33.542  28.717  27.189  1.00  0.00     0.116 C 
BRANCH  19  20
ATOM     20  N   UNL A   1      33.528  30.075  27.722  1.00  0.00    -0.352 N 
ATOM     21  C   UNL A   1      34.540  30.754  28.363  1.00  0.00     0.251 C 
ATOM     22  H   UNL A   1      32.686  30.571  27.608  1.00  0.00     0.163 HD
ATOM     23  O   UNL A   1      34.339  31.855  28.865  1.00  0.00    -0.269 OA
BRANCH  21  24
ATOM     24  C   UNL A   1      35.860  30.101  28.469  1.00  0.00     0.039 A 
ATOM     25  C   UNL A   1      36.716  30.112  27.369  1.00  0.00     0.014 A 
ATOM     26  C   UNL A   1      36.287  29.607  29.704  1.00  0.00     0.014 A 
ATOM     27  C   UNL A   1      38.041  29.707  27.536  1.00  0.00     0.010 A 
ATOM     28  C   UNL A   1      37.633  29.331  29.894  1.00  0.00     0.010 A 
ATOM     29  C   UNL A   1      38.524  29.365  28.810  1.00  0.00    -0.014 A 
BRANCH  29  30
ATOM     30  C   UNL A   1      39.952  29.016  29.031  1.00  0.00     0.031 A 
ATOM     31  C   UNL A   1      40.890  30.051  29.595  1.00  0.00     0.074 A 
ATOM     32  C   UNL A   1      40.414  27.800  28.677  1.00  0.00     0.049 A 
ATOM     33  N   UNL A   1      42.177  29.967  29.814  1.00  0.00    -0.248 NA
ATOM     34  C   UNL A   1      40.315  31.367  29.922  1.00  0.00     0.031 C 
ATOM     35  C   UNL A   1      39.618  26.735  28.059  1.00  0.00     0.029 A 
ATOM     36  N   UNL A   1      41.667  27.251  28.785  1.00  0.00    -0.354 N 
ATOM     37  C   UNL A   1      42.559  31.214  30.295  1.00  0.00     0.074 A 
ATOM     38  C   UNL A   1      41.391  32.063  30.253  1.00  0.00     0.031 C 
ATOM     39  C   UNL A   1      40.392  25.651  27.880  1.00  0.00     0.029 A 
ATOM     40  C   UNL A   1      41.747  25.954  28.329  1.00  0.00     0.049 A 
ATOM     41  H   UNL A   1      42.438  27.739  29.153  1.00  0.00     0.167 HD
ATOM     42  C   UNL A   1      43.763  31.608  30.771  1.00  0.00     0.037 A 
ATOM     43  C   UNL A   1      42.794  25.107  28.279  1.00  0.00     0.037 A 
ATOM     44  C   UNL A   1      44.915  30.750  30.836  1.00  0.00     0.049 A 
ATOM     45  C   UNL A   1      44.128  25.570  28.807  1.00  0.00     0.074 A 
ATOM     46  C   UNL A   1      46.172  31.032  31.340  1.00  0.00     0.029 A 
ATOM     47  N   UNL A   1      44.950  29.438  30.385  1.00  0.00    -0.354 N 
ATOM     48  N   UNL A   1      44.453  26.734  29.322  1.00  0.00    -0.248 NA
ATOM     49  C   UNL A   1      45.233  24.605  28.757  1.00  0.00     0.031 C 
ATOM     50  C   UNL A   1      46.980  29.908  31.150  1.00  0.00     0.029 A 
ATOM     51  C   UNL A   1      46.212  28.903  30.583  1.00  0.00     0.049 A 
ATOM     52  H   UNL A   1      44.190  28.957  29.985  1.00  0.00     0.167 HD
ATOM     53  C   UNL A   1      45.791  26.627  29.687  1.00  0.00     0.074 A 
ATOM     54  C   UNL A   1      46.208  25.282  29.347  1.00  0.00     0.031 C 
ATOM     55  C   UNL A   1      46.603  27.557  30.250  1.00  0.00     0.037 A 
BRANCH  42  56
ATOM     56  C   UNL A   1      43.884  33.020  31.275  1.00  0.00     0.058 A 
ATOM     57  C   UNL A   1      43.610  33.350  32.614  1.00  0.00     0.135 A 
ATOM     58  C   UNL A   1      44.300  34.054  30.421  1.00  0.00     0.135 A 
ATOM     59  F   UNL A   1      43.189  32.405  33.471  1.00  0.00    -0.206 F 
ATOM     60  C   UNL A   1      43.713  34.655  33.080  1.00  0.00     0.059 A 
ATOM     61  C   UNL A   1      44.443  35.363  30.874  1.00  0.00     0.059 A 
ATOM     62  F   UNL A   1      44.571  33.800  29.132  1.00  0.00    -0.206 F 
ATOM     63  C   UNL A   1      44.133  35.656  32.201  1.00  0.00     0.060 A 
BRANCH  63  64
ATOM     64  S   UNL A   1      44.270  37.343  32.827  1.00  0.00     0.124 S 
ATOM     65  O   UNL A   1      44.235  38.116  31.590  1.00  0.00    -0.237 OA
ATOM     66  O   UNL A   1      43.091  37.455  33.679  1.00  0.00    -0.237 OA
ATOM     67  O   UNL A   1      45.550  37.342  33.529  1.00  0.00    -0.744 OA
ENDBRANCH  63  64
ENDBRANCH  42  56
BRANCH  43  68
ATOM     68  C   UNL A   1      42.626  23.731  27.734  1.00  0.00     0.058 A 
ATOM     69  C   UNL A   1      42.607  23.497  26.350  1.00  0.00     0.135 A 
ATOM     70  C   UNL A   1      42.469  22.624  28.583  1.00  0.00     0.135 A 
ATOM     71  F   UNL A   1      42.748  24.521  25.495  1.00  0.00    -0.206 F 
ATOM     72  C   UNL A   1      42.408  22.223  25.827  1.00  0.00     0.059 A 
ATOM     73  C   UNL A   1      42.299  21.336  28.084  1.00  0.00     0.059 A 
ATOM     74  F   UNL A   1      42.498  22.788  29.914  1.00  0.00    -0.206 F 
ATOM     75  C   UNL A   1      42.253  21.148  26.704  1.00  0.00     0.060 A 
BRANCH  75  76
ATOM     76  S   UNL A   1      42.019  19.495  26.015  1.00  0.00     0.124 S 
ATOM     77  O   UNL A   1      42.468  18.651  27.116  1.00  0.00    -0.237 OA
ATOM     78  O   UNL A   1      40.586  19.478  25.741  1.00  0.00    -0.237 OA
ATOM     79  O   UNL A   1      42.876  19.499  24.833  1.00  0.00    -0.744 OA
ENDBRANCH  75  76
ENDBRANCH  43  68
BRANCH  55  80
ATOM     80  C   UNL A   1      48.012  27.140  30.576  1.00  0.00     0.058 A 
ATOM     81  C   UNL A   1      49.080  27.385  29.700  1.00  0.00     0.135 A 
ATOM     82  C   UNL A   1      48.300  26.528  31.808  1.00  0.00     0.135 A 
ATOM     83  F   UNL A   1      48.858  27.963  28.509  1.00  0.00    -0.206 F 
ATOM     84  C   UNL A   1      50.381  27.010  30.019  1.00  0.00     0.059 A 
ATOM     85  C   UNL A   1      49.598  26.177  32.162  1.00  0.00     0.059 A 
ATOM     86  F   UNL A   1      47.317  26.284  32.689  1.00  0.00    -0.206 F 
ATOM     87  C   UNL A   1      50.629  26.409  31.254  1.00  0.00     0.060 A 
BRANCH  87  88
ATOM     88  S   UNL A   1      52.327  25.953  31.666  1.00  0.00     0.124 S 
ATOM     89  O   UNL A   1      52.659  26.941  32.686  1.00  0.00    -0.237 OA
ATOM     90  O   UNL A   1      52.174  24.580  32.138  1.00  0.00    -0.237 OA
ATOM     91  O   UNL A   1      53.035  26.098  30.397  1.00  0.00    -0.744 OA
ENDBRANCH  87  88
ENDBRANCH  55  80
ENDBRANCH  29  30
ENDBRANCH  21  24
ENDBRANCH  19  20
ENDBRANCH  18  19
ENDBRANCH  17  18
ENDBRANCH   1  17
TORSDOF 20
ENDMDL
MODEL 3
REMARK VINA RESULT:      -9.6      5.583     10.887
REMARK SMILES CCOCCS(=O)(=O)NCC(=O)NCCCCNC(=O)c1ccc(-c2c3nc(c(-c4c(F)cc(S(=O)(=O)[O-])cc4F)c4ccc([nH]4)c(-c4c(F)cc(S(=O)(=O)[O-])cc4F)c4nc(c(-c5c(F)cc(S(=O)(=O)[O-])cc5F)c5ccc2[nH]5)C=C4)C=C3)cc1
REMARK SMILES IDX 14 1 13 2 11 3 12 4 10 6 9 7 6 9 7 10 8 11 5 12 4 13 3 14
REMARK SMILES IDX 2 15 1 16 15 17 16 18 17 19 18 20 19 21 20 23 21 24 22 25
REMARK SMILES IDX 86 26 23 27 85 28 24 29 25 30 26 31 79 32 27 33 84 34 78 35
REMARK SMILES IDX 80 36 28 37 83 38 77 39 76 40 29 42 63 43 42 44 62 45 43 46
REMARK SMILES IDX 46 47 61 48 81 49 44 50 45 51 60 53 82 54 47 55 30 56 31 57
REMARK SMILES IDX 40 58 32 59 33 60 39 61 41 62 34 63 35 64 36 65 37 66 38 67
REMARK SMILES IDX 64 68 65 69 74 70 66 71 67 72 73 73 75 74 68 75 69 76 70 77
REMARK SMILES IDX 71 78 72 79 48 80 49 81 58 82 50 83 51 84 57 85 59 86 52 87
REMARK SMILES IDX 53 88 54 89 55 90 56 91
REMARK H PARENT 13 5 9 8 18 22 80 41 46 52
REMARK Flexibility Score: inf
ROOT
ATOM      1  C   UNL A   1      32.398  26.410  24.308  1.00  0.00     0.116 C 
ENDROOT
BRANCH   1   2
ATOM      2  N   UNL A   1      32.717  26.239  22.926  1.00  0.00    -0.355 N 
ATOM      3  C   UNL A   1      33.147  25.143  22.263  1.00  0.00     0.235 C 
ATOM      4  O   UNL A   1      33.286  25.301  21.039  1.00  0.00    -0.274 OA
ATOM      5  H   UNL A   1      32.606  27.044  22.371  1.00  0.00     0.163 HD
BRANCH   3   6
ATOM      6  C   UNL A   1      33.304  23.747  22.812  1.00  0.00     0.198 C 
BRANCH   6   7
ATOM      7  N   UNL A   1      33.155  22.957  24.042  1.00  0.00    -0.206 NA
ATOM      8  H   UNL A   1      34.064  23.034  24.496  1.00  0.00     0.141 HD
BRANCH   7   9
ATOM      9  S   UNL A   1      32.735  21.380  24.250  1.00  0.00     0.214 S 
ATOM     10  O   UNL A   1      32.279  20.823  23.001  1.00  0.00    -0.212 OA
ATOM     11  O   UNL A   1      31.831  21.415  25.378  1.00  0.00    -0.212 OA
BRANCH   9  12
ATOM     12  C   UNL A   1      34.211  20.533  24.836  1.00  0.00     0.182 C 
BRANCH  12  13
ATOM     13  C   UNL A   1      35.561  21.233  24.881  1.00  0.00     0.177 C 
BRANCH  13  14
ATOM     14  O   UNL A   1      35.629  22.346  25.773  1.00  0.00    -0.381 OA
BRANCH  14  15
ATOM     15  C   UNL A   1      36.319  23.509  25.330  1.00  0.00     0.156 C 
ATOM     16  C   UNL A   1      37.648  23.769  26.023  1.00  0.00     0.035 C 
ENDBRANCH  14  15
ENDBRANCH  13  14
ENDBRANCH  12  13
ENDBRANCH   9  12
ENDBRANCH   7   9
ENDBRANCH   6   7
ENDBRANCH   3   6
ENDBRANCH   1   2
BRANCH   1  17
ATOM     17  C   UNL A   1      33.624  26.658  25.179  1.00  0.00     0.023 C 
BRANCH  17  18
ATOM     18  C   UNL A   1      33.761  28.101  25.627  1.00  0.00     0.023 C 
BRANCH  18  19
ATOM     19  C   UNL A   1      33.731  28.265  27.140  1.00  0.00     0.116 C 
BRANCH  19  20
ATOM     20  N   UNL A   1      33.622  29.656  27.570  1.00  0.00    -0.352 N 
ATOM     21  C   UNL A   1      34.586  30.451  28.149  1.00  0.00     0.251 C 
ATOM     22  H   UNL A   1      32.746  30.080  27.428  1.00  0.00     0.163 HD
ATOM     23  O   UNL A   1      34.308  31.569  28.568  1.00  0.00    -0.269 OA
BRANCH  21  24
ATOM     24  C   UNL A   1      35.949  29.905  28.290  1.00  0.00     0.039 A 
ATOM     25  C   UNL A   1      36.840  30.010  27.222  1.00  0.00     0.014 A 
ATOM     26  C   UNL A   1      36.372  29.417  29.528  1.00  0.00     0.014 A 
ATOM     27  C   UNL A   1      38.186  29.709  27.429  1.00  0.00     0.010 A 
ATOM     28  C   UNL A   1      37.728  29.246  29.762  1.00  0.00     0.010 A 
ATOM     29  C   UNL A   1      38.651  29.376  28.713  1.00  0.00    -0.014 A 
BRANCH  29  30
ATOM     30  C   UNL A   1      40.094  29.139  28.979  1.00  0.00     0.031 A 
ATOM     31  C   UNL A   1      40.696  27.795  28.660  1.00  0.00     0.074 A 
ATOM     32  C   UNL A   1      40.844  30.102  29.551  1.00  0.00     0.049 A 
ATOM     33  N   UNL A   1      41.915  27.368  28.863  1.00  0.00    -0.248 NA
ATOM     34  C   UNL A   1      39.801  26.785  28.070  1.00  0.00     0.031 C 
ATOM     35  C   UNL A   1      40.360  31.422  29.968  1.00  0.00     0.029 A 
ATOM     36  N   UNL A   1      42.175  30.123  29.884  1.00  0.00    -0.354 N 
ATOM     37  C   UNL A   1      41.927  26.046  28.433  1.00  0.00     0.074 A 
ATOM     38  C   UNL A   1      40.577  25.713  28.042  1.00  0.00     0.031 C 
ATOM     39  C   UNL A   1      41.386  32.134  30.462  1.00  0.00     0.029 A 
ATOM     40  C   UNL A   1      42.592  31.312  30.439  1.00  0.00     0.049 A 
ATOM     41  H   UNL A   1      42.777  29.357  29.740  1.00  0.00     0.167 HD
ATOM     42  C   UNL A   1      42.976  25.196  28.330  1.00  0.00     0.037 A 
ATOM     43  C   UNL A   1      43.806  31.694  30.879  1.00  0.00     0.037 A 
ATOM     44  C   UNL A   1      44.323  25.543  28.695  1.00  0.00     0.049 A 
ATOM     45  C   UNL A   1      44.957  30.728  30.763  1.00  0.00     0.074 A 
ATOM     46  C   UNL A   1      45.468  24.774  28.591  1.00  0.00     0.029 A 
ATOM     47  N   UNL A   1      44.707  26.763  29.232  1.00  0.00    -0.354 N 
ATOM     48  N   UNL A   1      44.963  29.503  30.288  1.00  0.00    -0.248 NA
ATOM     49  C   UNL A   1      46.268  31.197  31.230  1.00  0.00     0.031 C 
ATOM     50  C   UNL A   1      46.536  25.511  29.109  1.00  0.00     0.029 A 
ATOM     51  C   UNL A   1      46.069  26.761  29.482  1.00  0.00     0.049 A 
ATOM     52  H   UNL A   1      44.101  27.519  29.410  1.00  0.00     0.167 HD
ATOM     53  C   UNL A   1      46.282  29.069  30.371  1.00  0.00     0.074 A 
ATOM     54  C   UNL A   1      47.046  30.168  30.926  1.00  0.00     0.031 C 
ATOM     55  C   UNL A   1      46.814  27.871  30.022  1.00  0.00     0.037 A 
BRANCH  42  56
ATOM     56  C   UNL A   1      42.706  23.821  27.783  1.00  0.00     0.058 A 
ATOM     57  C   UNL A   1      42.438  22.731  28.630  1.00  0.00     0.135 A 
ATOM     58  C   UNL A   1      42.690  23.590  26.398  1.00  0.00     0.135 A 
ATOM     59  F   UNL A   1      42.460  22.889  29.963  1.00  0.00    -0.206 F 
ATOM     60  C   UNL A   1      42.197  21.458  28.126  1.00  0.00     0.059 A 
ATOM     61  C   UNL A   1      42.417  22.330  25.870  1.00  0.00     0.059 A 
ATOM     62  F   UNL A   1      42.943  24.591  25.542  1.00  0.00    -0.206 F 
ATOM     63  C   UNL A   1      42.186  21.268  26.743  1.00  0.00     0.060 A 
BRANCH  63  64
ATOM     64  S   UNL A   1      41.861  19.611  26.108  1.00  0.00     0.124 S 
ATOM     65  O   UNL A   1      42.725  19.574  24.933  1.00  0.00    -0.237 OA
ATOM     66  O   UNL A   1      42.272  18.765  27.224  1.00  0.00    -0.237 OA
ATOM     67  O   UNL A   1      40.428  19.628  25.832  1.00  0.00    -0.744 OA
ENDBRANCH  63  64
ENDBRANCH  42  56
BRANCH  43  68
ATOM     68  C   UNL A   1      44.009  33.056  31.447  1.00  0.00     0.058 A 
ATOM     69  C   UNL A   1      43.908  33.288  32.828  1.00  0.00     0.135 A 
ATOM     70  C   UNL A   1      44.295  34.155  30.622  1.00  0.00     0.135 A 
ATOM     71  F   UNL A   1      43.631  32.272  33.660  1.00  0.00    -0.206 F 
ATOM     72  C   UNL A   1      44.052  34.563  33.367  1.00  0.00     0.059 A 
ATOM     73  C   UNL A   1      44.474  35.435  31.141  1.00  0.00     0.059 A 
ATOM     74  F   UNL A   1      44.422  33.987  29.297  1.00  0.00    -0.206 F 
ATOM     75  C   UNL A   1      44.334  35.631  32.514  1.00  0.00     0.060 A 
BRANCH  75  76
ATOM     76  S   UNL A   1      44.542  37.277  33.227  1.00  0.00     0.124 S 
ATOM     77  O   UNL A   1      44.959  38.050  32.063  1.00  0.00    -0.237 OA
ATOM     78  O   UNL A   1      43.205  37.561  33.737  1.00  0.00    -0.237 OA
ATOM     79  O   UNL A   1      45.566  37.074  34.248  1.00  0.00    -0.744 OA
ENDBRANCH  75  76
ENDBRANCH  43  68
BRANCH  55  80
ATOM     80  C   UNL A   1      48.299  27.698  30.187  1.00  0.00     0.058 A 
ATOM     81  C   UNL A   1      49.208  28.105  29.199  1.00  0.00     0.135 A 
ATOM     82  C   UNL A   1      48.820  27.161  31.377  1.00  0.00     0.135 A 
ATOM     83  F   UNL A   1      48.762  28.621  28.042  1.00  0.00    -0.206 F 
ATOM     84  C   UNL A   1      50.580  27.957  29.369  1.00  0.00     0.059 A 
ATOM     85  C   UNL A   1      50.190  27.035  31.582  1.00  0.00     0.059 A 
ATOM     86  F   UNL A   1      47.996  26.769  32.361  1.00  0.00    -0.206 F 
ATOM     87  C   UNL A   1      51.061  27.423  30.566  1.00  0.00     0.060 A 
BRANCH  87  88
ATOM     88  S   UNL A   1      52.846  27.261  30.784  1.00  0.00     0.124 S 
ATOM     89  O   UNL A   1      53.346  27.784  29.517  1.00  0.00    -0.237 OA
ATOM     90  O   UNL A   1      53.093  28.093  31.957  1.00  0.00    -0.237 OA
ATOM     91  O   UNL A   1      53.034  25.827  30.989  1.00  0.00    -0.744 OA
ENDBRANCH  87  88
ENDBRANCH  55  80
ENDBRANCH  29  30
ENDBRANCH  21  24
ENDBRANCH  19  20
ENDBRANCH  18  19
ENDBRANCH  17  18
ENDBRANCH   1  17
TORSDOF 20
ENDMDL
