MODEL 1
REMARK VINA RESULT:     -12.4      0.000      0.000
REMARK SMILES COc1ccc(S(=O)(=O)N[C@@H](CO)C(=O)NCCCCNC(=O)c2ccc(-c3c4nc(c(-c5c(F)cc(S(=O)(=O)[O-])cc5F)c5ccc([nH]5)c(-c5c(F)cc(S(=O)(=O)[O-])cc5F)c5nc(c(-c6c(F)cc(S(=O)(=O)[O-])cc6F)c6ccc3[nH]6)C=C5)C=C4)cc2)cc1C
REMARK SMILES IDX 18 1 17 2 16 3 14 4 15 5 11 7 10 8 7 10 8 11 9 12 6 13 3 14
REMARK SMILES IDX 4 15 91 16 5 17 90 18 92 19 2 20 1 21 12 22 13 23 19 25
REMARK SMILES IDX 20 26 21 27 22 28 23 30 24 31 25 32 89 33 26 34 88 35 27 36
REMARK SMILES IDX 28 37 29 38 82 39 30 40 87 41 81 42 83 43 31 44 86 45 80 46
REMARK SMILES IDX 79 47 32 49 66 50 45 51 65 52 46 53 49 54 64 55 84 56 47 57
REMARK SMILES IDX 48 58 63 60 85 61 50 62 33 63 34 64 43 65 35 66 36 67 42 68
REMARK SMILES IDX 44 69 37 70 38 71 39 72 40 73 41 74 67 75 68 76 77 77 69 78
REMARK SMILES IDX 70 79 76 80 78 81 71 82 72 83 73 84 74 85 75 86 51 87 52 88
REMARK SMILES IDX 61 89 53 90 54 91 60 92 62 93 55 94 56 95 57 96 58 97 59 98
REMARK H PARENT 16 6 10 9 13 24 21 29 83 48 49 59
REMARK Flexibility Score: inf
ROOT
ATOM      1  C   UNL A   1      32.113  30.484  26.383  1.00  0.00     0.023 C 
ENDROOT
BRANCH   1   2
ATOM      2  C   UNL A   1      32.140  29.690  25.072  1.00  0.00     0.116 C 
BRANCH   2   3
ATOM      3  N   UNL A   1      31.501  28.384  25.178  1.00  0.00    -0.355 N 
ATOM      4  C   UNL A   1      31.093  27.515  24.209  1.00  0.00     0.240 C 
ATOM      5  O   UNL A   1      30.654  26.417  24.568  1.00  0.00    -0.273 OA
ATOM      6  H   UNL A   1      31.337  28.079  26.101  1.00  0.00     0.163 HD
BRANCH   4   7
ATOM      7  C   UNL A   1      31.087  27.893  22.722  1.00  0.00     0.184 C 
BRANCH   7   8
ATOM      8  N   UNL A   1      31.462  26.703  21.935  1.00  0.00    -0.196 NA
ATOM      9  H   UNL A   1      31.016  25.917  22.405  1.00  0.00     0.142 HD
BRANCH   8  10
ATOM     10  S   UNL A   1      33.005  26.204  21.619  1.00  0.00     0.241 S 
ATOM     11  O   UNL A   1      33.887  27.297  22.010  1.00  0.00    -0.207 OA
ATOM     12  O   UNL A   1      33.001  25.672  20.289  1.00  0.00    -0.207 OA
BRANCH  10  13
ATOM     13  C   UNL A   1      33.320  24.848  22.720  1.00  0.00     0.083 A 
ATOM     14  C   UNL A   1      33.972  22.611  24.261  1.00  0.00     0.121 A 
ATOM     15  C   UNL A   1      33.035  22.512  23.224  1.00  0.00     0.048 A 
ATOM     16  C   UNL A   1      34.600  23.839  24.528  1.00  0.00    -0.008 A 
ATOM     17  C   UNL A   1      32.717  23.622  22.443  1.00  0.00     0.025 A 
ATOM     18  C   UNL A   1      34.215  24.970  23.787  1.00  0.00     0.029 A 
ATOM     19  C   UNL A   1      35.712  23.997  25.526  1.00  0.00     0.048 C 
BRANCH  14  20
ATOM     20  O   UNL A   1      34.283  21.421  24.863  1.00  0.00    -0.496 OA
ATOM     21  C   UNL A   1      33.295  20.406  24.728  1.00  0.00     0.278 C 
ENDBRANCH  14  20
ENDBRANCH  10  13
ENDBRANCH   8  10
ENDBRANCH   7   8
BRANCH   7  22
ATOM     22  C   UNL A   1      29.820  28.644  22.302  1.00  0.00     0.186 C 
BRANCH  22  23
ATOM     23  O   UNL A   1      29.277  29.495  23.300  1.00  0.00    -0.394 OA
ATOM     24  H   UNL A   1      28.941  30.306  22.887  1.00  0.00     0.210 HD
ENDBRANCH  22  23
ENDBRANCH   7  22
ENDBRANCH   4   7
ENDBRANCH   2   3
ENDBRANCH   1   2
BRANCH   1  25
ATOM     25  C   UNL A   1      32.997  29.939  27.501  1.00  0.00     0.023 C 
BRANCH  25  26
ATOM     26  C   UNL A   1      34.453  29.717  27.105  1.00  0.00     0.116 C 
BRANCH  26  27
ATOM     27  N   UNL A   1      35.294  30.890  27.294  1.00  0.00    -0.352 N 
ATOM     28  C   UNL A   1      36.511  30.963  27.955  1.00  0.00     0.251 C 
ATOM     29  H   UNL A   1      34.960  31.731  26.906  1.00  0.00     0.163 HD
ATOM     30  O   UNL A   1      36.957  32.016  28.392  1.00  0.00    -0.269 OA
BRANCH  28  31
ATOM     31  C   UNL A   1      37.342  29.741  27.957  1.00  0.00     0.039 A 
ATOM     32  C   UNL A   1      37.249  28.918  29.088  1.00  0.00     0.014 A 
ATOM     33  C   UNL A   1      38.398  29.619  27.065  1.00  0.00     0.014 A 
ATOM     34  C   UNL A   1      38.338  28.137  29.455  1.00  0.00     0.010 A 
ATOM     35  C   UNL A   1      39.517  28.939  27.486  1.00  0.00     0.010 A 
ATOM     36  C   UNL A   1      39.502  28.248  28.707  1.00  0.00    -0.014 A 
BRANCH  36  37
ATOM     37  C   UNL A   1      40.792  27.696  29.087  1.00  0.00     0.031 A 
ATOM     38  C   UNL A   1      41.059  26.279  28.779  1.00  0.00     0.074 A 
ATOM     39  C   UNL A   1      41.780  28.550  29.432  1.00  0.00     0.049 A 
ATOM     40  N   UNL A   1      42.160  25.671  29.044  1.00  0.00    -0.248 NA
ATOM     41  C   UNL A   1      40.054  25.408  28.170  1.00  0.00     0.031 C 
ATOM     42  C   UNL A   1      43.220  28.328  29.359  1.00  0.00     0.029 A 
ATOM     43  N   UNL A   1      41.651  29.744  30.150  1.00  0.00    -0.354 N 
ATOM     44  C   UNL A   1      42.133  24.462  28.389  1.00  0.00     0.074 A 
ATOM     45  C   UNL A   1      40.763  24.292  27.979  1.00  0.00     0.031 C 
ATOM     46  C   UNL A   1      43.832  29.170  30.208  1.00  0.00     0.029 A 
ATOM     47  C   UNL A   1      42.790  29.815  30.988  1.00  0.00     0.049 A 
ATOM     48  H   UNL A   1      40.919  30.400  30.086  1.00  0.00     0.167 HD
ATOM     49  C   UNL A   1      43.318  23.828  28.169  1.00  0.00     0.037 A 
ATOM     50  C   UNL A   1      42.639  29.672  32.342  1.00  0.00     0.037 A 
ATOM     51  C   UNL A   1      44.358  24.400  29.031  1.00  0.00     0.049 A 
ATOM     52  C   UNL A   1      43.270  28.412  32.915  1.00  0.00     0.074 A 
ATOM     53  C   UNL A   1      45.412  25.280  28.858  1.00  0.00     0.029 A 
ATOM     54  N   UNL A   1      44.181  24.286  30.399  1.00  0.00    -0.354 N 
ATOM     55  N   UNL A   1      43.870  27.493  32.207  1.00  0.00    -0.248 NA
ATOM     56  C   UNL A   1      43.219  28.063  34.336  1.00  0.00     0.031 C 
ATOM     57  C   UNL A   1      45.778  25.779  30.150  1.00  0.00     0.029 A 
ATOM     58  C   UNL A   1      44.975  25.170  31.100  1.00  0.00     0.049 A 
ATOM     59  H   UNL A   1      43.562  23.649  30.822  1.00  0.00     0.167 HD
ATOM     60  C   UNL A   1      44.214  26.441  33.011  1.00  0.00     0.074 A 
ATOM     61  C   UNL A   1      43.801  26.850  34.342  1.00  0.00     0.031 C 
ATOM     62  C   UNL A   1      44.774  25.288  32.540  1.00  0.00     0.037 A 
BRANCH  49  63
ATOM     63  C   UNL A   1      43.590  22.800  27.086  1.00  0.00     0.058 A 
ATOM     64  C   UNL A   1      42.950  21.541  27.141  1.00  0.00     0.135 A 
ATOM     65  C   UNL A   1      44.551  22.916  26.055  1.00  0.00     0.135 A 
ATOM     66  F   UNL A   1      42.014  21.278  28.064  1.00  0.00    -0.206 F 
ATOM     67  C   UNL A   1      43.263  20.485  26.278  1.00  0.00     0.059 A 
ATOM     68  C   UNL A   1      44.852  21.888  25.159  1.00  0.00     0.059 A 
ATOM     69  F   UNL A   1      45.299  24.008  25.883  1.00  0.00    -0.206 F 
ATOM     70  C   UNL A   1      44.224  20.664  25.294  1.00  0.00     0.060 A 
BRANCH  70  71
ATOM     71  S   UNL A   1      44.673  19.287  24.224  1.00  0.00     0.124 S 
ATOM     72  O   UNL A   1      46.081  19.096  24.556  1.00  0.00    -0.237 OA
ATOM     73  O   UNL A   1      43.763  18.238  24.673  1.00  0.00    -0.237 OA
ATOM     74  O   UNL A   1      44.415  19.799  22.880  1.00  0.00    -0.744 OA
ENDBRANCH  70  71
ENDBRANCH  49  63
BRANCH  50  75
ATOM     75  C   UNL A   1      41.387  30.328  32.828  1.00  0.00     0.058 A 
ATOM     76  C   UNL A   1      40.314  29.486  33.190  1.00  0.00     0.135 A 
ATOM     77  C   UNL A   1      41.411  31.617  33.378  1.00  0.00     0.135 A 
ATOM     78  F   UNL A   1      40.229  28.248  32.673  1.00  0.00    -0.206 F 
ATOM     79  C   UNL A   1      39.425  29.829  34.203  1.00  0.00     0.059 A 
ATOM     80  C   UNL A   1      40.511  31.990  34.380  1.00  0.00     0.059 A 
ATOM     81  F   UNL A   1      42.397  32.470  33.063  1.00  0.00    -0.206 F 
ATOM     82  C   UNL A   1      39.581  31.057  34.841  1.00  0.00     0.060 A 
BRANCH  82  83
ATOM     83  S   UNL A   1      38.691  31.317  36.395  1.00  0.00     0.124 S 
ATOM     84  O   UNL A   1      38.269  29.963  36.734  1.00  0.00    -0.237 OA
ATOM     85  O   UNL A   1      39.734  31.889  37.245  1.00  0.00    -0.237 OA
ATOM     86  O   UNL A   1      37.619  32.233  36.016  1.00  0.00    -0.744 OA
ENDBRANCH  82  83
ENDBRANCH  50  75
BRANCH  62  87
ATOM     87  C   UNL A   1      45.156  24.150  33.445  1.00  0.00     0.058 A 
ATOM     88  C   UNL A   1      44.223  23.183  33.847  1.00  0.00     0.135 A 
ATOM     89  C   UNL A   1      46.438  24.064  34.028  1.00  0.00     0.135 A 
ATOM     90  F   UNL A   1      42.966  23.207  33.374  1.00  0.00    -0.206 F 
ATOM     91  C   UNL A   1      44.550  22.167  34.744  1.00  0.00     0.059 A 
ATOM     92  C   UNL A   1      46.770  23.094  34.968  1.00  0.00     0.059 A 
ATOM     93  F   UNL A   1      47.423  24.904  33.675  1.00  0.00    -0.206 F 
ATOM     94  C   UNL A   1      45.826  22.132  35.302  1.00  0.00     0.060 A 
BRANCH  94  95
ATOM     95  S   UNL A   1      46.251  20.831  36.475  1.00  0.00     0.124 S 
ATOM     96  O   UNL A   1      47.706  20.777  36.382  1.00  0.00    -0.237 OA
ATOM     97  O   UNL A   1      45.717  21.379  37.718  1.00  0.00    -0.237 OA
ATOM     98  O   UNL A   1      45.552  19.662  35.949  1.00  0.00    -0.744 OA
ENDBRANCH  94  95
ENDBRANCH  62  87
ENDBRANCH  36  37
ENDBRANCH  28  31
ENDBRANCH  26  27
ENDBRANCH  25  26
ENDBRANCH   1  25
TORSDOF 20
ENDMDL
MODEL 2
REMARK VINA RESULT:     -12.4      1.395      2.328
REMARK SMILES COc1ccc(S(=O)(=O)N[C@@H](CO)C(=O)NCCCCNC(=O)c2ccc(-c3c4nc(c(-c5c(F)cc(S(=O)(=O)[O-])cc5F)c5ccc([nH]5)c(-c5c(F)cc(S(=O)(=O)[O-])cc5F)c5nc(c(-c6c(F)cc(S(=O)(=O)[O-])cc6F)c6ccc3[nH]6)C=C5)C=C4)cc2)cc1C
REMARK SMILES IDX 18 1 17 2 16 3 14 4 15 5 11 7 10 8 7 10 8 11 9 12 6 13 3 14
REMARK SMILES IDX 4 15 91 16 5 17 90 18 92 19 2 20 1 21 12 22 13 23 19 25
REMARK SMILES IDX 20 26 21 27 22 28 23 30 24 31 25 32 89 33 26 34 88 35 27 36
REMARK SMILES IDX 28 37 29 38 82 39 30 40 87 41 81 42 83 43 31 44 86 45 80 46
REMARK SMILES IDX 79 47 32 49 66 50 45 51 65 52 46 53 49 54 64 55 84 56 47 57
REMARK SMILES IDX 48 58 63 60 85 61 50 62 33 63 34 64 43 65 35 66 36 67 42 68
REMARK SMILES IDX 44 69 37 70 38 71 39 72 40 73 41 74 67 75 68 76 77 77 69 78
REMARK SMILES IDX 70 79 76 80 78 81 71 82 72 83 73 84 74 85 75 86 51 87 52 88
REMARK SMILES IDX 61 89 53 90 54 91 60 92 62 93 55 94 56 95 57 96 58 97 59 98
REMARK H PARENT 16 6 10 9 13 24 21 29 83 48 49 59
REMARK Flexibility Score: inf
ROOT
ATOM      1  C   UNL A   1      32.472  30.050  25.862  1.00  0.00     0.023 C 
ENDROOT
BRANCH   1   2
ATOM      2  C   UNL A   1      32.936  29.040  24.808  1.00  0.00     0.116 C 
BRANCH   2   3
ATOM      3  N   UNL A   1      31.978  28.858  23.725  1.00  0.00    -0.355 N 
ATOM      4  C   UNL A   1      31.743  27.782  22.920  1.00  0.00     0.240 C 
ATOM      5  O   UNL A   1      30.799  27.853  22.124  1.00  0.00    -0.273 OA
ATOM      6  H   UNL A   1      31.407  29.640  23.543  1.00  0.00     0.163 HD
BRANCH   4   7
ATOM      7  C   UNL A   1      32.653  26.547  22.920  1.00  0.00     0.184 C 
BRANCH   7   8
ATOM      8  N   UNL A   1      32.079  25.541  23.834  1.00  0.00    -0.196 NA
ATOM      9  H   UNL A   1      31.132  25.864  24.029  1.00  0.00     0.142 HD
BRANCH   8  10
ATOM     10  S   UNL A   1      32.702  25.106  25.301  1.00  0.00     0.241 S 
ATOM     11  O   UNL A   1      31.640  25.302  26.281  1.00  0.00    -0.207 OA
ATOM     12  O   UNL A   1      33.972  25.757  25.418  1.00  0.00    -0.207 OA
BRANCH  10  13
ATOM     13  C   UNL A   1      33.019  23.363  25.205  1.00  0.00     0.083 A 
ATOM     14  C   UNL A   1      33.495  20.641  24.787  1.00  0.00     0.121 A 
ATOM     15  C   UNL A   1      32.194  21.156  24.709  1.00  0.00     0.048 A 
ATOM     16  C   UNL A   1      34.575  21.494  25.068  1.00  0.00    -0.008 A 
ATOM     17  C   UNL A   1      31.953  22.516  24.902  1.00  0.00     0.025 A 
ATOM     18  C   UNL A   1      34.312  22.849  25.339  1.00  0.00     0.029 A 
ATOM     19  C   UNL A   1      36.008  21.049  25.032  1.00  0.00     0.048 C 
BRANCH  14  20
ATOM     20  O   UNL A   1      33.604  19.318  24.453  1.00  0.00    -0.496 OA
ATOM     21  C   UNL A   1      32.790  18.438  25.219  1.00  0.00     0.278 C 
ENDBRANCH  14  20
ENDBRANCH  10  13
ENDBRANCH   8  10
ENDBRANCH   7   8
BRANCH   7  22
ATOM     22  C   UNL A   1      33.028  26.083  21.509  1.00  0.00     0.186 C 
BRANCH  22  23
ATOM     23  O   UNL A   1      31.923  25.789  20.668  1.00  0.00    -0.394 OA
ATOM     24  H   UNL A   1      31.132  25.648  21.211  1.00  0.00     0.210 HD
ENDBRANCH  22  23
ENDBRANCH   7  22
ENDBRANCH   4   7
ENDBRANCH   2   3
ENDBRANCH   1   2
BRANCH   1  25
ATOM     25  C   UNL A   1      33.200  29.988  27.201  1.00  0.00     0.023 C 
BRANCH  25  26
ATOM     26  C   UNL A   1      34.688  29.671  27.097  1.00  0.00     0.116 C 
BRANCH  26  27
ATOM     27  N   UNL A   1      35.548  30.825  27.318  1.00  0.00    -0.352 N 
ATOM     28  C   UNL A   1      36.721  30.880  28.055  1.00  0.00     0.251 C 
ATOM     29  H   UNL A   1      35.262  31.666  26.894  1.00  0.00     0.163 HD
ATOM     30  O   UNL A   1      37.167  31.929  28.500  1.00  0.00    -0.269 OA
BRANCH  28  31
ATOM     31  C   UNL A   1      37.516  29.636  28.133  1.00  0.00     0.039 A 
ATOM     32  C   UNL A   1      37.428  28.906  29.326  1.00  0.00     0.014 A 
ATOM     33  C   UNL A   1      38.546  29.413  27.229  1.00  0.00     0.014 A 
ATOM     34  C   UNL A   1      38.503  28.123  29.728  1.00  0.00     0.010 A 
ATOM     35  C   UNL A   1      39.655  28.734  27.677  1.00  0.00     0.010 A 
ATOM     36  C   UNL A   1      39.651  28.140  28.948  1.00  0.00    -0.014 A 
BRANCH  36  37
ATOM     37  C   UNL A   1      40.933  27.580  29.340  1.00  0.00     0.031 A 
ATOM     38  C   UNL A   1      41.228  26.186  28.959  1.00  0.00     0.074 A 
ATOM     39  C   UNL A   1      41.898  28.421  29.770  1.00  0.00     0.049 A 
ATOM     40  N   UNL A   1      42.326  25.575  29.227  1.00  0.00    -0.248 NA
ATOM     41  C   UNL A   1      40.256  25.342  28.264  1.00  0.00     0.031 C 
ATOM     42  C   UNL A   1      43.342  28.219  29.736  1.00  0.00     0.029 A 
ATOM     43  N   UNL A   1      41.729  29.569  30.552  1.00  0.00    -0.354 N 
ATOM     44  C   UNL A   1      42.337  24.406  28.501  1.00  0.00     0.074 A 
ATOM     45  C   UNL A   1      40.985  24.248  28.033  1.00  0.00     0.031 C 
ATOM     46  C   UNL A   1      43.914  29.016  30.654  1.00  0.00     0.029 A 
ATOM     47  C   UNL A   1      42.837  29.602  31.433  1.00  0.00     0.049 A 
ATOM     48  H   UNL A   1      40.992  30.220  30.502  1.00  0.00     0.167 HD
ATOM     49  C   UNL A   1      43.538  23.799  28.286  1.00  0.00     0.037 A 
ATOM     50  C   UNL A   1      42.640  29.377  32.770  1.00  0.00     0.037 A 
ATOM     51  C   UNL A   1      44.539  24.330  29.217  1.00  0.00     0.049 A 
ATOM     52  C   UNL A   1      43.266  28.092  33.290  1.00  0.00     0.074 A 
ATOM     53  C   UNL A   1      45.587  25.229  29.135  1.00  0.00     0.029 A 
ATOM     54  N   UNL A   1      44.316  24.132  30.569  1.00  0.00    -0.354 N 
ATOM     55  N   UNL A   1      43.903  27.223  32.551  1.00  0.00    -0.248 NA
ATOM     56  C   UNL A   1      43.170  27.659  34.685  1.00  0.00     0.031 C 
ATOM     57  C   UNL A   1      45.902  25.654  30.466  1.00  0.00     0.029 A 
ATOM     58  C   UNL A   1      45.074  24.981  31.349  1.00  0.00     0.049 A 
ATOM     59  H   UNL A   1      43.690  23.465  30.931  1.00  0.00     0.167 HD
ATOM     60  C   UNL A   1      44.230  26.128  33.303  1.00  0.00     0.074 A 
ATOM     61  C   UNL A   1      43.766  26.454  34.640  1.00  0.00     0.031 C 
ATOM     62  C   UNL A   1      44.821  25.011  32.785  1.00  0.00     0.037 A 
BRANCH  49  63
ATOM     63  C   UNL A   1      43.860  22.840  27.155  1.00  0.00     0.058 A 
ATOM     64  C   UNL A   1      43.132  21.634  27.032  1.00  0.00     0.135 A 
ATOM     65  C   UNL A   1      44.938  22.960  26.248  1.00  0.00     0.135 A 
ATOM     66  F   UNL A   1      42.080  21.375  27.822  1.00  0.00    -0.206 F 
ATOM     67  C   UNL A   1      43.468  20.627  26.120  1.00  0.00     0.059 A 
ATOM     68  C   UNL A   1      45.268  21.985  25.305  1.00  0.00     0.059 A 
ATOM     69  F   UNL A   1      45.775  24.000  26.253  1.00  0.00    -0.206 F 
ATOM     70  C   UNL A   1      44.546  20.807  25.265  1.00  0.00     0.060 A 
BRANCH  70  71
ATOM     71  S   UNL A   1      45.018  19.485  24.136  1.00  0.00     0.124 S 
ATOM     72  O   UNL A   1      44.322  18.338  24.710  1.00  0.00    -0.237 OA
ATOM     73  O   UNL A   1      44.503  19.971  22.860  1.00  0.00    -0.237 OA
ATOM     74  O   UNL A   1      46.474  19.448  24.244  1.00  0.00    -0.744 OA
ENDBRANCH  70  71
ENDBRANCH  49  63
BRANCH  50  75
ATOM     75  C   UNL A   1      41.365  29.990  33.249  1.00  0.00     0.058 A 
ATOM     76  C   UNL A   1      41.349  31.389  33.434  1.00  0.00     0.135 A 
ATOM     77  C   UNL A   1      40.133  29.351  33.050  1.00  0.00     0.135 A 
ATOM     78  F   UNL A   1      42.499  32.050  33.654  1.00  0.00    -0.206 F 
ATOM     79  C   UNL A   1      40.198  32.142  33.225  1.00  0.00     0.059 A 
ATOM     80  C   UNL A   1      38.961  30.088  32.862  1.00  0.00     0.059 A 
ATOM     81  F   UNL A   1      40.080  28.022  32.880  1.00  0.00    -0.206 F 
ATOM     82  C   UNL A   1      39.025  31.482  32.868  1.00  0.00     0.060 A 
BRANCH  82  83
ATOM     83  S   UNL A   1      37.663  32.481  32.219  1.00  0.00     0.124 S 
ATOM     84  O   UNL A   1      38.335  33.298  31.215  1.00  0.00    -0.237 OA
ATOM     85  O   UNL A   1      36.759  31.454  31.701  1.00  0.00    -0.237 OA
ATOM     86  O   UNL A   1      37.186  33.200  33.396  1.00  0.00    -0.744 OA
ENDBRANCH  82  83
ENDBRANCH  50  75
BRANCH  62  87
ATOM     87  C   UNL A   1      45.185  23.826  33.635  1.00  0.00     0.058 A 
ATOM     88  C   UNL A   1      46.508  23.584  34.035  1.00  0.00     0.135 A 
ATOM     89  C   UNL A   1      44.238  22.837  33.974  1.00  0.00     0.135 A 
ATOM     90  F   UNL A   1      47.486  24.451  33.723  1.00  0.00    -0.206 F 
ATOM     91  C   UNL A   1      46.866  22.449  34.761  1.00  0.00     0.059 A 
ATOM     92  C   UNL A   1      44.582  21.669  34.648  1.00  0.00     0.059 A 
ATOM     93  F   UNL A   1      42.936  22.991  33.689  1.00  0.00    -0.206 F 
ATOM     94  C   UNL A   1      45.895  21.495  35.061  1.00  0.00     0.060 A 
BRANCH  94  95
ATOM     95  S   UNL A   1      46.355  20.018  35.985  1.00  0.00     0.124 S 
ATOM     96  O   UNL A   1      45.682  20.218  37.265  1.00  0.00    -0.237 OA
ATOM     97  O   UNL A   1      45.803  18.965  35.139  1.00  0.00    -0.237 OA
ATOM     98  O   UNL A   1      47.812  20.090  36.033  1.00  0.00    -0.744 OA
ENDBRANCH  94  95
ENDBRANCH  62  87
ENDBRANCH  36  37
ENDBRANCH  28  31
ENDBRANCH  26  27
ENDBRANCH  25  26
ENDBRANCH   1  25
TORSDOF 20
ENDMDL
MODEL 3
REMARK VINA RESULT:     -12.3      4.924     11.225
REMARK SMILES COc1ccc(S(=O)(=O)N[C@@H](CO)C(=O)NCCCCNC(=O)c2ccc(-c3c4nc(c(-c5c(F)cc(S(=O)(=O)[O-])cc5F)c5ccc([nH]5)c(-c5c(F)cc(S(=O)(=O)[O-])cc5F)c5nc(c(-c6c(F)cc(S(=O)(=O)[O-])cc6F)c6ccc3[nH]6)C=C5)C=C4)cc2)cc1C
REMARK SMILES IDX 18 1 17 2 16 3 14 4 15 5 11 7 10 8 7 10 8 11 9 12 6 13 3 14
REMARK SMILES IDX 4 15 91 16 5 17 90 18 92 19 2 20 1 21 12 22 13 23 19 25
REMARK SMILES IDX 20 26 21 27 22 28 23 30 24 31 25 32 89 33 26 34 88 35 27 36
REMARK SMILES IDX 28 37 29 38 82 39 30 40 87 41 81 42 83 43 31 44 86 45 80 46
REMARK SMILES IDX 79 47 32 49 66 50 45 51 65 52 46 53 49 54 64 55 84 56 47 57
REMARK SMILES IDX 48 58 63 60 85 61 50 62 33 63 34 64 43 65 35 66 36 67 42 68
REMARK SMILES IDX 44 69 37 70 38 71 39 72 40 73 41 74 67 75 68 76 77 77 69 78
REMARK SMILES IDX 70 79 76 80 78 81 71 82 72 83 73 84 74 85 75 86 51 87 52 88
REMARK SMILES IDX 61 89 53 90 54 91 60 92 62 93 55 94 56 95 57 96 58 97 59 98
REMARK H PARENT 16 6 10 9 13 24 21 29 83 48 49 59
REMARK Flexibility Score: inf
ROOT
ATOM      1  C   UNL A   1      36.229  21.382  24.793  1.00  0.00     0.023 C 
ENDROOT
BRANCH   1   2
ATOM      2  C   UNL A   1      35.259  22.567  24.840  1.00  0.00     0.116 C 
BRANCH   2   3
ATOM      3  N   UNL A   1      34.146  22.436  23.908  1.00  0.00    -0.355 N 
ATOM      4  C   UNL A   1      32.890  21.936  24.090  1.00  0.00     0.240 C 
ATOM      5  O   UNL A   1      32.093  22.021  23.149  1.00  0.00    -0.273 OA
ATOM      6  H   UNL A   1      34.331  22.761  22.996  1.00  0.00     0.163 HD
BRANCH   4   7
ATOM      7  C   UNL A   1      32.478  21.210  25.378  1.00  0.00     0.184 C 
BRANCH   7   8
ATOM      8  N   UNL A   1      31.216  21.799  25.865  1.00  0.00    -0.196 NA
ATOM      9  H   UNL A   1      30.781  22.218  25.044  1.00  0.00     0.142 HD
BRANCH   8  10
ATOM     10  S   UNL A   1      31.078  22.932  27.059  1.00  0.00     0.241 S 
ATOM     11  O   UNL A   1      32.226  22.752  27.940  1.00  0.00    -0.207 OA
ATOM     12  O   UNL A   1      29.732  22.859  27.542  1.00  0.00    -0.207 OA
BRANCH  10  13
ATOM     13  C   UNL A   1      31.261  24.509  26.266  1.00  0.00     0.083 A 
ATOM     14  C   UNL A   1      31.466  27.103  25.247  1.00  0.00     0.121 A 
ATOM     15  C   UNL A   1      30.215  26.484  25.369  1.00  0.00     0.048 A 
ATOM     16  C   UNL A   1      32.630  26.425  25.646  1.00  0.00    -0.008 A 
ATOM     17  C   UNL A   1      30.106  25.194  25.891  1.00  0.00     0.025 A 
ATOM     18  C   UNL A   1      32.517  25.097  26.096  1.00  0.00     0.029 A 
ATOM     19  C   UNL A   1      33.988  27.066  25.677  1.00  0.00     0.048 C 
BRANCH  14  20
ATOM     20  O   UNL A   1      31.416  28.409  24.840  1.00  0.00    -0.496 OA
ATOM     21  C   UNL A   1      30.643  28.643  23.669  1.00  0.00     0.278 C 
ENDBRANCH  14  20
ENDBRANCH  10  13
ENDBRANCH   8  10
ENDBRANCH   7   8
BRANCH   7  22
ATOM     22  C   UNL A   1      32.540  19.685  25.250  1.00  0.00     0.186 C 
BRANCH  22  23
ATOM     23  O   UNL A   1      33.024  19.013  26.404  1.00  0.00    -0.394 OA
ATOM     24  H   UNL A   1      32.483  18.224  26.569  1.00  0.00     0.210 HD
ENDBRANCH  22  23
ENDBRANCH   7  22
ENDBRANCH   4   7
ENDBRANCH   2   3
ENDBRANCH   1   2
BRANCH   1  25
ATOM     25  C   UNL A   1      37.710  21.739  24.865  1.00  0.00     0.023 C 
BRANCH  25  26
ATOM     26  C   UNL A   1      38.041  22.874  25.829  1.00  0.00     0.116 C 
BRANCH  26  27
ATOM     27  N   UNL A   1      39.092  22.544  26.780  1.00  0.00    -0.352 N 
ATOM     28  C   UNL A   1      40.047  23.393  27.319  1.00  0.00     0.251 C 
ATOM     29  H   UNL A   1      39.130  21.606  27.078  1.00  0.00     0.163 HD
ATOM     30  O   UNL A   1      41.096  22.981  27.795  1.00  0.00    -0.269 OA
BRANCH  28  31
ATOM     31  C   UNL A   1      39.669  24.815  27.457  1.00  0.00     0.039 A 
ATOM     32  C   UNL A   1      40.273  25.717  26.570  1.00  0.00     0.014 A 
ATOM     33  C   UNL A   1      39.043  25.257  28.615  1.00  0.00     0.014 A 
ATOM     34  C   UNL A   1      40.462  27.037  26.962  1.00  0.00     0.010 A 
ATOM     35  C   UNL A   1      39.330  26.529  29.053  1.00  0.00     0.010 A 
ATOM     36  C   UNL A   1      40.087  27.396  28.249  1.00  0.00    -0.014 A 
BRANCH  36  37
ATOM     37  C   UNL A   1      40.428  28.651  28.898  1.00  0.00     0.031 A 
ATOM     38  C   UNL A   1      39.458  29.759  28.820  1.00  0.00     0.074 A 
ATOM     39  C   UNL A   1      41.459  28.665  29.770  1.00  0.00     0.049 A 
ATOM     40  N   UNL A   1      39.625  30.912  29.360  1.00  0.00    -0.248 NA
ATOM     41  C   UNL A   1      38.209  29.653  28.067  1.00  0.00     0.031 C 
ATOM     42  C   UNL A   1      41.681  29.587  30.878  1.00  0.00     0.029 A 
ATOM     43  N   UNL A   1      42.658  27.950  29.671  1.00  0.00    -0.354 N 
ATOM     44  C   UNL A   1      38.422  31.577  29.298  1.00  0.00     0.074 A 
ATOM     45  C   UNL A   1      37.624  30.814  28.374  1.00  0.00     0.031 C 
ATOM     46  C   UNL A   1      42.988  29.589  31.187  1.00  0.00     0.029 A 
ATOM     47  C   UNL A   1      43.665  28.818  30.159  1.00  0.00     0.049 A 
ATOM     48  H   UNL A   1      42.777  27.033  29.333  1.00  0.00     0.167 HD
ATOM     49  C   UNL A   1      38.224  32.620  30.151  1.00  0.00     0.037 A 
ATOM     50  C   UNL A   1      44.587  29.335  29.286  1.00  0.00     0.037 A 
ATOM     51  C   UNL A   1      39.508  33.063  30.705  1.00  0.00     0.049 A 
ATOM     52  C   UNL A   1      44.488  30.840  29.087  1.00  0.00     0.074 A 
ATOM     53  C   UNL A   1      40.172  32.905  31.908  1.00  0.00     0.029 A 
ATOM     54  N   UNL A   1      40.449  33.550  29.814  1.00  0.00    -0.354 N 
ATOM     55  N   UNL A   1      43.586  31.605  29.641  1.00  0.00    -0.248 NA
ATOM     56  C   UNL A   1      45.371  31.591  28.194  1.00  0.00     0.031 C 
ATOM     57  C   UNL A   1      41.557  33.194  31.682  1.00  0.00     0.029 A 
ATOM     58  C   UNL A   1      41.717  33.565  30.356  1.00  0.00     0.049 A 
ATOM     59  H   UNL A   1      40.238  33.849  28.901  1.00  0.00     0.167 HD
ATOM     60  C   UNL A   1      43.703  32.880  29.159  1.00  0.00     0.074 A 
ATOM     61  C   UNL A   1      44.848  32.828  28.267  1.00  0.00     0.031 C 
ATOM     62  C   UNL A   1      42.839  33.888  29.483  1.00  0.00     0.037 A 
BRANCH  49  63
ATOM     63  C   UNL A   1      36.878  33.155  30.605  1.00  0.00     0.058 A 
ATOM     64  C   UNL A   1      36.048  33.833  29.684  1.00  0.00     0.135 A 
ATOM     65  C   UNL A   1      36.396  33.165  31.935  1.00  0.00     0.135 A 
ATOM     66  F   UNL A   1      36.370  33.910  28.385  1.00  0.00    -0.206 F 
ATOM     67  C   UNL A   1      34.870  34.492  30.056  1.00  0.00     0.059 A 
ATOM     68  C   UNL A   1      35.205  33.783  32.321  1.00  0.00     0.059 A 
ATOM     69  F   UNL A   1      37.071  32.628  32.953  1.00  0.00    -0.206 F 
ATOM     70  C   UNL A   1      34.460  34.470  31.381  1.00  0.00     0.060 A 
BRANCH  70  71
ATOM     71  S   UNL A   1      32.980  35.371  31.871  1.00  0.00     0.124 S 
ATOM     72  O   UNL A   1      33.540  36.630  32.352  1.00  0.00    -0.237 OA
ATOM     73  O   UNL A   1      32.233  35.441  30.620  1.00  0.00    -0.237 OA
ATOM     74  O   UNL A   1      32.388  34.520  32.901  1.00  0.00    -0.744 OA
ENDBRANCH  70  71
ENDBRANCH  49  63
BRANCH  50  75
ATOM     75  C   UNL A   1      44.984  28.335  28.250  1.00  0.00     0.058 A 
ATOM     76  C   UNL A   1      44.381  28.445  26.979  1.00  0.00     0.135 A 
ATOM     77  C   UNL A   1      46.210  27.660  28.326  1.00  0.00     0.135 A 
ATOM     78  F   UNL A   1      43.192  29.060  26.852  1.00  0.00    -0.206 F 
ATOM     79  C   UNL A   1      45.054  28.089  25.816  1.00  0.00     0.059 A 
ATOM     80  C   UNL A   1      46.893  27.272  27.170  1.00  0.00     0.059 A 
ATOM     81  F   UNL A   1      46.829  27.511  29.506  1.00  0.00    -0.206 F 
ATOM     82  C   UNL A   1      46.342  27.570  25.922  1.00  0.00     0.060 A 
BRANCH  82  83
ATOM     83  S   UNL A   1      47.344  27.488  24.417  1.00  0.00     0.124 S 
ATOM     84  O   UNL A   1      46.644  28.415  23.535  1.00  0.00    -0.237 OA
ATOM     85  O   UNL A   1      48.648  27.937  24.902  1.00  0.00    -0.237 OA
ATOM     86  O   UNL A   1      47.264  26.081  24.040  1.00  0.00    -0.744 OA
ENDBRANCH  82  83
ENDBRANCH  50  75
BRANCH  62  87
ATOM     87  C   UNL A   1      42.997  35.285  28.952  1.00  0.00     0.058 A 
ATOM     88  C   UNL A   1      43.330  36.359  29.791  1.00  0.00     0.135 A 
ATOM     89  C   UNL A   1      42.705  35.606  27.610  1.00  0.00     0.135 A 
ATOM     90  F   UNL A   1      43.587  36.155  31.094  1.00  0.00    -0.206 F 
ATOM     91  C   UNL A   1      43.407  37.670  29.321  1.00  0.00     0.059 A 
ATOM     92  C   UNL A   1      42.720  36.913  27.131  1.00  0.00     0.059 A 
ATOM     93  F   UNL A   1      42.428  34.652  26.709  1.00  0.00    -0.206 F 
ATOM     94  C   UNL A   1      43.097  37.937  27.988  1.00  0.00     0.060 A 
BRANCH  94  95
ATOM     95  S   UNL A   1      43.179  39.631  27.378  1.00  0.00     0.124 S 
ATOM     96  O   UNL A   1      41.811  39.876  26.931  1.00  0.00    -0.237 OA
ATOM     97  O   UNL A   1      43.590  40.350  28.579  1.00  0.00    -0.237 OA
ATOM     98  O   UNL A   1      44.175  39.558  26.314  1.00  0.00    -0.744 OA
ENDBRANCH  94  95
ENDBRANCH  62  87
ENDBRANCH  36  37
ENDBRANCH  28  31
ENDBRANCH  26  27
ENDBRANCH  25  26
ENDBRANCH   1  25
TORSDOF 20
ENDMDL
