MODEL 1
REMARK VINA RESULT:     -12.4      0.000      0.000
REMARK SMILES Cc1c(Cl)cc2c(c1C)O[C@H](C(F)(F)F)C(C(=O)NCCCCNC(=O)c1ccc(-c3c4nc(c(-c5c(F)cc(S(=O)(=O)[O-])cc5F)c5ccc([nH]5)c(-c5c(F)cc(S(=O)(=O)[O-])cc5F)c5nc(c(-c6c(F)cc(S(=O)(=O)[O-])cc6F)c6ccc3[nH]6)C=C5)C=C4)cc1)=C2
REMARK SMILES IDX 22 1 21 2 20 3 19 4 17 5 18 6 16 8 1 9 2 10 3 11 8 12 4 13
REMARK SMILES IDX 5 14 7 15 9 16 6 17 10 18 93 19 11 20 12 21 13 22 14 23
REMARK SMILES IDX 15 24 23 25 24 26 25 27 26 29 27 30 28 31 92 32 29 33 91 34
REMARK SMILES IDX 30 35 31 36 32 37 85 38 33 39 90 40 84 41 86 42 34 43 89 44
REMARK SMILES IDX 83 45 82 46 35 48 69 49 48 50 68 51 49 52 52 53 67 54 87 55
REMARK SMILES IDX 50 56 51 57 66 59 88 60 53 61 36 62 37 63 46 64 38 65 39 66
REMARK SMILES IDX 45 67 47 68 40 69 41 70 42 71 43 72 44 73 70 74 71 75 80 76
REMARK SMILES IDX 72 77 73 78 79 79 81 80 74 81 75 82 76 83 77 84 78 85 54 86
REMARK SMILES IDX 55 87 64 88 56 89 57 90 63 91 65 92 58 93 59 94 60 95 61 96
REMARK SMILES IDX 62 97
REMARK H PARENT 19 7 24 28 86 47 52 58
REMARK Flexibility Score: inf
ROOT
ATOM      1  C   UNL A   1      33.672  28.473  25.564  1.00  0.00     0.023 C 
ENDROOT
BRANCH   1   2
ATOM      2  C   UNL A   1      32.355  28.830  24.869  1.00  0.00     0.023 C 
BRANCH   2   3
ATOM      3  C   UNL A   1      31.635  27.639  24.242  1.00  0.00     0.116 C 
BRANCH   3   4
ATOM      4  N   UNL A   1      30.799  26.941  25.203  1.00  0.00    -0.352 N 
ATOM      5  C   UNL A   1      30.770  25.720  25.784  1.00  0.00     0.251 C 
ATOM      6  O   UNL A   1      29.842  25.533  26.578  1.00  0.00    -0.270 OA
ATOM      7  H   UNL A   1      30.056  27.508  25.515  1.00  0.00     0.163 HD
BRANCH   5   8
ATOM      8  C   UNL A   1      31.752  24.622  25.537  1.00  0.00     0.067 C 
ATOM      9  C   UNL A   1      37.048  20.816  24.984  1.00  0.00     0.046 C 
ATOM     10  C   UNL A   1      36.008  21.882  25.220  1.00  0.00    -0.026 A 
ATOM     11  C   UNL A   1      36.369  23.191  25.600  1.00  0.00     0.045 A 
ATOM     12  C   UNL A   1      34.631  21.567  25.107  1.00  0.00    -0.004 A 
ATOM     13  Cl  UNL A   1      38.018  23.664  25.836  1.00  0.00    -0.084 Cl
ATOM     14  C   UNL A   1      35.399  24.176  25.817  1.00  0.00     0.032 A 
ATOM     15  C   UNL A   1      33.674  22.582  25.303  1.00  0.00     0.131 A 
ATOM     16  C   UNL A   1      34.141  20.188  24.734  1.00  0.00     0.049 C 
ATOM     17  C   UNL A   1      34.048  23.878  25.660  1.00  0.00     0.019 A 
ATOM     18  O   UNL A   1      32.355  22.234  25.179  1.00  0.00    -0.475 OA
ATOM     19  C   UNL A   1      33.021  24.883  25.904  1.00  0.00     0.025 C 
ATOM     20  C   UNL A   1      31.424  23.312  24.883  1.00  0.00     0.314 C 
BRANCH  20  21
ATOM     21  C   UNL A   1      31.252  23.432  23.357  1.00  0.00     0.429 C 
ATOM     22  F   UNL A   1      31.520  22.246  22.756  1.00  0.00    -0.167 F 
ATOM     23  F   UNL A   1      29.991  23.769  23.000  1.00  0.00    -0.167 F 
ATOM     24  F   UNL A   1      32.076  24.356  22.811  1.00  0.00    -0.167 F 
ENDBRANCH  20  21
ENDBRANCH   5   8
ENDBRANCH   3   4
ENDBRANCH   2   3
ENDBRANCH   1   2
BRANCH   1  25
ATOM     25  C   UNL A   1      33.659  28.568  27.090  1.00  0.00     0.116 C 
BRANCH  25  26
ATOM     26  N   UNL A   1      33.571  29.931  27.595  1.00  0.00    -0.352 N 
ATOM     27  C   UNL A   1      34.559  30.671  28.204  1.00  0.00     0.251 C 
ATOM     28  H   UNL A   1      32.700  30.378  27.488  1.00  0.00     0.163 HD
ATOM     29  O   UNL A   1      34.320  31.789  28.646  1.00  0.00    -0.269 OA
BRANCH  27  30
ATOM     30  C   UNL A   1      35.896  30.069  28.356  1.00  0.00     0.039 A 
ATOM     31  C   UNL A   1      36.793  30.145  27.289  1.00  0.00     0.014 A 
ATOM     32  C   UNL A   1      36.284  29.513  29.578  1.00  0.00     0.014 A 
ATOM     33  C   UNL A   1      38.113  29.732  27.473  1.00  0.00     0.010 A 
ATOM     34  C   UNL A   1      37.612  29.153  29.777  1.00  0.00     0.010 A 
ATOM     35  C   UNL A   1      38.540  29.272  28.730  1.00  0.00    -0.014 A 
BRANCH  35  36
ATOM     36  C   UNL A   1      39.960  28.927  28.973  1.00  0.00     0.031 A 
ATOM     37  C   UNL A   1      40.890  29.948  29.564  1.00  0.00     0.074 A 
ATOM     38  C   UNL A   1      40.422  27.715  28.606  1.00  0.00     0.049 A 
ATOM     39  N   UNL A   1      42.174  29.860  29.788  1.00  0.00    -0.248 NA
ATOM     40  C   UNL A   1      40.301  31.247  29.926  1.00  0.00     0.031 C 
ATOM     41  C   UNL A   1      39.622  26.657  27.985  1.00  0.00     0.029 A 
ATOM     42  N   UNL A   1      41.677  27.171  28.699  1.00  0.00    -0.354 N 
ATOM     43  C   UNL A   1      42.551  31.090  30.310  1.00  0.00     0.074 A 
ATOM     44  C   UNL A   1      41.368  31.925  30.325  1.00  0.00     0.031 C 
ATOM     45  C   UNL A   1      40.398  25.581  27.780  1.00  0.00     0.029 A 
ATOM     46  C   UNL A   1      41.756  25.882  28.225  1.00  0.00     0.049 A 
ATOM     47  H   UNL A   1      42.449  27.657  29.069  1.00  0.00     0.167 HD
ATOM     48  C   UNL A   1      43.766  31.480  30.762  1.00  0.00     0.037 A 
ATOM     49  C   UNL A   1      42.805  25.039  28.161  1.00  0.00     0.037 A 
ATOM     50  C   UNL A   1      44.932  30.639  30.769  1.00  0.00     0.049 A 
ATOM     51  C   UNL A   1      44.143  25.494  28.670  1.00  0.00     0.074 A 
ATOM     52  C   UNL A   1      46.201  30.929  31.237  1.00  0.00     0.029 A 
ATOM     53  N   UNL A   1      44.969  29.337  30.291  1.00  0.00    -0.354 N 
ATOM     54  N   UNL A   1      44.474  26.651  29.190  1.00  0.00    -0.248 NA
ATOM     55  C   UNL A   1      45.251  24.530  28.586  1.00  0.00     0.031 C 
ATOM     56  C   UNL A   1      47.012  29.809  31.021  1.00  0.00     0.029 A 
ATOM     57  C   UNL A   1      46.240  28.812  30.447  1.00  0.00     0.049 A 
ATOM     58  H   UNL A   1      44.204  28.857  29.898  1.00  0.00     0.167 HD
ATOM     59  C   UNL A   1      45.823  26.550  29.512  1.00  0.00     0.074 A 
ATOM     60  C   UNL A   1      46.244  25.215  29.136  1.00  0.00     0.031 C 
ATOM     61  C   UNL A   1      46.637  27.479  30.069  1.00  0.00     0.037 A 
BRANCH  48  62
ATOM     62  C   UNL A   1      43.883  32.877  31.299  1.00  0.00     0.058 A 
ATOM     63  C   UNL A   1      43.699  33.150  32.664  1.00  0.00     0.135 A 
ATOM     64  C   UNL A   1      44.197  33.950  30.451  1.00  0.00     0.135 A 
ATOM     65  F   UNL A   1      43.378  32.161  33.513  1.00  0.00    -0.206 F 
ATOM     66  C   UNL A   1      43.795  34.443  33.165  1.00  0.00     0.059 A 
ATOM     67  C   UNL A   1      44.319  35.250  30.935  1.00  0.00     0.059 A 
ATOM     68  F   UNL A   1      44.379  33.743  29.137  1.00  0.00    -0.206 F 
ATOM     69  C   UNL A   1      44.101  35.488  32.292  1.00  0.00     0.060 A 
BRANCH  69  70
ATOM     70  S   UNL A   1      44.215  37.162  32.957  1.00  0.00     0.124 S 
ATOM     71  O   UNL A   1      44.188  37.961  31.736  1.00  0.00    -0.237 OA
ATOM     72  O   UNL A   1      43.024  37.247  33.797  1.00  0.00    -0.237 OA
ATOM     73  O   UNL A   1      45.485  37.155  33.676  1.00  0.00    -0.744 OA
ENDBRANCH  69  70
ENDBRANCH  48  62
BRANCH  49  74
ATOM     74  C   UNL A   1      42.613  23.665  27.632  1.00  0.00     0.058 A 
ATOM     75  C   UNL A   1      42.714  23.408  26.256  1.00  0.00     0.135 A 
ATOM     76  C   UNL A   1      42.364  22.579  28.484  1.00  0.00     0.135 A 
ATOM     77  F   UNL A   1      42.946  24.418  25.403  1.00  0.00    -0.206 F 
ATOM     78  C   UNL A   1      42.572  22.124  25.743  1.00  0.00     0.059 A 
ATOM     79  C   UNL A   1      42.234  21.283  27.996  1.00  0.00     0.059 A 
ATOM     80  F   UNL A   1      42.273  22.772  29.810  1.00  0.00    -0.206 F 
ATOM     81  C   UNL A   1      42.337  21.066  26.622  1.00  0.00     0.060 A 
BRANCH  81  82
ATOM     82  S   UNL A   1      42.226  19.393  25.951  1.00  0.00     0.124 S 
ATOM     83  O   UNL A   1      40.792  19.263  25.721  1.00  0.00    -0.237 OA
ATOM     84  O   UNL A   1      43.058  19.485  24.756  1.00  0.00    -0.237 OA
ATOM     85  O   UNL A   1      42.773  18.566  27.022  1.00  0.00    -0.744 OA
ENDBRANCH  81  82
ENDBRANCH  49  74
BRANCH  61  86
ATOM     86  C   UNL A   1      48.063  27.085  30.321  1.00  0.00     0.058 A 
ATOM     87  C   UNL A   1      49.070  27.349  29.382  1.00  0.00     0.135 A 
ATOM     88  C   UNL A   1      48.436  26.507  31.545  1.00  0.00     0.135 A 
ATOM     89  F   UNL A   1      48.762  27.893  28.195  1.00  0.00    -0.206 F 
ATOM     90  C   UNL A   1      50.402  27.045  29.644  1.00  0.00     0.059 A 
ATOM     91  C   UNL A   1      49.764  26.211  31.836  1.00  0.00     0.059 A 
ATOM     92  F   UNL A   1      47.508  26.242  32.478  1.00  0.00    -0.206 F 
ATOM     93  C   UNL A   1      50.740  26.480  30.876  1.00  0.00     0.060 A 
BRANCH  93  94
ATOM     94  S   UNL A   1      52.478  26.142  31.226  1.00  0.00     0.124 S 
ATOM     95  O   UNL A   1      53.054  26.151  29.886  1.00  0.00    -0.237 OA
ATOM     96  O   UNL A   1      52.850  27.263  32.083  1.00  0.00    -0.237 OA
ATOM     97  O   UNL A   1      52.444  24.841  31.887  1.00  0.00    -0.744 OA
ENDBRANCH  93  94
ENDBRANCH  61  86
ENDBRANCH  35  36
ENDBRANCH  27  30
ENDBRANCH  25  26
ENDBRANCH   1  25
TORSDOF 15
ENDMDL
MODEL 2
REMARK VINA RESULT:     -11.8      2.944      9.134
REMARK SMILES Cc1c(Cl)cc2c(c1C)O[C@H](C(F)(F)F)C(C(=O)NCCCCNC(=O)c1ccc(-c3c4nc(c(-c5c(F)cc(S(=O)(=O)[O-])cc5F)c5ccc([nH]5)c(-c5c(F)cc(S(=O)(=O)[O-])cc5F)c5nc(c(-c6c(F)cc(S(=O)(=O)[O-])cc6F)c6ccc3[nH]6)C=C5)C=C4)cc1)=C2
REMARK SMILES IDX 22 1 21 2 20 3 19 4 17 5 18 6 16 8 1 9 2 10 3 11 8 12 4 13
REMARK SMILES IDX 5 14 7 15 9 16 6 17 10 18 93 19 11 20 12 21 13 22 14 23
REMARK SMILES IDX 15 24 23 25 24 26 25 27 26 29 27 30 28 31 92 32 29 33 91 34
REMARK SMILES IDX 30 35 31 36 32 37 85 38 33 39 90 40 84 41 86 42 34 43 89 44
REMARK SMILES IDX 83 45 82 46 35 48 69 49 48 50 68 51 49 52 52 53 67 54 87 55
REMARK SMILES IDX 50 56 51 57 66 59 88 60 53 61 36 62 37 63 46 64 38 65 39 66
REMARK SMILES IDX 45 67 47 68 40 69 41 70 42 71 43 72 44 73 70 74 71 75 80 76
REMARK SMILES IDX 72 77 73 78 79 79 81 80 74 81 75 82 76 83 77 84 78 85 54 86
REMARK SMILES IDX 55 87 64 88 56 89 57 90 63 91 65 92 58 93 59 94 60 95 61 96
REMARK SMILES IDX 62 97
REMARK H PARENT 19 7 24 28 86 47 52 58
REMARK Flexibility Score: inf
ROOT
ATOM      1  C   UNL A   1      35.805  23.375  25.979  1.00  0.00     0.023 C 
ENDROOT
BRANCH   1   2
ATOM      2  C   UNL A   1      35.054  22.068  25.714  1.00  0.00     0.023 C 
BRANCH   2   3
ATOM      3  C   UNL A   1      33.707  22.249  25.018  1.00  0.00     0.116 C 
BRANCH   3   4
ATOM      4  N   UNL A   1      33.862  22.605  23.619  1.00  0.00    -0.352 N 
ATOM      5  C   UNL A   1      33.624  23.687  22.843  1.00  0.00     0.251 C 
ATOM      6  O   UNL A   1      33.912  23.555  21.648  1.00  0.00    -0.270 OA
ATOM      7  H   UNL A   1      34.242  21.861  23.096  1.00  0.00     0.163 HD
BRANCH   5   8
ATOM      8  C   UNL A   1      33.055  24.983  23.319  1.00  0.00     0.067 C 
ATOM      9  C   UNL A   1      31.818  30.707  26.243  1.00  0.00     0.046 C 
ATOM     10  C   UNL A   1      32.344  29.395  25.717  1.00  0.00    -0.026 A 
ATOM     11  C   UNL A   1      33.492  28.789  26.268  1.00  0.00     0.045 A 
ATOM     12  C   UNL A   1      31.710  28.767  24.616  1.00  0.00    -0.004 A 
ATOM     13  Cl  UNL A   1      34.383  29.506  27.566  1.00  0.00    -0.084 Cl
ATOM     14  C   UNL A   1      33.975  27.571  25.776  1.00  0.00     0.032 A 
ATOM     15  C   UNL A   1      32.198  27.527  24.156  1.00  0.00     0.131 A 
ATOM     16  C   UNL A   1      30.494  29.349  23.937  1.00  0.00     0.049 C 
ATOM     17  C   UNL A   1      33.324  26.932  24.724  1.00  0.00     0.019 A 
ATOM     18  O   UNL A   1      31.552  26.954  23.093  1.00  0.00    -0.475 OA
ATOM     19  C   UNL A   1      33.825  25.674  24.182  1.00  0.00     0.025 C 
ATOM     20  C   UNL A   1      31.705  25.515  22.939  1.00  0.00     0.314 C 
BRANCH  20  21
ATOM     21  C   UNL A   1      30.554  24.801  23.673  1.00  0.00     0.429 C 
ATOM     22  F   UNL A   1      30.948  24.419  24.913  1.00  0.00    -0.167 F 
ATOM     23  F   UNL A   1      29.471  25.596  23.840  1.00  0.00    -0.167 F 
ATOM     24  F   UNL A   1      30.131  23.691  23.025  1.00  0.00    -0.167 F 
ENDBRANCH  20  21
ENDBRANCH   5   8
ENDBRANCH   3   4
ENDBRANCH   2   3
ENDBRANCH   1   2
BRANCH   1  25
ATOM     25  C   UNL A   1      37.013  23.635  25.079  1.00  0.00     0.116 C 
BRANCH  25  26
ATOM     26  N   UNL A   1      38.101  22.686  25.264  1.00  0.00    -0.352 N 
ATOM     27  C   UNL A   1      39.267  22.867  25.971  1.00  0.00     0.251 C 
ATOM     28  H   UNL A   1      37.991  21.809  24.830  1.00  0.00     0.163 HD
ATOM     29  O   UNL A   1      40.133  22.000  25.982  1.00  0.00    -0.269 OA
BRANCH  27  30
ATOM     30  C   UNL A   1      39.473  24.147  26.674  1.00  0.00     0.039 A 
ATOM     31  C   UNL A   1      38.987  24.284  27.976  1.00  0.00     0.014 A 
ATOM     32  C   UNL A   1      40.216  25.168  26.077  1.00  0.00     0.014 A 
ATOM     33  C   UNL A   1      39.317  25.421  28.714  1.00  0.00     0.010 A 
ATOM     34  C   UNL A   1      40.590  26.275  26.831  1.00  0.00     0.010 A 
ATOM     35  C   UNL A   1      40.154  26.404  28.159  1.00  0.00    -0.014 A 
BRANCH  35  36
ATOM     36  C   UNL A   1      40.599  27.568  28.962  1.00  0.00     0.031 A 
ATOM     37  C   UNL A   1      41.949  27.553  29.620  1.00  0.00     0.074 A 
ATOM     38  C   UNL A   1      39.763  28.608  29.144  1.00  0.00     0.049 A 
ATOM     39  N   UNL A   1      42.488  28.441  30.413  1.00  0.00    -0.248 NA
ATOM     40  C   UNL A   1      42.792  26.372  29.372  1.00  0.00     0.031 C 
ATOM     41  C   UNL A   1      38.412  28.716  28.589  1.00  0.00     0.029 A 
ATOM     42  N   UNL A   1      39.923  29.772  29.851  1.00  0.00    -0.354 N 
ATOM     43  C   UNL A   1      43.728  27.926  30.766  1.00  0.00     0.074 A 
ATOM     44  C   UNL A   1      43.842  26.626  30.140  1.00  0.00     0.031 C 
ATOM     45  C   UNL A   1      37.879  29.894  28.951  1.00  0.00     0.029 A 
ATOM     46  C   UNL A   1      38.836  30.611  29.789  1.00  0.00     0.049 A 
ATOM     47  H   UNL A   1      40.741  29.987  30.356  1.00  0.00     0.167 HD
ATOM     48  C   UNL A   1      44.695  28.497  31.522  1.00  0.00     0.037 A 
ATOM     49  C   UNL A   1      38.636  31.823  30.343  1.00  0.00     0.037 A 
ATOM     50  C   UNL A   1      44.588  29.800  32.121  1.00  0.00     0.049 A 
ATOM     51  C   UNL A   1      39.725  32.437  31.176  1.00  0.00     0.074 A 
ATOM     52  C   UNL A   1      45.525  30.481  32.876  1.00  0.00     0.029 A 
ATOM     53  N   UNL A   1      43.475  30.623  32.026  1.00  0.00    -0.354 N 
ATOM     54  N   UNL A   1      40.905  31.950  31.474  1.00  0.00    -0.248 NA
ATOM     55  C   UNL A   1      39.458  33.765  31.747  1.00  0.00     0.031 C 
ATOM     56  C   UNL A   1      44.971  31.708  33.257  1.00  0.00     0.029 A 
ATOM     57  C   UNL A   1      43.700  31.803  32.713  1.00  0.00     0.049 A 
ATOM     58  H   UNL A   1      42.647  30.400  31.542  1.00  0.00     0.167 HD
ATOM     59  C   UNL A   1      41.529  32.917  32.253  1.00  0.00     0.074 A 
ATOM     60  C   UNL A   1      40.599  34.022  32.372  1.00  0.00     0.031 C 
ATOM     61  C   UNL A   1      42.761  32.892  32.817  1.00  0.00     0.037 A 
BRANCH  48  62
ATOM     62  C   UNL A   1      45.961  27.714  31.726  1.00  0.00     0.058 A 
ATOM     63  C   UNL A   1      46.099  26.820  32.800  1.00  0.00     0.135 A 
ATOM     64  C   UNL A   1      47.037  27.844  30.835  1.00  0.00     0.135 A 
ATOM     65  F   UNL A   1      45.105  26.676  33.689  1.00  0.00    -0.206 F 
ATOM     66  C   UNL A   1      47.272  26.102  33.000  1.00  0.00     0.059 A 
ATOM     67  C   UNL A   1      48.214  27.118  31.004  1.00  0.00     0.059 A 
ATOM     68  F   UNL A   1      46.958  28.688  29.795  1.00  0.00    -0.206 F 
ATOM     69  C   UNL A   1      48.326  26.261  32.099  1.00  0.00     0.060 A 
BRANCH  69  70
ATOM     70  S   UNL A   1      49.845  25.326  32.377  1.00  0.00     0.124 S 
ATOM     71  O   UNL A   1      50.183  24.913  31.019  1.00  0.00    -0.237 OA
ATOM     72  O   UNL A   1      50.725  26.327  32.973  1.00  0.00    -0.237 OA
ATOM     73  O   UNL A   1      49.424  24.254  33.274  1.00  0.00    -0.744 OA
ENDBRANCH  69  70
ENDBRANCH  48  62
BRANCH  49  74
ATOM     74  C   UNL A   1      37.366  32.549  30.086  1.00  0.00     0.058 A 
ATOM     75  C   UNL A   1      37.303  33.553  29.108  1.00  0.00     0.135 A 
ATOM     76  C   UNL A   1      36.188  32.235  30.779  1.00  0.00     0.135 A 
ATOM     77  F   UNL A   1      38.407  33.891  28.423  1.00  0.00    -0.206 F 
ATOM     78  C   UNL A   1      36.117  34.222  28.827  1.00  0.00     0.059 A 
ATOM     79  C   UNL A   1      34.986  32.879  30.505  1.00  0.00     0.059 A 
ATOM     80  F   UNL A   1      36.195  31.271  31.714  1.00  0.00    -0.206 F 
ATOM     81  C   UNL A   1      34.962  33.875  29.527  1.00  0.00     0.060 A 
BRANCH  81  82
ATOM     82  S   UNL A   1      33.412  34.701  29.104  1.00  0.00     0.124 S 
ATOM     83  O   UNL A   1      32.799  33.733  28.203  1.00  0.00    -0.237 OA
ATOM     84  O   UNL A   1      32.777  34.850  30.410  1.00  0.00    -0.237 OA
ATOM     85  O   UNL A   1      33.856  35.948  28.488  1.00  0.00    -0.744 OA
ENDBRANCH  81  82
ENDBRANCH  49  74
BRANCH  61  86
ATOM     86  C   UNL A   1      43.185  34.098  33.603  1.00  0.00     0.058 A 
ATOM     87  C   UNL A   1      43.687  35.243  32.968  1.00  0.00     0.135 A 
ATOM     88  C   UNL A   1      43.017  34.135  34.996  1.00  0.00     0.135 A 
ATOM     89  F   UNL A   1      43.871  35.253  31.639  1.00  0.00    -0.206 F 
ATOM     90  C   UNL A   1      44.016  36.386  33.690  1.00  0.00     0.059 A 
ATOM     91  C   UNL A   1      43.323  35.272  35.736  1.00  0.00     0.059 A 
ATOM     92  F   UNL A   1      42.534  33.065  35.647  1.00  0.00    -0.206 F 
ATOM     93  C   UNL A   1      43.827  36.391  35.074  1.00  0.00     0.060 A 
BRANCH  93  94
ATOM     94  S   UNL A   1      44.206  37.899  35.993  1.00  0.00     0.124 S 
ATOM     95  O   UNL A   1      43.847  38.930  35.025  1.00  0.00    -0.237 OA
ATOM     96  O   UNL A   1      43.329  37.788  37.154  1.00  0.00    -0.237 OA
ATOM     97  O   UNL A   1      45.632  37.773  36.277  1.00  0.00    -0.744 OA
ENDBRANCH  93  94
ENDBRANCH  61  86
ENDBRANCH  35  36
ENDBRANCH  27  30
ENDBRANCH  25  26
ENDBRANCH   1  25
TORSDOF 15
ENDMDL
MODEL 3
REMARK VINA RESULT:     -11.8      3.724      6.522
REMARK SMILES Cc1c(Cl)cc2c(c1C)O[C@H](C(F)(F)F)C(C(=O)NCCCCNC(=O)c1ccc(-c3c4nc(c(-c5c(F)cc(S(=O)(=O)[O-])cc5F)c5ccc([nH]5)c(-c5c(F)cc(S(=O)(=O)[O-])cc5F)c5nc(c(-c6c(F)cc(S(=O)(=O)[O-])cc6F)c6ccc3[nH]6)C=C5)C=C4)cc1)=C2
REMARK SMILES IDX 22 1 21 2 20 3 19 4 17 5 18 6 16 8 1 9 2 10 3 11 8 12 4 13
REMARK SMILES IDX 5 14 7 15 9 16 6 17 10 18 93 19 11 20 12 21 13 22 14 23
REMARK SMILES IDX 15 24 23 25 24 26 25 27 26 29 27 30 28 31 92 32 29 33 91 34
REMARK SMILES IDX 30 35 31 36 32 37 85 38 33 39 90 40 84 41 86 42 34 43 89 44
REMARK SMILES IDX 83 45 82 46 35 48 69 49 48 50 68 51 49 52 52 53 67 54 87 55
REMARK SMILES IDX 50 56 51 57 66 59 88 60 53 61 36 62 37 63 46 64 38 65 39 66
REMARK SMILES IDX 45 67 47 68 40 69 41 70 42 71 43 72 44 73 70 74 71 75 80 76
REMARK SMILES IDX 72 77 73 78 79 79 81 80 74 81 75 82 76 83 77 84 78 85 54 86
REMARK SMILES IDX 55 87 64 88 56 89 57 90 63 91 65 92 58 93 59 94 60 95 61 96
REMARK SMILES IDX 62 97
REMARK H PARENT 19 7 24 28 86 47 52 58
REMARK Flexibility Score: inf
ROOT
ATOM      1  C   UNL A   1      33.463  33.403  28.032  1.00  0.00     0.023 C 
ENDROOT
BRANCH   1   2
ATOM      2  C   UNL A   1      33.594  34.581  29.002  1.00  0.00     0.023 C 
BRANCH   2   3
ATOM      3  C   UNL A   1      34.615  34.364  30.116  1.00  0.00     0.116 C 
BRANCH   3   4
ATOM      4  N   UNL A   1      33.998  33.850  31.326  1.00  0.00    -0.352 N 
ATOM      5  C   UNL A   1      34.409  33.238  32.461  1.00  0.00     0.251 C 
ATOM      6  O   UNL A   1      33.512  32.956  33.264  1.00  0.00    -0.270 OA
ATOM      7  H   UNL A   1      33.022  33.981  31.319  1.00  0.00     0.163 HD
BRANCH   5   8
ATOM      8  C   UNL A   1      35.824  32.894  32.793  1.00  0.00     0.067 C 
ATOM      9  C   UNL A   1      41.635  30.029  33.722  1.00  0.00     0.046 C 
ATOM     10  C   UNL A   1      40.220  30.440  33.399  1.00  0.00    -0.026 A 
ATOM     11  C   UNL A   1      39.258  29.497  32.981  1.00  0.00     0.045 A 
ATOM     12  C   UNL A   1      39.844  31.804  33.467  1.00  0.00    -0.004 A 
ATOM     13  Cl  UNL A   1      39.629  27.817  32.795  1.00  0.00    -0.084 Cl
ATOM     14  C   UNL A   1      37.946  29.884  32.684  1.00  0.00     0.032 A 
ATOM     15  C   UNL A   1      38.511  32.166  33.191  1.00  0.00     0.131 A 
ATOM     16  C   UNL A   1      40.807  32.893  33.875  1.00  0.00     0.049 C 
ATOM     17  C   UNL A   1      37.565  31.219  32.796  1.00  0.00     0.019 A 
ATOM     18  O   UNL A   1      38.190  33.495  33.274  1.00  0.00    -0.475 OA
ATOM     19  C   UNL A   1      36.210  31.645  32.469  1.00  0.00     0.025 C 
ATOM     20  C   UNL A   1      36.787  33.813  33.486  1.00  0.00     0.314 C 
BRANCH  20  21
ATOM     21  C   UNL A   1      36.515  33.934  34.997  1.00  0.00     0.429 C 
ATOM     22  F   UNL A   1      36.441  32.704  35.565  1.00  0.00    -0.167 F 
ATOM     23  F   UNL A   1      37.496  34.601  35.649  1.00  0.00    -0.167 F 
ATOM     24  F   UNL A   1      35.355  34.573  35.269  1.00  0.00    -0.167 F 
ENDBRANCH  20  21
ENDBRANCH   5   8
ENDBRANCH   3   4
ENDBRANCH   2   3
ENDBRANCH   1   2
BRANCH   1  25
ATOM     25  C   UNL A   1      34.404  32.227  28.292  1.00  0.00     0.116 C 
BRANCH  25  26
ATOM     26  N   UNL A   1      33.845  30.932  27.927  1.00  0.00    -0.352 N 
ATOM     27  C   UNL A   1      34.504  29.728  27.826  1.00  0.00     0.251 C 
ATOM     28  H   UNL A   1      32.881  30.916  27.729  1.00  0.00     0.163 HD
ATOM     29  O   UNL A   1      33.916  28.726  27.436  1.00  0.00    -0.269 OA
BRANCH  27  30
ATOM     30  C   UNL A   1      35.942  29.683  28.149  1.00  0.00     0.039 A 
ATOM     31  C   UNL A   1      36.331  29.274  29.426  1.00  0.00     0.014 A 
ATOM     32  C   UNL A   1      36.894  29.959  27.164  1.00  0.00     0.014 A 
ATOM     33  C   UNL A   1      37.684  29.065  29.695  1.00  0.00     0.010 A 
ATOM     34  C   UNL A   1      38.237  29.697  27.417  1.00  0.00     0.010 A 
ATOM     35  C   UNL A   1      38.640  29.235  28.680  1.00  0.00    -0.014 A 
BRANCH  35  36
ATOM     36  C   UNL A   1      40.068  28.918  28.917  1.00  0.00     0.031 A 
ATOM     37  C   UNL A   1      40.983  29.961  29.491  1.00  0.00     0.074 A 
ATOM     38  C   UNL A   1      40.549  27.712  28.558  1.00  0.00     0.049 A 
ATOM     39  N   UNL A   1      42.271  29.898  29.708  1.00  0.00    -0.248 NA
ATOM     40  C   UNL A   1      40.373  31.253  29.846  1.00  0.00     0.031 C 
ATOM     41  C   UNL A   1      39.764  26.633  27.952  1.00  0.00     0.029 A 
ATOM     42  N   UNL A   1      41.814  27.190  28.647  1.00  0.00    -0.354 N 
ATOM     43  C   UNL A   1      42.628  31.140  30.215  1.00  0.00     0.074 A 
ATOM     44  C   UNL A   1      41.430  31.953  30.230  1.00  0.00     0.031 C 
ATOM     45  C   UNL A   1      40.559  25.569  27.752  1.00  0.00     0.029 A 
ATOM     46  C   UNL A   1      41.913  25.899  28.185  1.00  0.00     0.049 A 
ATOM     47  H   UNL A   1      42.580  27.694  29.007  1.00  0.00     0.167 HD
ATOM     48  C   UNL A   1      43.839  31.556  30.655  1.00  0.00     0.037 A 
ATOM     49  C   UNL A   1      42.977  25.074  28.121  1.00  0.00     0.037 A 
ATOM     50  C   UNL A   1      45.020  30.736  30.662  1.00  0.00     0.049 A 
ATOM     51  C   UNL A   1      44.310  25.558  28.617  1.00  0.00     0.074 A 
ATOM     52  C   UNL A   1      46.287  31.054  31.118  1.00  0.00     0.029 A 
ATOM     53  N   UNL A   1      45.078  29.431  30.196  1.00  0.00    -0.354 N 
ATOM     54  N   UNL A   1      44.624  26.726  29.124  1.00  0.00    -0.248 NA
ATOM     55  C   UNL A   1      45.434  24.614  28.534  1.00  0.00     0.031 C 
ATOM     56  C   UNL A   1      47.117  29.946  30.908  1.00  0.00     0.029 A 
ATOM     57  C   UNL A   1      46.359  28.930  30.348  1.00  0.00     0.049 A 
ATOM     58  H   UNL A   1      44.319  28.933  29.813  1.00  0.00     0.167 HD
ATOM     59  C   UNL A   1      45.976  26.652  29.437  1.00  0.00     0.074 A 
ATOM     60  C   UNL A   1      46.419  25.322  29.071  1.00  0.00     0.031 C 
ATOM     61  C   UNL A   1      46.778  27.601  29.980  1.00  0.00     0.037 A 
BRANCH  48  62
ATOM     62  C   UNL A   1      43.935  32.960  31.179  1.00  0.00     0.058 A 
ATOM     63  C   UNL A   1      43.958  34.062  30.309  1.00  0.00     0.135 A 
ATOM     64  C   UNL A   1      43.989  33.210  32.559  1.00  0.00     0.135 A 
ATOM     65  F   UNL A   1      43.928  33.874  28.981  1.00  0.00    -0.206 F 
ATOM     66  C   UNL A   1      44.058  35.363  30.788  1.00  0.00     0.059 A 
ATOM     67  C   UNL A   1      44.068  34.506  33.062  1.00  0.00     0.059 A 
ATOM     68  F   UNL A   1      43.974  32.191  33.433  1.00  0.00    -0.206 F 
ATOM     69  C   UNL A   1      44.118  35.575  32.167  1.00  0.00     0.060 A 
BRANCH  69  70
ATOM     70  S   UNL A   1      44.255  37.270  32.772  1.00  0.00     0.124 S 
ATOM     71  O   UNL A   1      44.117  38.031  31.535  1.00  0.00    -0.237 OA
ATOM     72  O   UNL A   1      43.135  37.362  33.703  1.00  0.00    -0.237 OA
ATOM     73  O   UNL A   1      45.579  37.303  33.386  1.00  0.00    -0.744 OA
ENDBRANCH  69  70
ENDBRANCH  48  62
BRANCH  49  74
ATOM     74  C   UNL A   1      42.807  23.692  27.606  1.00  0.00     0.058 A 
ATOM     75  C   UNL A   1      42.516  22.635  28.481  1.00  0.00     0.135 A 
ATOM     76  C   UNL A   1      42.894  23.403  26.236  1.00  0.00     0.135 A 
ATOM     77  F   UNL A   1      42.428  22.863  29.801  1.00  0.00    -0.206 F 
ATOM     78  C   UNL A   1      42.318  21.339  28.018  1.00  0.00     0.059 A 
ATOM     79  C   UNL A   1      42.685  22.118  25.747  1.00  0.00     0.059 A 
ATOM     80  F   UNL A   1      43.156  24.384  25.358  1.00  0.00    -0.206 F 
ATOM     81  C   UNL A   1      42.401  21.091  26.647  1.00  0.00     0.060 A 
BRANCH  81  82
ATOM     82  S   UNL A   1      42.073  19.418  26.050  1.00  0.00     0.124 S 
ATOM     83  O   UNL A   1      42.883  19.375  24.838  1.00  0.00    -0.237 OA
ATOM     84  O   UNL A   1      42.542  18.598  27.162  1.00  0.00    -0.237 OA
ATOM     85  O   UNL A   1      40.628  19.413  25.845  1.00  0.00    -0.744 OA
ENDBRANCH  81  82
ENDBRANCH  49  74
BRANCH  61  86
ATOM     86  C   UNL A   1      48.212  27.235  30.226  1.00  0.00     0.058 A 
ATOM     87  C   UNL A   1      49.208  27.510  29.278  1.00  0.00     0.135 A 
ATOM     88  C   UNL A   1      48.603  26.674  31.452  1.00  0.00     0.135 A 
ATOM     89  F   UNL A   1      48.882  28.039  28.089  1.00  0.00    -0.206 F 
ATOM     90  C   UNL A   1      50.547  27.233  29.534  1.00  0.00     0.059 A 
ATOM     91  C   UNL A   1      49.938  26.405  31.737  1.00  0.00     0.059 A 
ATOM     92  F   UNL A   1      47.686  26.399  32.393  1.00  0.00    -0.206 F 
ATOM     93  C   UNL A   1      50.902  26.683  30.768  1.00  0.00     0.060 A 
BRANCH  93  94
ATOM     94  S   UNL A   1      52.649  26.380  31.110  1.00  0.00     0.124 S 
ATOM     95  O   UNL A   1      52.992  27.536  31.932  1.00  0.00    -0.237 OA
ATOM     96  O   UNL A   1      52.615  25.096  31.804  1.00  0.00    -0.237 OA
ATOM     97  O   UNL A   1      53.254  26.352  29.782  1.00  0.00    -0.744 OA
ENDBRANCH  93  94
ENDBRANCH  61  86
ENDBRANCH  35  36
ENDBRANCH  27  30
ENDBRANCH  25  26
ENDBRANCH   1  25
TORSDOF 15
ENDMDL
