MODEL 1
REMARK VINA RESULT:     -14.4      0.000      0.000
REMARK SMILES Cc1ccc(NC(=O)C[N@H+]2CCC[C@@H](C(=O)NCCCCNC(=O)c3ccc(-c4c5nc(c(-c6c(F)cc(S(=O)(=O)[O-])cc6F)c6ccc([nH]6)c(-c6c(F)cc(S(=O)(=O)[O-])cc6F)c6nc(c(-c7c(F)cc(S(=O)(=O)[O-])cc7F)c7ccc4[nH]7)C=C6)C=C5)cc3)C2)cc1F
REMARK SMILES IDX 19 1 18 2 17 3 15 4 16 5 14 7 10 8 11 9 91 10 12 12 13 13
REMARK SMILES IDX 9 14 7 15 6 16 8 18 5 19 1 20 2 21 3 22 93 23 4 24 92 25
REMARK SMILES IDX 94 26 20 27 21 28 22 29 23 30 24 32 25 33 26 34 90 35 27 36
REMARK SMILES IDX 89 37 28 38 29 39 30 40 83 41 31 42 88 43 82 44 84 45 32 46
REMARK SMILES IDX 87 47 81 48 80 49 33 51 67 52 46 53 66 54 47 55 50 56 65 57
REMARK SMILES IDX 85 58 48 59 49 60 64 62 86 63 51 64 34 65 35 66 44 67 36 68
REMARK SMILES IDX 37 69 43 70 45 71 38 72 39 73 40 74 41 75 42 76 68 77 69 78
REMARK SMILES IDX 78 79 70 80 71 81 77 82 79 83 72 84 73 85 74 86 75 87 76 88
REMARK SMILES IDX 52 89 53 90 62 91 54 92 55 93 61 94 63 95 56 96 57 97 58 98
REMARK SMILES IDX 59 99 60 100
REMARK H PARENT 17 6 10 11 6 17 22 31 84 50 50 61
REMARK Flexibility Score: inf
ROOT
ATOM      1  C   UNL A   1      33.663  28.203  27.044  1.00  0.00     0.023 C 
ENDROOT
BRANCH   1   2
ATOM      2  C   UNL A   1      32.208  28.422  27.475  1.00  0.00     0.116 C 
BRANCH   2   3
ATOM      3  N   UNL A   1      31.407  27.208  27.398  1.00  0.00    -0.356 N 
ATOM      4  C   UNL A   1      30.837  26.593  26.319  1.00  0.00     0.228 C 
ATOM      5  O   UNL A   1      30.215  25.546  26.508  1.00  0.00    -0.275 OA
ATOM      6  H   UNL A   1      31.250  26.761  28.261  1.00  0.00     0.163 HD
BRANCH   4   7
ATOM      7  C   UNL A   1      31.006  27.186  24.926  1.00  0.00     0.133 C 
ATOM      8  N   UNL A   1      32.351  27.023  22.837  1.00  0.00    -0.326 N 
ATOM      9  C   UNL A   1      31.114  27.036  22.030  1.00  0.00     0.262 C 
ATOM     10  C   UNL A   1      32.102  26.424  24.163  1.00  0.00     0.276 C 
ATOM     11  H   UNL A   1      32.669  27.967  23.053  1.00  0.00     0.348 HD
ATOM     12  C   UNL A   1      29.940  27.716  22.738  1.00  0.00     0.062 C 
ATOM     13  C   UNL A   1      29.706  27.123  24.122  1.00  0.00     0.025 C 
BRANCH   8  14
ATOM     14  C   UNL A   1      33.446  26.401  22.035  1.00  0.00     0.363 C 
BRANCH  14  15
ATOM     15  C   UNL A   1      33.077  25.248  21.107  1.00  0.00     0.279 C 
ATOM     16  N   UNL A   1      32.906  23.958  21.513  1.00  0.00    -0.321 N 
ATOM     17  H   UNL A   1      32.675  23.348  20.775  1.00  0.00     0.170 HD
ATOM     18  O   UNL A   1      32.904  25.480  19.902  1.00  0.00    -0.268 OA
BRANCH  16  19
ATOM     19  C   UNL A   1      32.989  23.312  22.758  1.00  0.00     0.044 A 
ATOM     20  C   UNL A   1      33.555  20.992  26.359  1.00  0.00     0.047 C 
ATOM     21  C   UNL A   1      33.366  21.835  25.137  1.00  0.00    -0.015 A 
ATOM     22  C   UNL A   1      34.464  22.250  24.380  1.00  0.00     0.008 A 
ATOM     23  C   UNL A   1      32.096  22.217  24.715  1.00  0.00     0.128 A 
ATOM     24  C   UNL A   1      34.277  22.980  23.201  1.00  0.00     0.026 A 
ATOM     25  C   UNL A   1      31.903  22.954  23.549  1.00  0.00     0.065 A 
ATOM     26  F   UNL A   1      31.017  21.865  25.430  1.00  0.00    -0.207 F 
ENDBRANCH  16  19
ENDBRANCH  14  15
ENDBRANCH   8  14
ENDBRANCH   4   7
ENDBRANCH   2   3
ENDBRANCH   1   2
BRANCH   1  27
ATOM     27  C   UNL A   1      34.481  29.469  26.750  1.00  0.00     0.023 C 
BRANCH  27  28
ATOM     28  C   UNL A   1      34.237  30.637  27.691  1.00  0.00     0.116 C 
BRANCH  28  29
ATOM     29  N   UNL A   1      35.441  31.387  28.018  1.00  0.00    -0.352 N 
ATOM     30  C   UNL A   1      36.188  30.982  29.124  1.00  0.00     0.251 C 
ATOM     31  H   UNL A   1      35.720  32.157  27.473  1.00  0.00     0.163 HD
ATOM     32  O   UNL A   1      35.955  31.379  30.249  1.00  0.00    -0.269 OA
BRANCH  30  33
ATOM     33  C   UNL A   1      37.126  29.845  28.857  1.00  0.00     0.039 A 
ATOM     34  C   UNL A   1      37.882  29.804  27.677  1.00  0.00     0.014 A 
ATOM     35  C   UNL A   1      37.420  28.966  29.900  1.00  0.00     0.014 A 
ATOM     36  C   UNL A   1      39.012  28.982  27.607  1.00  0.00     0.010 A 
ATOM     37  C   UNL A   1      38.554  28.201  29.857  1.00  0.00     0.010 A 
ATOM     38  C   UNL A   1      39.376  28.234  28.730  1.00  0.00    -0.014 A 
BRANCH  38  39
ATOM     39  C   UNL A   1      40.669  27.591  28.934  1.00  0.00     0.031 A 
ATOM     40  C   UNL A   1      40.886  26.190  28.525  1.00  0.00     0.074 A 
ATOM     41  C   UNL A   1      41.704  28.379  29.289  1.00  0.00     0.049 A 
ATOM     42  N   UNL A   1      41.844  25.441  28.955  1.00  0.00    -0.248 NA
ATOM     43  C   UNL A   1      40.018  25.514  27.567  1.00  0.00     0.031 C 
ATOM     44  C   UNL A   1      43.132  28.108  29.243  1.00  0.00     0.029 A 
ATOM     45  N   UNL A   1      41.617  29.598  29.942  1.00  0.00    -0.354 N 
ATOM     46  C   UNL A   1      41.901  24.322  28.148  1.00  0.00     0.074 A 
ATOM     47  C   UNL A   1      40.693  24.378  27.357  1.00  0.00     0.031 C 
ATOM     48  C   UNL A   1      43.758  28.976  30.064  1.00  0.00     0.029 A 
ATOM     49  C   UNL A   1      42.723  29.716  30.779  1.00  0.00     0.049 A 
ATOM     50  H   UNL A   1      40.899  30.262  29.834  1.00  0.00     0.167 HD
ATOM     51  C   UNL A   1      43.039  23.563  28.136  1.00  0.00     0.037 A 
ATOM     52  C   UNL A   1      42.515  29.657  32.132  1.00  0.00     0.037 A 
ATOM     53  C   UNL A   1      44.019  24.105  29.081  1.00  0.00     0.049 A 
ATOM     54  C   UNL A   1      43.140  28.431  32.756  1.00  0.00     0.074 A 
ATOM     55  C   UNL A   1      45.098  24.957  28.903  1.00  0.00     0.029 A 
ATOM     56  N   UNL A   1      43.758  24.084  30.450  1.00  0.00    -0.354 N 
ATOM     57  N   UNL A   1      43.399  27.325  32.111  1.00  0.00    -0.248 NA
ATOM     58  C   UNL A   1      43.573  28.383  34.148  1.00  0.00     0.031 C 
ATOM     59  C   UNL A   1      45.416  25.531  30.158  1.00  0.00     0.029 A 
ATOM     60  C   UNL A   1      44.553  25.007  31.106  1.00  0.00     0.049 A 
ATOM     61  H   UNL A   1      43.102  23.495  30.887  1.00  0.00     0.167 HD
ATOM     62  C   UNL A   1      44.030  26.446  32.949  1.00  0.00     0.074 A 
ATOM     63  C   UNL A   1      44.122  27.158  34.212  1.00  0.00     0.031 C 
ATOM     64  C   UNL A   1      44.448  25.209  32.545  1.00  0.00     0.037 A 
BRANCH  51  65
ATOM     65  C   UNL A   1      43.387  22.549  27.055  1.00  0.00     0.058 A 
ATOM     66  C   UNL A   1      42.694  21.320  26.959  1.00  0.00     0.135 A 
ATOM     67  C   UNL A   1      44.418  22.705  26.105  1.00  0.00     0.135 A 
ATOM     68  F   UNL A   1      41.620  21.059  27.717  1.00  0.00    -0.206 F 
ATOM     69  C   UNL A   1      43.066  20.292  26.088  1.00  0.00     0.059 A 
ATOM     70  C   UNL A   1      44.843  21.672  25.256  1.00  0.00     0.059 A 
ATOM     71  F   UNL A   1      45.022  23.886  25.923  1.00  0.00    -0.206 F 
ATOM     72  C   UNL A   1      44.167  20.461  25.262  1.00  0.00     0.060 A 
BRANCH  72  73
ATOM     73  S   UNL A   1      44.674  19.097  24.196  1.00  0.00     0.124 S 
ATOM     74  O   UNL A   1      43.747  18.038  24.588  1.00  0.00    -0.237 OA
ATOM     75  O   UNL A   1      44.470  19.657  22.865  1.00  0.00    -0.237 OA
ATOM     76  O   UNL A   1      46.067  18.870  24.572  1.00  0.00    -0.744 OA
ENDBRANCH  72  73
ENDBRANCH  51  65
BRANCH  52  77
ATOM     77  C   UNL A   1      41.198  30.270  32.523  1.00  0.00     0.058 A 
ATOM     78  C   UNL A   1      40.208  29.385  33.004  1.00  0.00     0.135 A 
ATOM     79  C   UNL A   1      41.118  31.610  32.944  1.00  0.00     0.135 A 
ATOM     80  F   UNL A   1      40.221  28.098  32.621  1.00  0.00    -0.206 F 
ATOM     81  C   UNL A   1      39.330  29.751  34.020  1.00  0.00     0.059 A 
ATOM     82  C   UNL A   1      40.236  31.999  33.960  1.00  0.00     0.059 A 
ATOM     83  F   UNL A   1      42.005  32.512  32.499  1.00  0.00    -0.206 F 
ATOM     84  C   UNL A   1      39.413  31.038  34.549  1.00  0.00     0.060 A 
BRANCH  84  85
ATOM     85  S   UNL A   1      38.571  31.360  36.121  1.00  0.00     0.124 S 
ATOM     86  O   UNL A   1      38.238  30.015  36.578  1.00  0.00    -0.237 OA
ATOM     87  O   UNL A   1      39.619  32.035  36.887  1.00  0.00    -0.237 OA
ATOM     88  O   UNL A   1      37.436  32.192  35.742  1.00  0.00    -0.744 OA
ENDBRANCH  84  85
ENDBRANCH  52  77
BRANCH  64  89
ATOM     89  C   UNL A   1      44.911  24.115  33.474  1.00  0.00     0.058 A 
ATOM     90  C   UNL A   1      44.090  23.052  33.885  1.00  0.00     0.135 A 
ATOM     91  C   UNL A   1      46.267  24.030  33.869  1.00  0.00     0.135 A 
ATOM     92  F   UNL A   1      42.816  22.953  33.474  1.00  0.00    -0.206 F 
ATOM     93  C   UNL A   1      44.553  22.021  34.701  1.00  0.00     0.059 A 
ATOM     94  C   UNL A   1      46.766  22.976  34.631  1.00  0.00     0.059 A 
ATOM     95  F   UNL A   1      47.162  24.963  33.512  1.00  0.00    -0.206 F 
ATOM     96  C   UNL A   1      45.893  21.991  35.069  1.00  0.00     0.060 A 
BRANCH  96  97
ATOM     97  S   UNL A   1      46.510  20.627  36.069  1.00  0.00     0.124 S 
ATOM     98  O   UNL A   1      46.296  19.493  35.176  1.00  0.00    -0.237 OA
ATOM     99  O   UNL A   1      47.906  20.996  36.294  1.00  0.00    -0.237 OA
ATOM    100  O   UNL A   1      45.661  20.672  37.254  1.00  0.00    -0.744 OA
ENDBRANCH  96  97
ENDBRANCH  64  89
ENDBRANCH  38  39
ENDBRANCH  30  33
ENDBRANCH  28  29
ENDBRANCH  27  28
ENDBRANCH   1  27
TORSDOF 17
ENDMDL
MODEL 2
REMARK VINA RESULT:     -14.1      1.266      2.043
REMARK SMILES Cc1ccc(NC(=O)C[N@H+]2CCC[C@@H](C(=O)NCCCCNC(=O)c3ccc(-c4c5nc(c(-c6c(F)cc(S(=O)(=O)[O-])cc6F)c6ccc([nH]6)c(-c6c(F)cc(S(=O)(=O)[O-])cc6F)c6nc(c(-c7c(F)cc(S(=O)(=O)[O-])cc7F)c7ccc4[nH]7)C=C6)C=C5)cc3)C2)cc1F
REMARK SMILES IDX 19 1 18 2 17 3 15 4 16 5 14 7 10 8 11 9 91 10 12 12 13 13
REMARK SMILES IDX 9 14 7 15 6 16 8 18 5 19 1 20 2 21 3 22 93 23 4 24 92 25
REMARK SMILES IDX 94 26 20 27 21 28 22 29 23 30 24 32 25 33 26 34 90 35 27 36
REMARK SMILES IDX 89 37 28 38 29 39 30 40 83 41 31 42 88 43 82 44 84 45 32 46
REMARK SMILES IDX 87 47 81 48 80 49 33 51 67 52 46 53 66 54 47 55 50 56 65 57
REMARK SMILES IDX 85 58 48 59 49 60 64 62 86 63 51 64 34 65 35 66 44 67 36 68
REMARK SMILES IDX 37 69 43 70 45 71 38 72 39 73 40 74 41 75 42 76 68 77 69 78
REMARK SMILES IDX 78 79 70 80 71 81 77 82 79 83 72 84 73 85 74 86 75 87 76 88
REMARK SMILES IDX 52 89 53 90 62 91 54 92 55 93 61 94 63 95 56 96 57 97 58 98
REMARK SMILES IDX 59 99 60 100
REMARK H PARENT 17 6 10 11 6 17 22 31 84 50 50 61
REMARK Flexibility Score: inf
ROOT
ATOM      1  C   UNL A   1      34.003  28.333  26.847  1.00  0.00     0.023 C 
ENDROOT
BRANCH   1   2
ATOM      2  C   UNL A   1      32.491  28.232  27.084  1.00  0.00     0.116 C 
BRANCH   2   3
ATOM      3  N   UNL A   1      31.709  28.641  25.926  1.00  0.00    -0.356 N 
ATOM      4  C   UNL A   1      31.576  28.056  24.698  1.00  0.00     0.228 C 
ATOM      5  O   UNL A   1      30.825  28.589  23.879  1.00  0.00    -0.275 OA
ATOM      6  H   UNL A   1      31.195  29.472  26.048  1.00  0.00     0.163 HD
BRANCH   4   7
ATOM      7  C   UNL A   1      32.321  26.766  24.384  1.00  0.00     0.133 C 
ATOM      8  N   UNL A   1      32.051  24.295  24.220  1.00  0.00    -0.326 N 
ATOM      9  C   UNL A   1      32.745  24.299  22.916  1.00  0.00     0.262 C 
ATOM     10  C   UNL A   1      31.349  25.575  24.440  1.00  0.00     0.276 C 
ATOM     11  H   UNL A   1      32.711  24.244  24.996  1.00  0.00     0.348 HD
ATOM     12  C   UNL A   1      33.688  25.490  22.738  1.00  0.00     0.062 C 
ATOM     13  C   UNL A   1      32.972  26.810  23.000  1.00  0.00     0.025 C 
BRANCH   8  14
ATOM     14  C   UNL A   1      31.213  23.065  24.321  1.00  0.00     0.363 C 
BRANCH  14  15
ATOM     15  C   UNL A   1      31.210  22.318  25.650  1.00  0.00     0.279 C 
ATOM     16  N   UNL A   1      32.328  21.846  26.271  1.00  0.00    -0.321 N 
ATOM     17  H   UNL A   1      32.134  21.384  27.119  1.00  0.00     0.170 HD
ATOM     18  O   UNL A   1      30.130  22.126  26.228  1.00  0.00    -0.268 OA
BRANCH  16  19
ATOM     19  C   UNL A   1      33.698  21.878  25.961  1.00  0.00     0.044 A 
ATOM     20  C   UNL A   1      37.933  21.500  25.192  1.00  0.00     0.047 C 
ATOM     21  C   UNL A   1      36.461  21.648  25.416  1.00  0.00    -0.015 A 
ATOM     22  C   UNL A   1      35.574  20.651  25.004  1.00  0.00     0.008 A 
ATOM     23  C   UNL A   1      35.938  22.773  26.047  1.00  0.00     0.128 A 
ATOM     24  C   UNL A   1      34.206  20.764  25.275  1.00  0.00     0.026 A 
ATOM     25  C   UNL A   1      34.576  22.897  26.310  1.00  0.00     0.065 A 
ATOM     26  F   UNL A   1      36.753  23.767  26.431  1.00  0.00    -0.207 F 
ENDBRANCH  16  19
ENDBRANCH  14  15
ENDBRANCH   8  14
ENDBRANCH   4   7
ENDBRANCH   2   3
ENDBRANCH   1   2
BRANCH   1  27
ATOM     27  C   UNL A   1      34.562  29.745  26.620  1.00  0.00     0.023 C 
BRANCH  27  28
ATOM     28  C   UNL A   1      34.422  30.698  27.795  1.00  0.00     0.116 C 
BRANCH  28  29
ATOM     29  N   UNL A   1      35.625  31.472  28.067  1.00  0.00    -0.352 N 
ATOM     30  C   UNL A   1      36.417  31.095  29.152  1.00  0.00     0.251 C 
ATOM     31  H   UNL A   1      35.871  32.239  27.502  1.00  0.00     0.163 HD
ATOM     32  O   UNL A   1      36.218  31.506  30.278  1.00  0.00    -0.269 OA
BRANCH  30  33
ATOM     33  C   UNL A   1      37.363  29.970  28.866  1.00  0.00     0.039 A 
ATOM     34  C   UNL A   1      38.181  29.993  27.729  1.00  0.00     0.014 A 
ATOM     35  C   UNL A   1      37.598  29.028  29.869  1.00  0.00     0.014 A 
ATOM     36  C   UNL A   1      39.309  29.168  27.669  1.00  0.00     0.010 A 
ATOM     37  C   UNL A   1      38.730  28.258  29.840  1.00  0.00     0.010 A 
ATOM     38  C   UNL A   1      39.610  28.352  28.762  1.00  0.00    -0.014 A 
BRANCH  38  39
ATOM     39  C   UNL A   1      40.888  27.689  28.996  1.00  0.00     0.031 A 
ATOM     40  C   UNL A   1      41.107  26.299  28.551  1.00  0.00     0.074 A 
ATOM     41  C   UNL A   1      41.916  28.454  29.416  1.00  0.00     0.049 A 
ATOM     42  N   UNL A   1      42.040  25.527  28.993  1.00  0.00    -0.248 NA
ATOM     43  C   UNL A   1      40.270  25.664  27.539  1.00  0.00     0.031 C 
ATOM     44  C   UNL A   1      43.342  28.169  29.417  1.00  0.00     0.029 A 
ATOM     45  N   UNL A   1      41.815  29.652  30.104  1.00  0.00    -0.354 N 
ATOM     46  C   UNL A   1      42.117  24.433  28.153  1.00  0.00     0.074 A 
ATOM     47  C   UNL A   1      40.942  24.528  27.318  1.00  0.00     0.031 C 
ATOM     48  C   UNL A   1      43.943  29.003  30.289  1.00  0.00     0.029 A 
ATOM     49  C   UNL A   1      42.889  29.731  30.987  1.00  0.00     0.049 A 
ATOM     50  H   UNL A   1      41.109  30.328  29.990  1.00  0.00     0.167 HD
ATOM     51  C   UNL A   1      43.247  23.662  28.161  1.00  0.00     0.037 A 
ATOM     52  C   UNL A   1      42.627  29.632  32.329  1.00  0.00     0.037 A 
ATOM     53  C   UNL A   1      44.195  24.163  29.161  1.00  0.00     0.049 A 
ATOM     54  C   UNL A   1      43.215  28.380  32.936  1.00  0.00     0.074 A 
ATOM     55  C   UNL A   1      45.289  25.008  29.051  1.00  0.00     0.029 A 
ATOM     56  N   UNL A   1      43.881  24.101  30.517  1.00  0.00    -0.354 N 
ATOM     57  N   UNL A   1      43.488  27.292  32.266  1.00  0.00    -0.248 NA
ATOM     58  C   UNL A   1      43.593  28.283  34.342  1.00  0.00     0.031 C 
ATOM     59  C   UNL A   1      45.563  25.539  30.337  1.00  0.00     0.029 A 
ATOM     60  C   UNL A   1      44.658  24.994  31.233  1.00  0.00     0.049 A 
ATOM     61  H   UNL A   1      43.202  23.506  30.909  1.00  0.00     0.167 HD
ATOM     62  C   UNL A   1      44.077  26.379  33.099  1.00  0.00     0.074 A 
ATOM     63  C   UNL A   1      44.127  27.050  34.387  1.00  0.00     0.031 C 
ATOM     64  C   UNL A   1      44.499  25.151  32.672  1.00  0.00     0.037 A 
BRANCH  51  65
ATOM     65  C   UNL A   1      43.628  22.680  27.062  1.00  0.00     0.058 A 
ATOM     66  C   UNL A   1      42.861  21.513  26.832  1.00  0.00     0.135 A 
ATOM     67  C   UNL A   1      44.756  22.803  26.225  1.00  0.00     0.135 A 
ATOM     68  F   UNL A   1      41.702  21.297  27.468  1.00  0.00    -0.206 F 
ATOM     69  C   UNL A   1      43.244  20.504  25.942  1.00  0.00     0.059 A 
ATOM     70  C   UNL A   1      45.188  21.784  25.362  1.00  0.00     0.059 A 
ATOM     71  F   UNL A   1      45.457  23.942  26.168  1.00  0.00    -0.206 F 
ATOM     72  C   UNL A   1      44.430  20.630  25.236  1.00  0.00     0.060 A 
BRANCH  72  73
ATOM     73  S   UNL A   1      44.941  19.285  24.147  1.00  0.00     0.124 S 
ATOM     74  O   UNL A   1      44.320  18.124  24.778  1.00  0.00    -0.237 OA
ATOM     75  O   UNL A   1      44.371  19.694  22.868  1.00  0.00    -0.237 OA
ATOM     76  O   UNL A   1      46.399  19.322  24.221  1.00  0.00    -0.744 OA
ENDBRANCH  72  73
ENDBRANCH  51  65
BRANCH  52  77
ATOM     77  C   UNL A   1      41.302  30.247  32.688  1.00  0.00     0.058 A 
ATOM     78  C   UNL A   1      40.296  29.362  33.134  1.00  0.00     0.135 A 
ATOM     79  C   UNL A   1      41.215  31.583  33.117  1.00  0.00     0.135 A 
ATOM     80  F   UNL A   1      40.315  28.077  32.740  1.00  0.00    -0.206 F 
ATOM     81  C   UNL A   1      39.392  29.722  34.128  1.00  0.00     0.059 A 
ATOM     82  C   UNL A   1      40.306  31.968  34.111  1.00  0.00     0.059 A 
ATOM     83  F   UNL A   1      42.117  32.486  32.703  1.00  0.00    -0.206 F 
ATOM     84  C   UNL A   1      39.464  31.005  34.670  1.00  0.00     0.060 A 
BRANCH  84  85
ATOM     85  S   UNL A   1      38.580  31.317  36.219  1.00  0.00     0.124 S 
ATOM     86  O   UNL A   1      39.588  32.000  37.022  1.00  0.00    -0.237 OA
ATOM     87  O   UNL A   1      37.473  32.160  35.766  1.00  0.00    -0.237 OA
ATOM     88  O   UNL A   1      38.208  29.986  36.680  1.00  0.00    -0.744 OA
ENDBRANCH  84  85
ENDBRANCH  52  77
BRANCH  64  89
ATOM     89  C   UNL A   1      44.914  24.024  33.583  1.00  0.00     0.058 A 
ATOM     90  C   UNL A   1      44.078  22.941  33.903  1.00  0.00     0.135 A 
ATOM     91  C   UNL A   1      46.245  23.928  34.053  1.00  0.00     0.135 A 
ATOM     92  F   UNL A   1      42.831  22.853  33.414  1.00  0.00    -0.206 F 
ATOM     93  C   UNL A   1      44.500  21.881  34.703  1.00  0.00     0.059 A 
ATOM     94  C   UNL A   1      46.706  22.847  34.800  1.00  0.00     0.059 A 
ATOM     95  F   UNL A   1      47.154  24.879  33.785  1.00  0.00    -0.206 F 
ATOM     96  C   UNL A   1      45.817  21.841  35.147  1.00  0.00     0.060 A 
BRANCH  96  97
ATOM     97  S   UNL A   1      46.384  20.442  36.127  1.00  0.00     0.124 S 
ATOM     98  O   UNL A   1      45.854  20.776  37.445  1.00  0.00    -0.237 OA
ATOM     99  O   UNL A   1      45.750  19.304  35.464  1.00  0.00    -0.237 OA
ATOM    100  O   UNL A   1      47.835  20.506  35.990  1.00  0.00    -0.744 OA
ENDBRANCH  96  97
ENDBRANCH  64  89
ENDBRANCH  38  39
ENDBRANCH  30  33
ENDBRANCH  28  29
ENDBRANCH  27  28
ENDBRANCH   1  27
TORSDOF 17
ENDMDL
MODEL 3
REMARK VINA RESULT:     -13.5      5.013     11.427
REMARK SMILES Cc1ccc(NC(=O)C[N@H+]2CCC[C@@H](C(=O)NCCCCNC(=O)c3ccc(-c4c5nc(c(-c6c(F)cc(S(=O)(=O)[O-])cc6F)c6ccc([nH]6)c(-c6c(F)cc(S(=O)(=O)[O-])cc6F)c6nc(c(-c7c(F)cc(S(=O)(=O)[O-])cc7F)c7ccc4[nH]7)C=C6)C=C5)cc3)C2)cc1F
REMARK SMILES IDX 19 1 18 2 17 3 15 4 16 5 14 7 10 8 11 9 91 10 12 12 13 13
REMARK SMILES IDX 9 14 7 15 6 16 8 18 5 19 1 20 2 21 3 22 93 23 4 24 92 25
REMARK SMILES IDX 94 26 20 27 21 28 22 29 23 30 24 32 25 33 26 34 90 35 27 36
REMARK SMILES IDX 89 37 28 38 29 39 30 40 83 41 31 42 88 43 82 44 84 45 32 46
REMARK SMILES IDX 87 47 81 48 80 49 33 51 67 52 46 53 66 54 47 55 50 56 65 57
REMARK SMILES IDX 85 58 48 59 49 60 64 62 86 63 51 64 34 65 35 66 44 67 36 68
REMARK SMILES IDX 37 69 43 70 45 71 38 72 39 73 40 74 41 75 42 76 68 77 69 78
REMARK SMILES IDX 78 79 70 80 71 81 77 82 79 83 72 84 73 85 74 86 75 87 76 88
REMARK SMILES IDX 52 89 53 90 62 91 54 92 55 93 61 94 63 95 56 96 57 97 58 98
REMARK SMILES IDX 59 99 60 100
REMARK H PARENT 17 6 10 11 6 17 22 31 84 50 50 61
REMARK Flexibility Score: inf
ROOT
ATOM      1  C   UNL A   1      38.210  21.764  25.350  1.00  0.00     0.023 C 
ENDROOT
BRANCH   1   2
ATOM      2  C   UNL A   1      37.573  23.153  25.226  1.00  0.00     0.116 C 
BRANCH   2   3
ATOM      3  N   UNL A   1      36.856  23.337  23.972  1.00  0.00    -0.356 N 
ATOM      4  C   UNL A   1      35.571  23.018  23.633  1.00  0.00     0.228 C 
ATOM      5  O   UNL A   1      35.182  23.298  22.499  1.00  0.00    -0.275 OA
ATOM      6  H   UNL A   1      37.382  23.759  23.254  1.00  0.00     0.163 HD
BRANCH   4   7
ATOM      7  C   UNL A   1      34.655  22.359  24.656  1.00  0.00     0.133 C 
ATOM      8  N   UNL A   1      32.311  22.315  25.499  1.00  0.00    -0.326 N 
ATOM      9  C   UNL A   1      32.316  20.839  25.455  1.00  0.00     0.262 C 
ATOM     10  C   UNL A   1      33.215  22.869  24.472  1.00  0.00     0.276 C 
ATOM     11  H   UNL A   1      32.696  22.666  26.376  1.00  0.00     0.348 HD
ATOM     12  C   UNL A   1      33.719  20.237  25.563  1.00  0.00     0.062 C 
ATOM     13  C   UNL A   1      34.662  20.835  24.526  1.00  0.00     0.025 C 
BRANCH   8  14
ATOM     14  C   UNL A   1      30.900  22.797  25.455  1.00  0.00     0.363 C 
BRANCH  14  15
ATOM     15  C   UNL A   1      30.423  23.693  26.594  1.00  0.00     0.279 C 
ATOM     16  N   UNL A   1      30.681  25.029  26.683  1.00  0.00    -0.321 N 
ATOM     17  H   UNL A   1      30.298  25.444  27.490  1.00  0.00     0.170 HD
ATOM     18  O   UNL A   1      29.743  23.196  27.504  1.00  0.00    -0.268 OA
BRANCH  16  19
ATOM     19  C   UNL A   1      31.376  25.940  25.870  1.00  0.00     0.044 A 
ATOM     20  C   UNL A   1      33.707  28.932  23.801  1.00  0.00     0.047 C 
ATOM     21  C   UNL A   1      32.914  27.864  24.487  1.00  0.00    -0.015 A 
ATOM     22  C   UNL A   1      33.506  27.047  25.453  1.00  0.00     0.008 A 
ATOM     23  C   UNL A   1      31.570  27.663  24.191  1.00  0.00     0.128 A 
ATOM     24  C   UNL A   1      32.743  26.095  26.139  1.00  0.00     0.026 A 
ATOM     25  C   UNL A   1      30.807  26.709  24.862  1.00  0.00     0.065 A 
ATOM     26  F   UNL A   1      30.971  28.407  23.248  1.00  0.00    -0.207 F 
ENDBRANCH  16  19
ENDBRANCH  14  15
ENDBRANCH   8  14
ENDBRANCH   4   7
ENDBRANCH   2   3
ENDBRANCH   1   2
BRANCH   1  27
ATOM     27  C   UNL A   1      39.539  21.693  26.115  1.00  0.00     0.023 C 
BRANCH  27  28
ATOM     28  C   UNL A   1      39.608  22.528  27.383  1.00  0.00     0.116 C 
BRANCH  28  29
ATOM     29  N   UNL A   1      40.855  23.263  27.532  1.00  0.00    -0.352 N 
ATOM     30  C   UNL A   1      41.041  24.407  26.756  1.00  0.00     0.251 C 
ATOM     31  H   UNL A   1      41.548  22.961  28.162  1.00  0.00     0.163 HD
ATOM     32  O   UNL A   1      41.508  24.366  25.635  1.00  0.00    -0.269 OA
BRANCH  30  33
ATOM     33  C   UNL A   1      40.399  25.642  27.309  1.00  0.00     0.039 A 
ATOM     34  C   UNL A   1      39.802  25.632  28.577  1.00  0.00     0.014 A 
ATOM     35  C   UNL A   1      40.622  26.856  26.658  1.00  0.00     0.014 A 
ATOM     36  C   UNL A   1      39.562  26.840  29.240  1.00  0.00     0.010 A 
ATOM     37  C   UNL A   1      40.439  28.039  27.324  1.00  0.00     0.010 A 
ATOM     38  C   UNL A   1      39.948  28.036  28.629  1.00  0.00    -0.014 A 
BRANCH  38  39
ATOM     39  C   UNL A   1      40.065  29.327  29.297  1.00  0.00     0.031 A 
ATOM     40  C   UNL A   1      38.975  30.319  29.216  1.00  0.00     0.074 A 
ATOM     41  C   UNL A   1      41.084  29.486  30.165  1.00  0.00     0.049 A 
ATOM     42  N   UNL A   1      39.108  31.576  29.468  1.00  0.00    -0.248 NA
ATOM     43  C   UNL A   1      37.614  29.952  28.841  1.00  0.00     0.031 C 
ATOM     44  C   UNL A   1      41.273  30.492  31.198  1.00  0.00     0.029 A 
ATOM     45  N   UNL A   1      42.284  28.793  30.153  1.00  0.00    -0.354 N 
ATOM     46  C   UNL A   1      37.844  32.123  29.574  1.00  0.00     0.074 A 
ATOM     47  C   UNL A   1      36.956  31.089  29.093  1.00  0.00     0.031 C 
ATOM     48  C   UNL A   1      42.580  30.529  31.525  1.00  0.00     0.029 A 
ATOM     49  C   UNL A   1      43.283  29.658  30.589  1.00  0.00     0.049 A 
ATOM     50  H   UNL A   1      42.407  27.855  29.883  1.00  0.00     0.167 HD
ATOM     51  C   UNL A   1      37.687  33.328  30.200  1.00  0.00     0.037 A 
ATOM     52  C   UNL A   1      44.212  30.082  29.673  1.00  0.00     0.037 A 
ATOM     53  C   UNL A   1      38.989  33.852  30.623  1.00  0.00     0.049 A 
ATOM     54  C   UNL A   1      44.115  31.566  29.404  1.00  0.00     0.074 A 
ATOM     55  C   UNL A   1      39.656  33.793  31.837  1.00  0.00     0.029 A 
ATOM     56  N   UNL A   1      39.936  34.225  29.672  1.00  0.00    -0.354 N 
ATOM     57  N   UNL A   1      43.035  32.279  29.582  1.00  0.00    -0.248 NA
ATOM     58  C   UNL A   1      45.251  32.367  28.965  1.00  0.00     0.031 C 
ATOM     59  C   UNL A   1      41.033  34.025  31.592  1.00  0.00     0.029 A 
ATOM     60  C   UNL A   1      41.199  34.258  30.237  1.00  0.00     0.049 A 
ATOM     61  H   UNL A   1      39.735  34.435  28.732  1.00  0.00     0.167 HD
ATOM     62  C   UNL A   1      43.309  33.594  29.316  1.00  0.00     0.074 A 
ATOM     63  C   UNL A   1      44.712  33.598  28.941  1.00  0.00     0.031 C 
ATOM     64  C   UNL A   1      42.376  34.584  29.443  1.00  0.00     0.037 A 
BRANCH  51  65
ATOM     65  C   UNL A   1      36.358  33.865  30.715  1.00  0.00     0.058 A 
ATOM     66  C   UNL A   1      35.361  34.319  29.821  1.00  0.00     0.135 A 
ATOM     67  C   UNL A   1      36.015  33.998  32.077  1.00  0.00     0.135 A 
ATOM     68  F   UNL A   1      35.485  34.166  28.495  1.00  0.00    -0.206 F 
ATOM     69  C   UNL A   1      34.188  34.958  30.235  1.00  0.00     0.059 A 
ATOM     70  C   UNL A   1      34.871  34.679  32.519  1.00  0.00     0.059 A 
ATOM     71  F   UNL A   1      36.751  33.425  33.037  1.00  0.00    -0.206 F 
ATOM     72  C   UNL A   1      33.966  35.167  31.588  1.00  0.00     0.060 A 
BRANCH  72  73
ATOM     73  S   UNL A   1      32.481  36.056  32.098  1.00  0.00     0.124 S 
ATOM     74  O   UNL A   1      32.065  36.702  30.856  1.00  0.00    -0.237 OA
ATOM     75  O   UNL A   1      31.623  34.973  32.568  1.00  0.00    -0.237 OA
ATOM     76  O   UNL A   1      32.966  36.963  33.134  1.00  0.00    -0.744 OA
ENDBRANCH  72  73
ENDBRANCH  51  65
BRANCH  52  77
ATOM     77  C   UNL A   1      44.518  29.019  28.654  1.00  0.00     0.058 A 
ATOM     78  C   UNL A   1      44.119  29.286  27.326  1.00  0.00     0.135 A 
ATOM     79  C   UNL A   1      45.593  28.131  28.834  1.00  0.00     0.135 A 
ATOM     80  F   UNL A   1      43.085  30.111  27.093  1.00  0.00    -0.206 F 
ATOM     81  C   UNL A   1      44.884  28.880  26.236  1.00  0.00     0.059 A 
ATOM     82  C   UNL A   1      46.370  27.704  27.749  1.00  0.00     0.059 A 
ATOM     83  F   UNL A   1      46.003  27.806  30.069  1.00  0.00    -0.206 F 
ATOM     84  C   UNL A   1      46.056  28.161  26.467  1.00  0.00     0.060 A 
BRANCH  84  85
ATOM     85  S   UNL A   1      47.234  28.005  25.100  1.00  0.00     0.124 S 
ATOM     86  O   UNL A   1      47.241  26.568  24.855  1.00  0.00    -0.237 OA
ATOM     87  O   UNL A   1      46.591  28.809  24.061  1.00  0.00    -0.237 OA
ATOM     88  O   UNL A   1      48.470  28.555  25.645  1.00  0.00    -0.744 OA
ENDBRANCH  84  85
ENDBRANCH  52  77
BRANCH  64  89
ATOM     89  C   UNL A   1      42.544  35.991  28.927  1.00  0.00     0.058 A 
ATOM     90  C   UNL A   1      43.356  36.952  29.553  1.00  0.00     0.135 A 
ATOM     91  C   UNL A   1      41.993  36.374  27.681  1.00  0.00     0.135 A 
ATOM     92  F   UNL A   1      44.034  36.669  30.676  1.00  0.00    -0.206 F 
ATOM     93  C   UNL A   1      43.542  38.230  29.030  1.00  0.00     0.059 A 
ATOM     94  C   UNL A   1      42.217  37.624  27.109  1.00  0.00     0.059 A 
ATOM     95  F   UNL A   1      41.228  35.535  26.964  1.00  0.00    -0.206 F 
ATOM     96  C   UNL A   1      42.968  38.558  27.806  1.00  0.00     0.060 A 
BRANCH  96  97
ATOM     97  S   UNL A   1      43.258  40.186  27.095  1.00  0.00     0.124 S 
ATOM     98  O   UNL A   1      43.192  41.035  28.280  1.00  0.00    -0.237 OA
ATOM     99  O   UNL A   1      44.582  40.046  26.494  1.00  0.00    -0.237 OA
ATOM    100  O   UNL A   1      42.161  40.335  26.145  1.00  0.00    -0.744 OA
ENDBRANCH  96  97
ENDBRANCH  64  89
ENDBRANCH  38  39
ENDBRANCH  30  33
ENDBRANCH  28  29
ENDBRANCH  27  28
ENDBRANCH   1  27
TORSDOF 17
ENDMDL
