MODEL 1
REMARK VINA RESULT:     -12.9      0.000      0.000
REMARK SMILES O=C(COc1ccc(Br)cc1/C=C1\C(=O)Nc2ccc(Br)cc21)NCCCCNC(=O)c1ccc(-c2c3nc(c(-c4c(F)cc(S(=O)(=O)[O-])cc4F)c4ccc([nH]4)c(-c4c(F)cc(S(=O)(=O)[O-])cc4F)c4nc(c(-c5c(F)cc(S(=O)(=O)[O-])cc5F)c5ccc2[nH]5)C=C4)C=C3)cc1
REMARK SMILES IDX 26 1 25 2 24 3 1 4 2 5 3 7 4 8 5 9 6 10 11 11 7 12 10 13
REMARK SMILES IDX 8 14 9 15 12 16 13 17 14 18 23 19 15 20 16 21 17 22 22 23
REMARK SMILES IDX 18 25 20 26 19 27 21 28 27 29 28 30 29 31 30 32 31 34 32 35
REMARK SMILES IDX 33 36 97 37 34 38 96 39 35 40 36 41 37 42 90 43 38 44 95 45
REMARK SMILES IDX 89 46 91 47 39 48 94 49 88 50 87 51 40 53 74 54 53 55 73 56
REMARK SMILES IDX 54 57 57 58 72 59 92 60 55 61 56 62 71 64 93 65 58 66 41 67
REMARK SMILES IDX 42 68 51 69 43 70 44 71 50 72 52 73 45 74 46 75 47 76 48 77
REMARK SMILES IDX 49 78 75 79 76 80 85 81 77 82 78 83 84 84 86 85 79 86 80 87
REMARK SMILES IDX 81 88 82 89 83 90 59 91 60 92 69 93 61 94 62 95 68 96 70 97
REMARK SMILES IDX 63 98 64 99 65 100 66 101 67 102
REMARK H PARENT 24 6 16 24 29 33 91 52 57 63
REMARK Flexibility Score: inf
ROOT
ATOM      1  C   UNL A   1      34.520  30.145  27.674  1.00  0.00     0.023 C 
ENDROOT
BRANCH   1   2
ATOM      2  C   UNL A   1      33.447  29.833  26.635  1.00  0.00     0.116 C 
BRANCH   2   3
ATOM      3  N   UNL A   1      33.944  29.342  25.357  1.00  0.00    -0.353 N 
ATOM      4  O   UNL A   1      33.501  27.130  25.776  1.00  0.00    -0.271 OA
ATOM      5  C   UNL A   1      33.798  28.020  24.980  1.00  0.00     0.257 C 
ATOM      6  H   UNL A   1      34.397  29.967  24.746  1.00  0.00     0.163 HD
BRANCH   5   7
ATOM      7  C   UNL A   1      33.951  27.730  23.463  1.00  0.00     0.329 C 
BRANCH   7   8
ATOM      8  O   UNL A   1      32.921  27.104  22.690  1.00  0.00    -0.483 OA
BRANCH   8   9
ATOM      9  C   UNL A   1      31.621  27.509  22.909  1.00  0.00     0.127 A 
ATOM     10  C   UNL A   1      31.258  28.863  22.734  1.00  0.00     0.048 A 
ATOM     11  C   UNL A   1      30.613  26.543  23.199  1.00  0.00     0.018 A 
ATOM     12  C   UNL A   1      29.944  29.301  22.849  1.00  0.00     0.019 A 
ATOM     13  C   UNL A   1      29.292  27.026  23.222  1.00  0.00     0.027 A 
ATOM     14  C   UNL A   1      28.960  28.374  23.090  1.00  0.00     0.018 A 
ATOM     15  Br  UNL A   1      27.161  28.927  23.255  1.00  0.00    -0.051 Br
BRANCH  11  16
ATOM     16  C   UNL A   1      30.910  25.102  23.553  1.00  0.00     0.026 C 
ATOM     17  C   UNL A   1      30.911  24.496  24.772  1.00  0.00     0.050 C 
ATOM     18  C   UNL A   1      30.592  25.124  26.112  1.00  0.00     0.256 C 
ATOM     19  C   UNL A   1      31.745  23.325  25.138  1.00  0.00     0.012 A 
ATOM     20  O   UNL A   1      29.568  25.640  26.504  1.00  0.00    -0.269 OA
ATOM     21  N   UNL A   1      31.656  24.775  26.919  1.00  0.00    -0.321 N 
ATOM     22  C   UNL A   1      32.309  23.672  26.381  1.00  0.00     0.049 A 
ATOM     23  C   UNL A   1      31.929  22.041  24.662  1.00  0.00     0.026 A 
ATOM     24  H   UNL A   1      31.914  25.235  27.750  1.00  0.00     0.170 HD
ATOM     25  C   UNL A   1      33.205  22.889  27.074  1.00  0.00     0.028 A 
ATOM     26  C   UNL A   1      32.756  21.182  25.412  1.00  0.00     0.018 A 
ATOM     27  C   UNL A   1      33.434  21.616  26.569  1.00  0.00     0.018 A 
ATOM     28  Br  UNL A   1      32.888  19.351  24.941  1.00  0.00    -0.051 Br
ENDBRANCH  11  16
ENDBRANCH   8   9
ENDBRANCH   7   8
ENDBRANCH   5   7
ENDBRANCH   2   3
ENDBRANCH   1   2
BRANCH   1  29
ATOM     29  C   UNL A   1      34.887  31.620  27.816  1.00  0.00     0.023 C 
BRANCH  29  30
ATOM     30  C   UNL A   1      35.754  31.977  29.018  1.00  0.00     0.116 C 
BRANCH  30  31
ATOM     31  N   UNL A   1      35.614  31.066  30.146  1.00  0.00    -0.352 N 
ATOM     32  C   UNL A   1      36.545  30.195  30.677  1.00  0.00     0.251 C 
ATOM     33  H   UNL A   1      34.736  31.072  30.590  1.00  0.00     0.163 HD
ATOM     34  O   UNL A   1      36.226  29.432  31.585  1.00  0.00    -0.269 OA
BRANCH  32  35
ATOM     35  C   UNL A   1      37.914  30.147  30.111  1.00  0.00     0.039 A 
ATOM     36  C   UNL A   1      38.115  29.906  28.752  1.00  0.00     0.014 A 
ATOM     37  C   UNL A   1      39.013  30.276  30.966  1.00  0.00     0.014 A 
ATOM     38  C   UNL A   1      39.387  29.579  28.292  1.00  0.00     0.010 A 
ATOM     39  C   UNL A   1      40.304  30.045  30.479  1.00  0.00     0.010 A 
ATOM     40  C   UNL A   1      40.496  29.625  29.153  1.00  0.00    -0.014 A 
BRANCH  40  41
ATOM     41  C   UNL A   1      41.833  29.197  28.652  1.00  0.00     0.031 A 
ATOM     42  C   UNL A   1      43.007  30.145  28.676  1.00  0.00     0.074 A 
ATOM     43  C   UNL A   1      42.013  27.927  28.243  1.00  0.00     0.049 A 
ATOM     44  N   UNL A   1      44.249  29.931  28.318  1.00  0.00    -0.248 NA
ATOM     45  C   UNL A   1      42.755  31.511  29.160  1.00  0.00     0.031 C 
ATOM     46  C   UNL A   1      40.964  26.905  28.193  1.00  0.00     0.029 A 
ATOM     47  N   UNL A   1      43.140  27.267  27.824  1.00  0.00    -0.354 N 
ATOM     48  C   UNL A   1      44.921  31.130  28.523  1.00  0.00     0.074 A 
ATOM     49  C   UNL A   1      43.940  32.083  28.995  1.00  0.00     0.031 C 
ATOM     50  C   UNL A   1      41.510  25.735  27.830  1.00  0.00     0.029 A 
ATOM     51  C   UNL A   1      42.929  25.935  27.554  1.00  0.00     0.049 A 
ATOM     52  H   UNL A   1      44.016  27.705  27.725  1.00  0.00     0.167 HD
ATOM     53  C   UNL A   1      46.237  31.411  28.352  1.00  0.00     0.037 A 
ATOM     54  C   UNL A   1      43.776  24.980  27.124  1.00  0.00     0.037 A 
ATOM     55  C   UNL A   1      47.215  30.459  27.887  1.00  0.00     0.049 A 
ATOM     56  C   UNL A   1      45.213  25.329  26.874  1.00  0.00     0.074 A 
ATOM     57  C   UNL A   1      48.572  30.647  27.688  1.00  0.00     0.029 A 
ATOM     58  N   UNL A   1      46.942  29.142  27.546  1.00  0.00    -0.354 N 
ATOM     59  N   UNL A   1      45.829  26.470  27.069  1.00  0.00    -0.248 NA
ATOM     60  C   UNL A   1      46.070  24.265  26.335  1.00  0.00     0.031 C 
ATOM     61  C   UNL A   1      49.109  29.458  27.181  1.00  0.00     0.029 A 
ATOM     62  C   UNL A   1      48.099  28.513  27.113  1.00  0.00     0.049 A 
ATOM     63  H   UNL A   1      46.055  28.717  27.603  1.00  0.00     0.167 HD
ATOM     64  C   UNL A   1      47.148  26.262  26.684  1.00  0.00     0.074 A 
ATOM     65  C   UNL A   1      47.245  24.878  26.262  1.00  0.00     0.031 C 
ATOM     66  C   UNL A   1      48.183  27.138  26.681  1.00  0.00     0.037 A 
BRANCH  53  67
ATOM     67  C   UNL A   1      46.692  32.816  28.654  1.00  0.00     0.058 A 
ATOM     68  C   UNL A   1      47.093  33.201  29.944  1.00  0.00     0.135 A 
ATOM     69  C   UNL A   1      46.738  33.788  27.641  1.00  0.00     0.135 A 
ATOM     70  F   UNL A   1      47.058  32.318  30.954  1.00  0.00    -0.206 F 
ATOM     71  C   UNL A   1      47.480  34.508  30.228  1.00  0.00     0.059 A 
ATOM     72  C   UNL A   1      47.151  35.093  27.896  1.00  0.00     0.059 A 
ATOM     73  F   UNL A   1      46.374  33.476  26.387  1.00  0.00    -0.206 F 
ATOM     74  C   UNL A   1      47.499  35.449  29.197  1.00  0.00     0.060 A 
BRANCH  74  75
ATOM     75  S   UNL A   1      47.966  37.148  29.592  1.00  0.00     0.124 S 
ATOM     76  O   UNL A   1      48.162  37.711  28.260  1.00  0.00    -0.237 OA
ATOM     77  O   UNL A   1      46.797  37.631  30.319  1.00  0.00    -0.237 OA
ATOM     78  O   UNL A   1      49.178  36.992  30.391  1.00  0.00    -0.744 OA
ENDBRANCH  74  75
ENDBRANCH  53  67
BRANCH  54  79
ATOM     79  C   UNL A   1      43.265  23.598  26.925  1.00  0.00     0.058 A 
ATOM     80  C   UNL A   1      43.044  23.095  25.636  1.00  0.00     0.135 A 
ATOM     81  C   UNL A   1      43.073  22.730  28.011  1.00  0.00     0.135 A 
ATOM     82  F   UNL A   1      43.204  23.891  24.568  1.00  0.00    -0.206 F 
ATOM     83  C   UNL A   1      42.669  21.772  25.427  1.00  0.00     0.059 A 
ATOM     84  C   UNL A   1      42.724  21.397  27.827  1.00  0.00     0.059 A 
ATOM     85  F   UNL A   1      43.285  23.164  29.264  1.00  0.00    -0.206 F 
ATOM     86  C   UNL A   1      42.527  20.927  26.530  1.00  0.00     0.060 A 
BRANCH  86  87
ATOM     87  S   UNL A   1      42.148  19.185  26.237  1.00  0.00     0.124 S 
ATOM     88  O   UNL A   1      40.735  19.247  25.883  1.00  0.00    -0.237 OA
ATOM     89  O   UNL A   1      43.065  18.854  25.151  1.00  0.00    -0.237 OA
ATOM     90  O   UNL A   1      42.451  18.554  27.518  1.00  0.00    -0.744 OA
ENDBRANCH  86  87
ENDBRANCH  54  79
BRANCH  66  91
ATOM     91  C   UNL A   1      49.519  26.634  26.208  1.00  0.00     0.058 A 
ATOM     92  C   UNL A   1      49.971  26.873  24.901  1.00  0.00     0.135 A 
ATOM     93  C   UNL A   1      50.383  25.965  27.089  1.00  0.00     0.135 A 
ATOM     94  F   UNL A   1      49.181  27.501  24.016  1.00  0.00    -0.206 F 
ATOM     95  C   UNL A   1      51.230  26.453  24.480  1.00  0.00     0.059 A 
ATOM     96  C   UNL A   1      51.655  25.559  26.697  1.00  0.00     0.059 A 
ATOM     97  F   UNL A   1      50.003  25.718  28.352  1.00  0.00    -0.206 F 
ATOM     98  C   UNL A   1      52.067  25.802  25.387  1.00  0.00     0.060 A 
BRANCH  98  99
ATOM     99  S   UNL A   1      53.714  25.305  24.837  1.00  0.00     0.124 S 
ATOM    100  O   UNL A   1      54.557  25.871  25.885  1.00  0.00    -0.237 OA
ATOM    101  O   UNL A   1      53.611  23.850  24.823  1.00  0.00    -0.237 OA
ATOM    102  O   UNL A   1      53.838  25.933  23.525  1.00  0.00    -0.744 OA
ENDBRANCH  98  99
ENDBRANCH  66  91
ENDBRANCH  40  41
ENDBRANCH  32  35
ENDBRANCH  30  31
ENDBRANCH  29  30
ENDBRANCH   1  29
TORSDOF 17
ENDMDL
MODEL 2
REMARK VINA RESULT:     -12.5      6.431     12.060
REMARK SMILES O=C(COc1ccc(Br)cc1/C=C1\C(=O)Nc2ccc(Br)cc21)NCCCCNC(=O)c1ccc(-c2c3nc(c(-c4c(F)cc(S(=O)(=O)[O-])cc4F)c4ccc([nH]4)c(-c4c(F)cc(S(=O)(=O)[O-])cc4F)c4nc(c(-c5c(F)cc(S(=O)(=O)[O-])cc5F)c5ccc2[nH]5)C=C4)C=C3)cc1
REMARK SMILES IDX 26 1 25 2 24 3 1 4 2 5 3 7 4 8 5 9 6 10 11 11 7 12 10 13
REMARK SMILES IDX 8 14 9 15 12 16 13 17 14 18 23 19 15 20 16 21 17 22 22 23
REMARK SMILES IDX 18 25 20 26 19 27 21 28 27 29 28 30 29 31 30 32 31 34 32 35
REMARK SMILES IDX 33 36 97 37 34 38 96 39 35 40 36 41 37 42 90 43 38 44 95 45
REMARK SMILES IDX 89 46 91 47 39 48 94 49 88 50 87 51 40 53 74 54 53 55 73 56
REMARK SMILES IDX 54 57 57 58 72 59 92 60 55 61 56 62 71 64 93 65 58 66 41 67
REMARK SMILES IDX 42 68 51 69 43 70 44 71 50 72 52 73 45 74 46 75 47 76 48 77
REMARK SMILES IDX 49 78 75 79 76 80 85 81 77 82 78 83 84 84 86 85 79 86 80 87
REMARK SMILES IDX 81 88 82 89 83 90 59 91 60 92 69 93 61 94 62 95 68 96 70 97
REMARK SMILES IDX 63 98 64 99 65 100 66 101 67 102
REMARK H PARENT 24 6 16 24 29 33 91 52 57 63
REMARK Flexibility Score: inf
ROOT
ATOM      1  C   UNL A   1      42.121  21.451  27.443  1.00  0.00     0.023 C 
ENDROOT
BRANCH   1   2
ATOM      2  C   UNL A   1      40.817  22.238  27.534  1.00  0.00     0.116 C 
BRANCH   2   3
ATOM      3  N   UNL A   1      39.675  21.626  26.870  1.00  0.00    -0.353 N 
ATOM      4  O   UNL A   1      38.688  23.602  26.250  1.00  0.00    -0.271 OA
ATOM      5  C   UNL A   1      38.762  22.378  26.154  1.00  0.00     0.257 C 
ATOM      6  H   UNL A   1      39.548  20.652  26.934  1.00  0.00     0.163 HD
BRANCH   5   7
ATOM      7  C   UNL A   1      37.881  21.590  25.147  1.00  0.00     0.329 C 
BRANCH   7   8
ATOM      8  O   UNL A   1      36.465  21.775  25.054  1.00  0.00    -0.483 OA
BRANCH   8   9
ATOM      9  C   UNL A   1      35.685  20.655  24.852  1.00  0.00     0.127 A 
ATOM     10  C   UNL A   1      36.285  19.382  24.730  1.00  0.00     0.048 A 
ATOM     11  C   UNL A   1      34.264  20.761  24.882  1.00  0.00     0.018 A 
ATOM     12  C   UNL A   1      35.539  18.215  24.623  1.00  0.00     0.019 A 
ATOM     13  C   UNL A   1      33.559  19.544  24.853  1.00  0.00     0.027 A 
ATOM     14  C   UNL A   1      34.170  18.301  24.689  1.00  0.00     0.018 A 
ATOM     15  Br  UNL A   1      33.116  16.739  24.545  1.00  0.00    -0.051 Br
BRANCH  11  16
ATOM     16  C   UNL A   1      33.521  22.080  24.856  1.00  0.00     0.026 C 
ATOM     17  C   UNL A   1      32.799  22.643  23.849  1.00  0.00     0.050 C 
ATOM     18  C   UNL A   1      32.538  22.070  22.473  1.00  0.00     0.256 C 
ATOM     19  C   UNL A   1      32.615  24.101  23.650  1.00  0.00     0.012 A 
ATOM     20  O   UNL A   1      31.965  21.052  22.151  1.00  0.00    -0.269 OA
ATOM     21  N   UNL A   1      32.884  23.087  21.605  1.00  0.00    -0.321 N 
ATOM     22  C   UNL A   1      32.873  24.301  22.279  1.00  0.00     0.049 A 
ATOM     23  C   UNL A   1      32.127  25.159  24.394  1.00  0.00     0.026 A 
ATOM     24  H   UNL A   1      33.105  22.970  20.653  1.00  0.00     0.170 HD
ATOM     25  C   UNL A   1      32.869  25.531  21.659  1.00  0.00     0.028 A 
ATOM     26  C   UNL A   1      32.009  26.406  23.750  1.00  0.00     0.018 A 
ATOM     27  C   UNL A   1      32.431  26.607  22.420  1.00  0.00     0.018 A 
ATOM     28  Br  UNL A   1      31.156  27.848  24.636  1.00  0.00    -0.051 Br
ENDBRANCH  11  16
ENDBRANCH   8   9
ENDBRANCH   7   8
ENDBRANCH   5   7
ENDBRANCH   2   3
ENDBRANCH   1   2
BRANCH   1  29
ATOM     29  C   UNL A   1      43.205  22.075  26.568  1.00  0.00     0.023 C 
BRANCH  29  30
ATOM     30  C   UNL A   1      43.383  23.583  26.704  1.00  0.00     0.116 C 
BRANCH  30  31
ATOM     31  N   UNL A   1      42.645  24.362  25.719  1.00  0.00    -0.352 N 
ATOM     32  C   UNL A   1      41.913  25.518  25.900  1.00  0.00     0.251 C 
ATOM     33  H   UNL A   1      42.672  24.016  24.798  1.00  0.00     0.163 HD
ATOM     34  O   UNL A   1      41.280  25.999  24.965  1.00  0.00    -0.269 OA
BRANCH  32  35
ATOM     35  C   UNL A   1      41.852  26.147  27.242  1.00  0.00     0.039 A 
ATOM     36  C   UNL A   1      40.856  25.791  28.150  1.00  0.00     0.014 A 
ATOM     37  C   UNL A   1      42.763  27.156  27.566  1.00  0.00     0.014 A 
ATOM     38  C   UNL A   1      40.636  26.581  29.274  1.00  0.00     0.010 A 
ATOM     39  C   UNL A   1      42.601  27.886  28.749  1.00  0.00     0.010 A 
ATOM     40  C   UNL A   1      41.494  27.652  29.579  1.00  0.00    -0.014 A 
BRANCH  40  41
ATOM     41  C   UNL A   1      41.190  28.527  30.747  1.00  0.00     0.031 A 
ATOM     42  C   UNL A   1      42.077  28.522  31.968  1.00  0.00     0.074 A 
ATOM     43  C   UNL A   1      40.155  29.386  30.681  1.00  0.00     0.049 A 
ATOM     44  N   UNL A   1      41.987  29.245  33.057  1.00  0.00    -0.248 NA
ATOM     45  C   UNL A   1      43.209  27.583  31.969  1.00  0.00     0.031 C 
ATOM     46  C   UNL A   1      39.235  29.505  29.548  1.00  0.00     0.029 A 
ATOM     47  N   UNL A   1      39.719  30.341  31.564  1.00  0.00    -0.354 N 
ATOM     48  C   UNL A   1      43.038  28.843  33.873  1.00  0.00     0.074 A 
ATOM     49  C   UNL A   1      43.727  27.781  33.173  1.00  0.00     0.031 C 
ATOM     50  C   UNL A   1      38.386  30.519  29.777  1.00  0.00     0.029 A 
ATOM     51  C   UNL A   1      38.654  31.075  31.099  1.00  0.00     0.049 A 
ATOM     52  H   UNL A   1      40.130  30.486  32.447  1.00  0.00     0.167 HD
ATOM     53  C   UNL A   1      43.408  29.324  35.086  1.00  0.00     0.037 A 
ATOM     54  C   UNL A   1      37.962  32.079  31.671  1.00  0.00     0.037 A 
ATOM     55  C   UNL A   1      42.724  30.386  35.780  1.00  0.00     0.049 A 
ATOM     56  C   UNL A   1      38.344  32.549  33.043  1.00  0.00     0.074 A 
ATOM     57  C   UNL A   1      43.027  30.947  37.009  1.00  0.00     0.029 A 
ATOM     58  N   UNL A   1      41.599  31.047  35.308  1.00  0.00    -0.354 N 
ATOM     59  N   UNL A   1      39.338  32.154  33.801  1.00  0.00    -0.248 NA
ATOM     60  C   UNL A   1      37.505  33.595  33.644  1.00  0.00     0.031 C 
ATOM     61  C   UNL A   1      42.057  31.912  37.301  1.00  0.00     0.029 A 
ATOM     62  C   UNL A   1      41.179  31.992  36.232  1.00  0.00     0.049 A 
ATOM     63  H   UNL A   1      41.162  30.871  34.443  1.00  0.00     0.167 HD
ATOM     64  C   UNL A   1      39.251  32.906  34.967  1.00  0.00     0.074 A 
ATOM     65  C   UNL A   1      38.117  33.794  34.805  1.00  0.00     0.031 C 
ATOM     66  C   UNL A   1      40.040  32.863  36.069  1.00  0.00     0.037 A 
BRANCH  53  67
ATOM     67  C   UNL A   1      44.603  28.688  35.749  1.00  0.00     0.058 A 
ATOM     68  C   UNL A   1      44.469  27.594  36.620  1.00  0.00     0.135 A 
ATOM     69  C   UNL A   1      45.900  29.169  35.504  1.00  0.00     0.135 A 
ATOM     70  F   UNL A   1      43.253  27.098  36.901  1.00  0.00    -0.206 F 
ATOM     71  C   UNL A   1      45.570  27.030  37.257  1.00  0.00     0.059 A 
ATOM     72  C   UNL A   1      47.019  28.601  36.108  1.00  0.00     0.059 A 
ATOM     73  F   UNL A   1      46.090  30.208  34.675  1.00  0.00    -0.206 F 
ATOM     74  C   UNL A   1      46.841  27.545  36.999  1.00  0.00     0.060 A 
BRANCH  74  75
ATOM     75  S   UNL A   1      48.253  26.826  37.865  1.00  0.00     0.124 S 
ATOM     76  O   UNL A   1      47.654  25.634  38.456  1.00  0.00    -0.237 OA
ATOM     77  O   UNL A   1      49.196  26.586  36.777  1.00  0.00    -0.237 OA
ATOM     78  O   UNL A   1      48.642  27.867  38.810  1.00  0.00    -0.744 OA
ENDBRANCH  74  75
ENDBRANCH  53  67
BRANCH  54  79
ATOM     79  C   UNL A   1      36.845  32.707  30.917  1.00  0.00     0.058 A 
ATOM     80  C   UNL A   1      35.512  32.396  31.220  1.00  0.00     0.135 A 
ATOM     81  C   UNL A   1      37.086  33.690  29.944  1.00  0.00     0.135 A 
ATOM     82  F   UNL A   1      35.234  31.456  32.134  1.00  0.00    -0.206 F 
ATOM     83  C   UNL A   1      34.454  33.052  30.599  1.00  0.00     0.059 A 
ATOM     84  C   UNL A   1      36.046  34.378  29.328  1.00  0.00     0.059 A 
ATOM     85  F   UNL A   1      38.346  34.031  29.630  1.00  0.00    -0.206 F 
ATOM     86  C   UNL A   1      34.733  34.053  29.666  1.00  0.00     0.060 A 
BRANCH  86  87
ATOM     87  S   UNL A   1      33.352  34.971  28.949  1.00  0.00     0.124 S 
ATOM     88  O   UNL A   1      32.855  34.028  27.955  1.00  0.00    -0.237 OA
ATOM     89  O   UNL A   1      32.495  35.185  30.112  1.00  0.00    -0.237 OA
ATOM     90  O   UNL A   1      33.987  36.174  28.418  1.00  0.00    -0.744 OA
ENDBRANCH  86  87
ENDBRANCH  54  79
BRANCH  66  91
ATOM     91  C   UNL A   1      39.710  33.802  37.196  1.00  0.00     0.058 A 
ATOM     92  C   UNL A   1      38.829  33.434  38.224  1.00  0.00     0.135 A 
ATOM     93  C   UNL A   1      40.334  35.057  37.285  1.00  0.00     0.135 A 
ATOM     94  F   UNL A   1      38.199  32.249  38.183  1.00  0.00    -0.206 F 
ATOM     95  C   UNL A   1      38.565  34.284  39.295  1.00  0.00     0.059 A 
ATOM     96  C   UNL A   1      40.106  35.911  38.360  1.00  0.00     0.059 A 
ATOM     97  F   UNL A   1      41.192  35.455  36.333  1.00  0.00    -0.206 F 
ATOM     98  C   UNL A   1      39.214  35.518  39.357  1.00  0.00     0.060 A 
BRANCH  98  99
ATOM     99  S   UNL A   1      38.897  36.588  40.776  1.00  0.00     0.124 S 
ATOM    100  O   UNL A   1      38.259  37.737  40.142  1.00  0.00    -0.237 OA
ATOM    101  O   UNL A   1      38.027  35.757  41.603  1.00  0.00    -0.237 OA
ATOM    102  O   UNL A   1      40.228  36.832  41.323  1.00  0.00    -0.744 OA
ENDBRANCH  98  99
ENDBRANCH  66  91
ENDBRANCH  40  41
ENDBRANCH  32  35
ENDBRANCH  30  31
ENDBRANCH  29  30
ENDBRANCH   1  29
TORSDOF 17
ENDMDL
MODEL 3
REMARK VINA RESULT:     -12.4      6.339     11.516
REMARK SMILES O=C(COc1ccc(Br)cc1/C=C1\C(=O)Nc2ccc(Br)cc21)NCCCCNC(=O)c1ccc(-c2c3nc(c(-c4c(F)cc(S(=O)(=O)[O-])cc4F)c4ccc([nH]4)c(-c4c(F)cc(S(=O)(=O)[O-])cc4F)c4nc(c(-c5c(F)cc(S(=O)(=O)[O-])cc5F)c5ccc2[nH]5)C=C4)C=C3)cc1
REMARK SMILES IDX 26 1 25 2 24 3 1 4 2 5 3 7 4 8 5 9 6 10 11 11 7 12 10 13
REMARK SMILES IDX 8 14 9 15 12 16 13 17 14 18 23 19 15 20 16 21 17 22 22 23
REMARK SMILES IDX 18 25 20 26 19 27 21 28 27 29 28 30 29 31 30 32 31 34 32 35
REMARK SMILES IDX 33 36 97 37 34 38 96 39 35 40 36 41 37 42 90 43 38 44 95 45
REMARK SMILES IDX 89 46 91 47 39 48 94 49 88 50 87 51 40 53 74 54 53 55 73 56
REMARK SMILES IDX 54 57 57 58 72 59 92 60 55 61 56 62 71 64 93 65 58 66 41 67
REMARK SMILES IDX 42 68 51 69 43 70 44 71 50 72 52 73 45 74 46 75 47 76 48 77
REMARK SMILES IDX 49 78 75 79 76 80 85 81 77 82 78 83 84 84 86 85 79 86 80 87
REMARK SMILES IDX 81 88 82 89 83 90 59 91 60 92 69 93 61 94 62 95 68 96 70 97
REMARK SMILES IDX 63 98 64 99 65 100 66 101 67 102
REMARK H PARENT 24 6 16 24 29 33 91 52 57 63
REMARK Flexibility Score: inf
ROOT
ATOM      1  C   UNL A   1      39.290  22.729  26.603  1.00  0.00     0.023 C 
ENDROOT
BRANCH   1   2
ATOM      2  C   UNL A   1      38.403  22.043  25.568  1.00  0.00     0.116 C 
BRANCH   2   3
ATOM      3  N   UNL A   1      37.438  22.909  24.905  1.00  0.00    -0.353 N 
ATOM      4  O   UNL A   1      35.628  22.211  26.130  1.00  0.00    -0.271 OA
ATOM      5  C   UNL A   1      36.133  23.016  25.347  1.00  0.00     0.257 C 
ATOM      6  H   UNL A   1      37.722  23.431  24.120  1.00  0.00     0.163 HD
BRANCH   5   7
ATOM      7  C   UNL A   1      35.355  24.268  24.862  1.00  0.00     0.329 C 
BRANCH   7   8
ATOM      8  O   UNL A   1      34.392  24.942  25.678  1.00  0.00    -0.483 OA
BRANCH   8   9
ATOM      9  C   UNL A   1      33.537  25.829  25.059  1.00  0.00     0.127 A 
ATOM     10  C   UNL A   1      33.554  27.198  25.410  1.00  0.00     0.048 A 
ATOM     11  C   UNL A   1      32.714  25.392  23.981  1.00  0.00     0.018 A 
ATOM     12  C   UNL A   1      32.782  28.145  24.748  1.00  0.00     0.019 A 
ATOM     13  C   UNL A   1      32.016  26.402  23.293  1.00  0.00     0.027 A 
ATOM     14  C   UNL A   1      32.015  27.741  23.684  1.00  0.00     0.018 A 
ATOM     15  Br  UNL A   1      30.948  28.996  22.758  1.00  0.00    -0.051 Br
BRANCH  11  16
ATOM     16  C   UNL A   1      32.505  23.936  23.623  1.00  0.00     0.026 C 
ATOM     17  C   UNL A   1      31.963  22.934  24.368  1.00  0.00     0.050 C 
ATOM     18  C   UNL A   1      31.405  23.029  25.771  1.00  0.00     0.256 C 
ATOM     19  C   UNL A   1      32.310  21.497  24.239  1.00  0.00     0.012 A 
ATOM     20  O   UNL A   1      30.476  23.683  26.195  1.00  0.00    -0.269 OA
ATOM     21  N   UNL A   1      32.030  22.011  26.462  1.00  0.00    -0.321 N 
ATOM     22  C   UNL A   1      32.516  21.068  25.565  1.00  0.00     0.049 A 
ATOM     23  C   UNL A   1      32.303  20.553  23.230  1.00  0.00     0.026 A 
ATOM     24  H   UNL A   1      32.118  21.959  27.441  1.00  0.00     0.170 HD
ATOM     25  C   UNL A   1      32.914  19.797  25.917  1.00  0.00     0.028 A 
ATOM     26  C   UNL A   1      32.600  19.223  23.583  1.00  0.00     0.018 A 
ATOM     27  C   UNL A   1      32.961  18.858  24.896  1.00  0.00     0.018 A 
ATOM     28  Br  UNL A   1      32.404  17.840  22.301  1.00  0.00    -0.051 Br
ENDBRANCH  11  16
ENDBRANCH   8   9
ENDBRANCH   7   8
ENDBRANCH   5   7
ENDBRANCH   2   3
ENDBRANCH   1   2
BRANCH   1  29
ATOM     29  C   UNL A   1      40.654  22.083  26.830  1.00  0.00     0.023 C 
BRANCH  29  30
ATOM     30  C   UNL A   1      41.841  23.039  26.895  1.00  0.00     0.116 C 
BRANCH  30  31
ATOM     31  N   UNL A   1      41.852  24.047  25.845  1.00  0.00    -0.352 N 
ATOM     32  C   UNL A   1      41.747  25.419  25.959  1.00  0.00     0.251 C 
ATOM     33  H   UNL A   1      41.948  23.703  24.927  1.00  0.00     0.163 HD
ATOM     34  O   UNL A   1      41.690  26.118  24.952  1.00  0.00    -0.269 OA
BRANCH  32  35
ATOM     35  C   UNL A   1      41.649  26.039  27.303  1.00  0.00     0.039 A 
ATOM     36  C   UNL A   1      40.515  25.852  28.092  1.00  0.00     0.014 A 
ATOM     37  C   UNL A   1      42.677  26.876  27.746  1.00  0.00     0.014 A 
ATOM     38  C   UNL A   1      40.313  26.660  29.207  1.00  0.00     0.010 A 
ATOM     39  C   UNL A   1      42.514  27.615  28.923  1.00  0.00     0.010 A 
ATOM     40  C   UNL A   1      41.300  27.566  29.627  1.00  0.00    -0.014 A 
BRANCH  40  41
ATOM     41  C   UNL A   1      41.025  28.472  30.778  1.00  0.00     0.031 A 
ATOM     42  C   UNL A   1      41.922  28.475  31.991  1.00  0.00     0.074 A 
ATOM     43  C   UNL A   1      40.006  29.350  30.703  1.00  0.00     0.049 A 
ATOM     44  N   UNL A   1      41.858  29.223  33.065  1.00  0.00    -0.248 NA
ATOM     45  C   UNL A   1      43.035  27.513  32.003  1.00  0.00     0.031 C 
ATOM     46  C   UNL A   1      39.079  29.464  29.575  1.00  0.00     0.029 A 
ATOM     47  N   UNL A   1      39.598  30.332  31.569  1.00  0.00    -0.354 N 
ATOM     48  C   UNL A   1      42.908  28.817  33.881  1.00  0.00     0.074 A 
ATOM     49  C   UNL A   1      43.569  27.726  33.197  1.00  0.00     0.031 C 
ATOM     50  C   UNL A   1      38.253  30.499  29.790  1.00  0.00     0.029 A 
ATOM     51  C   UNL A   1      38.544  31.078  31.098  1.00  0.00     0.049 A 
ATOM     52  H   UNL A   1      40.019  30.487  32.446  1.00  0.00     0.167 HD
ATOM     53  C   UNL A   1      43.298  29.316  35.080  1.00  0.00     0.037 A 
ATOM     54  C   UNL A   1      37.877  32.107  31.654  1.00  0.00     0.037 A 
ATOM     55  C   UNL A   1      42.642  30.406  35.757  1.00  0.00     0.049 A 
ATOM     56  C   UNL A   1      38.281  32.599  33.013  1.00  0.00     0.074 A 
ATOM     57  C   UNL A   1      42.967  30.987  36.971  1.00  0.00     0.029 A 
ATOM     58  N   UNL A   1      41.526  31.080  35.281  1.00  0.00    -0.354 N 
ATOM     59  N   UNL A   1      39.274  32.200  33.770  1.00  0.00    -0.248 NA
ATOM     60  C   UNL A   1      37.469  33.673  33.598  1.00  0.00     0.031 C 
ATOM     61  C   UNL A   1      42.019  31.977  37.250  1.00  0.00     0.029 A 
ATOM     62  C   UNL A   1      41.134  32.052  36.188  1.00  0.00     0.049 A 
ATOM     63  H   UNL A   1      41.078  30.894  34.423  1.00  0.00     0.167 HD
ATOM     64  C   UNL A   1      39.212  32.978  34.920  1.00  0.00     0.074 A 
ATOM     65  C   UNL A   1      38.095  33.885  34.750  1.00  0.00     0.031 C 
ATOM     66  C   UNL A   1      40.010  32.942  36.016  1.00  0.00     0.037 A 
BRANCH  53  67
ATOM     67  C   UNL A   1      44.486  28.670  35.746  1.00  0.00     0.058 A 
ATOM     68  C   UNL A   1      44.336  27.613  36.658  1.00  0.00     0.135 A 
ATOM     69  C   UNL A   1      45.792  29.105  35.462  1.00  0.00     0.135 A 
ATOM     70  F   UNL A   1      43.113  27.163  36.977  1.00  0.00    -0.206 F 
ATOM     71  C   UNL A   1      45.433  27.040  37.298  1.00  0.00     0.059 A 
ATOM     72  C   UNL A   1      46.905  28.527  36.067  1.00  0.00     0.059 A 
ATOM     73  F   UNL A   1      45.997  30.107  34.592  1.00  0.00    -0.206 F 
ATOM     74  C   UNL A   1      46.713  27.510  37.000  1.00  0.00     0.060 A 
BRANCH  74  75
ATOM     75  S   UNL A   1      48.119  26.781  37.868  1.00  0.00     0.124 S 
ATOM     76  O   UNL A   1      49.121  26.734  36.807  1.00  0.00    -0.237 OA
ATOM     77  O   UNL A   1      48.367  27.752  38.929  1.00  0.00    -0.237 OA
ATOM     78  O   UNL A   1      47.614  25.486  38.311  1.00  0.00    -0.744 OA
ENDBRANCH  74  75
ENDBRANCH  53  67
BRANCH  54  79
ATOM     79  C   UNL A   1      36.766  32.742  30.897  1.00  0.00     0.058 A 
ATOM     80  C   UNL A   1      35.431  32.430  31.187  1.00  0.00     0.135 A 
ATOM     81  C   UNL A   1      37.014  33.732  29.933  1.00  0.00     0.135 A 
ATOM     82  F   UNL A   1      35.145  31.483  32.093  1.00  0.00    -0.206 F 
ATOM     83  C   UNL A   1      34.378  33.091  30.563  1.00  0.00     0.059 A 
ATOM     84  C   UNL A   1      35.980  34.424  29.314  1.00  0.00     0.059 A 
ATOM     85  F   UNL A   1      38.277  34.073  29.630  1.00  0.00    -0.206 F 
ATOM     86  C   UNL A   1      34.664  34.098  29.640  1.00  0.00     0.060 A 
BRANCH  86  87
ATOM     87  S   UNL A   1      33.289  35.023  28.920  1.00  0.00     0.124 S 
ATOM     88  O   UNL A   1      32.475  35.305  30.096  1.00  0.00    -0.237 OA
ATOM     89  O   UNL A   1      33.973  36.168  28.327  1.00  0.00    -0.237 OA
ATOM     90  O   UNL A   1      32.714  34.081  27.964  1.00  0.00    -0.744 OA
ENDBRANCH  86  87
ENDBRANCH  54  79
BRANCH  66  91
ATOM     91  C   UNL A   1      39.710  33.912  37.126  1.00  0.00     0.058 A 
ATOM     92  C   UNL A   1      38.942  33.538  38.239  1.00  0.00     0.135 A 
ATOM     93  C   UNL A   1      40.251  35.207  37.108  1.00  0.00     0.135 A 
ATOM     94  F   UNL A   1      38.394  32.314  38.302  1.00  0.00    -0.206 F 
ATOM     95  C   UNL A   1      38.709  34.419  39.291  1.00  0.00     0.059 A 
ATOM     96  C   UNL A   1      40.053  36.096  38.160  1.00  0.00     0.059 A 
ATOM     97  F   UNL A   1      41.000  35.613  36.071  1.00  0.00    -0.206 F 
ATOM     98  C   UNL A   1      39.275  35.695  39.245  1.00  0.00     0.060 A 
BRANCH  98  99
ATOM     99  S   UNL A   1      39.001  36.809  40.639  1.00  0.00     0.124 S 
ATOM    100  O   UNL A   1      38.272  35.949  41.565  1.00  0.00    -0.237 OA
ATOM    101  O   UNL A   1      40.364  37.154  41.033  1.00  0.00    -0.237 OA
ATOM    102  O   UNL A   1      38.227  37.901  40.056  1.00  0.00    -0.744 OA
ENDBRANCH  98  99
ENDBRANCH  66  91
ENDBRANCH  40  41
ENDBRANCH  32  35
ENDBRANCH  30  31
ENDBRANCH  29  30
ENDBRANCH   1  29
TORSDOF 17
ENDMDL
