MODEL 1
REMARK VINA RESULT:     -10.9      0.000      0.000
REMARK SMILES O=C(NCCCCNC(=O)c1cc(S(=O)(=O)NCCNc2ccccn2)ccc1F)c1ccc(-c2c3nc(c(-c4c(F)cc(S(=O)(=O)[O-])cc4F)c4ccc([nH]4)c(-c4c(F)cc(S(=O)(=O)[O-])cc4F)c4nc(c(-c5c(F)cc(S(=O)(=O)[O-])cc5F)c5ccc2[nH]5)C=C4)C=C3)cc1
REMARK SMILES IDX 7 1 6 2 5 3 4 4 3 5 1 6 2 7 31 9 32 10 96 11 33 12 95 13
REMARK SMILES IDX 34 14 35 15 36 16 89 17 37 18 94 19 88 20 90 21 38 22 93 23
REMARK SMILES IDX 87 24 86 25 39 27 73 28 52 29 72 30 53 31 56 32 71 33 91 34
REMARK SMILES IDX 54 35 55 36 70 38 92 39 57 40 40 41 41 42 50 43 42 44 43 45
REMARK SMILES IDX 49 46 51 47 44 48 45 49 46 50 47 51 48 52 74 53 75 54 84 55
REMARK SMILES IDX 76 56 77 57 83 58 85 59 78 60 79 61 80 62 81 63 82 64 58 65
REMARK SMILES IDX 59 66 68 67 60 68 61 69 67 70 69 71 62 72 63 73 64 74 65 75
REMARK SMILES IDX 66 76 8 77 9 78 10 80 11 81 12 82 29 83 13 84 28 85 30 86
REMARK SMILES IDX 27 87 14 88 15 89 16 90 17 91 18 93 19 94 20 95 21 97 22 98
REMARK SMILES IDX 26 99 23 100 25 101 24 102
REMARK H PARENT 3 8 90 26 56 37 8 79 17 92 20 96
REMARK Flexibility Score: inf
ROOT
ATOM      1  C   UNL A   1      34.450  33.247  30.807  1.00  0.00     0.116 C 
ENDROOT
BRANCH   1   2
ATOM      2  C   UNL A   1      35.263  33.865  31.937  1.00  0.00     0.023 C 
BRANCH   2   3
ATOM      3  C   UNL A   1      36.768  33.904  31.711  1.00  0.00     0.023 C 
BRANCH   3   4
ATOM      4  C   UNL A   1      37.575  32.909  32.532  1.00  0.00     0.116 C 
BRANCH   4   5
ATOM      5  N   UNL A   1      36.903  31.630  32.714  1.00  0.00    -0.352 N 
ATOM      6  O   UNL A   1      36.560  29.413  32.453  1.00  0.00    -0.269 OA
ATOM      7  C   UNL A   1      37.309  30.375  32.315  1.00  0.00     0.251 C 
ATOM      8  H   UNL A   1      36.042  31.666  33.189  1.00  0.00     0.163 HD
BRANCH   7   9
ATOM      9  C   UNL A   1      38.638  30.206  31.687  1.00  0.00     0.039 A 
ATOM     10  C   UNL A   1      38.844  30.598  30.365  1.00  0.00     0.014 A 
ATOM     11  C   UNL A   1      39.674  29.612  32.414  1.00  0.00     0.014 A 
ATOM     12  C   UNL A   1      40.016  30.233  29.718  1.00  0.00     0.010 A 
ATOM     13  C   UNL A   1      40.895  29.338  31.786  1.00  0.00     0.010 A 
ATOM     14  C   UNL A   1      41.063  29.610  30.420  1.00  0.00    -0.014 A 
BRANCH  14  15
ATOM     15  C   UNL A   1      42.327  29.315  29.694  1.00  0.00     0.031 A 
ATOM     16  C   UNL A   1      43.486  30.276  29.704  1.00  0.00     0.074 A 
ATOM     17  C   UNL A   1      42.447  28.112  29.097  1.00  0.00     0.049 A 
ATOM     18  N   UNL A   1      44.684  30.115  29.202  1.00  0.00    -0.248 NA
ATOM     19  C   UNL A   1      43.281  31.581  30.351  1.00  0.00     0.031 C 
ATOM     20  C   UNL A   1      41.382  27.106  29.014  1.00  0.00     0.029 A 
ATOM     21  N   UNL A   1      43.520  27.506  28.497  1.00  0.00    -0.354 N 
ATOM     22  C   UNL A   1      45.370  31.297  29.456  1.00  0.00     0.074 A 
ATOM     23  C   UNL A   1      44.449  32.178  30.140  1.00  0.00     0.031 C 
ATOM     24  C   UNL A   1      41.881  25.980  28.486  1.00  0.00     0.029 A 
ATOM     25  C   UNL A   1      43.277  26.202  28.130  1.00  0.00     0.049 A 
ATOM     26  H   UNL A   1      44.381  27.959  28.344  1.00  0.00     0.167 HD
ATOM     27  C   UNL A   1      46.654  31.610  29.152  1.00  0.00     0.037 A 
ATOM     28  C   UNL A   1      44.086  25.283  27.573  1.00  0.00     0.037 A 
ATOM     29  C   UNL A   1      47.574  30.716  28.496  1.00  0.00     0.049 A 
ATOM     30  C   UNL A   1      45.502  25.658  27.254  1.00  0.00     0.074 A 
ATOM     31  C   UNL A   1      48.899  30.940  28.160  1.00  0.00     0.029 A 
ATOM     32  N   UNL A   1      47.273  29.426  28.085  1.00  0.00    -0.354 N 
ATOM     33  N   UNL A   1      46.126  26.786  27.496  1.00  0.00    -0.248 NA
ATOM     34  C   UNL A   1      46.320  24.646  26.574  1.00  0.00     0.031 C 
ATOM     35  C   UNL A   1      49.390  29.797  27.520  1.00  0.00     0.029 A 
ATOM     36  C   UNL A   1      48.382  28.848  27.489  1.00  0.00     0.049 A 
ATOM     37  H   UNL A   1      46.400  28.985  28.201  1.00  0.00     0.167 HD
ATOM     38  C   UNL A   1      47.409  26.622  26.989  1.00  0.00     0.074 A 
ATOM     39  C   UNL A   1      47.482  25.275  26.459  1.00  0.00     0.031 C 
ATOM     40  C   UNL A   1      48.430  27.511  26.953  1.00  0.00     0.037 A 
BRANCH  27  41
ATOM     41  C   UNL A   1      47.160  32.977  29.523  1.00  0.00     0.058 A 
ATOM     42  C   UNL A   1      46.976  34.064  28.654  1.00  0.00     0.135 A 
ATOM     43  C   UNL A   1      47.923  33.186  30.682  1.00  0.00     0.135 A 
ATOM     44  F   UNL A   1      46.249  33.920  27.535  1.00  0.00    -0.206 F 
ATOM     45  C   UNL A   1      47.553  35.305  28.906  1.00  0.00     0.059 A 
ATOM     46  C   UNL A   1      48.496  34.424  30.964  1.00  0.00     0.059 A 
ATOM     47  F   UNL A   1      48.112  32.184  31.555  1.00  0.00    -0.206 F 
ATOM     48  C   UNL A   1      48.322  35.472  30.060  1.00  0.00     0.060 A 
BRANCH  48  49
ATOM     49  S   UNL A   1      49.072  37.086  30.371  1.00  0.00     0.124 S 
ATOM     50  O   UNL A   1      49.597  36.918  31.721  1.00  0.00    -0.237 OA
ATOM     51  O   UNL A   1      50.067  37.172  29.307  1.00  0.00    -0.237 OA
ATOM     52  O   UNL A   1      47.948  38.010  30.241  1.00  0.00    -0.744 OA
ENDBRANCH  48  49
ENDBRANCH  27  41
BRANCH  28  53
ATOM     53  C   UNL A   1      43.567  23.921  27.285  1.00  0.00     0.058 A 
ATOM     54  C   UNL A   1      43.134  23.568  25.999  1.00  0.00     0.135 A 
ATOM     55  C   UNL A   1      43.460  22.960  28.300  1.00  0.00     0.135 A 
ATOM     56  F   UNL A   1      43.205  24.457  24.995  1.00  0.00    -0.206 F 
ATOM     57  C   UNL A   1      42.588  22.318  25.732  1.00  0.00     0.059 A 
ATOM     58  C   UNL A   1      42.942  21.692  28.054  1.00  0.00     0.059 A 
ATOM     59  F   UNL A   1      43.872  23.251  29.544  1.00  0.00    -0.206 F 
ATOM     60  C   UNL A   1      42.492  21.388  26.768  1.00  0.00     0.060 A 
BRANCH  60  61
ATOM     61  S   UNL A   1      41.785  19.768  26.407  1.00  0.00     0.124 S 
ATOM     62  O   UNL A   1      40.367  20.090  26.286  1.00  0.00    -0.237 OA
ATOM     63  O   UNL A   1      42.462  19.404  25.166  1.00  0.00    -0.237 OA
ATOM     64  O   UNL A   1      42.155  18.973  27.574  1.00  0.00    -0.744 OA
ENDBRANCH  60  61
ENDBRANCH  28  53
BRANCH  40  65
ATOM     65  C   UNL A   1      49.706  27.056  26.309  1.00  0.00     0.058 A 
ATOM     66  C   UNL A   1      49.874  27.131  24.919  1.00  0.00     0.135 A 
ATOM     67  C   UNL A   1      50.753  26.517  27.072  1.00  0.00     0.135 A 
ATOM     68  F   UNL A   1      48.901  27.637  24.144  1.00  0.00    -0.206 F 
ATOM     69  C   UNL A   1      51.040  26.685  24.306  1.00  0.00     0.059 A 
ATOM     70  C   UNL A   1      51.935  26.084  26.482  1.00  0.00     0.059 A 
ATOM     71  F   UNL A   1      50.643  26.438  28.409  1.00  0.00    -0.206 F 
ATOM     72  C   UNL A   1      52.065  26.162  25.095  1.00  0.00     0.060 A 
BRANCH  72  73
ATOM     73  S   UNL A   1      53.591  25.629  24.293  1.00  0.00     0.124 S 
ATOM     74  O   UNL A   1      54.589  26.440  24.981  1.00  0.00    -0.237 OA
ATOM     75  O   UNL A   1      53.619  24.201  24.590  1.00  0.00    -0.237 OA
ATOM     76  O   UNL A   1      53.368  25.963  22.889  1.00  0.00    -0.744 OA
ENDBRANCH  72  73
ENDBRANCH  40  65
ENDBRANCH  14  15
ENDBRANCH   7   9
ENDBRANCH   4   5
ENDBRANCH   3   4
ENDBRANCH   2   3
ENDBRANCH   1   2
BRANCH   1  77
ATOM     77  N   UNL A   1      34.437  34.048  29.591  1.00  0.00    -0.352 N 
ATOM     78  C   UNL A   1      34.614  33.631  28.293  1.00  0.00     0.254 C 
ATOM     79  H   UNL A   1      34.279  35.011  29.715  1.00  0.00     0.163 HD
ATOM     80  O   UNL A   1      34.604  34.425  27.360  1.00  0.00    -0.269 OA
BRANCH  78  81
ATOM     81  C   UNL A   1      34.909  32.215  28.034  1.00  0.00     0.076 A 
ATOM     82  C   UNL A   1      33.881  31.395  27.564  1.00  0.00     0.038 A 
ATOM     83  C   UNL A   1      36.199  31.711  28.188  1.00  0.00     0.136 A 
ATOM     84  C   UNL A   1      34.194  30.100  27.142  1.00  0.00     0.083 A 
ATOM     85  C   UNL A   1      36.513  30.434  27.738  1.00  0.00     0.041 A 
ATOM     86  F   UNL A   1      37.178  32.466  28.707  1.00  0.00    -0.206 F 
ATOM     87  C   UNL A   1      35.516  29.638  27.175  1.00  0.00     0.025 A 
BRANCH  84  88
ATOM     88  S   UNL A   1      32.857  29.032  26.667  1.00  0.00     0.240 S 
ATOM     89  O   UNL A   1      33.323  27.672  26.793  1.00  0.00    -0.207 OA
ATOM     90  O   UNL A   1      31.676  29.507  27.350  1.00  0.00    -0.207 OA
BRANCH  88  91
ATOM     91  N   UNL A   1      32.610  29.344  25.045  1.00  0.00    -0.209 NA
ATOM     92  H   UNL A   1      33.403  29.914  24.747  1.00  0.00     0.141 HD
BRANCH  91  93
ATOM     93  C   UNL A   1      32.469  28.295  24.031  1.00  0.00     0.120 C 
BRANCH  93  94
ATOM     94  C   UNL A   1      31.027  27.921  23.679  1.00  0.00     0.131 C 
BRANCH  94  95
ATOM     95  N   UNL A   1      30.615  28.570  22.451  1.00  0.00    -0.369 N 
ATOM     96  H   UNL A   1      30.939  28.222  21.589  1.00  0.00     0.162 HD
BRANCH  95  97
ATOM     97  C   UNL A   1      29.784  29.662  22.466  1.00  0.00     0.125 A 
ATOM     98  C   UNL A   1      29.484  30.368  23.628  1.00  0.00     0.047 A 
ATOM     99  N   UNL A   1      29.251  29.998  21.276  1.00  0.00    -0.240 NA
ATOM    100  C   UNL A   1      28.583  31.428  23.577  1.00  0.00     0.005 A 
ATOM    101  C   UNL A   1      28.380  31.032  21.248  1.00  0.00     0.113 A 
ATOM    102  C   UNL A   1      28.011  31.765  22.361  1.00  0.00     0.020 A 
ENDBRANCH  95  97
ENDBRANCH  94  95
ENDBRANCH  93  94
ENDBRANCH  91  93
ENDBRANCH  88  91
ENDBRANCH  84  88
ENDBRANCH  78  81
ENDBRANCH   1  77
TORSDOF 20
ENDMDL
MODEL 2
REMARK VINA RESULT:     -10.7      3.712     10.797
REMARK SMILES O=C(NCCCCNC(=O)c1cc(S(=O)(=O)NCCNc2ccccn2)ccc1F)c1ccc(-c2c3nc(c(-c4c(F)cc(S(=O)(=O)[O-])cc4F)c4ccc([nH]4)c(-c4c(F)cc(S(=O)(=O)[O-])cc4F)c4nc(c(-c5c(F)cc(S(=O)(=O)[O-])cc5F)c5ccc2[nH]5)C=C4)C=C3)cc1
REMARK SMILES IDX 7 1 6 2 5 3 4 4 3 5 1 6 2 7 31 9 32 10 96 11 33 12 95 13
REMARK SMILES IDX 34 14 35 15 36 16 89 17 37 18 94 19 88 20 90 21 38 22 93 23
REMARK SMILES IDX 87 24 86 25 39 27 73 28 52 29 72 30 53 31 56 32 71 33 91 34
REMARK SMILES IDX 54 35 55 36 70 38 92 39 57 40 40 41 41 42 50 43 42 44 43 45
REMARK SMILES IDX 49 46 51 47 44 48 45 49 46 50 47 51 48 52 74 53 75 54 84 55
REMARK SMILES IDX 76 56 77 57 83 58 85 59 78 60 79 61 80 62 81 63 82 64 58 65
REMARK SMILES IDX 59 66 68 67 60 68 61 69 67 70 69 71 62 72 63 73 64 74 65 75
REMARK SMILES IDX 66 76 8 77 9 78 10 80 11 81 12 82 29 83 13 84 28 85 30 86
REMARK SMILES IDX 27 87 14 88 15 89 16 90 17 91 18 93 19 94 20 95 21 97 22 98
REMARK SMILES IDX 26 99 23 100 25 101 24 102
REMARK H PARENT 3 8 90 26 56 37 8 79 17 92 20 96
REMARK Flexibility Score: inf
ROOT
ATOM      1  C   UNL A   1      35.630  33.354  30.766  1.00  0.00     0.116 C 
ENDROOT
BRANCH   1   2
ATOM      2  C   UNL A   1      34.446  34.116  30.186  1.00  0.00     0.023 C 
BRANCH   2   3
ATOM      3  C   UNL A   1      34.436  34.248  28.669  1.00  0.00     0.023 C 
BRANCH   3   4
ATOM      4  C   UNL A   1      34.968  33.042  27.908  1.00  0.00     0.116 C 
BRANCH   4   5
ATOM      5  N   UNL A   1      34.013  31.945  27.823  1.00  0.00    -0.352 N 
ATOM      6  O   UNL A   1      33.333  29.796  27.669  1.00  0.00    -0.269 OA
ATOM      7  C   UNL A   1      34.249  30.588  27.870  1.00  0.00     0.251 C 
ATOM      8  H   UNL A   1      33.071  32.208  27.720  1.00  0.00     0.163 HD
BRANCH   7   9
ATOM      9  C   UNL A   1      35.621  30.097  28.128  1.00  0.00     0.039 A 
ATOM     10  C   UNL A   1      36.001  29.716  29.414  1.00  0.00     0.014 A 
ATOM     11  C   UNL A   1      36.547  30.056  27.081  1.00  0.00     0.014 A 
ATOM     12  C   UNL A   1      37.339  29.473  29.689  1.00  0.00     0.010 A 
ATOM     13  C   UNL A   1      37.878  29.709  27.343  1.00  0.00     0.010 A 
ATOM     14  C   UNL A   1      38.295  29.453  28.657  1.00  0.00    -0.014 A 
BRANCH  14  15
ATOM     15  C   UNL A   1      39.699  29.108  29.000  1.00  0.00     0.031 A 
ATOM     16  C   UNL A   1      40.298  27.777  28.630  1.00  0.00     0.074 A 
ATOM     17  C   UNL A   1      40.463  30.060  29.573  1.00  0.00     0.049 A 
ATOM     18  N   UNL A   1      41.534  27.370  28.772  1.00  0.00    -0.248 NA
ATOM     19  C   UNL A   1      39.406  26.773  28.030  1.00  0.00     0.031 C 
ATOM     20  C   UNL A   1      39.984  31.383  29.988  1.00  0.00     0.029 A 
ATOM     21  N   UNL A   1      41.803  30.092  29.858  1.00  0.00    -0.354 N 
ATOM     22  C   UNL A   1      41.567  26.064  28.297  1.00  0.00     0.074 A 
ATOM     23  C   UNL A   1      40.221  25.736  27.879  1.00  0.00     0.031 C 
ATOM     24  C   UNL A   1      41.027  32.125  30.384  1.00  0.00     0.029 A 
ATOM     25  C   UNL A   1      42.236  31.314  30.319  1.00  0.00     0.049 A 
ATOM     26  H   UNL A   1      42.398  29.315  29.746  1.00  0.00     0.167 HD
ATOM     27  C   UNL A   1      42.626  25.223  28.211  1.00  0.00     0.037 A 
ATOM     28  C   UNL A   1      43.469  31.740  30.649  1.00  0.00     0.037 A 
ATOM     29  C   UNL A   1      43.970  25.567  28.602  1.00  0.00     0.049 A 
ATOM     30  C   UNL A   1      44.622  30.788  30.537  1.00  0.00     0.074 A 
ATOM     31  C   UNL A   1      45.112  24.786  28.537  1.00  0.00     0.029 A 
ATOM     32  N   UNL A   1      44.357  26.794  29.121  1.00  0.00    -0.354 N 
ATOM     33  N   UNL A   1      44.626  29.554  30.092  1.00  0.00    -0.248 NA
ATOM     34  C   UNL A   1      45.932  31.276  30.984  1.00  0.00     0.031 C 
ATOM     35  C   UNL A   1      46.183  25.530  29.044  1.00  0.00     0.029 A 
ATOM     36  C   UNL A   1      45.716  26.786  29.391  1.00  0.00     0.049 A 
ATOM     37  H   UNL A   1      43.756  27.559  29.273  1.00  0.00     0.167 HD
ATOM     38  C   UNL A   1      45.938  29.115  30.216  1.00  0.00     0.074 A 
ATOM     39  C   UNL A   1      46.705  30.226  30.742  1.00  0.00     0.031 C 
ATOM     40  C   UNL A   1      46.458  27.897  29.931  1.00  0.00     0.037 A 
BRANCH  27  41
ATOM     41  C   UNL A   1      42.395  23.839  27.670  1.00  0.00     0.058 A 
ATOM     42  C   UNL A   1      42.301  22.741  28.540  1.00  0.00     0.135 A 
ATOM     43  C   UNL A   1      42.380  23.584  26.290  1.00  0.00     0.135 A 
ATOM     44  F   UNL A   1      42.303  22.930  29.868  1.00  0.00    -0.206 F 
ATOM     45  C   UNL A   1      42.226  21.436  28.061  1.00  0.00     0.059 A 
ATOM     46  C   UNL A   1      42.288  22.289  25.788  1.00  0.00     0.059 A 
ATOM     47  F   UNL A   1      42.447  24.601  25.416  1.00  0.00    -0.206 F 
ATOM     48  C   UNL A   1      42.231  21.220  26.682  1.00  0.00     0.060 A 
BRANCH  48  49
ATOM     49  S   UNL A   1      42.143  19.520  26.076  1.00  0.00     0.124 S 
ATOM     50  O   UNL A   1      40.733  19.401  25.722  1.00  0.00    -0.237 OA
ATOM     51  O   UNL A   1      43.080  19.544  24.958  1.00  0.00    -0.237 OA
ATOM     52  O   UNL A   1      42.574  18.730  27.226  1.00  0.00    -0.744 OA
ENDBRANCH  48  49
ENDBRANCH  27  41
BRANCH  28  53
ATOM     53  C   UNL A   1      43.666  33.137  31.114  1.00  0.00     0.058 A 
ATOM     54  C   UNL A   1      43.466  33.488  32.457  1.00  0.00     0.135 A 
ATOM     55  C   UNL A   1      44.024  34.152  30.216  1.00  0.00     0.135 A 
ATOM     56  F   UNL A   1      43.111  32.554  33.353  1.00  0.00    -0.206 F 
ATOM     57  C   UNL A   1      43.586  34.802  32.891  1.00  0.00     0.059 A 
ATOM     58  C   UNL A   1      44.177  35.472  30.631  1.00  0.00     0.059 A 
ATOM     59  F   UNL A   1      44.237  33.860  28.924  1.00  0.00    -0.206 F 
ATOM     60  C   UNL A   1      43.938  35.789  31.968  1.00  0.00     0.060 A 
BRANCH  60  61
ATOM     61  S   UNL A   1      44.095  37.491  32.547  1.00  0.00     0.124 S 
ATOM     62  O   UNL A   1      43.115  37.521  33.628  1.00  0.00    -0.237 OA
ATOM     63  O   UNL A   1      45.494  37.552  32.956  1.00  0.00    -0.237 OA
ATOM     64  O   UNL A   1      43.756  38.279  31.366  1.00  0.00    -0.744 OA
ENDBRANCH  60  61
ENDBRANCH  28  53
BRANCH  40  65
ATOM     65  C   UNL A   1      47.922  27.703  30.196  1.00  0.00     0.058 A 
ATOM     66  C   UNL A   1      48.872  27.952  29.195  1.00  0.00     0.135 A 
ATOM     67  C   UNL A   1      48.380  27.240  31.440  1.00  0.00     0.135 A 
ATOM     68  F   UNL A   1      48.484  28.394  27.988  1.00  0.00    -0.206 F 
ATOM     69  C   UNL A   1      50.229  27.748  29.418  1.00  0.00     0.059 A 
ATOM     70  C   UNL A   1      49.734  27.049  31.691  1.00  0.00     0.059 A 
ATOM     71  F   UNL A   1      47.508  27.001  32.434  1.00  0.00    -0.206 F 
ATOM     72  C   UNL A   1      50.651  27.295  30.669  1.00  0.00     0.060 A 
BRANCH  72  73
ATOM     73  S   UNL A   1      52.419  27.078  30.961  1.00  0.00     0.124 S 
ATOM     74  O   UNL A   1      52.642  27.959  32.102  1.00  0.00    -0.237 OA
ATOM     75  O   UNL A   1      52.518  25.648  31.234  1.00  0.00    -0.237 OA
ATOM     76  O   UNL A   1      53.023  27.510  29.704  1.00  0.00    -0.744 OA
ENDBRANCH  72  73
ENDBRANCH  40  65
ENDBRANCH  14  15
ENDBRANCH   7   9
ENDBRANCH   4   5
ENDBRANCH   3   4
ENDBRANCH   2   3
ENDBRANCH   1   2
BRANCH   1  77
ATOM     77  N   UNL A   1      36.890  34.078  30.677  1.00  0.00    -0.352 N 
ATOM     78  C   UNL A   1      37.878  34.192  31.626  1.00  0.00     0.254 C 
ATOM     79  H   UNL A   1      37.056  34.546  29.827  1.00  0.00     0.163 HD
ATOM     80  O   UNL A   1      38.884  34.861  31.424  1.00  0.00    -0.269 OA
BRANCH  78  81
ATOM     81  C   UNL A   1      37.677  33.568  32.941  1.00  0.00     0.076 A 
ATOM     82  C   UNL A   1      38.382  32.400  33.240  1.00  0.00     0.038 A 
ATOM     83  C   UNL A   1      36.853  34.158  33.897  1.00  0.00     0.136 A 
ATOM     84  C   UNL A   1      38.339  31.904  34.546  1.00  0.00     0.083 A 
ATOM     85  C   UNL A   1      36.837  33.681  35.203  1.00  0.00     0.041 A 
ATOM     86  F   UNL A   1      36.114  35.236  33.601  1.00  0.00    -0.206 F 
ATOM     87  C   UNL A   1      37.615  32.573  35.540  1.00  0.00     0.025 A 
BRANCH  84  88
ATOM     88  S   UNL A   1      39.138  30.353  34.876  1.00  0.00     0.240 S 
ATOM     89  O   UNL A   1      38.980  30.074  36.282  1.00  0.00    -0.207 OA
ATOM     90  O   UNL A   1      38.701  29.429  33.854  1.00  0.00    -0.207 OA
BRANCH  88  91
ATOM     91  N   UNL A   1      40.759  30.632  34.584  1.00  0.00    -0.209 NA
ATOM     92  H   UNL A   1      40.836  31.625  34.363  1.00  0.00     0.141 HD
BRANCH  91  93
ATOM     93  C   UNL A   1      41.816  30.357  35.562  1.00  0.00     0.120 C 
BRANCH  93  94
ATOM     94  C   UNL A   1      42.272  31.566  36.383  1.00  0.00     0.131 C 
BRANCH  94  95
ATOM     95  N   UNL A   1      41.463  31.707  37.577  1.00  0.00    -0.369 N 
ATOM     96  H   UNL A   1      41.524  31.025  38.285  1.00  0.00     0.162 HD
BRANCH  95  97
ATOM     97  C   UNL A   1      40.614  32.773  37.741  1.00  0.00     0.125 A 
ATOM     98  C   UNL A   1      40.746  33.961  37.029  1.00  0.00     0.047 A 
ATOM     99  N   UNL A   1      39.647  32.603  38.662  1.00  0.00    -0.240 NA
ATOM    100  C   UNL A   1      39.885  35.023  37.292  1.00  0.00     0.005 A 
ATOM    101  C   UNL A   1      38.819  33.645  38.902  1.00  0.00     0.113 A 
ATOM    102  C   UNL A   1      38.902  34.866  38.256  1.00  0.00     0.020 A 
ENDBRANCH  95  97
ENDBRANCH  94  95
ENDBRANCH  93  94
ENDBRANCH  91  93
ENDBRANCH  88  91
ENDBRANCH  84  88
ENDBRANCH  78  81
ENDBRANCH   1  77
TORSDOF 20
ENDMDL
MODEL 3
REMARK VINA RESULT:     -10.6      2.985      5.608
REMARK SMILES O=C(NCCCCNC(=O)c1cc(S(=O)(=O)NCCNc2ccccn2)ccc1F)c1ccc(-c2c3nc(c(-c4c(F)cc(S(=O)(=O)[O-])cc4F)c4ccc([nH]4)c(-c4c(F)cc(S(=O)(=O)[O-])cc4F)c4nc(c(-c5c(F)cc(S(=O)(=O)[O-])cc5F)c5ccc2[nH]5)C=C4)C=C3)cc1
REMARK SMILES IDX 7 1 6 2 5 3 4 4 3 5 1 6 2 7 31 9 32 10 96 11 33 12 95 13
REMARK SMILES IDX 34 14 35 15 36 16 89 17 37 18 94 19 88 20 90 21 38 22 93 23
REMARK SMILES IDX 87 24 86 25 39 27 73 28 52 29 72 30 53 31 56 32 71 33 91 34
REMARK SMILES IDX 54 35 55 36 70 38 92 39 57 40 40 41 41 42 50 43 42 44 43 45
REMARK SMILES IDX 49 46 51 47 44 48 45 49 46 50 47 51 48 52 74 53 75 54 84 55
REMARK SMILES IDX 76 56 77 57 83 58 85 59 78 60 79 61 80 62 81 63 82 64 58 65
REMARK SMILES IDX 59 66 68 67 60 68 61 69 67 70 69 71 62 72 63 73 64 74 65 75
REMARK SMILES IDX 66 76 8 77 9 78 10 80 11 81 12 82 29 83 13 84 28 85 30 86
REMARK SMILES IDX 27 87 14 88 15 89 16 90 17 91 18 93 19 94 20 95 21 97 22 98
REMARK SMILES IDX 26 99 23 100 25 101 24 102
REMARK H PARENT 3 8 90 26 56 37 8 79 17 92 20 96
REMARK Flexibility Score: inf
ROOT
ATOM      1  C   UNL A   1      33.862  33.041  28.330  1.00  0.00     0.116 C 
ENDROOT
BRANCH   1   2
ATOM      2  C   UNL A   1      35.000  32.176  27.805  1.00  0.00     0.023 C 
BRANCH   2   3
ATOM      3  C   UNL A   1      34.600  30.778  27.352  1.00  0.00     0.023 C 
BRANCH   3   4
ATOM      4  C   UNL A   1      35.188  29.636  28.170  1.00  0.00     0.116 C 
BRANCH   4   5
ATOM      5  N   UNL A   1      35.280  29.932  29.593  1.00  0.00    -0.352 N 
ATOM      6  O   UNL A   1      36.235  30.000  31.639  1.00  0.00    -0.269 OA
ATOM      7  C   UNL A   1      36.365  29.813  30.433  1.00  0.00     0.251 C 
ATOM      8  H   UNL A   1      34.453  30.264  30.012  1.00  0.00     0.163 HD
BRANCH   7   9
ATOM      9  C   UNL A   1      37.678  29.421  29.873  1.00  0.00     0.039 A 
ATOM     10  C   UNL A   1      38.582  28.694  30.646  1.00  0.00     0.014 A 
ATOM     11  C   UNL A   1      38.023  29.822  28.579  1.00  0.00     0.014 A 
ATOM     12  C   UNL A   1      39.885  28.527  30.200  1.00  0.00     0.010 A 
ATOM     13  C   UNL A   1      39.309  29.560  28.090  1.00  0.00     0.010 A 
ATOM     14  C   UNL A   1      40.265  28.946  28.911  1.00  0.00    -0.014 A 
BRANCH  14  15
ATOM     15  C   UNL A   1      41.653  28.668  28.457  1.00  0.00     0.031 A 
ATOM     16  C   UNL A   1      42.749  29.690  28.596  1.00  0.00     0.074 A 
ATOM     17  C   UNL A   1      41.932  27.430  27.999  1.00  0.00     0.049 A 
ATOM     18  N   UNL A   1      44.025  29.558  28.338  1.00  0.00    -0.248 NA
ATOM     19  C   UNL A   1      42.374  31.028  29.078  1.00  0.00     0.031 C 
ATOM     20  C   UNL A   1      40.944  26.363  27.810  1.00  0.00     0.029 A 
ATOM     21  N   UNL A   1      43.123  26.841  27.661  1.00  0.00    -0.354 N 
ATOM     22  C   UNL A   1      44.603  30.794  28.610  1.00  0.00     0.074 A 
ATOM     23  C   UNL A   1      43.535  31.671  29.035  1.00  0.00     0.031 C 
ATOM     24  C   UNL A   1      41.579  25.229  27.482  1.00  0.00     0.029 A 
ATOM     25  C   UNL A   1      43.007  25.501  27.370  1.00  0.00     0.049 A 
ATOM     26  H   UNL A   1      43.977  27.328  27.629  1.00  0.00     0.167 HD
ATOM     27  C   UNL A   1      45.907  31.154  28.520  1.00  0.00     0.037 A 
ATOM     28  C   UNL A   1      43.943  24.588  27.052  1.00  0.00     0.037 A 
ATOM     29  C   UNL A   1      46.969  30.265  28.124  1.00  0.00     0.049 A 
ATOM     30  C   UNL A   1      45.377  25.017  26.967  1.00  0.00     0.074 A 
ATOM     31  C   UNL A   1      48.324  30.537  28.018  1.00  0.00     0.029 A 
ATOM     32  N   UNL A   1      46.804  28.932  27.778  1.00  0.00    -0.354 N 
ATOM     33  N   UNL A   1      45.898  26.194  27.221  1.00  0.00    -0.248 NA
ATOM     34  C   UNL A   1      46.348  24.003  26.539  1.00  0.00     0.031 C 
ATOM     35  C   UNL A   1      48.972  29.377  27.581  1.00  0.00     0.029 A 
ATOM     36  C   UNL A   1      48.028  28.373  27.448  1.00  0.00     0.049 A 
ATOM     37  H   UNL A   1      45.944  28.453  27.770  1.00  0.00     0.167 HD
ATOM     38  C   UNL A   1      47.258  26.064  26.973  1.00  0.00     0.074 A 
ATOM     39  C   UNL A   1      47.484  24.686  26.585  1.00  0.00     0.031 C 
ATOM     40  C   UNL A   1      48.230  27.004  27.048  1.00  0.00     0.037 A 
BRANCH  27  41
ATOM     41  C   UNL A   1      46.278  32.572  28.857  1.00  0.00     0.058 A 
ATOM     42  C   UNL A   1      46.265  33.566  27.866  1.00  0.00     0.135 A 
ATOM     43  C   UNL A   1      46.755  32.922  30.130  1.00  0.00     0.135 A 
ATOM     44  F   UNL A   1      45.812  33.286  26.634  1.00  0.00    -0.206 F 
ATOM     45  C   UNL A   1      46.735  34.852  28.117  1.00  0.00     0.059 A 
ATOM     46  C   UNL A   1      47.214  34.207  30.409  1.00  0.00     0.059 A 
ATOM     47  F   UNL A   1      46.769  32.013  31.118  1.00  0.00    -0.206 F 
ATOM     48  C   UNL A   1      47.218  35.159  29.390  1.00  0.00     0.060 A 
BRANCH  48  49
ATOM     49  S   UNL A   1      47.834  36.830  29.699  1.00  0.00     0.124 S 
ATOM     50  O   UNL A   1      46.693  37.648  29.303  1.00  0.00    -0.237 OA
ATOM     51  O   UNL A   1      48.124  36.791  31.129  1.00  0.00    -0.237 OA
ATOM     52  O   UNL A   1      49.007  36.921  28.834  1.00  0.00    -0.744 OA
ENDBRANCH  48  49
ENDBRANCH  27  41
BRANCH  28  53
ATOM     53  C   UNL A   1      43.543  23.182  26.793  1.00  0.00     0.058 A 
ATOM     54  C   UNL A   1      43.166  22.331  27.843  1.00  0.00     0.135 A 
ATOM     55  C   UNL A   1      43.564  22.652  25.496  1.00  0.00     0.135 A 
ATOM     56  F   UNL A   1      43.141  22.788  29.105  1.00  0.00    -0.206 F 
ATOM     57  C   UNL A   1      42.851  20.997  27.621  1.00  0.00     0.059 A 
ATOM     58  C   UNL A   1      43.227  21.326  25.243  1.00  0.00     0.059 A 
ATOM     59  F   UNL A   1      43.907  23.432  24.459  1.00  0.00    -0.206 F 
ATOM     60  C   UNL A   1      42.888  20.502  26.316  1.00  0.00     0.060 A 
BRANCH  60  61
ATOM     61  S   UNL A   1      42.471  18.767  26.042  1.00  0.00     0.124 S 
ATOM     62  O   UNL A   1      43.398  18.411  24.973  1.00  0.00    -0.237 OA
ATOM     63  O   UNL A   1      42.747  18.172  27.346  1.00  0.00    -0.237 OA
ATOM     64  O   UNL A   1      41.062  18.817  25.665  1.00  0.00    -0.744 OA
ENDBRANCH  60  61
ENDBRANCH  28  53
BRANCH  40  65
ATOM     65  C   UNL A   1      49.622  26.573  26.690  1.00  0.00     0.058 A 
ATOM     66  C   UNL A   1      50.038  26.530  25.351  1.00  0.00     0.135 A 
ATOM     67  C   UNL A   1      50.536  26.175  27.678  1.00  0.00     0.135 A 
ATOM     68  F   UNL A   1      49.201  26.900  24.369  1.00  0.00    -0.206 F 
ATOM     69  C   UNL A   1      51.315  26.104  25.004  1.00  0.00     0.059 A 
ATOM     70  C   UNL A   1      51.824  25.764  27.354  1.00  0.00     0.059 A 
ATOM     71  F   UNL A   1      50.187  26.212  28.975  1.00  0.00    -0.206 F 
ATOM     72  C   UNL A   1      52.201  25.722  26.012  1.00  0.00     0.060 A 
BRANCH  72  73
ATOM     73  S   UNL A   1      53.872  25.215  25.552  1.00  0.00     0.124 S 
ATOM     74  O   UNL A   1      54.377  26.416  24.897  1.00  0.00    -0.237 OA
ATOM     75  O   UNL A   1      54.469  24.897  26.845  1.00  0.00    -0.237 OA
ATOM     76  O   UNL A   1      53.646  24.068  24.677  1.00  0.00    -0.744 OA
ENDBRANCH  72  73
ENDBRANCH  40  65
ENDBRANCH  14  15
ENDBRANCH   7   9
ENDBRANCH   4   5
ENDBRANCH   3   4
ENDBRANCH   2   3
ENDBRANCH   1   2
BRANCH   1  77
ATOM     77  N   UNL A   1      33.981  34.445  27.966  1.00  0.00    -0.352 N 
ATOM     78  C   UNL A   1      34.081  35.536  28.797  1.00  0.00     0.254 C 
ATOM     79  H   UNL A   1      33.991  34.639  27.001  1.00  0.00     0.163 HD
ATOM     80  O   UNL A   1      34.149  36.675  28.351  1.00  0.00    -0.269 OA
BRANCH  78  81
ATOM     81  C   UNL A   1      34.017  35.333  30.251  1.00  0.00     0.076 A 
ATOM     82  C   UNL A   1      35.104  34.735  30.890  1.00  0.00     0.038 A 
ATOM     83  C   UNL A   1      32.924  35.783  30.990  1.00  0.00     0.136 A 
ATOM     84  C   UNL A   1      35.131  34.705  32.287  1.00  0.00     0.083 A 
ATOM     85  C   UNL A   1      32.967  35.780  32.380  1.00  0.00     0.041 A 
ATOM     86  F   UNL A   1      31.842  36.291  30.384  1.00  0.00    -0.206 F 
ATOM     87  C   UNL A   1      34.091  35.276  33.032  1.00  0.00     0.025 A 
BRANCH  84  88
ATOM     88  S   UNL A   1      36.459  33.831  33.078  1.00  0.00     0.240 S 
ATOM     89  O   UNL A   1      37.351  34.816  33.639  1.00  0.00    -0.207 OA
ATOM     90  O   UNL A   1      35.859  32.789  33.880  1.00  0.00    -0.207 OA
BRANCH  88  91
ATOM     91  N   UNL A   1      37.263  33.054  31.837  1.00  0.00    -0.209 NA
ATOM     92  H   UNL A   1      37.343  33.739  31.085  1.00  0.00     0.141 HD
BRANCH  91  93
ATOM     93  C   UNL A   1      38.595  32.461  31.981  1.00  0.00     0.120 C 
BRANCH  93  94
ATOM     94  C   UNL A   1      39.471  32.515  30.727  1.00  0.00     0.131 C 
BRANCH  94  95
ATOM     95  N   UNL A   1      39.714  33.889  30.332  1.00  0.00    -0.369 N 
ATOM     96  H   UNL A   1      38.950  34.470  30.113  1.00  0.00     0.162 HD
BRANCH  95  97
ATOM     97  C   UNL A   1      40.987  34.394  30.255  1.00  0.00     0.125 A 
ATOM     98  C   UNL A   1      41.441  35.140  29.172  1.00  0.00     0.047 A 
ATOM     99  N   UNL A   1      41.788  34.099  31.297  1.00  0.00    -0.240 NA
ATOM    100  C   UNL A   1      42.765  35.568  29.135  1.00  0.00     0.005 A 
ATOM    101  C   UNL A   1      43.071  34.525  31.243  1.00  0.00     0.113 A 
ATOM    102  C   UNL A   1      43.603  35.248  30.190  1.00  0.00     0.020 A 
ENDBRANCH  95  97
ENDBRANCH  94  95
ENDBRANCH  93  94
ENDBRANCH  91  93
ENDBRANCH  88  91
ENDBRANCH  84  88
ENDBRANCH  78  81
ENDBRANCH   1  77
TORSDOF 20
ENDMDL
