MODEL 1
REMARK VINA RESULT:     -10.7      0.000      0.000
REMARK SMILES CC(C)[C@@H]([NH2+][C@@H]1CSCC(C)(C)C1)C(=O)NCCCCNC(=O)c1ccc(-c2c3nc(c(-c4c(F)cc(S(=O)(=O)[O-])cc4F)c4ccc([nH]4)c(-c4c(F)cc(S(=O)(=O)[O-])cc4F)c4nc(c(-c5c(F)cc(S(=O)(=O)[O-])cc5F)c5ccc2[nH]5)C=C4)C=C3)cc1
REMARK SMILES IDX 19 1 18 2 17 3 16 4 14 5 15 6 4 8 2 9 1 10 3 11 5 12 6 15
REMARK SMILES IDX 7 16 13 17 8 18 10 19 9 20 11 21 12 22 20 23 21 24 22 25
REMARK SMILES IDX 23 27 24 28 25 29 89 30 26 31 88 32 27 33 28 34 29 35 82 36
REMARK SMILES IDX 30 37 87 38 81 39 83 40 31 41 86 42 80 43 79 44 32 46 66 47
REMARK SMILES IDX 45 48 65 49 46 50 49 51 64 52 84 53 47 54 48 55 63 57 85 58
REMARK SMILES IDX 50 59 33 60 34 61 43 62 35 63 36 64 42 65 44 66 37 67 38 68
REMARK SMILES IDX 39 69 40 70 41 71 67 72 68 73 77 74 69 75 70 76 76 77 78 78
REMARK SMILES IDX 71 79 72 80 73 81 74 82 75 83 51 84 52 85 61 86 53 87 54 88
REMARK SMILES IDX 60 89 62 90 55 91 56 92 57 93 58 94 59 95
REMARK H PARENT 16 7 5 13 5 14 21 26 83 45 49 56
REMARK Flexibility Score: inf
ROOT
ATOM      1  C   UNL A   1      38.076  20.351  25.345  1.00  0.00     0.023 C 
ENDROOT
BRANCH   1   2
ATOM      2  C   UNL A   1      37.415  21.499  24.586  1.00  0.00     0.023 C 
BRANCH   2   3
ATOM      3  C   UNL A   1      37.017  22.673  25.468  1.00  0.00     0.116 C 
BRANCH   3   4
ATOM      4  N   UNL A   1      36.090  22.302  26.515  1.00  0.00    -0.351 N 
ATOM      5  C   UNL A   1      34.796  21.875  26.395  1.00  0.00     0.278 C 
ATOM      6  O   UNL A   1      34.211  21.477  27.408  1.00  0.00    -0.268 OA
ATOM      7  H   UNL A   1      36.436  22.364  27.435  1.00  0.00     0.163 HD
BRANCH   5   8
ATOM      8  C   UNL A   1      34.032  21.978  25.049  1.00  0.00     0.275 C 
BRANCH   8   9
ATOM      9  C   UNL A   1      33.252  20.643  24.804  1.00  0.00     0.051 C 
ATOM     10  C   UNL A   1      32.361  20.700  23.559  1.00  0.00     0.014 C 
ATOM     11  C   UNL A   1      34.199  19.437  24.671  1.00  0.00     0.014 C 
ENDBRANCH   8   9
BRANCH   8  12
ATOM     12  N   UNL A   1      33.163  23.188  25.005  1.00  0.00    -0.333 N 
ATOM     13  H   UNL A   1      32.767  23.317  25.937  1.00  0.00     0.347 HD
ATOM     14  H   UNL A   1      32.480  22.998  24.271  1.00  0.00     0.347 HD
BRANCH  12  15
ATOM     15  C   UNL A   1      33.804  24.464  24.612  1.00  0.00     0.193 C 
ATOM     16  C   UNL A   1      33.836  25.622  25.624  1.00  0.00     0.134 C 
ATOM     17  C   UNL A   1      33.200  24.999  23.283  1.00  0.00     0.073 C 
ATOM     18  S   UNL A   1      32.187  26.199  26.111  1.00  0.00    -0.155 SA
ATOM     19  C   UNL A   1      31.736  25.524  23.320  1.00  0.00    -0.021 C 
ATOM     20  C   UNL A   1      31.445  26.496  24.489  1.00  0.00     0.076 C 
ATOM     21  C   UNL A   1      30.738  24.350  23.284  1.00  0.00     0.012 C 
ATOM     22  C   UNL A   1      31.465  26.326  22.021  1.00  0.00     0.012 C 
ENDBRANCH  12  15
ENDBRANCH   8  12
ENDBRANCH   5   8
ENDBRANCH   3   4
ENDBRANCH   2   3
ENDBRANCH   1   2
BRANCH   1  23
ATOM     23  C   UNL A   1      39.435  20.672  25.964  1.00  0.00     0.116 C 
BRANCH  23  24
ATOM     24  N   UNL A   1      40.330  19.524  26.029  1.00  0.00    -0.352 N 
ATOM     25  C   UNL A   1      41.698  19.505  26.187  1.00  0.00     0.251 C 
ATOM     26  H   UNL A   1      39.898  18.643  25.950  1.00  0.00     0.163 HD
ATOM     27  O   UNL A   1      42.319  18.454  26.113  1.00  0.00    -0.269 OA
BRANCH  25  28
ATOM     28  C   UNL A   1      42.409  20.783  26.410  1.00  0.00     0.039 A 
ATOM     29  C   UNL A   1      42.856  21.511  25.306  1.00  0.00     0.014 A 
ATOM     30  C   UNL A   1      42.571  21.284  27.704  1.00  0.00     0.014 A 
ATOM     31  C   UNL A   1      43.391  22.787  25.496  1.00  0.00     0.010 A 
ATOM     32  C   UNL A   1      43.040  22.582  27.884  1.00  0.00     0.010 A 
ATOM     33  C   UNL A   1      43.445  23.350  26.783  1.00  0.00    -0.014 A 
BRANCH  33  34
ATOM     34  C   UNL A   1      43.900  24.748  26.996  1.00  0.00     0.031 A 
ATOM     35  C   UNL A   1      45.349  25.106  26.820  1.00  0.00     0.074 A 
ATOM     36  C   UNL A   1      43.021  25.678  27.424  1.00  0.00     0.049 A 
ATOM     37  N   UNL A   1      45.950  26.246  27.040  1.00  0.00    -0.248 NA
ATOM     38  C   UNL A   1      46.246  24.031  26.364  1.00  0.00     0.031 C 
ATOM     39  C   UNL A   1      41.597  25.443  27.683  1.00  0.00     0.029 A 
ATOM     40  N   UNL A   1      43.197  27.005  27.728  1.00  0.00    -0.354 N 
ATOM     41  C   UNL A   1      47.295  26.024  26.765  1.00  0.00     0.074 A 
ATOM     42  C   UNL A   1      47.427  24.628  26.410  1.00  0.00     0.031 C 
ATOM     43  C   UNL A   1      41.028  26.590  28.088  1.00  0.00     0.029 A 
ATOM     44  C   UNL A   1      42.049  27.633  28.152  1.00  0.00     0.049 A 
ATOM     45  H   UNL A   1      44.065  27.464  27.652  1.00  0.00     0.167 HD
ATOM     46  C   UNL A   1      48.321  26.908  26.784  1.00  0.00     0.037 A 
ATOM     47  C   UNL A   1      41.842  28.902  28.554  1.00  0.00     0.037 A 
ATOM     48  C   UNL A   1      48.179  28.302  27.111  1.00  0.00     0.049 A 
ATOM     49  C   UNL A   1      42.996  29.867  28.559  1.00  0.00     0.074 A 
ATOM     50  C   UNL A   1      49.147  29.292  27.102  1.00  0.00     0.029 A 
ATOM     51  N   UNL A   1      46.995  28.907  27.507  1.00  0.00    -0.354 N 
ATOM     52  N   UNL A   1      44.249  29.655  28.235  1.00  0.00    -0.248 NA
ATOM     53  C   UNL A   1      42.709  31.245  28.980  1.00  0.00     0.031 C 
ATOM     54  C   UNL A   1      48.555  30.487  27.526  1.00  0.00     0.029 A 
ATOM     55  C   UNL A   1      47.210  30.252  27.759  1.00  0.00     0.049 A 
ATOM     56  H   UNL A   1      46.128  28.447  27.597  1.00  0.00     0.167 HD
ATOM     57  C   UNL A   1      44.893  30.878  28.387  1.00  0.00     0.074 A 
ATOM     58  C   UNL A   1      43.889  31.827  28.823  1.00  0.00     0.031 C 
ATOM     59  C   UNL A   1      46.198  31.186  28.183  1.00  0.00     0.037 A 
BRANCH  46  60
ATOM     60  C   UNL A   1      49.688  26.391  26.430  1.00  0.00     0.058 A 
ATOM     61  C   UNL A   1      50.496  25.743  27.379  1.00  0.00     0.135 A 
ATOM     62  C   UNL A   1      50.187  26.520  25.124  1.00  0.00     0.135 A 
ATOM     63  F   UNL A   1      50.074  25.607  28.646  1.00  0.00    -0.206 F 
ATOM     64  C   UNL A   1      51.763  25.272  27.054  1.00  0.00     0.059 A 
ATOM     65  C   UNL A   1      51.442  26.032  24.770  1.00  0.00     0.059 A 
ATOM     66  F   UNL A   1      49.456  27.131  24.178  1.00  0.00    -0.206 F 
ATOM     67  C   UNL A   1      52.229  25.425  25.746  1.00  0.00     0.060 A 
BRANCH  67  68
ATOM     68  S   UNL A   1      53.879  24.811  25.342  1.00  0.00     0.124 S 
ATOM     69  O   UNL A   1      54.196  25.595  24.152  1.00  0.00    -0.237 OA
ATOM     70  O   UNL A   1      54.640  25.147  26.541  1.00  0.00    -0.237 OA
ATOM     71  O   UNL A   1      53.665  23.386  25.118  1.00  0.00    -0.744 OA
ENDBRANCH  67  68
ENDBRANCH  46  60
BRANCH  47  72
ATOM     72  C   UNL A   1      40.479  29.341  28.958  1.00  0.00     0.058 A 
ATOM     73  C   UNL A   1      39.483  29.565  27.996  1.00  0.00     0.135 A 
ATOM     74  C   UNL A   1      40.143  29.534  30.306  1.00  0.00     0.135 A 
ATOM     75  F   UNL A   1      39.759  29.400  26.694  1.00  0.00    -0.206 F 
ATOM     76  C   UNL A   1      38.204  29.979  28.355  1.00  0.00     0.059 A 
ATOM     77  C   UNL A   1      38.864  29.926  30.691  1.00  0.00     0.059 A 
ATOM     78  F   UNL A   1      41.056  29.317  31.265  1.00  0.00    -0.206 F 
ATOM     79  C   UNL A   1      37.904  30.155  29.706  1.00  0.00     0.060 A 
BRANCH  79  80
ATOM     80  S   UNL A   1      36.226  30.646  30.164  1.00  0.00     0.124 S 
ATOM     81  O   UNL A   1      35.527  30.525  28.892  1.00  0.00    -0.237 OA
ATOM     82  O   UNL A   1      35.883  29.653  31.178  1.00  0.00    -0.237 OA
ATOM     83  O   UNL A   1      36.402  32.006  30.665  1.00  0.00    -0.744 OA
ENDBRANCH  79  80
ENDBRANCH  47  72
BRANCH  59  84
ATOM     84  C   UNL A   1      46.612  32.616  28.393  1.00  0.00     0.058 A 
ATOM     85  C   UNL A   1      47.136  33.059  29.617  1.00  0.00     0.135 A 
ATOM     86  C   UNL A   1      46.535  33.539  27.338  1.00  0.00     0.135 A 
ATOM     87  F   UNL A   1      47.224  32.217  30.658  1.00  0.00    -0.206 F 
ATOM     88  C   UNL A   1      47.553  34.374  29.793  1.00  0.00     0.059 A 
ATOM     89  C   UNL A   1      46.969  34.853  27.485  1.00  0.00     0.059 A 
ATOM     90  F   UNL A   1      46.050  33.163  26.144  1.00  0.00    -0.206 F 
ATOM     91  C   UNL A   1      47.467  35.264  28.720  1.00  0.00     0.060 A 
BRANCH  91  92
ATOM     92  S   UNL A   1      48.048  36.958  28.949  1.00  0.00     0.124 S 
ATOM     93  O   UNL A   1      46.837  37.623  29.420  1.00  0.00    -0.237 OA
ATOM     94  O   UNL A   1      49.109  36.795  29.938  1.00  0.00    -0.237 OA
ATOM     95  O   UNL A   1      48.499  37.345  27.615  1.00  0.00    -0.744 OA
ENDBRANCH  91  92
ENDBRANCH  59  84
ENDBRANCH  33  34
ENDBRANCH  25  28
ENDBRANCH  23  24
ENDBRANCH   1  23
TORSDOF 17
ENDMDL
MODEL 2
REMARK VINA RESULT:     -10.7      6.551      8.723
REMARK SMILES CC(C)[C@@H]([NH2+][C@@H]1CSCC(C)(C)C1)C(=O)NCCCCNC(=O)c1ccc(-c2c3nc(c(-c4c(F)cc(S(=O)(=O)[O-])cc4F)c4ccc([nH]4)c(-c4c(F)cc(S(=O)(=O)[O-])cc4F)c4nc(c(-c5c(F)cc(S(=O)(=O)[O-])cc5F)c5ccc2[nH]5)C=C4)C=C3)cc1
REMARK SMILES IDX 19 1 18 2 17 3 16 4 14 5 15 6 4 8 2 9 1 10 3 11 5 12 6 15
REMARK SMILES IDX 7 16 13 17 8 18 10 19 9 20 11 21 12 22 20 23 21 24 22 25
REMARK SMILES IDX 23 27 24 28 25 29 89 30 26 31 88 32 27 33 28 34 29 35 82 36
REMARK SMILES IDX 30 37 87 38 81 39 83 40 31 41 86 42 80 43 79 44 32 46 66 47
REMARK SMILES IDX 45 48 65 49 46 50 49 51 64 52 84 53 47 54 48 55 63 57 85 58
REMARK SMILES IDX 50 59 33 60 34 61 43 62 35 63 36 64 42 65 44 66 37 67 38 68
REMARK SMILES IDX 39 69 40 70 41 71 67 72 68 73 77 74 69 75 70 76 76 77 78 78
REMARK SMILES IDX 71 79 72 80 73 81 74 82 75 83 51 84 52 85 61 86 53 87 54 88
REMARK SMILES IDX 60 89 62 90 55 91 56 92 57 93 58 94 59 95
REMARK H PARENT 16 7 5 13 5 14 21 26 83 45 49 56
REMARK Flexibility Score: inf
ROOT
ATOM      1  C   UNL A   1      37.545  23.548  25.387  1.00  0.00     0.023 C 
ENDROOT
BRANCH   1   2
ATOM      2  C   UNL A   1      36.067  23.878  25.588  1.00  0.00     0.023 C 
BRANCH   2   3
ATOM      3  C   UNL A   1      35.170  22.654  25.694  1.00  0.00     0.116 C 
BRANCH   3   4
ATOM      4  N   UNL A   1      34.108  22.818  26.663  1.00  0.00    -0.351 N 
ATOM      5  C   UNL A   1      32.898  23.438  26.504  1.00  0.00     0.278 C 
ATOM      6  O   UNL A   1      32.070  23.354  27.418  1.00  0.00    -0.268 OA
ATOM      7  H   UNL A   1      34.277  22.433  27.553  1.00  0.00     0.163 HD
BRANCH   5   8
ATOM      8  C   UNL A   1      32.596  24.314  25.261  1.00  0.00     0.275 C 
BRANCH   8   9
ATOM      9  C   UNL A   1      31.515  23.596  24.384  1.00  0.00     0.051 C 
ATOM     10  C   UNL A   1      30.314  24.495  24.075  1.00  0.00     0.014 C 
ATOM     11  C   UNL A   1      32.098  23.086  23.053  1.00  0.00     0.014 C 
ENDBRANCH   8   9
BRANCH   8  12
ATOM     12  N   UNL A   1      32.216  25.702  25.649  1.00  0.00    -0.333 N 
ATOM     13  H   UNL A   1      31.635  25.639  26.486  1.00  0.00     0.347 HD
ATOM     14  H   UNL A   1      31.748  26.089  24.829  1.00  0.00     0.347 HD
BRANCH  12  15
ATOM     15  C   UNL A   1      33.320  26.645  25.942  1.00  0.00     0.193 C 
ATOM     16  C   UNL A   1      33.050  27.837  26.876  1.00  0.00     0.134 C 
ATOM     17  C   UNL A   1      33.941  27.193  24.626  1.00  0.00     0.073 C 
ATOM     18  S   UNL A   1      31.781  28.972  26.249  1.00  0.00    -0.155 SA
ATOM     19  C   UNL A   1      33.078  28.167  23.775  1.00  0.00    -0.021 C 
ATOM     20  C   UNL A   1      32.424  29.308  24.593  1.00  0.00     0.076 C 
ATOM     21  C   UNL A   1      32.040  27.387  22.944  1.00  0.00     0.012 C 
ATOM     22  C   UNL A   1      33.993  28.860  22.734  1.00  0.00     0.012 C 
ENDBRANCH  12  15
ENDBRANCH   8  12
ENDBRANCH   5   8
ENDBRANCH   3   4
ENDBRANCH   2   3
ENDBRANCH   1   2
BRANCH   1  23
ATOM     23  C   UNL A   1      38.477  24.018  26.503  1.00  0.00     0.116 C 
BRANCH  23  24
ATOM     24  N   UNL A   1      39.890  23.921  26.159  1.00  0.00    -0.352 N 
ATOM     25  C   UNL A   1      40.926  24.748  26.533  1.00  0.00     0.251 C 
ATOM     26  H   UNL A   1      40.136  23.164  25.581  1.00  0.00     0.163 HD
ATOM     27  O   UNL A   1      42.046  24.591  26.068  1.00  0.00    -0.269 OA
BRANCH  25  28
ATOM     28  C   UNL A   1      40.653  25.852  27.479  1.00  0.00     0.039 A 
ATOM     29  C   UNL A   1      39.672  25.679  28.457  1.00  0.00     0.014 A 
ATOM     30  C   UNL A   1      41.412  27.024  27.433  1.00  0.00     0.014 A 
ATOM     31  C   UNL A   1      39.511  26.651  29.447  1.00  0.00     0.010 A 
ATOM     32  C   UNL A   1      41.296  27.958  28.459  1.00  0.00     0.010 A 
ATOM     33  C   UNL A   1      40.353  27.776  29.481  1.00  0.00    -0.014 A 
BRANCH  33  34
ATOM     34  C   UNL A   1      40.279  28.762  30.590  1.00  0.00     0.031 A 
ATOM     35  C   UNL A   1      41.158  28.604  31.799  1.00  0.00     0.074 A 
ATOM     36  C   UNL A   1      39.367  29.755  30.541  1.00  0.00     0.049 A 
ATOM     37  N   UNL A   1      41.181  29.309  32.900  1.00  0.00    -0.248 NA
ATOM     38  C   UNL A   1      42.117  27.487  31.780  1.00  0.00     0.031 C 
ATOM     39  C   UNL A   1      38.421  29.983  29.446  1.00  0.00     0.029 A 
ATOM     40  N   UNL A   1      39.078  30.750  31.441  1.00  0.00    -0.354 N 
ATOM     41  C   UNL A   1      42.143  28.716  33.710  1.00  0.00     0.074 A 
ATOM     42  C   UNL A   1      42.644  27.563  32.993  1.00  0.00     0.031 C 
ATOM     43  C   UNL A   1      37.671  31.061  29.729  1.00  0.00     0.029 A 
ATOM     44  C   UNL A   1      38.055  31.579  31.039  1.00  0.00     0.049 A 
ATOM     45  H   UNL A   1      39.556  30.860  32.294  1.00  0.00     0.167 HD
ATOM     46  C   UNL A   1      42.583  29.108  34.929  1.00  0.00     0.037 A 
ATOM     47  C   UNL A   1      37.488  32.632  31.658  1.00  0.00     0.037 A 
ATOM     48  C   UNL A   1      42.100  30.271  35.626  1.00  0.00     0.049 A 
ATOM     49  C   UNL A   1      37.999  33.053  33.008  1.00  0.00     0.074 A 
ATOM     50  C   UNL A   1      42.525  30.786  36.839  1.00  0.00     0.029 A 
ATOM     51  N   UNL A   1      41.085  31.101  35.174  1.00  0.00    -0.354 N 
ATOM     52  N   UNL A   1      38.953  32.518  33.732  1.00  0.00    -0.248 NA
ATOM     53  C   UNL A   1      37.363  34.225  33.626  1.00  0.00     0.031 C 
ATOM     54  C   UNL A   1      41.742  31.907  37.136  1.00  0.00     0.029 A 
ATOM     55  C   UNL A   1      40.858  32.116  36.090  1.00  0.00     0.049 A 
ATOM     56  H   UNL A   1      40.596  30.986  34.326  1.00  0.00     0.167 HD
ATOM     57  C   UNL A   1      39.048  33.302  34.877  1.00  0.00     0.074 A 
ATOM     58  C   UNL A   1      38.063  34.354  34.744  1.00  0.00     0.031 C 
ATOM     59  C   UNL A   1      39.880  33.162  35.939  1.00  0.00     0.037 A 
BRANCH  46  60
ATOM     60  C   UNL A   1      43.651  28.274  35.581  1.00  0.00     0.058 A 
ATOM     61  C   UNL A   1      43.330  27.237  36.472  1.00  0.00     0.135 A 
ATOM     62  C   UNL A   1      45.008  28.496  35.296  1.00  0.00     0.135 A 
ATOM     63  F   UNL A   1      42.050  26.992  36.792  1.00  0.00    -0.206 F 
ATOM     64  C   UNL A   1      44.317  26.471  37.082  1.00  0.00     0.059 A 
ATOM     65  C   UNL A   1      46.012  27.723  35.873  1.00  0.00     0.059 A 
ATOM     66  F   UNL A   1      45.370  29.475  34.451  1.00  0.00    -0.206 F 
ATOM     67  C   UNL A   1      45.657  26.724  36.778  1.00  0.00     0.060 A 
BRANCH  67  68
ATOM     68  S   UNL A   1      46.927  25.723  37.582  1.00  0.00     0.124 S 
ATOM     69  O   UNL A   1      47.293  24.802  36.510  1.00  0.00    -0.237 OA
ATOM     70  O   UNL A   1      47.935  26.719  37.932  1.00  0.00    -0.237 OA
ATOM     71  O   UNL A   1      46.223  25.125  38.711  1.00  0.00    -0.744 OA
ENDBRANCH  67  68
ENDBRANCH  46  60
BRANCH  47  72
ATOM     72  C   UNL A   1      36.387  33.381  30.993  1.00  0.00     0.058 A 
ATOM     73  C   UNL A   1      35.071  33.297  31.471  1.00  0.00     0.135 A 
ATOM     74  C   UNL A   1      36.629  34.200  29.880  1.00  0.00     0.135 A 
ATOM     75  F   UNL A   1      34.790  32.521  32.528  1.00  0.00    -0.206 F 
ATOM     76  C   UNL A   1      34.030  33.988  30.860  1.00  0.00     0.059 A 
ATOM     77  C   UNL A   1      35.608  34.919  29.266  1.00  0.00     0.059 A 
ATOM     78  F   UNL A   1      37.874  34.326  29.395  1.00  0.00    -0.206 F 
ATOM     79  C   UNL A   1      34.309  34.799  29.758  1.00  0.00     0.060 A 
BRANCH  79  80
ATOM     80  S   UNL A   1      32.957  35.729  29.003  1.00  0.00     0.124 S 
ATOM     81  O   UNL A   1      32.151  36.074  30.167  1.00  0.00    -0.237 OA
ATOM     82  O   UNL A   1      33.665  36.836  28.366  1.00  0.00    -0.237 OA
ATOM     83  O   UNL A   1      32.361  34.765  28.082  1.00  0.00    -0.744 OA
ENDBRANCH  79  80
ENDBRANCH  47  72
BRANCH  59  84
ATOM     84  C   UNL A   1      39.785  34.192  37.030  1.00  0.00     0.058 A 
ATOM     85  C   UNL A   1      40.360  35.465  36.894  1.00  0.00     0.135 A 
ATOM     86  C   UNL A   1      39.063  33.919  38.203  1.00  0.00     0.135 A 
ATOM     87  F   UNL A   1      41.066  35.773  35.795  1.00  0.00    -0.206 F 
ATOM     88  C   UNL A   1      40.236  36.427  37.891  1.00  0.00     0.059 A 
ATOM     89  C   UNL A   1      38.907  34.874  39.203  1.00  0.00     0.059 A 
ATOM     90  F   UNL A   1      38.486  32.719  38.379  1.00  0.00    -0.206 F 
ATOM     91  C   UNL A   1      39.506  36.122  39.042  1.00  0.00     0.060 A 
BRANCH  91  92
ATOM     92  S   UNL A   1      39.319  37.392  40.312  1.00  0.00     0.124 S 
ATOM     93  O   UNL A   1      40.709  37.745  40.581  1.00  0.00    -0.237 OA
ATOM     94  O   UNL A   1      38.528  38.409  39.626  1.00  0.00    -0.237 OA
ATOM     95  O   UNL A   1      38.627  36.693  41.392  1.00  0.00    -0.744 OA
ENDBRANCH  91  92
ENDBRANCH  59  84
ENDBRANCH  33  34
ENDBRANCH  25  28
ENDBRANCH  23  24
ENDBRANCH   1  23
TORSDOF 17
ENDMDL
MODEL 3
REMARK VINA RESULT:     -10.6      0.681      8.384
REMARK SMILES CC(C)[C@@H]([NH2+][C@@H]1CSCC(C)(C)C1)C(=O)NCCCCNC(=O)c1ccc(-c2c3nc(c(-c4c(F)cc(S(=O)(=O)[O-])cc4F)c4ccc([nH]4)c(-c4c(F)cc(S(=O)(=O)[O-])cc4F)c4nc(c(-c5c(F)cc(S(=O)(=O)[O-])cc5F)c5ccc2[nH]5)C=C4)C=C3)cc1
REMARK SMILES IDX 19 1 18 2 17 3 16 4 14 5 15 6 4 8 2 9 1 10 3 11 5 12 6 15
REMARK SMILES IDX 7 16 13 17 8 18 10 19 9 20 11 21 12 22 20 23 21 24 22 25
REMARK SMILES IDX 23 27 24 28 25 29 89 30 26 31 88 32 27 33 28 34 29 35 82 36
REMARK SMILES IDX 30 37 87 38 81 39 83 40 31 41 86 42 80 43 79 44 32 46 66 47
REMARK SMILES IDX 45 48 65 49 46 50 49 51 64 52 84 53 47 54 48 55 63 57 85 58
REMARK SMILES IDX 50 59 33 60 34 61 43 62 35 63 36 64 42 65 44 66 37 67 38 68
REMARK SMILES IDX 39 69 40 70 41 71 67 72 68 73 77 74 69 75 70 76 76 77 78 78
REMARK SMILES IDX 71 79 72 80 73 81 74 82 75 83 51 84 52 85 61 86 53 87 54 88
REMARK SMILES IDX 60 89 62 90 55 91 56 92 57 93 58 94 59 95
REMARK H PARENT 16 7 5 13 5 14 21 26 83 45 49 56
REMARK Flexibility Score: inf
ROOT
ATOM      1  C   UNL A   1      37.940  20.667  25.279  1.00  0.00     0.023 C 
ENDROOT
BRANCH   1   2
ATOM      2  C   UNL A   1      37.399  21.881  24.527  1.00  0.00     0.023 C 
BRANCH   2   3
ATOM      3  C   UNL A   1      37.182  23.104  25.404  1.00  0.00     0.116 C 
BRANCH   3   4
ATOM      4  N   UNL A   1      36.277  22.855  26.505  1.00  0.00    -0.351 N 
ATOM      5  C   UNL A   1      34.909  22.842  26.496  1.00  0.00     0.278 C 
ATOM      6  O   UNL A   1      34.318  22.475  27.517  1.00  0.00    -0.268 OA
ATOM      7  H   UNL A   1      36.701  22.670  27.374  1.00  0.00     0.163 HD
BRANCH   5   8
ATOM      8  C   UNL A   1      34.104  23.371  25.281  1.00  0.00     0.275 C 
BRANCH   8   9
ATOM      9  C   UNL A   1      33.336  22.176  24.621  1.00  0.00     0.051 C 
ATOM     10  C   UNL A   1      31.951  21.953  25.235  1.00  0.00     0.014 C 
ATOM     11  C   UNL A   1      33.173  22.364  23.102  1.00  0.00     0.014 C 
ENDBRANCH   8   9
BRANCH   8  12
ATOM     12  N   UNL A   1      33.214  24.504  25.666  1.00  0.00    -0.333 N 
ATOM     13  H   UNL A   1      33.172  24.530  26.685  1.00  0.00     0.347 HD
ATOM     14  H   UNL A   1      32.325  24.312  25.204  1.00  0.00     0.347 HD
BRANCH  12  15
ATOM     15  C   UNL A   1      33.606  25.854  25.200  1.00  0.00     0.193 C 
ATOM     16  C   UNL A   1      33.355  27.060  26.123  1.00  0.00     0.134 C 
ATOM     17  C   UNL A   1      32.972  26.165  23.815  1.00  0.00     0.073 C 
ATOM     18  S   UNL A   1      31.602  27.320  26.509  1.00  0.00    -0.155 SA
ATOM     19  C   UNL A   1      31.433  26.384  23.762  1.00  0.00    -0.021 C 
ATOM     20  C   UNL A   1      30.896  27.352  24.844  1.00  0.00     0.076 C 
ATOM     21  C   UNL A   1      30.693  25.032  23.781  1.00  0.00     0.012 C 
ATOM     22  C   UNL A   1      31.070  27.026  22.398  1.00  0.00     0.012 C 
ENDBRANCH  12  15
ENDBRANCH   8  12
ENDBRANCH   5   8
ENDBRANCH   3   4
ENDBRANCH   2   3
ENDBRANCH   1   2
BRANCH   1  23
ATOM     23  C   UNL A   1      39.289  20.871  25.966  1.00  0.00     0.116 C 
BRANCH  23  24
ATOM     24  N   UNL A   1      40.107  19.666  26.012  1.00  0.00    -0.352 N 
ATOM     25  C   UNL A   1      41.468  19.554  26.184  1.00  0.00     0.251 C 
ATOM     26  H   UNL A   1      39.619  18.817  25.905  1.00  0.00     0.163 HD
ATOM     27  O   UNL A   1      42.020  18.467  26.091  1.00  0.00    -0.269 OA
BRANCH  25  28
ATOM     28  C   UNL A   1      42.258  20.777  26.448  1.00  0.00     0.039 A 
ATOM     29  C   UNL A   1      42.755  21.508  25.367  1.00  0.00     0.014 A 
ATOM     30  C   UNL A   1      42.446  21.227  27.757  1.00  0.00     0.014 A 
ATOM     31  C   UNL A   1      43.369  22.741  25.597  1.00  0.00     0.010 A 
ATOM     32  C   UNL A   1      42.996  22.486  27.977  1.00  0.00     0.010 A 
ATOM     33  C   UNL A   1      43.454  23.260  26.900  1.00  0.00    -0.014 A 
BRANCH  33  34
ATOM     34  C   UNL A   1      43.995  24.620  27.157  1.00  0.00     0.031 A 
ATOM     35  C   UNL A   1      43.073  25.733  27.569  1.00  0.00     0.074 A 
ATOM     36  C   UNL A   1      45.304  24.869  26.945  1.00  0.00     0.049 A 
ATOM     37  N   UNL A   1      43.341  27.000  27.756  1.00  0.00    -0.248 NA
ATOM     38  C   UNL A   1      41.657  25.382  27.766  1.00  0.00     0.031 C 
ATOM     39  C   UNL A   1      46.291  23.884  26.494  1.00  0.00     0.029 A 
ATOM     40  N   UNL A   1      46.027  26.029  27.068  1.00  0.00    -0.354 N 
ATOM     41  C   UNL A   1      42.128  27.599  28.079  1.00  0.00     0.074 A 
ATOM     42  C   UNL A   1      41.117  26.566  28.012  1.00  0.00     0.031 C 
ATOM     43  C   UNL A   1      47.492  24.478  26.397  1.00  0.00     0.029 A 
ATOM     44  C   UNL A   1      47.356  25.890  26.743  1.00  0.00     0.049 A 
ATOM     45  H   UNL A   1      45.630  26.881  27.359  1.00  0.00     0.167 HD
ATOM     46  C   UNL A   1      41.885  28.886  28.422  1.00  0.00     0.037 A 
ATOM     47  C   UNL A   1      48.351  26.797  26.721  1.00  0.00     0.037 A 
ATOM     48  C   UNL A   1      42.898  29.903  28.512  1.00  0.00     0.049 A 
ATOM     49  C   UNL A   1      48.057  28.219  27.112  1.00  0.00     0.074 A 
ATOM     50  C   UNL A   1      42.761  31.223  28.908  1.00  0.00     0.029 A 
ATOM     51  N   UNL A   1      44.238  29.717  28.205  1.00  0.00    -0.354 N 
ATOM     52  N   UNL A   1      46.917  28.755  27.476  1.00  0.00    -0.248 NA
ATOM     53  C   UNL A   1      49.185  29.161  27.097  1.00  0.00     0.031 C 
ATOM     54  C   UNL A   1      44.012  31.843  28.806  1.00  0.00     0.029 A 
ATOM     55  C   UNL A   1      44.936  30.899  28.386  1.00  0.00     0.049 A 
ATOM     56  H   UNL A   1      44.635  28.868  27.900  1.00  0.00     0.167 HD
ATOM     57  C   UNL A   1      47.195  30.088  27.757  1.00  0.00     0.074 A 
ATOM     58  C   UNL A   1      48.613  30.275  27.531  1.00  0.00     0.031 C 
ATOM     59  C   UNL A   1      46.350  31.067  28.167  1.00  0.00     0.037 A 
BRANCH  46  60
ATOM     60  C   UNL A   1      40.462  29.263  28.733  1.00  0.00     0.058 A 
ATOM     61  C   UNL A   1      39.509  29.434  27.716  1.00  0.00     0.135 A 
ATOM     62  C   UNL A   1      40.040  29.430  30.062  1.00  0.00     0.135 A 
ATOM     63  F   UNL A   1      39.863  29.302  26.428  1.00  0.00    -0.206 F 
ATOM     64  C   UNL A   1      38.196  29.790  28.003  1.00  0.00     0.059 A 
ATOM     65  C   UNL A   1      38.724  29.760  30.374  1.00  0.00     0.059 A 
ATOM     66  F   UNL A   1      40.910  29.278  31.073  1.00  0.00    -0.206 F 
ATOM     67  C   UNL A   1      37.813  29.954  29.336  1.00  0.00     0.060 A 
BRANCH  67  68
ATOM     68  S   UNL A   1      36.106  30.421  29.692  1.00  0.00     0.124 S 
ATOM     69  O   UNL A   1      35.393  29.776  28.593  1.00  0.00    -0.237 OA
ATOM     70  O   UNL A   1      35.891  29.839  31.013  1.00  0.00    -0.237 OA
ATOM     71  O   UNL A   1      36.137  31.879  29.651  1.00  0.00    -0.744 OA
ENDBRANCH  67  68
ENDBRANCH  46  60
BRANCH  47  72
ATOM     72  C   UNL A   1      49.728  26.381  26.339  1.00  0.00     0.058 A 
ATOM     73  C   UNL A   1      50.162  26.468  25.008  1.00  0.00     0.135 A 
ATOM     74  C   UNL A   1      50.638  25.902  27.294  1.00  0.00     0.135 A 
ATOM     75  F   UNL A   1      49.325  26.914  24.059  1.00  0.00    -0.206 F 
ATOM     76  C   UNL A   1      51.444  26.081  24.633  1.00  0.00     0.059 A 
ATOM     77  C   UNL A   1      51.933  25.531  26.946  1.00  0.00     0.059 A 
ATOM     78  F   UNL A   1      50.277  25.816  28.584  1.00  0.00    -0.206 F 
ATOM     79  C   UNL A   1      52.324  25.616  25.611  1.00  0.00     0.060 A 
BRANCH  79  80
ATOM     80  S   UNL A   1      54.003  25.162  25.120  1.00  0.00     0.124 S 
ATOM     81  O   UNL A   1      53.896  23.713  25.013  1.00  0.00    -0.237 OA
ATOM     82  O   UNL A   1      54.161  25.885  23.863  1.00  0.00    -0.237 OA
ATOM     83  O   UNL A   1      54.819  25.658  26.226  1.00  0.00    -0.744 OA
ENDBRANCH  79  80
ENDBRANCH  47  72
BRANCH  59  84
ATOM     84  C   UNL A   1      46.942  32.423  28.432  1.00  0.00     0.058 A 
ATOM     85  C   UNL A   1      47.474  32.762  29.686  1.00  0.00     0.135 A 
ATOM     86  C   UNL A   1      47.027  33.374  27.404  1.00  0.00     0.135 A 
ATOM     87  F   UNL A   1      47.411  31.890  30.705  1.00  0.00    -0.206 F 
ATOM     88  C   UNL A   1      48.055  34.005  29.915  1.00  0.00     0.059 A 
ATOM     89  C   UNL A   1      47.625  34.615  27.603  1.00  0.00     0.059 A 
ATOM     90  F   UNL A   1      46.541  33.096  26.183  1.00  0.00    -0.206 F 
ATOM     91  C   UNL A   1      48.127  34.925  28.866  1.00  0.00     0.060 A 
BRANCH  91  92
ATOM     92  S   UNL A   1      48.918  36.520  29.164  1.00  0.00     0.124 S 
ATOM     93  O   UNL A   1      49.209  36.441  30.592  1.00  0.00    -0.237 OA
ATOM     94  O   UNL A   1      50.077  36.467  28.277  1.00  0.00    -0.237 OA
ATOM     95  O   UNL A   1      47.891  37.485  28.784  1.00  0.00    -0.744 OA
ENDBRANCH  91  92
ENDBRANCH  59  84
ENDBRANCH  33  34
ENDBRANCH  25  28
ENDBRANCH  23  24
ENDBRANCH   1  23
TORSDOF 17
ENDMDL
