MODEL 1
REMARK VINA RESULT:     -11.2      0.000      0.000
REMARK SMILES COC(=O)c1c(NC(=O)/C=C/C(=O)NCCCCNC(=O)c2ccc(-c3c4nc(c(-c5c(F)cc(S(=O)(=O)[O-])cc5F)c5ccc([nH]5)c(-c5c(F)cc(S(=O)(=O)[O-])cc5F)c5nc(c(-c6c(F)cc(S(=O)(=O)[O-])cc6F)c6ccc3[nH]6)C=C5)C=C4)cc2)sc(C)c1C
REMARK SMILES IDX 16 1 15 2 14 3 12 4 13 5 11 7 10 8 8 9 7 10 9 12 6 13 5 14
REMARK SMILES IDX 91 15 88 16 89 17 92 18 90 19 3 20 4 21 2 22 1 23 17 24
REMARK SMILES IDX 18 25 19 26 20 27 21 29 22 30 23 31 87 32 24 33 86 34 25 35
REMARK SMILES IDX 26 36 27 37 80 38 28 39 85 40 79 41 81 42 29 43 84 44 78 45
REMARK SMILES IDX 77 46 30 48 64 49 43 50 63 51 44 52 47 53 62 54 82 55 45 56
REMARK SMILES IDX 46 57 61 59 83 60 48 61 31 62 32 63 41 64 33 65 34 66 40 67
REMARK SMILES IDX 42 68 35 69 36 70 37 71 38 72 39 73 65 74 66 75 75 76 67 77
REMARK SMILES IDX 68 78 74 79 76 80 69 81 70 82 71 83 72 84 73 85 49 86 50 87
REMARK SMILES IDX 59 88 51 89 52 90 58 91 60 92 53 93 54 94 55 95 56 96 57 97
REMARK H PARENT 14 6 7 11 19 28 81 47 47 58
REMARK Flexibility Score: inf
ROOT
ATOM      1  C   UNL A   1      33.046  27.933  23.927  1.00  0.00     0.023 C 
ENDROOT
BRANCH   1   2
ATOM      2  C   UNL A   1      32.554  26.539  23.537  1.00  0.00     0.116 C 
BRANCH   2   3
ATOM      3  N   UNL A   1      31.113  26.490  23.386  1.00  0.00    -0.353 N 
ATOM      4  C   UNL A   1      30.131  26.119  24.244  1.00  0.00     0.244 C 
ATOM      5  O   UNL A   1      28.971  26.458  24.011  1.00  0.00    -0.270 OA
ATOM      6  H   UNL A   1      30.789  26.780  22.502  1.00  0.00     0.163 HD
BRANCH   4   7
ATOM      7  C   UNL A   1      30.381  25.306  25.457  1.00  0.00     0.077 C 
ATOM      8  C   UNL A   1      30.778  24.029  25.453  1.00  0.00     0.077 C 
BRANCH   8   9
ATOM      9  C   UNL A   1      30.759  23.204  26.672  1.00  0.00     0.249 C 
ATOM     10  N   UNL A   1      31.764  22.323  26.942  1.00  0.00    -0.313 N 
ATOM     11  H   UNL A   1      31.629  21.781  27.751  1.00  0.00     0.171 HD
ATOM     12  O   UNL A   1      29.812  23.323  27.449  1.00  0.00    -0.270 OA
BRANCH  10  13
ATOM     13  C   UNL A   1      32.937  22.069  26.266  1.00  0.00     0.110 A 
ATOM     14  C   UNL A   1      33.448  21.086  25.436  1.00  0.00     0.098 A 
ATOM     15  C   UNL A   1      34.903  21.175  25.416  1.00  0.00    -0.021 A 
ATOM     16  S   UNL A   1      34.055  23.331  26.517  1.00  0.00    -0.122 S 
ATOM     17  C   UNL A   1      35.336  22.414  25.866  1.00  0.00     0.007 A 
ATOM     18  C   UNL A   1      35.803  20.085  24.916  1.00  0.00     0.046 C 
ATOM     19  C   UNL A   1      36.717  22.984  25.851  1.00  0.00     0.057 C 
BRANCH  14  20
ATOM     20  C   UNL A   1      32.676  20.085  24.696  1.00  0.00     0.341 C 
ATOM     21  O   UNL A   1      32.363  20.203  23.519  1.00  0.00    -0.246 OA
BRANCH  20  22
ATOM     22  O   UNL A   1      32.275  19.050  25.492  1.00  0.00    -0.465 OA
ATOM     23  C   UNL A   1      32.646  17.732  25.076  1.00  0.00     0.282 C 
ENDBRANCH  20  22
ENDBRANCH  14  20
ENDBRANCH  10  13
ENDBRANCH   8   9
ENDBRANCH   4   7
ENDBRANCH   2   3
ENDBRANCH   1   2
BRANCH   1  24
ATOM     24  C   UNL A   1      32.835  28.318  25.393  1.00  0.00     0.023 C 
BRANCH  24  25
ATOM     25  C   UNL A   1      34.044  28.936  26.080  1.00  0.00     0.116 C 
BRANCH  25  26
ATOM     26  N   UNL A   1      33.801  30.282  26.580  1.00  0.00    -0.352 N 
ATOM     27  C   UNL A   1      34.530  30.996  27.499  1.00  0.00     0.251 C 
ATOM     28  H   UNL A   1      33.011  30.740  26.211  1.00  0.00     0.163 HD
ATOM     29  O   UNL A   1      34.147  32.099  27.875  1.00  0.00    -0.269 OA
BRANCH  27  30
ATOM     30  C   UNL A   1      35.750  30.389  28.060  1.00  0.00     0.039 A 
ATOM     31  C   UNL A   1      36.972  30.632  27.432  1.00  0.00     0.014 A 
ATOM     32  C   UNL A   1      35.689  29.647  29.243  1.00  0.00     0.014 A 
ATOM     33  C   UNL A   1      38.149  30.184  28.030  1.00  0.00     0.010 A 
ATOM     34  C   UNL A   1      36.865  29.277  29.879  1.00  0.00     0.010 A 
ATOM     35  C   UNL A   1      38.105  29.535  29.276  1.00  0.00    -0.014 A 
BRANCH  35  36
ATOM     36  C   UNL A   1      39.347  29.107  29.960  1.00  0.00     0.031 A 
ATOM     37  C   UNL A   1      39.804  29.830  31.195  1.00  0.00     0.074 A 
ATOM     38  C   UNL A   1      40.099  28.128  29.423  1.00  0.00     0.049 A 
ATOM     39  N   UNL A   1      40.889  29.653  31.903  1.00  0.00    -0.248 NA
ATOM     40  C   UNL A   1      38.946  30.925  31.675  1.00  0.00     0.031 C 
ATOM     41  C   UNL A   1      39.792  27.410  28.184  1.00  0.00     0.029 A 
ATOM     42  N   UNL A   1      41.283  27.578  29.841  1.00  0.00    -0.354 N 
ATOM     43  C   UNL A   1      40.854  30.627  32.894  1.00  0.00     0.074 A 
ATOM     44  C   UNL A   1      39.676  31.430  32.657  1.00  0.00     0.031 C 
ATOM     45  C   UNL A   1      40.754  26.503  27.951  1.00  0.00     0.029 A 
ATOM     46  C   UNL A   1      41.759  26.595  29.007  1.00  0.00     0.049 A 
ATOM     47  H   UNL A   1      41.749  27.861  30.660  1.00  0.00     0.167 HD
ATOM     48  C   UNL A   1      41.712  30.815  33.924  1.00  0.00     0.037 A 
ATOM     49  C   UNL A   1      42.880  25.852  29.084  1.00  0.00     0.037 A 
ATOM     50  C   UNL A   1      42.866  29.991  34.161  1.00  0.00     0.049 A 
ATOM     51  C   UNL A   1      43.799  26.045  30.258  1.00  0.00     0.074 A 
ATOM     52  C   UNL A   1      43.760  30.039  35.215  1.00  0.00     0.029 A 
ATOM     53  N   UNL A   1      43.289  28.966  33.323  1.00  0.00    -0.354 N 
ATOM     54  N   UNL A   1      43.707  26.910  31.240  1.00  0.00    -0.248 NA
ATOM     55  C   UNL A   1      44.964  25.155  30.344  1.00  0.00     0.031 C 
ATOM     56  C   UNL A   1      44.747  29.071  34.993  1.00  0.00     0.029 A 
ATOM     57  C   UNL A   1      44.443  28.388  33.826  1.00  0.00     0.049 A 
ATOM     58  H   UNL A   1      42.836  28.692  32.495  1.00  0.00     0.167 HD
ATOM     59  C   UNL A   1      44.792  26.660  32.071  1.00  0.00     0.074 A 
ATOM     60  C   UNL A   1      45.519  25.552  31.481  1.00  0.00     0.031 C 
ATOM     61  C   UNL A   1      45.154  27.289  33.218  1.00  0.00     0.037 A 
BRANCH  48  62
ATOM     62  C   UNL A   1      41.423  31.962  34.855  1.00  0.00     0.058 A 
ATOM     63  C   UNL A   1      40.536  31.830  35.937  1.00  0.00     0.135 A 
ATOM     64  C   UNL A   1      42.010  33.219  34.644  1.00  0.00     0.135 A 
ATOM     65  F   UNL A   1      39.934  30.653  36.178  1.00  0.00    -0.206 F 
ATOM     66  C   UNL A   1      40.197  32.914  36.738  1.00  0.00     0.059 A 
ATOM     67  C   UNL A   1      41.711  34.312  35.453  1.00  0.00     0.059 A 
ATOM     68  F   UNL A   1      42.868  33.404  33.628  1.00  0.00    -0.206 F 
ATOM     69  C   UNL A   1      40.780  34.155  36.481  1.00  0.00     0.060 A 
BRANCH  69  70
ATOM     70  S   UNL A   1      40.295  35.566  37.496  1.00  0.00     0.124 S 
ATOM     71  O   UNL A   1      41.516  35.808  38.258  1.00  0.00    -0.237 OA
ATOM     72  O   UNL A   1      39.963  36.575  36.495  1.00  0.00    -0.237 OA
ATOM     73  O   UNL A   1      39.164  35.057  38.266  1.00  0.00    -0.744 OA
ENDBRANCH  69  70
ENDBRANCH  48  62
BRANCH  49  74
ATOM     74  C   UNL A   1      43.155  24.840  28.033  1.00  0.00     0.058 A 
ATOM     75  C   UNL A   1      43.853  25.182  26.865  1.00  0.00     0.135 A 
ATOM     76  C   UNL A   1      42.800  23.493  28.211  1.00  0.00     0.135 A 
ATOM     77  F   UNL A   1      44.211  26.457  26.649  1.00  0.00    -0.206 F 
ATOM     78  C   UNL A   1      44.197  24.225  25.915  1.00  0.00     0.059 A 
ATOM     79  C   UNL A   1      43.150  22.515  27.285  1.00  0.00     0.059 A 
ATOM     80  F   UNL A   1      42.148  23.111  29.320  1.00  0.00    -0.206 F 
ATOM     81  C   UNL A   1      43.851  22.892  26.139  1.00  0.00     0.060 A 
BRANCH  81  82
ATOM     82  S   UNL A   1      44.395  21.644  24.952  1.00  0.00     0.124 S 
ATOM     83  O   UNL A   1      44.219  22.346  23.685  1.00  0.00    -0.237 OA
ATOM     84  O   UNL A   1      45.775  21.410  25.366  1.00  0.00    -0.237 OA
ATOM     85  O   UNL A   1      43.481  20.531  25.191  1.00  0.00    -0.744 OA
ENDBRANCH  81  82
ENDBRANCH  49  74
BRANCH  61  86
ATOM     86  C   UNL A   1      46.384  26.786  33.920  1.00  0.00     0.058 A 
ATOM     87  C   UNL A   1      46.320  25.746  34.859  1.00  0.00     0.135 A 
ATOM     88  C   UNL A   1      47.647  27.312  33.605  1.00  0.00     0.135 A 
ATOM     89  F   UNL A   1      45.136  25.215  35.200  1.00  0.00    -0.206 F 
ATOM     90  C   UNL A   1      47.466  25.255  35.476  1.00  0.00     0.059 A 
ATOM     91  C   UNL A   1      48.808  26.818  34.190  1.00  0.00     0.059 A 
ATOM     92  F   UNL A   1      47.763  28.301  32.704  1.00  0.00    -0.206 F 
ATOM     93  C   UNL A   1      48.707  25.797  35.133  1.00  0.00     0.060 A 
BRANCH  93  94
ATOM     94  S   UNL A   1      50.190  25.125  35.912  1.00  0.00     0.124 S 
ATOM     95  O   UNL A   1      50.110  25.709  37.247  1.00  0.00    -0.237 OA
ATOM     96  O   UNL A   1      49.962  23.686  35.833  1.00  0.00    -0.237 OA
ATOM     97  O   UNL A   1      51.272  25.628  35.070  1.00  0.00    -0.744 OA
ENDBRANCH  93  94
ENDBRANCH  61  86
ENDBRANCH  35  36
ENDBRANCH  27  30
ENDBRANCH  25  26
ENDBRANCH  24  25
ENDBRANCH   1  24
TORSDOF 18
ENDMDL
MODEL 2
REMARK VINA RESULT:     -11.0      3.176      9.402
REMARK SMILES COC(=O)c1c(NC(=O)/C=C/C(=O)NCCCCNC(=O)c2ccc(-c3c4nc(c(-c5c(F)cc(S(=O)(=O)[O-])cc5F)c5ccc([nH]5)c(-c5c(F)cc(S(=O)(=O)[O-])cc5F)c5nc(c(-c6c(F)cc(S(=O)(=O)[O-])cc6F)c6ccc3[nH]6)C=C5)C=C4)cc2)sc(C)c1C
REMARK SMILES IDX 16 1 15 2 14 3 12 4 13 5 11 7 10 8 8 9 7 10 9 12 6 13 5 14
REMARK SMILES IDX 91 15 88 16 89 17 92 18 90 19 3 20 4 21 2 22 1 23 17 24
REMARK SMILES IDX 18 25 19 26 20 27 21 29 22 30 23 31 87 32 24 33 86 34 25 35
REMARK SMILES IDX 26 36 27 37 80 38 28 39 85 40 79 41 81 42 29 43 84 44 78 45
REMARK SMILES IDX 77 46 30 48 64 49 43 50 63 51 44 52 47 53 62 54 82 55 45 56
REMARK SMILES IDX 46 57 61 59 83 60 48 61 31 62 32 63 41 64 33 65 34 66 40 67
REMARK SMILES IDX 42 68 35 69 36 70 37 71 38 72 39 73 65 74 66 75 75 76 67 77
REMARK SMILES IDX 68 78 74 79 76 80 69 81 70 82 71 83 72 84 73 85 49 86 50 87
REMARK SMILES IDX 59 88 51 89 52 90 58 91 60 92 53 93 54 94 55 95 56 96 57 97
REMARK H PARENT 14 6 7 11 19 28 81 47 47 58
REMARK Flexibility Score: inf
ROOT
ATOM      1  C   UNL A   1      35.135  23.699  23.564  1.00  0.00     0.023 C 
ENDROOT
BRANCH   1   2
ATOM      2  C   UNL A   1      33.644  23.421  23.370  1.00  0.00     0.116 C 
BRANCH   2   3
ATOM      3  N   UNL A   1      33.332  22.011  23.490  1.00  0.00    -0.353 N 
ATOM      4  C   UNL A   1      32.398  21.355  24.222  1.00  0.00     0.244 C 
ATOM      5  O   UNL A   1      32.109  20.197  23.927  1.00  0.00    -0.270 OA
ATOM      6  H   UNL A   1      33.899  21.423  22.940  1.00  0.00     0.163 HD
BRANCH   4   7
ATOM      7  C   UNL A   1      31.706  21.964  25.381  1.00  0.00     0.077 C 
ATOM      8  C   UNL A   1      30.955  23.070  25.329  1.00  0.00     0.077 C 
BRANCH   8   9
ATOM      9  C   UNL A   1      30.511  23.768  26.547  1.00  0.00     0.249 C 
ATOM     10  N   UNL A   1      30.516  25.130  26.620  1.00  0.00    -0.313 N 
ATOM     11  H   UNL A   1      30.255  25.496  27.494  1.00  0.00     0.171 HD
ATOM     12  O   UNL A   1      30.134  23.096  27.506  1.00  0.00    -0.270 OA
BRANCH  10  13
ATOM     13  C   UNL A   1      30.828  26.076  25.668  1.00  0.00     0.110 A 
ATOM     14  C   UNL A   1      31.844  26.981  25.419  1.00  0.00     0.098 A 
ATOM     15  C   UNL A   1      31.368  28.006  24.497  1.00  0.00    -0.021 A 
ATOM     16  S   UNL A   1      29.628  26.122  24.458  1.00  0.00    -0.122 S 
ATOM     17  C   UNL A   1      30.231  27.584  23.823  1.00  0.00     0.007 A 
ATOM     18  C   UNL A   1      32.058  29.317  24.272  1.00  0.00     0.046 C 
ATOM     19  C   UNL A   1      29.523  28.240  22.683  1.00  0.00     0.057 C 
BRANCH  14  20
ATOM     20  C   UNL A   1      33.192  26.955  25.993  1.00  0.00     0.341 C 
ATOM     21  O   UNL A   1      34.099  26.255  25.563  1.00  0.00    -0.246 OA
BRANCH  20  22
ATOM     22  O   UNL A   1      33.293  27.735  27.110  1.00  0.00    -0.465 OA
ATOM     23  C   UNL A   1      34.266  28.784  27.082  1.00  0.00     0.282 C 
ENDBRANCH  20  22
ENDBRANCH  14  20
ENDBRANCH  10  13
ENDBRANCH   8   9
ENDBRANCH   4   7
ENDBRANCH   2   3
ENDBRANCH   1   2
BRANCH   1  24
ATOM     24  C   UNL A   1      35.741  23.160  24.862  1.00  0.00     0.023 C 
BRANCH  24  25
ATOM     25  C   UNL A   1      37.047  23.815  25.288  1.00  0.00     0.116 C 
BRANCH  25  26
ATOM     26  N   UNL A   1      38.134  22.865  25.480  1.00  0.00    -0.352 N 
ATOM     27  C   UNL A   1      39.314  23.044  26.160  1.00  0.00     0.251 C 
ATOM     28  H   UNL A   1      38.007  21.979  25.069  1.00  0.00     0.163 HD
ATOM     29  O   UNL A   1      40.168  22.164  26.167  1.00  0.00    -0.269 OA
BRANCH  27  30
ATOM     30  C   UNL A   1      39.551  24.332  26.838  1.00  0.00     0.039 A 
ATOM     31  C   UNL A   1      39.111  24.491  28.152  1.00  0.00     0.014 A 
ATOM     32  C   UNL A   1      40.272  25.343  26.197  1.00  0.00     0.014 A 
ATOM     33  C   UNL A   1      39.453  25.647  28.852  1.00  0.00     0.010 A 
ATOM     34  C   UNL A   1      40.682  26.453  26.921  1.00  0.00     0.010 A 
ATOM     35  C   UNL A   1      40.272  26.619  28.252  1.00  0.00    -0.014 A 
BRANCH  35  36
ATOM     36  C   UNL A   1      40.700  27.826  28.998  1.00  0.00     0.031 A 
ATOM     37  C   UNL A   1      42.055  27.857  29.647  1.00  0.00     0.074 A 
ATOM     38  C   UNL A   1      39.841  28.850  29.156  1.00  0.00     0.049 A 
ATOM     39  N   UNL A   1      42.592  28.787  30.393  1.00  0.00    -0.248 NA
ATOM     40  C   UNL A   1      42.902  26.668  29.466  1.00  0.00     0.031 C 
ATOM     41  C   UNL A   1      38.472  28.893  28.635  1.00  0.00     0.029 A 
ATOM     42  N   UNL A   1      39.984  30.044  29.814  1.00  0.00    -0.354 N 
ATOM     43  C   UNL A   1      43.826  28.285  30.788  1.00  0.00     0.074 A 
ATOM     44  C   UNL A   1      43.929  26.947  30.253  1.00  0.00     0.031 C 
ATOM     45  C   UNL A   1      37.908  30.062  28.980  1.00  0.00     0.029 A 
ATOM     46  C   UNL A   1      38.863  30.837  29.769  1.00  0.00     0.049 A 
ATOM     47  H   UNL A   1      40.812  30.308  30.277  1.00  0.00     0.167 HD
ATOM     48  C   UNL A   1      44.796  28.897  31.508  1.00  0.00     0.037 A 
ATOM     49  C   UNL A   1      38.629  32.051  30.304  1.00  0.00     0.037 A 
ATOM     50  C   UNL A   1      44.688  30.240  32.011  1.00  0.00     0.049 A 
ATOM     51  C   UNL A   1      39.732  32.733  31.063  1.00  0.00     0.074 A 
ATOM     52  C   UNL A   1      45.637  30.988  32.684  1.00  0.00     0.029 A 
ATOM     53  N   UNL A   1      43.554  31.035  31.899  1.00  0.00    -0.354 N 
ATOM     54  N   UNL A   1      40.930  32.284  31.353  1.00  0.00    -0.248 NA
ATOM     55  C   UNL A   1      39.460  34.089  31.555  1.00  0.00     0.031 C 
ATOM     56  C   UNL A   1      45.062  32.222  33.015  1.00  0.00     0.029 A 
ATOM     57  C   UNL A   1      43.772  32.260  32.508  1.00  0.00     0.049 A 
ATOM     58  H   UNL A   1      42.720  30.768  31.453  1.00  0.00     0.167 HD
ATOM     59  C   UNL A   1      41.563  33.307  32.048  1.00  0.00     0.074 A 
ATOM     60  C   UNL A   1      40.618  34.404  32.122  1.00  0.00     0.031 C 
ATOM     61  C   UNL A   1      42.813  33.337  32.576  1.00  0.00     0.037 A 
BRANCH  48  62
ATOM     62  C   UNL A   1      46.044  28.104  31.788  1.00  0.00     0.058 A 
ATOM     63  C   UNL A   1      47.093  28.023  30.856  1.00  0.00     0.135 A 
ATOM     64  C   UNL A   1      46.181  27.387  32.987  1.00  0.00     0.135 A 
ATOM     65  F   UNL A   1      47.010  28.677  29.686  1.00  0.00    -0.206 F 
ATOM     66  C   UNL A   1      48.201  27.213  31.076  1.00  0.00     0.059 A 
ATOM     67  C   UNL A   1      47.297  26.595  33.243  1.00  0.00     0.059 A 
ATOM     68  F   UNL A   1      45.212  27.429  33.916  1.00  0.00    -0.206 F 
ATOM     69  C   UNL A   1      48.289  26.493  32.268  1.00  0.00     0.060 A 
BRANCH  69  70
ATOM     70  S   UNL A   1      49.709  25.408  32.520  1.00  0.00     0.124 S 
ATOM     71  O   UNL A   1      50.668  26.323  33.131  1.00  0.00    -0.237 OA
ATOM     72  O   UNL A   1      49.167  24.380  33.401  1.00  0.00    -0.237 OA
ATOM     73  O   UNL A   1      50.039  24.962  31.170  1.00  0.00    -0.744 OA
ENDBRANCH  69  70
ENDBRANCH  48  62
BRANCH  49  74
ATOM     74  C   UNL A   1      37.307  32.695  30.095  1.00  0.00     0.058 A 
ATOM     75  C   UNL A   1      36.245  32.468  30.983  1.00  0.00     0.135 A 
ATOM     76  C   UNL A   1      37.104  33.615  29.054  1.00  0.00     0.135 A 
ATOM     77  F   UNL A   1      36.390  31.595  31.991  1.00  0.00    -0.206 F 
ATOM     78  C   UNL A   1      35.030  33.135  30.851  1.00  0.00     0.059 A 
ATOM     79  C   UNL A   1      35.906  34.309  28.914  1.00  0.00     0.059 A 
ATOM     80  F   UNL A   1      38.096  33.881  28.190  1.00  0.00    -0.206 F 
ATOM     81  C   UNL A   1      34.874  34.062  29.820  1.00  0.00     0.060 A 
BRANCH  81  82
ATOM     82  S   UNL A   1      33.333  35.000  29.724  1.00  0.00     0.124 S 
ATOM     83  O   UNL A   1      32.894  34.988  31.115  1.00  0.00    -0.237 OA
ATOM     84  O   UNL A   1      33.790  36.287  29.210  1.00  0.00    -0.237 OA
ATOM     85  O   UNL A   1      32.522  34.217  28.797  1.00  0.00    -0.744 OA
ENDBRANCH  81  82
ENDBRANCH  49  74
BRANCH  61  86
ATOM     86  C   UNL A   1      43.238  34.600  33.269  1.00  0.00     0.058 A 
ATOM     87  C   UNL A   1      43.757  35.691  32.556  1.00  0.00     0.135 A 
ATOM     88  C   UNL A   1      43.066  34.742  34.656  1.00  0.00     0.135 A 
ATOM     89  F   UNL A   1      43.947  35.603  31.231  1.00  0.00    -0.206 F 
ATOM     90  C   UNL A   1      44.110  36.874  33.197  1.00  0.00     0.059 A 
ATOM     91  C   UNL A   1      43.387  35.925  35.313  1.00  0.00     0.059 A 
ATOM     92  F   UNL A   1      42.563  33.731  35.382  1.00  0.00    -0.206 F 
ATOM     93  C   UNL A   1      43.919  36.982  34.576  1.00  0.00     0.060 A 
BRANCH  93  94
ATOM     94  S   UNL A   1      44.344  38.536  35.390  1.00  0.00     0.124 S 
ATOM     95  O   UNL A   1      45.794  38.564  35.228  1.00  0.00    -0.237 OA
ATOM     96  O   UNL A   1      43.599  39.516  34.605  1.00  0.00    -0.237 OA
ATOM     97  O   UNL A   1      43.867  38.345  36.756  1.00  0.00    -0.744 OA
ENDBRANCH  93  94
ENDBRANCH  61  86
ENDBRANCH  35  36
ENDBRANCH  27  30
ENDBRANCH  25  26
ENDBRANCH  24  25
ENDBRANCH   1  24
TORSDOF 18
ENDMDL
MODEL 3
REMARK VINA RESULT:     -10.9      5.024      6.405
REMARK SMILES COC(=O)c1c(NC(=O)/C=C/C(=O)NCCCCNC(=O)c2ccc(-c3c4nc(c(-c5c(F)cc(S(=O)(=O)[O-])cc5F)c5ccc([nH]5)c(-c5c(F)cc(S(=O)(=O)[O-])cc5F)c5nc(c(-c6c(F)cc(S(=O)(=O)[O-])cc6F)c6ccc3[nH]6)C=C5)C=C4)cc2)sc(C)c1C
REMARK SMILES IDX 16 1 15 2 14 3 12 4 13 5 11 7 10 8 8 9 7 10 9 12 6 13 5 14
REMARK SMILES IDX 91 15 88 16 89 17 92 18 90 19 3 20 4 21 2 22 1 23 17 24
REMARK SMILES IDX 18 25 19 26 20 27 21 29 22 30 23 31 87 32 24 33 86 34 25 35
REMARK SMILES IDX 26 36 27 37 80 38 28 39 85 40 79 41 81 42 29 43 84 44 78 45
REMARK SMILES IDX 77 46 30 48 64 49 43 50 63 51 44 52 47 53 62 54 82 55 45 56
REMARK SMILES IDX 46 57 61 59 83 60 48 61 31 62 32 63 41 64 33 65 34 66 40 67
REMARK SMILES IDX 42 68 35 69 36 70 37 71 38 72 39 73 65 74 66 75 75 76 67 77
REMARK SMILES IDX 68 78 74 79 76 80 69 81 70 82 71 83 72 84 73 85 49 86 50 87
REMARK SMILES IDX 59 88 51 89 52 90 58 91 60 92 53 93 54 94 55 95 56 96 57 97
REMARK H PARENT 14 6 7 11 19 28 81 47 47 58
REMARK Flexibility Score: inf
ROOT
ATOM      1  C   UNL A   1      32.925  29.958  26.750  1.00  0.00     0.023 C 
ENDROOT
BRANCH   1   2
ATOM      2  C   UNL A   1      32.516  29.486  25.355  1.00  0.00     0.116 C 
BRANCH   2   3
ATOM      3  N   UNL A   1      33.657  29.331  24.474  1.00  0.00    -0.353 N 
ATOM      4  C   UNL A   1      33.809  28.652  23.310  1.00  0.00     0.244 C 
ATOM      5  O   UNL A   1      34.763  28.919  22.580  1.00  0.00    -0.270 OA
ATOM      6  H   UNL A   1      34.467  29.804  24.774  1.00  0.00     0.163 HD
BRANCH   4   7
ATOM      7  C   UNL A   1      32.883  27.583  22.870  1.00  0.00     0.077 C 
ATOM      8  C   UNL A   1      33.212  26.574  22.056  1.00  0.00     0.077 C 
BRANCH   8   9
ATOM      9  C   UNL A   1      32.194  25.698  21.452  1.00  0.00     0.249 C 
ATOM     10  N   UNL A   1      31.740  24.591  22.105  1.00  0.00    -0.313 N 
ATOM     11  H   UNL A   1      31.104  24.044  21.593  1.00  0.00     0.171 HD
ATOM     12  O   UNL A   1      31.759  25.984  20.337  1.00  0.00    -0.270 OA
BRANCH  10  13
ATOM     13  C   UNL A   1      32.027  24.115  23.365  1.00  0.00     0.110 A 
ATOM     14  C   UNL A   1      33.109  23.562  24.028  1.00  0.00     0.098 A 
ATOM     15  C   UNL A   1      32.641  22.855  25.216  1.00  0.00    -0.021 A 
ATOM     16  S   UNL A   1      30.670  24.272  24.385  1.00  0.00    -0.122 S 
ATOM     17  C   UNL A   1      31.365  23.266  25.573  1.00  0.00     0.007 A 
ATOM     18  C   UNL A   1      33.464  21.860  25.978  1.00  0.00     0.046 C 
ATOM     19  C   UNL A   1      30.585  22.930  26.802  1.00  0.00     0.057 C 
BRANCH  14  20
ATOM     20  C   UNL A   1      34.513  23.637  23.618  1.00  0.00     0.341 C 
ATOM     21  O   UNL A   1      34.974  23.031  22.660  1.00  0.00    -0.246 OA
BRANCH  20  22
ATOM     22  O   UNL A   1      35.261  24.392  24.476  1.00  0.00    -0.465 OA
ATOM     23  C   UNL A   1      36.421  23.771  25.041  1.00  0.00     0.282 C 
ENDBRANCH  20  22
ENDBRANCH  14  20
ENDBRANCH  10  13
ENDBRANCH   8   9
ENDBRANCH   4   7
ENDBRANCH   2   3
ENDBRANCH   1   2
BRANCH   1  24
ATOM     24  C   UNL A   1      34.018  29.130  27.430  1.00  0.00     0.023 C 
BRANCH  24  25
ATOM     25  C   UNL A   1      35.310  29.879  27.722  1.00  0.00     0.116 C 
BRANCH  25  26
ATOM     26  N   UNL A   1      35.345  30.477  29.050  1.00  0.00    -0.352 N 
ATOM     27  C   UNL A   1      36.383  30.502  29.948  1.00  0.00     0.251 C 
ATOM     28  H   UNL A   1      34.515  30.921  29.341  1.00  0.00     0.163 HD
ATOM     29  O   UNL A   1      36.228  30.983  31.065  1.00  0.00    -0.269 OA
BRANCH  27  30
ATOM     30  C   UNL A   1      37.669  29.894  29.561  1.00  0.00     0.039 A 
ATOM     31  C   UNL A   1      38.044  29.914  28.217  1.00  0.00     0.014 A 
ATOM     32  C   UNL A   1      38.527  29.378  30.536  1.00  0.00     0.014 A 
ATOM     33  C   UNL A   1      39.316  29.473  27.856  1.00  0.00     0.010 A 
ATOM     34  C   UNL A   1      39.821  29.020  30.186  1.00  0.00     0.010 A 
ATOM     35  C   UNL A   1      40.225  29.057  28.843  1.00  0.00    -0.014 A 
BRANCH  35  36
ATOM     36  C   UNL A   1      41.604  28.644  28.490  1.00  0.00     0.031 A 
ATOM     37  C   UNL A   1      42.695  29.674  28.424  1.00  0.00     0.074 A 
ATOM     38  C   UNL A   1      41.848  27.364  28.152  1.00  0.00     0.049 A 
ATOM     39  N   UNL A   1      43.947  29.530  28.074  1.00  0.00    -0.248 NA
ATOM     40  C   UNL A   1      42.319  31.058  28.755  1.00  0.00     0.031 C 
ATOM     41  C   UNL A   1      40.848  26.296  28.105  1.00  0.00     0.029 A 
ATOM     42  N   UNL A   1      43.011  26.748  27.767  1.00  0.00    -0.354 N 
ATOM     43  C   UNL A   1      44.499  30.805  28.122  1.00  0.00     0.074 A 
ATOM     44  C   UNL A   1      43.432  31.715  28.471  1.00  0.00     0.031 C 
ATOM     45  C   UNL A   1      41.443  25.152  27.730  1.00  0.00     0.029 A 
ATOM     46  C   UNL A   1      42.859  25.412  27.482  1.00  0.00     0.049 A 
ATOM     47  H   UNL A   1      43.873  27.218  27.699  1.00  0.00     0.167 HD
ATOM     48  C   UNL A   1      45.785  31.177  27.921  1.00  0.00     0.037 A 
ATOM     49  C   UNL A   1      43.759  24.500  27.067  1.00  0.00     0.037 A 
ATOM     50  C   UNL A   1      46.841  30.254  27.601  1.00  0.00     0.049 A 
ATOM     51  C   UNL A   1      45.190  24.921  26.891  1.00  0.00     0.074 A 
ATOM     52  C   UNL A   1      48.193  30.507  27.453  1.00  0.00     0.029 A 
ATOM     53  N   UNL A   1      46.659  28.896  27.373  1.00  0.00    -0.354 N 
ATOM     54  N   UNL A   1      45.719  26.114  27.028  1.00  0.00    -0.248 NA
ATOM     55  C   UNL A   1      46.150  23.874  26.519  1.00  0.00     0.031 C 
ATOM     56  C   UNL A   1      48.822  29.308  27.095  1.00  0.00     0.029 A 
ATOM     57  C   UNL A   1      47.871  28.300  27.065  1.00  0.00     0.049 A 
ATOM     58  H   UNL A   1      45.797  28.426  27.422  1.00  0.00     0.167 HD
ATOM     59  C   UNL A   1      47.076  25.961  26.774  1.00  0.00     0.074 A 
ATOM     60  C   UNL A   1      47.289  24.555  26.490  1.00  0.00     0.031 C 
ATOM     61  C   UNL A   1      48.058  26.898  26.778  1.00  0.00     0.037 A 
BRANCH  48  62
ATOM     62  C   UNL A   1      46.100  32.643  28.040  1.00  0.00     0.058 A 
ATOM     63  C   UNL A   1      46.540  33.210  29.249  1.00  0.00     0.135 A 
ATOM     64  C   UNL A   1      45.928  33.503  26.943  1.00  0.00     0.135 A 
ATOM     65  F   UNL A   1      46.709  32.438  30.335  1.00  0.00    -0.206 F 
ATOM     66  C   UNL A   1      46.738  34.579  29.383  1.00  0.00     0.059 A 
ATOM     67  C   UNL A   1      46.152  34.873  27.045  1.00  0.00     0.059 A 
ATOM     68  F   UNL A   1      45.513  33.018  25.762  1.00  0.00    -0.206 F 
ATOM     69  C   UNL A   1      46.530  35.405  28.278  1.00  0.00     0.060 A 
BRANCH  69  70
ATOM     70  S   UNL A   1      46.743  37.186  28.477  1.00  0.00     0.124 S 
ATOM     71  O   UNL A   1      48.188  37.287  28.652  1.00  0.00    -0.237 OA
ATOM     72  O   UNL A   1      46.221  37.708  27.219  1.00  0.00    -0.237 OA
ATOM     73  O   UNL A   1      45.944  37.493  29.659  1.00  0.00    -0.744 OA
ENDBRANCH  69  70
ENDBRANCH  48  62
BRANCH  49  74
ATOM     74  C   UNL A   1      43.320  23.100  26.834  1.00  0.00     0.058 A 
ATOM     75  C   UNL A   1      43.266  22.566  25.538  1.00  0.00     0.135 A 
ATOM     76  C   UNL A   1      43.026  22.243  27.907  1.00  0.00     0.135 A 
ATOM     77  F   UNL A   1      43.535  23.346  24.480  1.00  0.00    -0.206 F 
ATOM     78  C   UNL A   1      42.945  21.230  25.313  1.00  0.00     0.059 A 
ATOM     79  C   UNL A   1      42.722  20.900  27.709  1.00  0.00     0.059 A 
ATOM     80  F   UNL A   1      43.082  22.701  29.167  1.00  0.00    -0.206 F 
ATOM     81  C   UNL A   1      42.685  20.402  26.407  1.00  0.00     0.060 A 
BRANCH  81  82
ATOM     82  S   UNL A   1      42.375  18.647  26.109  1.00  0.00     0.124 S 
ATOM     83  O   UNL A   1      40.962  18.655  25.746  1.00  0.00    -0.237 OA
ATOM     84  O   UNL A   1      43.310  18.351  25.028  1.00  0.00    -0.237 OA
ATOM     85  O   UNL A   1      42.696  18.027  27.391  1.00  0.00    -0.744 OA
ENDBRANCH  81  82
ENDBRANCH  49  74
BRANCH  61  86
ATOM     86  C   UNL A   1      49.455  26.432  26.479  1.00  0.00     0.058 A 
ATOM     87  C   UNL A   1      50.000  26.523  25.189  1.00  0.00     0.135 A 
ATOM     88  C   UNL A   1      50.277  25.946  27.509  1.00  0.00     0.135 A 
ATOM     89  F   UNL A   1      49.253  26.974  24.170  1.00  0.00    -0.206 F 
ATOM     90  C   UNL A   1      51.308  26.131  24.926  1.00  0.00     0.059 A 
ATOM     91  C   UNL A   1      51.596  25.573  27.272  1.00  0.00     0.059 A 
ATOM     92  F   UNL A   1      49.807  25.850  28.762  1.00  0.00    -0.206 F 
ATOM     93  C   UNL A   1      52.099  25.658  25.976  1.00  0.00     0.060 A 
BRANCH  93  94
ATOM     94  S   UNL A   1      53.807  25.188  25.628  1.00  0.00     0.124 S 
ATOM     95  O   UNL A   1      54.022  25.806  24.324  1.00  0.00    -0.237 OA
ATOM     96  O   UNL A   1      54.532  25.791  26.743  1.00  0.00    -0.237 OA
ATOM     97  O   UNL A   1      53.764  23.729  25.634  1.00  0.00    -0.744 OA
ENDBRANCH  93  94
ENDBRANCH  61  86
ENDBRANCH  35  36
ENDBRANCH  27  30
ENDBRANCH  25  26
ENDBRANCH  24  25
ENDBRANCH   1  24
TORSDOF 18
ENDMDL
