MODEL 1
REMARK VINA RESULT:     -10.8      0.000      0.000
REMARK SMILES CCc1ccc(C(=O)[C@@H](Br)CC(=O)NCCCCNC(=O)c2ccc(-c3c4nc(c(-c5c(F)cc(S(=O)(=O)[O-])cc5F)c5ccc([nH]5)c(-c5c(F)cc(S(=O)(=O)[O-])cc5F)c5nc(c(-c6c(F)cc(S(=O)(=O)[O-])cc6F)c6ccc3[nH]6)C=C5)C=C4)cc2)cc1
REMARK SMILES IDX 16 1 15 2 14 3 12 4 13 5 11 7 9 8 10 9 7 10 8 11 6 12 3 13
REMARK SMILES IDX 4 14 89 15 5 16 88 17 2 18 1 19 17 20 18 21 19 22 20 23
REMARK SMILES IDX 21 25 22 26 23 27 87 28 24 29 86 30 25 31 26 32 27 33 80 34
REMARK SMILES IDX 28 35 85 36 79 37 81 38 29 39 84 40 78 41 77 42 30 44 64 45
REMARK SMILES IDX 43 46 63 47 44 48 47 49 62 50 82 51 45 52 46 53 61 55 83 56
REMARK SMILES IDX 48 57 31 58 32 59 41 60 33 61 34 62 40 63 42 64 35 65 36 66
REMARK SMILES IDX 37 67 38 68 39 69 65 70 66 71 75 72 67 73 68 74 74 75 76 76
REMARK SMILES IDX 69 77 70 78 71 79 72 80 73 81 49 82 50 83 59 84 51 85 52 86
REMARK SMILES IDX 58 87 60 88 53 89 54 90 55 91 56 92 57 93
REMARK H PARENT 14 6 19 24 81 43 47 54
REMARK Flexibility Score: inf
ROOT
ATOM      1  C   UNL A   1      32.592  29.169  24.842  1.00  0.00     0.023 C 
ENDROOT
BRANCH   1   2
ATOM      2  C   UNL A   1      31.934  28.278  23.791  1.00  0.00     0.116 C 
BRANCH   2   3
ATOM      3  N   UNL A   1      32.935  27.644  22.955  1.00  0.00    -0.356 N 
ATOM      4  C   UNL A   1      32.975  26.376  22.462  1.00  0.00     0.221 C 
ATOM      5  O   UNL A   1      33.975  26.002  21.849  1.00  0.00    -0.275 OA
ATOM      6  H   UNL A   1      33.699  28.214  22.709  1.00  0.00     0.163 HD
BRANCH   4   7
ATOM      7  C   UNL A   1      31.798  25.448  22.664  1.00  0.00     0.123 C 
BRANCH   7   8
ATOM      8  C   UNL A   1      32.185  24.255  23.524  1.00  0.00     0.138 C 
ATOM      9  Br  UNL A   1      33.064  24.856  25.181  1.00  0.00    -0.080 Br
BRANCH   8  10
ATOM     10  C   UNL A   1      33.116  23.191  22.945  1.00  0.00     0.176 C 
ATOM     11  O   UNL A   1      32.832  22.644  21.876  1.00  0.00    -0.293 OA
BRANCH  10  12
ATOM     12  C   UNL A   1      34.400  22.787  23.604  1.00  0.00     0.019 A 
ATOM     13  C   UNL A   1      36.774  21.736  24.728  1.00  0.00    -0.048 A 
ATOM     14  C   UNL A   1      35.532  21.174  25.038  1.00  0.00     0.004 A 
ATOM     15  C   UNL A   1      36.801  22.879  23.913  1.00  0.00     0.004 A 
ATOM     16  C   UNL A   1      34.359  21.697  24.487  1.00  0.00     0.012 A 
ATOM     17  C   UNL A   1      35.626  23.405  23.361  1.00  0.00     0.012 A 
BRANCH  13  18
ATOM     18  C   UNL A   1      38.068  21.200  25.295  1.00  0.00     0.032 C 
ATOM     19  C   UNL A   1      38.903  22.204  26.083  1.00  0.00     0.009 C 
ENDBRANCH  13  18
ENDBRANCH  10  12
ENDBRANCH   8  10
ENDBRANCH   7   8
ENDBRANCH   4   7
ENDBRANCH   2   3
ENDBRANCH   1   2
BRANCH   1  20
ATOM     20  C   UNL A   1      33.724  28.500  25.615  1.00  0.00     0.023 C 
BRANCH  20  21
ATOM     21  C   UNL A   1      33.614  28.611  27.133  1.00  0.00     0.116 C 
BRANCH  21  22
ATOM     22  N   UNL A   1      33.576  29.980  27.630  1.00  0.00    -0.352 N 
ATOM     23  C   UNL A   1      34.594  30.691  28.230  1.00  0.00     0.251 C 
ATOM     24  H   UNL A   1      32.721  30.456  27.526  1.00  0.00     0.163 HD
ATOM     25  O   UNL A   1      34.398  31.820  28.659  1.00  0.00    -0.269 OA
BRANCH  23  26
ATOM     26  C   UNL A   1      35.911  30.039  28.386  1.00  0.00     0.039 A 
ATOM     27  C   UNL A   1      36.818  30.083  27.325  1.00  0.00     0.014 A 
ATOM     28  C   UNL A   1      36.276  29.479  29.612  1.00  0.00     0.014 A 
ATOM     29  C   UNL A   1      38.128  29.643  27.525  1.00  0.00     0.010 A 
ATOM     30  C   UNL A   1      37.598  29.112  29.831  1.00  0.00     0.010 A 
ATOM     31  C   UNL A   1      38.541  29.200  28.794  1.00  0.00    -0.014 A 
BRANCH  31  32
ATOM     32  C   UNL A   1      39.955  28.846  29.071  1.00  0.00     0.031 A 
ATOM     33  C   UNL A   1      40.890  29.874  29.644  1.00  0.00     0.074 A 
ATOM     34  C   UNL A   1      40.421  27.632  28.713  1.00  0.00     0.049 A 
ATOM     35  N   UNL A   1      42.179  29.794  29.851  1.00  0.00    -0.248 NA
ATOM     36  C   UNL A   1      40.303  31.176  29.996  1.00  0.00     0.031 C 
ATOM     37  C   UNL A   1      39.630  26.571  28.084  1.00  0.00     0.029 A 
ATOM     38  N   UNL A   1      41.679  27.092  28.812  1.00  0.00    -0.354 N 
ATOM     39  C   UNL A   1      42.562  31.041  30.329  1.00  0.00     0.074 A 
ATOM     40  C   UNL A   1      41.377  31.872  30.336  1.00  0.00     0.031 C 
ATOM     41  C   UNL A   1      40.416  25.503  27.873  1.00  0.00     0.029 A 
ATOM     42  C   UNL A   1      41.770  25.812  28.320  1.00  0.00     0.049 A 
ATOM     43  H   UNL A   1      42.443  27.577  29.200  1.00  0.00     0.167 HD
ATOM     44  C   UNL A   1      43.784  31.450  30.744  1.00  0.00     0.037 A 
ATOM     45  C   UNL A   1      42.828  24.981  28.237  1.00  0.00     0.037 A 
ATOM     46  C   UNL A   1      44.949  30.608  30.775  1.00  0.00     0.049 A 
ATOM     47  C   UNL A   1      44.164  25.437  28.753  1.00  0.00     0.074 A 
ATOM     48  C   UNL A   1      46.217  30.907  31.244  1.00  0.00     0.029 A 
ATOM     49  N   UNL A   1      44.988  29.297  30.323  1.00  0.00    -0.354 N 
ATOM     50  N   UNL A   1      44.496  26.601  29.259  1.00  0.00    -0.248 NA
ATOM     51  C   UNL A   1      45.266  24.468  28.696  1.00  0.00     0.031 C 
ATOM     52  C   UNL A   1      47.028  29.781  31.055  1.00  0.00     0.029 A 
ATOM     53  C   UNL A   1      46.259  28.774  30.496  1.00  0.00     0.049 A 
ATOM     54  H   UNL A   1      44.226  28.810  29.937  1.00  0.00     0.167 HD
ATOM     55  C   UNL A   1      45.840  26.498  29.597  1.00  0.00     0.074 A 
ATOM     56  C   UNL A   1      46.257  25.155  29.248  1.00  0.00     0.031 C 
ATOM     57  C   UNL A   1      46.655  27.432  30.148  1.00  0.00     0.037 A 
BRANCH  44  58
ATOM     58  C   UNL A   1      43.907  32.875  31.206  1.00  0.00     0.058 A 
ATOM     59  C   UNL A   1      43.766  33.223  32.559  1.00  0.00     0.135 A 
ATOM     60  C   UNL A   1      44.157  33.907  30.286  1.00  0.00     0.135 A 
ATOM     61  F   UNL A   1      43.510  32.276  33.477  1.00  0.00    -0.206 F 
ATOM     62  C   UNL A   1      43.822  34.548  32.979  1.00  0.00     0.059 A 
ATOM     63  C   UNL A   1      44.242  35.236  30.688  1.00  0.00     0.059 A 
ATOM     64  F   UNL A   1      44.301  33.629  28.980  1.00  0.00    -0.206 F 
ATOM     65  C   UNL A   1      44.050  35.548  32.034  1.00  0.00     0.060 A 
BRANCH  65  66
ATOM     66  S   UNL A   1      44.084  37.267  32.584  1.00  0.00     0.124 S 
ATOM     67  O   UNL A   1      43.832  37.976  31.333  1.00  0.00    -0.237 OA
ATOM     68  O   UNL A   1      43.003  37.308  33.563  1.00  0.00    -0.237 OA
ATOM     69  O   UNL A   1      45.428  37.419  33.133  1.00  0.00    -0.744 OA
ENDBRANCH  65  66
ENDBRANCH  44  58
BRANCH  45  70
ATOM     70  C   UNL A   1      42.647  23.617  27.678  1.00  0.00     0.058 A 
ATOM     71  C   UNL A   1      42.743  23.392  26.297  1.00  0.00     0.135 A 
ATOM     72  C   UNL A   1      42.418  22.511  28.509  1.00  0.00     0.135 A 
ATOM     73  F   UNL A   1      42.956  24.421  25.463  1.00  0.00    -0.206 F 
ATOM     74  C   UNL A   1      42.616  22.117  25.757  1.00  0.00     0.059 A 
ATOM     75  C   UNL A   1      42.305  21.223  27.994  1.00  0.00     0.059 A 
ATOM     76  F   UNL A   1      42.336  22.674  29.839  1.00  0.00    -0.206 F 
ATOM     77  C   UNL A   1      42.400  21.037  26.614  1.00  0.00     0.060 A 
BRANCH  77  78
ATOM     78  S   UNL A   1      42.311  19.375  25.912  1.00  0.00     0.124 S 
ATOM     79  O   UNL A   1      43.147  19.513  24.726  1.00  0.00    -0.237 OA
ATOM     80  O   UNL A   1      42.859  18.556  26.988  1.00  0.00    -0.237 OA
ATOM     81  O   UNL A   1      40.884  19.194  25.663  1.00  0.00    -0.744 OA
ENDBRANCH  77  78
ENDBRANCH  45  70
BRANCH  57  82
ATOM     82  C   UNL A   1      48.072  27.029  30.430  1.00  0.00     0.058 A 
ATOM     83  C   UNL A   1      49.082  27.172  29.466  1.00  0.00     0.135 A 
ATOM     84  C   UNL A   1      48.435  26.545  31.697  1.00  0.00     0.135 A 
ATOM     85  F   UNL A   1      48.783  27.624  28.238  1.00  0.00    -0.206 F 
ATOM     86  C   UNL A   1      50.402  26.837  29.744  1.00  0.00     0.059 A 
ATOM     87  C   UNL A   1      49.752  26.222  32.004  1.00  0.00     0.059 A 
ATOM     88  F   UNL A   1      47.507  26.398  32.655  1.00  0.00    -0.206 F 
ATOM     89  C   UNL A   1      50.728  26.363  31.017  1.00  0.00     0.060 A 
BRANCH  89  90
ATOM     90  S   UNL A   1      52.452  25.969  31.383  1.00  0.00     0.124 S 
ATOM     91  O   UNL A   1      52.780  26.983  32.380  1.00  0.00    -0.237 OA
ATOM     92  O   UNL A   1      52.364  24.598  31.879  1.00  0.00    -0.237 OA
ATOM     93  O   UNL A   1      53.114  26.118  30.092  1.00  0.00    -0.744 OA
ENDBRANCH  89  90
ENDBRANCH  57  82
ENDBRANCH  31  32
ENDBRANCH  23  26
ENDBRANCH  21  22
ENDBRANCH  20  21
ENDBRANCH   1  20
TORSDOF 18
ENDMDL
MODEL 2
REMARK VINA RESULT:     -10.6      1.762      2.456
REMARK SMILES CCc1ccc(C(=O)[C@@H](Br)CC(=O)NCCCCNC(=O)c2ccc(-c3c4nc(c(-c5c(F)cc(S(=O)(=O)[O-])cc5F)c5ccc([nH]5)c(-c5c(F)cc(S(=O)(=O)[O-])cc5F)c5nc(c(-c6c(F)cc(S(=O)(=O)[O-])cc6F)c6ccc3[nH]6)C=C5)C=C4)cc2)cc1
REMARK SMILES IDX 16 1 15 2 14 3 12 4 13 5 11 7 9 8 10 9 7 10 8 11 6 12 3 13
REMARK SMILES IDX 4 14 89 15 5 16 88 17 2 18 1 19 17 20 18 21 19 22 20 23
REMARK SMILES IDX 21 25 22 26 23 27 87 28 24 29 86 30 25 31 26 32 27 33 80 34
REMARK SMILES IDX 28 35 85 36 79 37 81 38 29 39 84 40 78 41 77 42 30 44 64 45
REMARK SMILES IDX 43 46 63 47 44 48 47 49 62 50 82 51 45 52 46 53 61 55 83 56
REMARK SMILES IDX 48 57 31 58 32 59 41 60 33 61 34 62 40 63 42 64 35 65 36 66
REMARK SMILES IDX 37 67 38 68 39 69 65 70 66 71 75 72 67 73 68 74 74 75 76 76
REMARK SMILES IDX 69 77 70 78 71 79 72 80 73 81 49 82 50 83 59 84 51 85 52 86
REMARK SMILES IDX 58 87 60 88 53 89 54 90 55 91 56 92 57 93
REMARK H PARENT 14 6 19 24 81 43 47 54
REMARK Flexibility Score: inf
ROOT
ATOM      1  C   UNL A   1      31.385  27.220  26.846  1.00  0.00     0.023 C 
ENDROOT
BRANCH   1   2
ATOM      2  C   UNL A   1      31.293  25.939  26.019  1.00  0.00     0.116 C 
BRANCH   2   3
ATOM      3  N   UNL A   1      31.425  24.770  26.867  1.00  0.00    -0.356 N 
ATOM      4  C   UNL A   1      31.280  23.453  26.554  1.00  0.00     0.221 C 
ATOM      5  O   UNL A   1      31.337  22.614  27.453  1.00  0.00    -0.275 OA
ATOM      6  H   UNL A   1      31.651  24.956  27.807  1.00  0.00     0.163 HD
BRANCH   4   7
ATOM      7  C   UNL A   1      31.062  23.035  25.117  1.00  0.00     0.123 C 
BRANCH   7   8
ATOM      8  C   UNL A   1      32.357  22.541  24.490  1.00  0.00     0.138 C 
ATOM      9  Br  UNL A   1      33.259  24.003  23.528  1.00  0.00    -0.080 Br
BRANCH   8  10
ATOM     10  C   UNL A   1      32.306  21.384  23.494  1.00  0.00     0.176 C 
ATOM     11  O   UNL A   1      32.146  21.615  22.293  1.00  0.00    -0.293 OA
BRANCH  10  12
ATOM     12  C   UNL A   1      32.474  19.952  23.901  1.00  0.00     0.019 A 
ATOM     13  C   UNL A   1      33.046  17.243  24.485  1.00  0.00    -0.048 A 
ATOM     14  C   UNL A   1      32.830  17.655  23.167  1.00  0.00     0.004 A 
ATOM     15  C   UNL A   1      32.892  18.190  25.511  1.00  0.00     0.004 A 
ATOM     16  C   UNL A   1      32.541  18.992  22.879  1.00  0.00     0.012 A 
ATOM     17  C   UNL A   1      32.603  19.529  25.224  1.00  0.00     0.012 A 
BRANCH  13  18
ATOM     18  C   UNL A   1      33.367  15.810  24.842  1.00  0.00     0.032 C 
ATOM     19  C   UNL A   1      32.313  15.092  25.678  1.00  0.00     0.009 C 
ENDBRANCH  13  18
ENDBRANCH  10  12
ENDBRANCH   8  10
ENDBRANCH   7   8
ENDBRANCH   4   7
ENDBRANCH   2   3
ENDBRANCH   1   2
BRANCH   1  20
ATOM     20  C   UNL A   1      32.339  28.268  26.281  1.00  0.00     0.023 C 
BRANCH  20  21
ATOM     21  C   UNL A   1      33.490  28.649  27.208  1.00  0.00     0.116 C 
BRANCH  21  22
ATOM     22  N   UNL A   1      33.461  30.035  27.656  1.00  0.00    -0.352 N 
ATOM     23  C   UNL A   1      34.488  30.765  28.214  1.00  0.00     0.251 C 
ATOM     24  H   UNL A   1      32.604  30.508  27.549  1.00  0.00     0.163 HD
ATOM     25  O   UNL A   1      34.299  31.909  28.606  1.00  0.00    -0.269 OA
BRANCH  23  26
ATOM     26  C   UNL A   1      35.807  30.118  28.372  1.00  0.00     0.039 A 
ATOM     27  C   UNL A   1      36.710  30.153  27.307  1.00  0.00     0.014 A 
ATOM     28  C   UNL A   1      36.178  29.572  29.602  1.00  0.00     0.014 A 
ATOM     29  C   UNL A   1      38.022  29.717  27.506  1.00  0.00     0.010 A 
ATOM     30  C   UNL A   1      37.503  29.211  29.820  1.00  0.00     0.010 A 
ATOM     31  C   UNL A   1      38.441  29.290  28.778  1.00  0.00    -0.014 A 
BRANCH  31  32
ATOM     32  C   UNL A   1      39.857  28.941  29.053  1.00  0.00     0.031 A 
ATOM     33  C   UNL A   1      40.791  29.976  29.615  1.00  0.00     0.074 A 
ATOM     34  C   UNL A   1      40.325  27.726  28.703  1.00  0.00     0.049 A 
ATOM     35  N   UNL A   1      42.081  29.901  29.819  1.00  0.00    -0.248 NA
ATOM     36  C   UNL A   1      40.201  31.280  29.959  1.00  0.00     0.031 C 
ATOM     37  C   UNL A   1      39.535  26.658  28.085  1.00  0.00     0.029 A 
ATOM     38  N   UNL A   1      41.585  27.190  28.802  1.00  0.00    -0.354 N 
ATOM     39  C   UNL A   1      42.462  31.153  30.285  1.00  0.00     0.074 A 
ATOM     40  C   UNL A   1      41.274  31.981  30.290  1.00  0.00     0.031 C 
ATOM     41  C   UNL A   1      40.323  25.590  27.880  1.00  0.00     0.029 A 
ATOM     42  C   UNL A   1      41.678  25.906  28.321  1.00  0.00     0.049 A 
ATOM     43  H   UNL A   1      42.349  27.680  29.184  1.00  0.00     0.167 HD
ATOM     44  C   UNL A   1      43.684  31.569  30.693  1.00  0.00     0.037 A 
ATOM     45  C   UNL A   1      42.738  25.077  28.240  1.00  0.00     0.037 A 
ATOM     46  C   UNL A   1      44.852  30.731  30.727  1.00  0.00     0.049 A 
ATOM     47  C   UNL A   1      44.074  25.542  28.749  1.00  0.00     0.074 A 
ATOM     48  C   UNL A   1      46.120  31.037  31.189  1.00  0.00     0.029 A 
ATOM     49  N   UNL A   1      44.893  29.416  30.285  1.00  0.00    -0.354 N 
ATOM     50  N   UNL A   1      44.405  26.711  29.244  1.00  0.00    -0.248 NA
ATOM     51  C   UNL A   1      45.179  24.575  28.695  1.00  0.00     0.031 C 
ATOM     52  C   UNL A   1      46.934  29.912  31.006  1.00  0.00     0.029 A 
ATOM     53  C   UNL A   1      46.165  28.898  30.458  1.00  0.00     0.049 A 
ATOM     54  H   UNL A   1      44.130  28.924  29.906  1.00  0.00     0.167 HD
ATOM     55  C   UNL A   1      45.750  26.614  29.578  1.00  0.00     0.074 A 
ATOM     56  C   UNL A   1      46.169  25.269  29.238  1.00  0.00     0.031 C 
ATOM     57  C   UNL A   1      46.564  27.554  30.119  1.00  0.00     0.037 A 
BRANCH  44  58
ATOM     58  C   UNL A   1      43.805  32.998  31.143  1.00  0.00     0.058 A 
ATOM     59  C   UNL A   1      44.014  34.041  30.227  1.00  0.00     0.135 A 
ATOM     60  C   UNL A   1      43.726  33.328  32.506  1.00  0.00     0.135 A 
ATOM     61  F   UNL A   1      44.114  33.776  28.913  1.00  0.00    -0.206 F 
ATOM     62  C   UNL A   1      44.185  35.355  30.647  1.00  0.00     0.059 A 
ATOM     63  C   UNL A   1      43.869  34.641  32.947  1.00  0.00     0.059 A 
ATOM     64  F   UNL A   1      43.527  32.369  33.425  1.00  0.00    -0.206 F 
ATOM     65  C   UNL A   1      44.121  35.644  32.011  1.00  0.00     0.060 A 
BRANCH  65  66
ATOM     66  S   UNL A   1      44.381  37.347  32.549  1.00  0.00     0.124 S 
ATOM     67  O   UNL A   1      45.718  37.266  33.129  1.00  0.00    -0.237 OA
ATOM     68  O   UNL A   1      44.277  38.093  31.299  1.00  0.00    -0.237 OA
ATOM     69  O   UNL A   1      43.295  37.569  33.499  1.00  0.00    -0.744 OA
ENDBRANCH  65  66
ENDBRANCH  44  58
BRANCH  45  70
ATOM     70  C   UNL A   1      42.559  23.709  27.692  1.00  0.00     0.058 A 
ATOM     71  C   UNL A   1      42.624  23.477  26.311  1.00  0.00     0.135 A 
ATOM     72  C   UNL A   1      42.362  22.605  28.535  1.00  0.00     0.135 A 
ATOM     73  F   UNL A   1      42.806  24.505  25.467  1.00  0.00    -0.206 F 
ATOM     74  C   UNL A   1      42.498  22.198  25.780  1.00  0.00     0.059 A 
ATOM     75  C   UNL A   1      42.251  21.313  28.029  1.00  0.00     0.059 A 
ATOM     76  F   UNL A   1      42.309  22.774  29.865  1.00  0.00    -0.206 F 
ATOM     77  C   UNL A   1      42.315  21.121  26.648  1.00  0.00     0.060 A 
BRANCH  77  78
ATOM     78  S   UNL A   1      42.228  19.454  25.956  1.00  0.00     0.124 S 
ATOM     79  O   UNL A   1      43.127  19.564  24.815  1.00  0.00    -0.237 OA
ATOM     80  O   UNL A   1      42.702  18.634  27.067  1.00  0.00    -0.237 OA
ATOM     81  O   UNL A   1      40.812  19.300  25.635  1.00  0.00    -0.744 OA
ENDBRANCH  77  78
ENDBRANCH  45  70
BRANCH  57  82
ATOM     82  C   UNL A   1      47.983  27.157  30.399  1.00  0.00     0.058 A 
ATOM     83  C   UNL A   1      49.001  27.353  29.454  1.00  0.00     0.135 A 
ATOM     84  C   UNL A   1      48.339  26.626  31.650  1.00  0.00     0.135 A 
ATOM     85  F   UNL A   1      48.709  27.852  28.242  1.00  0.00    -0.206 F 
ATOM     86  C   UNL A   1      50.322  27.023  29.732  1.00  0.00     0.059 A 
ATOM     87  C   UNL A   1      49.657  26.306  31.957  1.00  0.00     0.059 A 
ATOM     88  F   UNL A   1      47.403  26.427  32.590  1.00  0.00    -0.206 F 
ATOM     89  C   UNL A   1      50.642  26.500  30.987  1.00  0.00     0.060 A 
BRANCH  89  90
ATOM     90  S   UNL A   1      52.366  26.112  31.356  1.00  0.00     0.124 S 
ATOM     91  O   UNL A   1      52.711  27.173  32.296  1.00  0.00    -0.237 OA
ATOM     92  O   UNL A   1      52.274  24.769  31.921  1.00  0.00    -0.237 OA
ATOM     93  O   UNL A   1      53.016  26.191  30.052  1.00  0.00    -0.744 OA
ENDBRANCH  89  90
ENDBRANCH  57  82
ENDBRANCH  31  32
ENDBRANCH  23  26
ENDBRANCH  21  22
ENDBRANCH  20  21
ENDBRANCH   1  20
TORSDOF 18
ENDMDL
MODEL 3
REMARK VINA RESULT:     -10.3      2.681      3.285
REMARK SMILES CCc1ccc(C(=O)[C@@H](Br)CC(=O)NCCCCNC(=O)c2ccc(-c3c4nc(c(-c5c(F)cc(S(=O)(=O)[O-])cc5F)c5ccc([nH]5)c(-c5c(F)cc(S(=O)(=O)[O-])cc5F)c5nc(c(-c6c(F)cc(S(=O)(=O)[O-])cc6F)c6ccc3[nH]6)C=C5)C=C4)cc2)cc1
REMARK SMILES IDX 16 1 15 2 14 3 12 4 13 5 11 7 9 8 10 9 7 10 8 11 6 12 3 13
REMARK SMILES IDX 4 14 89 15 5 16 88 17 2 18 1 19 17 20 18 21 19 22 20 23
REMARK SMILES IDX 21 25 22 26 23 27 87 28 24 29 86 30 25 31 26 32 27 33 80 34
REMARK SMILES IDX 28 35 85 36 79 37 81 38 29 39 84 40 78 41 77 42 30 44 64 45
REMARK SMILES IDX 43 46 63 47 44 48 47 49 62 50 82 51 45 52 46 53 61 55 83 56
REMARK SMILES IDX 48 57 31 58 32 59 41 60 33 61 34 62 40 63 42 64 35 65 36 66
REMARK SMILES IDX 37 67 38 68 39 69 65 70 66 71 75 72 67 73 68 74 74 75 76 76
REMARK SMILES IDX 69 77 70 78 71 79 72 80 73 81 49 82 50 83 59 84 51 85 52 86
REMARK SMILES IDX 58 87 60 88 53 89 54 90 55 91 56 92 57 93
REMARK H PARENT 14 6 19 24 81 43 47 54
REMARK Flexibility Score: inf
ROOT
ATOM      1  C   UNL A   1      34.488  28.609  26.198  1.00  0.00     0.023 C 
ENDROOT
BRANCH   1   2
ATOM      2  C   UNL A   1      33.270  28.674  25.278  1.00  0.00     0.116 C 
BRANCH   2   3
ATOM      3  N   UNL A   1      32.096  28.143  25.942  1.00  0.00    -0.356 N 
ATOM      4  C   UNL A   1      31.758  26.849  26.200  1.00  0.00     0.221 C 
ATOM      5  O   UNL A   1      30.657  26.604  26.692  1.00  0.00    -0.275 OA
ATOM      6  H   UNL A   1      31.447  28.815  26.252  1.00  0.00     0.163 HD
BRANCH   4   7
ATOM      7  C   UNL A   1      32.733  25.735  25.889  1.00  0.00     0.123 C 
BRANCH   7   8
ATOM      8  C   UNL A   1      32.615  25.296  24.437  1.00  0.00     0.138 C 
ATOM      9  Br  UNL A   1      31.360  23.788  24.273  1.00  0.00    -0.080 Br
BRANCH   8  10
ATOM     10  C   UNL A   1      33.871  24.850  23.691  1.00  0.00     0.176 C 
ATOM     11  O   UNL A   1      34.055  25.217  22.527  1.00  0.00    -0.293 OA
BRANCH  10  12
ATOM     12  C   UNL A   1      34.929  23.995  24.317  1.00  0.00     0.019 A 
ATOM     13  C   UNL A   1      37.046  22.343  25.210  1.00  0.00    -0.048 A 
ATOM     14  C   UNL A   1      36.134  21.877  24.259  1.00  0.00     0.004 A 
ATOM     15  C   UNL A   1      36.835  23.616  25.765  1.00  0.00     0.004 A 
ATOM     16  C   UNL A   1      35.084  22.690  23.823  1.00  0.00     0.012 A 
ATOM     17  C   UNL A   1      35.784  24.432  25.329  1.00  0.00     0.012 A 
BRANCH  13  18
ATOM     18  C   UNL A   1      38.198  21.501  25.706  1.00  0.00     0.032 C 
ATOM     19  C   UNL A   1      39.397  22.279  26.237  1.00  0.00     0.009 C 
ENDBRANCH  13  18
ENDBRANCH  10  12
ENDBRANCH   8  10
ENDBRANCH   7   8
ENDBRANCH   4   7
ENDBRANCH   2   3
ENDBRANCH   1   2
BRANCH   1  20
ATOM     20  C   UNL A   1      34.290  29.284  27.552  1.00  0.00     0.023 C 
BRANCH  20  21
ATOM     21  C   UNL A   1      35.290  30.393  27.866  1.00  0.00     0.116 C 
BRANCH  21  22
ATOM     22  N   UNL A   1      35.312  30.799  29.265  1.00  0.00    -0.352 N 
ATOM     23  C   UNL A   1      36.314  30.597  30.189  1.00  0.00     0.251 C 
ATOM     24  H   UNL A   1      34.514  31.276  29.590  1.00  0.00     0.163 HD
ATOM     25  O   UNL A   1      36.166  30.939  31.355  1.00  0.00    -0.269 OA
BRANCH  23  26
ATOM     26  C   UNL A   1      37.549  29.914  29.750  1.00  0.00     0.039 A 
ATOM     27  C   UNL A   1      37.941  30.018  28.413  1.00  0.00     0.014 A 
ATOM     28  C   UNL A   1      38.360  29.263  30.681  1.00  0.00     0.014 A 
ATOM     29  C   UNL A   1      39.197  29.543  28.029  1.00  0.00     0.010 A 
ATOM     30  C   UNL A   1      39.638  28.861  30.313  1.00  0.00     0.010 A 
ATOM     31  C   UNL A   1      40.075  29.006  28.987  1.00  0.00    -0.014 A 
BRANCH  31  32
ATOM     32  C   UNL A   1      41.461  28.609  28.635  1.00  0.00     0.031 A 
ATOM     33  C   UNL A   1      42.548  29.646  28.576  1.00  0.00     0.074 A 
ATOM     34  C   UNL A   1      41.719  27.337  28.271  1.00  0.00     0.049 A 
ATOM     35  N   UNL A   1      43.789  29.520  28.182  1.00  0.00    -0.248 NA
ATOM     36  C   UNL A   1      42.178  31.013  28.977  1.00  0.00     0.031 C 
ATOM     37  C   UNL A   1      40.735  26.252  28.221  1.00  0.00     0.029 A 
ATOM     38  N   UNL A   1      42.886  26.744  27.859  1.00  0.00    -0.354 N 
ATOM     39  C   UNL A   1      44.340  30.793  28.259  1.00  0.00     0.074 A 
ATOM     40  C   UNL A   1      43.284  31.684  28.693  1.00  0.00     0.031 C 
ATOM     41  C   UNL A   1      41.344  25.124  27.821  1.00  0.00     0.029 A 
ATOM     42  C   UNL A   1      42.750  25.409  27.557  1.00  0.00     0.049 A 
ATOM     43  H   UNL A   1      43.739  27.229  27.787  1.00  0.00     0.167 HD
ATOM     44  C   UNL A   1      45.613  31.182  28.014  1.00  0.00     0.037 A 
ATOM     45  C   UNL A   1      43.657  24.517  27.114  1.00  0.00     0.037 A 
ATOM     46  C   UNL A   1      46.669  30.286  27.624  1.00  0.00     0.049 A 
ATOM     47  C   UNL A   1      45.078  24.958  26.899  1.00  0.00     0.074 A 
ATOM     48  C   UNL A   1      48.008  30.569  27.419  1.00  0.00     0.029 A 
ATOM     49  N   UNL A   1      46.505  28.929  27.385  1.00  0.00    -0.354 N 
ATOM     50  N   UNL A   1      45.598  26.155  27.036  1.00  0.00    -0.248 NA
ATOM     51  C   UNL A   1      46.037  23.929  26.477  1.00  0.00     0.031 C 
ATOM     52  C   UNL A   1      48.650  29.385  27.035  1.00  0.00     0.029 A 
ATOM     53  C   UNL A   1      47.717  28.361  27.030  1.00  0.00     0.049 A 
ATOM     54  H   UNL A   1      45.653  28.442  27.458  1.00  0.00     0.167 HD
ATOM     55  C   UNL A   1      46.947  26.019  26.736  1.00  0.00     0.074 A 
ATOM     56  C   UNL A   1      47.167  24.622  26.419  1.00  0.00     0.031 C 
ATOM     57  C   UNL A   1      47.918  26.967  26.723  1.00  0.00     0.037 A 
BRANCH  44  58
ATOM     58  C   UNL A   1      45.925  32.643  28.172  1.00  0.00     0.058 A 
ATOM     59  C   UNL A   1      46.335  33.177  29.404  1.00  0.00     0.135 A 
ATOM     60  C   UNL A   1      45.801  33.523  27.084  1.00  0.00     0.135 A 
ATOM     61  F   UNL A   1      46.453  32.381  30.479  1.00  0.00    -0.206 F 
ATOM     62  C   UNL A   1      46.567  34.539  29.565  1.00  0.00     0.059 A 
ATOM     63  C   UNL A   1      46.053  34.885  27.217  1.00  0.00     0.059 A 
ATOM     64  F   UNL A   1      45.413  33.064  25.883  1.00  0.00    -0.206 F 
ATOM     65  C   UNL A   1      46.413  35.386  28.468  1.00  0.00     0.060 A 
BRANCH  65  66
ATOM     66  S   UNL A   1      46.681  37.156  28.697  1.00  0.00     0.124 S 
ATOM     67  O   UNL A   1      48.073  37.294  28.279  1.00  0.00    -0.237 OA
ATOM     68  O   UNL A   1      45.690  37.745  27.803  1.00  0.00    -0.237 OA
ATOM     69  O   UNL A   1      46.430  37.354  30.122  1.00  0.00    -0.744 OA
ENDBRANCH  65  66
ENDBRANCH  44  58
BRANCH  45  70
ATOM     70  C   UNL A   1      43.249  23.107  26.888  1.00  0.00     0.058 A 
ATOM     71  C   UNL A   1      43.169  22.585  25.588  1.00  0.00     0.135 A 
ATOM     72  C   UNL A   1      42.974  22.245  27.960  1.00  0.00     0.135 A 
ATOM     73  F   UNL A   1      43.419  23.375  24.533  1.00  0.00    -0.206 F 
ATOM     74  C   UNL A   1      42.826  21.257  25.357  1.00  0.00     0.059 A 
ATOM     75  C   UNL A   1      42.647  20.908  27.754  1.00  0.00     0.059 A 
ATOM     76  F   UNL A   1      43.055  22.694  29.222  1.00  0.00    -0.206 F 
ATOM     77  C   UNL A   1      42.570  20.425  26.447  1.00  0.00     0.060 A 
BRANCH  77  78
ATOM     78  S   UNL A   1      42.200  18.683  26.141  1.00  0.00     0.124 S 
ATOM     79  O   UNL A   1      42.493  18.089  27.439  1.00  0.00    -0.237 OA
ATOM     80  O   UNL A   1      40.790  18.730  25.764  1.00  0.00    -0.237 OA
ATOM     81  O   UNL A   1      43.117  18.332  25.061  1.00  0.00    -0.744 OA
ENDBRANCH  77  78
ENDBRANCH  45  70
BRANCH  57  82
ATOM     82  C   UNL A   1      49.309  26.522  26.381  1.00  0.00     0.058 A 
ATOM     83  C   UNL A   1      49.827  26.664  25.084  1.00  0.00     0.135 A 
ATOM     84  C   UNL A   1      50.154  26.000  27.374  1.00  0.00     0.135 A 
ATOM     85  F   UNL A   1      49.056  27.152  24.100  1.00  0.00    -0.206 F 
ATOM     86  C   UNL A   1      51.131  26.290  24.780  1.00  0.00     0.059 A 
ATOM     87  C   UNL A   1      51.467  25.637  27.096  1.00  0.00     0.059 A 
ATOM     88  F   UNL A   1      49.707  25.852  28.630  1.00  0.00    -0.206 F 
ATOM     89  C   UNL A   1      51.944  25.778  25.793  1.00  0.00     0.060 A 
BRANCH  89  90
ATOM     90  S   UNL A   1      53.649  25.333  25.398  1.00  0.00     0.124 S 
ATOM     91  O   UNL A   1      53.614  23.881  25.539  1.00  0.00    -0.237 OA
ATOM     92  O   UNL A   1      53.799  25.834  24.035  1.00  0.00    -0.237 OA
ATOM     93  O   UNL A   1      54.426  26.045  26.407  1.00  0.00    -0.744 OA
ENDBRANCH  89  90
ENDBRANCH  57  82
ENDBRANCH  31  32
ENDBRANCH  23  26
ENDBRANCH  21  22
ENDBRANCH  20  21
ENDBRANCH   1  20
TORSDOF 18
ENDMDL
