MODEL 1
REMARK VINA RESULT:     -13.1      0.000      0.000
REMARK SMILES C[NH+]1CCC([NH+]2CCC(Oc3ccc4ccccc4c3)(C(=O)NCCCCNC(=O)c3ccc(-c4c5nc(c(-c6c(F)cc(S(=O)(=O)[O-])cc6F)c6ccc([nH]6)c(-c6c(F)cc(S(=O)(=O)[O-])cc6F)c6nc(c(-c7c(F)cc(S(=O)(=O)[O-])cc7F)c7ccc4[nH]7)C=C6)C=C5)cc3)CC2)CC1
REMARK SMILES IDX 26 1 25 2 24 3 23 4 21 5 22 6 9 8 6 9 7 10 98 11 8 13 97 14
REMARK SMILES IDX 5 15 1 16 2 17 3 18 100 19 4 21 99 22 10 23 11 24 12 25
REMARK SMILES IDX 20 26 13 27 19 28 14 29 18 30 15 31 17 32 16 33 27 34 28 35
REMARK SMILES IDX 29 36 30 38 31 39 32 40 96 41 33 42 95 43 34 44 35 45 36 46
REMARK SMILES IDX 89 47 37 48 94 49 88 50 90 51 38 52 93 53 87 54 86 55 39 57
REMARK SMILES IDX 73 58 52 59 72 60 53 61 56 62 71 63 91 64 54 65 55 66 70 68
REMARK SMILES IDX 92 69 57 70 40 71 41 72 50 73 42 74 43 75 49 76 51 77 44 78
REMARK SMILES IDX 45 79 46 80 47 81 48 82 74 83 75 84 84 85 76 86 77 87 83 88
REMARK SMILES IDX 85 89 78 90 79 91 80 92 81 93 82 94 58 95 59 96 68 97 60 98
REMARK SMILES IDX 61 99 67 100 69 101 62 102 63 103 64 104 65 105 66 106
REMARK H PARENT 23 7 6 12 2 20 28 37 90 56 56 67
REMARK Flexibility Score: inf
ROOT
ATOM      1  C   UNL A   1      35.488  32.017  27.713  1.00  0.00     0.023 C 
ENDROOT
BRANCH   1   2
ATOM      2  C   UNL A   1      34.170  31.291  27.979  1.00  0.00     0.023 C 
BRANCH   2   3
ATOM      3  C   UNL A   1      34.120  29.856  27.454  1.00  0.00     0.116 C 
BRANCH   3   4
ATOM      4  N   UNL A   1      32.888  29.195  27.836  1.00  0.00    -0.353 N 
ATOM      5  C   UNL A   1      32.202  28.182  27.225  1.00  0.00     0.264 C 
ATOM      6  O   UNL A   1      31.203  27.767  27.821  1.00  0.00    -0.270 OA
ATOM      7  H   UNL A   1      32.480  29.529  28.668  1.00  0.00     0.163 HD
BRANCH   5   8
ATOM      8  C   UNL A   1      32.664  27.596  25.856  1.00  0.00     0.197 C 
ATOM      9  N   UNL A   1      30.878  28.849  23.875  1.00  0.00    -0.332 N 
ATOM     10  C   UNL A   1      31.905  29.624  24.577  1.00  0.00     0.267 C 
ATOM     11  C   UNL A   1      30.372  27.749  24.718  1.00  0.00     0.267 C 
ATOM     12  H   UNL A   1      31.331  28.427  23.064  1.00  0.00     0.348 HD
ATOM     13  C   UNL A   1      33.074  28.706  24.885  1.00  0.00     0.120 C 
ATOM     14  C   UNL A   1      31.496  26.816  25.213  1.00  0.00     0.120 C 
BRANCH   9  15
ATOM     15  C   UNL A   1      29.791  29.686  23.310  1.00  0.00     0.195 C 
ATOM     16  C   UNL A   1      27.842  32.853  21.122  1.00  0.00     0.332 C 
ATOM     17  N   UNL A   1      28.811  31.976  21.773  1.00  0.00    -0.337 N 
ATOM     18  C   UNL A   1      28.797  30.638  21.171  1.00  0.00     0.268 C 
ATOM     19  C   UNL A   1      28.563  31.900  23.216  1.00  0.00     0.268 C 
ATOM     20  H   UNL A   1      29.740  32.375  21.631  1.00  0.00     0.347 HD
ATOM     21  C   UNL A   1      29.902  29.773  21.772  1.00  0.00     0.126 C 
ATOM     22  C   UNL A   1      29.663  31.097  23.911  1.00  0.00     0.126 C 
ENDBRANCH   9  15
BRANCH   8  23
ATOM     23  O   UNL A   1      33.736  26.717  26.287  1.00  0.00    -0.477 OA
BRANCH  23  24
ATOM     24  C   UNL A   1      33.878  25.496  25.703  1.00  0.00     0.121 A 
ATOM     25  C   UNL A   1      34.534  25.313  24.492  1.00  0.00     0.047 A 
ATOM     26  C   UNL A   1      33.486  24.387  26.452  1.00  0.00     0.055 A 
ATOM     27  C   UNL A   1      34.679  24.034  23.958  1.00  0.00     0.012 A 
ATOM     28  C   UNL A   1      33.667  23.087  25.952  1.00  0.00    -0.015 A 
ATOM     29  C   UNL A   1      34.244  22.912  24.673  1.00  0.00    -0.018 A 
ATOM     30  C   UNL A   1      33.299  21.956  26.696  1.00  0.00     0.009 A 
ATOM     31  C   UNL A   1      34.397  21.619  24.154  1.00  0.00     0.009 A 
ATOM     32  C   UNL A   1      33.477  20.673  26.174  1.00  0.00     0.001 A 
ATOM     33  C   UNL A   1      34.014  20.505  24.902  1.00  0.00     0.001 A 
ENDBRANCH  23  24
ENDBRANCH   8  23
ENDBRANCH   5   8
ENDBRANCH   3   4
ENDBRANCH   2   3
ENDBRANCH   1   2
BRANCH   1  34
ATOM     34  C   UNL A   1      36.274  32.392  28.962  1.00  0.00     0.116 C 
BRANCH  34  35
ATOM     35  N   UNL A   1      35.909  31.591  30.120  1.00  0.00    -0.352 N 
ATOM     36  C   UNL A   1      36.577  30.526  30.672  1.00  0.00     0.251 C 
ATOM     37  H   UNL A   1      35.072  31.847  30.569  1.00  0.00     0.163 HD
ATOM     38  O   UNL A   1      36.047  29.868  31.562  1.00  0.00    -0.269 OA
BRANCH  36  39
ATOM     39  C   UNL A   1      37.920  30.164  30.169  1.00  0.00     0.039 A 
ATOM     40  C   UNL A   1      38.976  30.069  31.076  1.00  0.00     0.014 A 
ATOM     41  C   UNL A   1      38.134  29.918  28.810  1.00  0.00     0.014 A 
ATOM     42  C   UNL A   1      40.241  29.689  30.623  1.00  0.00     0.010 A 
ATOM     43  C   UNL A   1      39.370  29.451  28.377  1.00  0.00     0.010 A 
ATOM     44  C   UNL A   1      40.444  29.357  29.273  1.00  0.00    -0.014 A 
BRANCH  44  45
ATOM     45  C   UNL A   1      41.785  28.957  28.776  1.00  0.00     0.031 A 
ATOM     46  C   UNL A   1      42.886  29.980  28.679  1.00  0.00     0.074 A 
ATOM     47  C   UNL A   1      42.002  27.688  28.378  1.00  0.00     0.049 A 
ATOM     48  N   UNL A   1      44.113  29.837  28.250  1.00  0.00    -0.248 NA
ATOM     49  C   UNL A   1      42.556  31.355  29.091  1.00  0.00     0.031 C 
ATOM     50  C   UNL A   1      41.001  26.618  28.371  1.00  0.00     0.029 A 
ATOM     51  N   UNL A   1      43.137  27.081  27.901  1.00  0.00    -0.354 N 
ATOM     52  C   UNL A   1      44.693  31.099  28.330  1.00  0.00     0.074 A 
ATOM     53  C   UNL A   1      43.666  32.008  28.782  1.00  0.00     0.031 C 
ATOM     54  C   UNL A   1      41.573  25.482  27.944  1.00  0.00     0.029 A 
ATOM     55  C   UNL A   1      42.970  25.746  27.614  1.00  0.00     0.049 A 
ATOM     56  H   UNL A   1      43.989  27.556  27.777  1.00  0.00     0.167 HD
ATOM     57  C   UNL A   1      45.974  31.461  28.081  1.00  0.00     0.037 A 
ATOM     58  C   UNL A   1      43.846  24.840  27.139  1.00  0.00     0.037 A 
ATOM     59  C   UNL A   1      47.000  30.544  27.656  1.00  0.00     0.049 A 
ATOM     60  C   UNL A   1      45.266  25.265  26.878  1.00  0.00     0.074 A 
ATOM     61  C   UNL A   1      48.340  30.797  27.428  1.00  0.00     0.029 A 
ATOM     62  N   UNL A   1      46.798  29.196  27.396  1.00  0.00    -0.354 N 
ATOM     63  N   UNL A   1      45.815  26.448  27.022  1.00  0.00    -0.248 NA
ATOM     64  C   UNL A   1      46.192  24.227  26.406  1.00  0.00     0.031 C 
ATOM     65  C   UNL A   1      48.939  29.614  26.982  1.00  0.00     0.029 A 
ATOM     66  C   UNL A   1      47.986  28.609  26.991  1.00  0.00     0.049 A 
ATOM     67  H   UNL A   1      45.938  28.726  27.486  1.00  0.00     0.167 HD
ATOM     68  C   UNL A   1      47.157  26.289  26.688  1.00  0.00     0.074 A 
ATOM     69  C   UNL A   1      47.337  24.891  26.354  1.00  0.00     0.031 C 
ATOM     70  C   UNL A   1      48.149  27.214  26.662  1.00  0.00     0.037 A 
BRANCH  57  71
ATOM     71  C   UNL A   1      46.337  32.911  28.269  1.00  0.00     0.058 A 
ATOM     72  C   UNL A   1      46.788  33.408  29.503  1.00  0.00     0.135 A 
ATOM     73  C   UNL A   1      46.258  33.812  27.194  1.00  0.00     0.135 A 
ATOM     74  F   UNL A   1      46.867  32.597  30.570  1.00  0.00    -0.206 F 
ATOM     75  C   UNL A   1      47.115  34.749  29.674  1.00  0.00     0.059 A 
ATOM     76  C   UNL A   1      46.612  35.151  27.334  1.00  0.00     0.059 A 
ATOM     77  F   UNL A   1      45.832  33.394  25.991  1.00  0.00    -0.206 F 
ATOM     78  C   UNL A   1      47.024  35.613  28.582  1.00  0.00     0.060 A 
BRANCH  78  79
ATOM     79  S   UNL A   1      47.460  37.349  28.821  1.00  0.00     0.124 S 
ATOM     80  O   UNL A   1      48.091  37.312  30.136  1.00  0.00    -0.237 OA
ATOM     81  O   UNL A   1      48.354  37.602  27.696  1.00  0.00    -0.237 OA
ATOM     82  O   UNL A   1      46.173  38.035  28.761  1.00  0.00    -0.744 OA
ENDBRANCH  78  79
ENDBRANCH  57  71
BRANCH  58  83
ATOM     83  C   UNL A   1      43.415  23.434  26.910  1.00  0.00     0.058 A 
ATOM     84  C   UNL A   1      43.235  22.547  27.982  1.00  0.00     0.135 A 
ATOM     85  C   UNL A   1      43.170  22.949  25.615  1.00  0.00     0.135 A 
ATOM     86  F   UNL A   1      43.460  22.960  29.239  1.00  0.00    -0.206 F 
ATOM     87  C   UNL A   1      42.853  21.224  27.780  1.00  0.00     0.059 A 
ATOM     88  C   UNL A   1      42.760  21.638  25.390  1.00  0.00     0.059 A 
ATOM     89  F   UNL A   1      43.310  23.760  24.556  1.00  0.00    -0.206 F 
ATOM     90  C   UNL A   1      42.616  20.780  26.479  1.00  0.00     0.060 A 
BRANCH  90  91
ATOM     91  S   UNL A   1      42.080  19.073  26.233  1.00  0.00     0.124 S 
ATOM     92  O   UNL A   1      42.975  18.635  25.167  1.00  0.00    -0.237 OA
ATOM     93  O   UNL A   1      42.315  18.486  27.547  1.00  0.00    -0.237 OA
ATOM     94  O   UNL A   1      40.675  19.213  25.860  1.00  0.00    -0.744 OA
ENDBRANCH  90  91
ENDBRANCH  58  83
BRANCH  70  95
ATOM     95  C   UNL A   1      49.529  26.732  26.299  1.00  0.00     0.058 A 
ATOM     96  C   UNL A   1      50.074  26.932  25.021  1.00  0.00     0.135 A 
ATOM     97  C   UNL A   1      50.322  26.071  27.252  1.00  0.00     0.135 A 
ATOM     98  F   UNL A   1      49.360  27.558  24.072  1.00  0.00    -0.206 F 
ATOM     99  C   UNL A   1      51.336  26.451  24.686  1.00  0.00     0.059 A 
ATOM    100  C   UNL A   1      51.600  25.613  26.950  1.00  0.00     0.059 A 
ATOM    101  F   UNL A   1      49.857  25.868  28.496  1.00  0.00    -0.206 F 
ATOM    102  C   UNL A   1      52.089  25.788  25.657  1.00  0.00     0.060 A 
BRANCH 102 103
ATOM    103  S   UNL A   1      53.721  25.160  25.208  1.00  0.00     0.124 S 
ATOM    104  O   UNL A   1      54.575  25.845  26.173  1.00  0.00    -0.237 OA
ATOM    105  O   UNL A   1      53.567  23.721  25.406  1.00  0.00    -0.237 OA
ATOM    106  O   UNL A   1      53.878  25.582  23.819  1.00  0.00    -0.744 OA
ENDBRANCH 102 103
ENDBRANCH  70  95
ENDBRANCH  44  45
ENDBRANCH  36  39
ENDBRANCH  34  35
ENDBRANCH   1  34
TORSDOF 17
ENDMDL
MODEL 2
REMARK VINA RESULT:     -12.8      6.404     12.310
REMARK SMILES C[NH+]1CCC([NH+]2CCC(Oc3ccc4ccccc4c3)(C(=O)NCCCCNC(=O)c3ccc(-c4c5nc(c(-c6c(F)cc(S(=O)(=O)[O-])cc6F)c6ccc([nH]6)c(-c6c(F)cc(S(=O)(=O)[O-])cc6F)c6nc(c(-c7c(F)cc(S(=O)(=O)[O-])cc7F)c7ccc4[nH]7)C=C6)C=C5)cc3)CC2)CC1
REMARK SMILES IDX 26 1 25 2 24 3 23 4 21 5 22 6 9 8 6 9 7 10 98 11 8 13 97 14
REMARK SMILES IDX 5 15 1 16 2 17 3 18 100 19 4 21 99 22 10 23 11 24 12 25
REMARK SMILES IDX 20 26 13 27 19 28 14 29 18 30 15 31 17 32 16 33 27 34 28 35
REMARK SMILES IDX 29 36 30 38 31 39 32 40 96 41 33 42 95 43 34 44 35 45 36 46
REMARK SMILES IDX 89 47 37 48 94 49 88 50 90 51 38 52 93 53 87 54 86 55 39 57
REMARK SMILES IDX 73 58 52 59 72 60 53 61 56 62 71 63 91 64 54 65 55 66 70 68
REMARK SMILES IDX 92 69 57 70 40 71 41 72 50 73 42 74 43 75 49 76 51 77 44 78
REMARK SMILES IDX 45 79 46 80 47 81 48 82 74 83 75 84 84 85 76 86 77 87 83 88
REMARK SMILES IDX 85 89 78 90 79 91 80 92 81 93 82 94 58 95 59 96 68 97 60 98
REMARK SMILES IDX 61 99 67 100 69 101 62 102 63 103 64 104 65 105 66 106
REMARK H PARENT 23 7 6 12 2 20 28 37 90 56 56 67
REMARK Flexibility Score: inf
ROOT
ATOM      1  C   UNL A   1      39.623  22.623  26.818  1.00  0.00     0.023 C 
ENDROOT
BRANCH   1   2
ATOM      2  C   UNL A   1      38.534  23.567  26.310  1.00  0.00     0.023 C 
BRANCH   2   3
ATOM      3  C   UNL A   1      37.296  22.864  25.752  1.00  0.00     0.116 C 
BRANCH   3   4
ATOM      4  N   UNL A   1      36.158  23.014  26.637  1.00  0.00    -0.353 N 
ATOM      5  C   UNL A   1      34.833  23.192  26.350  1.00  0.00     0.264 C 
ATOM      6  O   UNL A   1      34.068  23.221  27.319  1.00  0.00    -0.270 OA
ATOM      7  H   UNL A   1      36.374  22.982  27.597  1.00  0.00     0.163 HD
BRANCH   5   8
ATOM      8  C   UNL A   1      34.331  23.348  24.882  1.00  0.00     0.197 C 
ATOM      9  N   UNL A   1      33.147  20.730  24.225  1.00  0.00    -0.332 N 
ATOM     10  C   UNL A   1      32.509  21.640  25.180  1.00  0.00     0.267 C 
ATOM     11  C   UNL A   1      34.614  20.881  24.245  1.00  0.00     0.267 C 
ATOM     12  H   UNL A   1      32.825  21.006  23.296  1.00  0.00     0.348 HD
ATOM     13  C   UNL A   1      32.830  23.067  24.774  1.00  0.00     0.120 C 
ATOM     14  C   UNL A   1      35.065  22.332  23.980  1.00  0.00     0.120 C 
BRANCH   9  15
ATOM     15  C   UNL A   1      32.712  19.319  24.373  1.00  0.00     0.195 C 
ATOM     16  C   UNL A   1      32.880  15.106  25.288  1.00  0.00     0.332 C 
ATOM     17  N   UNL A   1      33.191  16.513  25.052  1.00  0.00    -0.337 N 
ATOM     18  C   UNL A   1      32.473  17.377  25.997  1.00  0.00     0.268 C 
ATOM     19  C   UNL A   1      32.890  16.893  23.668  1.00  0.00     0.268 C 
ATOM     20  H   UNL A   1      34.192  16.642  25.206  1.00  0.00     0.347 HD
ATOM     21  C   UNL A   1      32.907  18.830  25.825  1.00  0.00     0.126 C 
ATOM     22  C   UNL A   1      33.351  18.324  23.388  1.00  0.00     0.126 C 
ENDBRANCH   9  15
BRANCH   8  23
ATOM     23  O   UNL A   1      34.731  24.714  24.603  1.00  0.00    -0.477 OA
BRANCH  23  24
ATOM     24  C   UNL A   1      33.818  25.716  24.713  1.00  0.00     0.121 A 
ATOM     25  C   UNL A   1      33.709  26.516  25.845  1.00  0.00     0.047 A 
ATOM     26  C   UNL A   1      33.089  26.037  23.567  1.00  0.00     0.055 A 
ATOM     27  C   UNL A   1      32.776  27.550  25.888  1.00  0.00     0.012 A 
ATOM     28  C   UNL A   1      32.179  27.107  23.576  1.00  0.00    -0.015 A 
ATOM     29  C   UNL A   1      31.999  27.853  24.763  1.00  0.00    -0.018 A 
ATOM     30  C   UNL A   1      31.451  27.460  22.430  1.00  0.00     0.009 A 
ATOM     31  C   UNL A   1      31.068  28.901  24.788  1.00  0.00     0.009 A 
ATOM     32  C   UNL A   1      30.542  28.520  22.464  1.00  0.00     0.001 A 
ATOM     33  C   UNL A   1      30.342  29.231  23.643  1.00  0.00     0.001 A 
ENDBRANCH  23  24
ENDBRANCH   8  23
ENDBRANCH   5   8
ENDBRANCH   3   4
ENDBRANCH   2   3
ENDBRANCH   1   2
BRANCH   1  34
ATOM     34  C   UNL A   1      40.931  23.302  27.197  1.00  0.00     0.116 C 
BRANCH  34  35
ATOM     35  N   UNL A   1      41.522  24.045  26.094  1.00  0.00    -0.352 N 
ATOM     36  C   UNL A   1      41.761  25.393  25.998  1.00  0.00     0.251 C 
ATOM     37  H   UNL A   1      41.786  23.508  25.313  1.00  0.00     0.163 HD
ATOM     38  O   UNL A   1      42.129  25.873  24.929  1.00  0.00    -0.269 OA
BRANCH  36  39
ATOM     39  C   UNL A   1      41.547  26.260  27.176  1.00  0.00     0.039 A 
ATOM     40  C   UNL A   1      42.408  27.339  27.384  1.00  0.00     0.014 A 
ATOM     41  C   UNL A   1      40.501  26.011  28.068  1.00  0.00     0.014 A 
ATOM     42  C   UNL A   1      42.194  28.192  28.469  1.00  0.00     0.010 A 
ATOM     43  C   UNL A   1      40.235  26.913  29.093  1.00  0.00     0.010 A 
ATOM     44  C   UNL A   1      41.094  27.998  29.321  1.00  0.00    -0.014 A 
BRANCH  44  45
ATOM     45  C   UNL A   1      40.857  28.892  30.483  1.00  0.00     0.031 A 
ATOM     46  C   UNL A   1      41.694  28.745  31.726  1.00  0.00     0.074 A 
ATOM     47  C   UNL A   1      39.870  29.808  30.434  1.00  0.00     0.049 A 
ATOM     48  N   UNL A   1      41.628  29.409  32.851  1.00  0.00    -0.248 NA
ATOM     49  C   UNL A   1      42.722  27.690  31.717  1.00  0.00     0.031 C 
ATOM     50  C   UNL A   1      38.955  30.011  29.308  1.00  0.00     0.029 A 
ATOM     51  N   UNL A   1      39.470  30.743  31.356  1.00  0.00    -0.354 N 
ATOM     52  C   UNL A   1      42.593  28.847  33.681  1.00  0.00     0.074 A 
ATOM     53  C   UNL A   1      43.182  27.744  32.958  1.00  0.00     0.031 C 
ATOM     54  C   UNL A   1      38.124  31.026  29.592  1.00  0.00     0.029 A 
ATOM     55  C   UNL A   1      38.421  31.524  30.931  1.00  0.00     0.049 A 
ATOM     56  H   UNL A   1      39.894  30.844  32.238  1.00  0.00     0.167 HD
ATOM     57  C   UNL A   1      42.976  29.236  34.921  1.00  0.00     0.037 A 
ATOM     58  C   UNL A   1      37.773  32.528  31.553  1.00  0.00     0.037 A 
ATOM     59  C   UNL A   1      42.403  30.353  35.625  1.00  0.00     0.049 A 
ATOM     60  C   UNL A   1      38.224  32.947  32.927  1.00  0.00     0.074 A 
ATOM     61  C   UNL A   1      42.754  30.862  36.862  1.00  0.00     0.029 A 
ATOM     62  N   UNL A   1      41.356  31.133  35.155  1.00  0.00    -0.354 N 
ATOM     63  N   UNL A   1      39.182  32.448  33.671  1.00  0.00    -0.248 NA
ATOM     64  C   UNL A   1      37.515  34.078  33.540  1.00  0.00     0.031 C 
ATOM     65  C   UNL A   1      41.888  31.920  37.161  1.00  0.00     0.029 A 
ATOM     66  C   UNL A   1      41.037  32.108  36.085  1.00  0.00     0.049 A 
ATOM     67  H   UNL A   1      40.907  31.011  34.287  1.00  0.00     0.167 HD
ATOM     68  C   UNL A   1      39.211  33.224  34.826  1.00  0.00     0.074 A 
ATOM     69  C   UNL A   1      38.187  34.236  34.670  1.00  0.00     0.031 C 
ATOM     70  C   UNL A   1      40.013  33.110  35.915  1.00  0.00     0.037 A 
BRANCH  57  71
ATOM     71  C   UNL A   1      44.073  28.448  35.590  1.00  0.00     0.058 A 
ATOM     72  C   UNL A   1      45.430  28.744  35.381  1.00  0.00     0.135 A 
ATOM     73  C   UNL A   1      43.763  27.399  36.471  1.00  0.00     0.135 A 
ATOM     74  F   UNL A   1      45.786  29.724  34.535  1.00  0.00    -0.206 F 
ATOM     75  C   UNL A   1      46.439  28.010  35.994  1.00  0.00     0.059 A 
ATOM     76  C   UNL A   1      44.756  26.673  37.122  1.00  0.00     0.059 A 
ATOM     77  F   UNL A   1      42.483  27.070  36.708  1.00  0.00    -0.206 F 
ATOM     78  C   UNL A   1      46.092  26.976  36.865  1.00  0.00     0.060 A 
BRANCH  78  79
ATOM     79  S   UNL A   1      47.415  26.038  37.658  1.00  0.00     0.124 S 
ATOM     80  O   UNL A   1      46.656  25.115  38.495  1.00  0.00    -0.237 OA
ATOM     81  O   UNL A   1      48.101  25.441  36.517  1.00  0.00    -0.237 OA
ATOM     82  O   UNL A   1      48.172  27.058  38.377  1.00  0.00    -0.744 OA
ENDBRANCH  78  79
ENDBRANCH  57  71
BRANCH  58  83
ATOM     83  C   UNL A   1      36.652  33.229  30.869  1.00  0.00     0.058 A 
ATOM     84  C   UNL A   1      35.321  33.025  31.264  1.00  0.00     0.135 A 
ATOM     85  C   UNL A   1      36.888  34.120  29.811  1.00  0.00     0.135 A 
ATOM     86  F   UNL A   1      35.042  32.180  32.269  1.00  0.00    -0.206 F 
ATOM     87  C   UNL A   1      34.263  33.658  30.621  1.00  0.00     0.059 A 
ATOM     88  C   UNL A   1      35.848  34.788  29.170  1.00  0.00     0.059 A 
ATOM     89  F   UNL A   1      38.143  34.365  29.405  1.00  0.00    -0.206 F 
ATOM     90  C   UNL A   1      34.537  34.540  29.575  1.00  0.00     0.060 A 
BRANCH  90  91
ATOM     91  S   UNL A   1      33.158  35.388  28.775  1.00  0.00     0.124 S 
ATOM     92  O   UNL A   1      32.525  34.295  28.045  1.00  0.00    -0.237 OA
ATOM     93  O   UNL A   1      32.415  35.909  29.917  1.00  0.00    -0.237 OA
ATOM     94  O   UNL A   1      33.817  36.398  27.952  1.00  0.00    -0.744 OA
ENDBRANCH  90  91
ENDBRANCH  58  83
BRANCH  70  95
ATOM     95  C   UNL A   1      39.842  34.135  37.005  1.00  0.00     0.058 A 
ATOM     96  C   UNL A   1      39.006  33.912  38.110  1.00  0.00     0.135 A 
ATOM     97  C   UNL A   1      40.537  35.355  36.946  1.00  0.00     0.135 A 
ATOM     98  F   UNL A   1      38.317  32.764  38.216  1.00  0.00    -0.206 F 
ATOM     99  C   UNL A   1      38.827  34.880  39.093  1.00  0.00     0.059 A 
ATOM    100  C   UNL A   1      40.401  36.323  37.935  1.00  0.00     0.059 A 
ATOM    101  F   UNL A   1      41.364  35.614  35.920  1.00  0.00    -0.206 F 
ATOM    102  C   UNL A   1      39.526  36.085  38.994  1.00  0.00     0.060 A 
BRANCH 102 103
ATOM    103  S   UNL A   1      39.278  37.338  40.270  1.00  0.00     0.124 S 
ATOM    104  O   UNL A   1      38.432  38.302  39.574  1.00  0.00    -0.237 OA
ATOM    105  O   UNL A   1      38.629  36.576  41.333  1.00  0.00    -0.237 OA
ATOM    106  O   UNL A   1      40.633  37.791  40.569  1.00  0.00    -0.744 OA
ENDBRANCH 102 103
ENDBRANCH  70  95
ENDBRANCH  44  45
ENDBRANCH  36  39
ENDBRANCH  34  35
ENDBRANCH   1  34
TORSDOF 17
ENDMDL
MODEL 3
REMARK VINA RESULT:     -12.7      2.984      9.528
REMARK SMILES C[NH+]1CCC([NH+]2CCC(Oc3ccc4ccccc4c3)(C(=O)NCCCCNC(=O)c3ccc(-c4c5nc(c(-c6c(F)cc(S(=O)(=O)[O-])cc6F)c6ccc([nH]6)c(-c6c(F)cc(S(=O)(=O)[O-])cc6F)c6nc(c(-c7c(F)cc(S(=O)(=O)[O-])cc7F)c7ccc4[nH]7)C=C6)C=C5)cc3)CC2)CC1
REMARK SMILES IDX 26 1 25 2 24 3 23 4 21 5 22 6 9 8 6 9 7 10 98 11 8 13 97 14
REMARK SMILES IDX 5 15 1 16 2 17 3 18 100 19 4 21 99 22 10 23 11 24 12 25
REMARK SMILES IDX 20 26 13 27 19 28 14 29 18 30 15 31 17 32 16 33 27 34 28 35
REMARK SMILES IDX 29 36 30 38 31 39 32 40 96 41 33 42 95 43 34 44 35 45 36 46
REMARK SMILES IDX 89 47 37 48 94 49 88 50 90 51 38 52 93 53 87 54 86 55 39 57
REMARK SMILES IDX 73 58 52 59 72 60 53 61 56 62 71 63 91 64 54 65 55 66 70 68
REMARK SMILES IDX 92 69 57 70 40 71 41 72 50 73 42 74 43 75 49 76 51 77 44 78
REMARK SMILES IDX 45 79 46 80 47 81 48 82 74 83 75 84 84 85 76 86 77 87 83 88
REMARK SMILES IDX 85 89 78 90 79 91 80 92 81 93 82 94 58 95 59 96 68 97 60 98
REMARK SMILES IDX 61 99 67 100 69 101 62 102 63 103 64 104 65 105 66 106
REMARK H PARENT 23 7 6 12 2 20 28 37 90 56 56 67
REMARK Flexibility Score: inf
ROOT
ATOM      1  C   UNL A   1      39.249  21.263  25.835  1.00  0.00     0.023 C 
ENDROOT
BRANCH   1   2
ATOM      2  C   UNL A   1      39.167  22.642  26.489  1.00  0.00     0.023 C 
BRANCH   2   3
ATOM      3  C   UNL A   1      38.000  23.504  26.006  1.00  0.00     0.116 C 
BRANCH   3   4
ATOM      4  N   UNL A   1      37.672  23.223  24.622  1.00  0.00    -0.353 N 
ATOM      5  C   UNL A   1      36.460  23.200  23.989  1.00  0.00     0.264 C 
ATOM      6  O   UNL A   1      36.489  22.994  22.771  1.00  0.00    -0.270 OA
ATOM      7  H   UNL A   1      38.444  23.017  24.048  1.00  0.00     0.163 HD
BRANCH   5   8
ATOM      8  C   UNL A   1      35.128  23.422  24.770  1.00  0.00     0.197 C 
ATOM      9  N   UNL A   1      33.867  20.759  24.849  1.00  0.00    -0.332 N 
ATOM     10  C   UNL A   1      35.076  21.056  25.622  1.00  0.00     0.267 C 
ATOM     11  C   UNL A   1      33.825  21.548  23.603  1.00  0.00     0.267 C 
ATOM     12  H   UNL A   1      33.074  21.051  25.421  1.00  0.00     0.348 HD
ATOM     13  C   UNL A   1      35.053  22.524  26.008  1.00  0.00     0.120 C 
ATOM     14  C   UNL A   1      33.935  23.065  23.857  1.00  0.00     0.120 C 
BRANCH   9  15
ATOM     15  C   UNL A   1      33.656  19.309  24.618  1.00  0.00     0.195 C 
ATOM     16  C   UNL A   1      33.453  15.072  25.409  1.00  0.00     0.332 C 
ATOM     17  N   UNL A   1      33.667  16.514  25.488  1.00  0.00    -0.337 N 
ATOM     18  C   UNL A   1      32.396  17.241  25.398  1.00  0.00     0.268 C 
ATOM     19  C   UNL A   1      34.599  16.964  24.448  1.00  0.00     0.268 C 
ATOM     20  H   UNL A   1      34.084  16.719  26.396  1.00  0.00     0.347 HD
ATOM     21  C   UNL A   1      32.622  18.735  25.613  1.00  0.00     0.126 C 
ATOM     22  C   UNL A   1      34.930  18.446  24.624  1.00  0.00     0.126 C 
ENDBRANCH   9  15
BRANCH   8  23
ATOM     23  O   UNL A   1      35.205  24.846  25.036  1.00  0.00    -0.477 OA
BRANCH  23  24
ATOM     24  C   UNL A   1      34.070  25.595  25.016  1.00  0.00     0.121 A 
ATOM     25  C   UNL A   1      33.430  26.024  26.173  1.00  0.00     0.047 A 
ATOM     26  C   UNL A   1      33.649  26.073  23.775  1.00  0.00     0.055 A 
ATOM     27  C   UNL A   1      32.287  26.818  26.090  1.00  0.00     0.012 A 
ATOM     28  C   UNL A   1      32.528  26.913  23.676  1.00  0.00    -0.015 A 
ATOM     29  C   UNL A   1      31.821  27.265  24.848  1.00  0.00    -0.018 A 
ATOM     30  C   UNL A   1      32.099  27.423  22.441  1.00  0.00     0.009 A 
ATOM     31  C   UNL A   1      30.681  28.076  24.753  1.00  0.00     0.009 A 
ATOM     32  C   UNL A   1      30.974  28.247  22.364  1.00  0.00     0.001 A 
ATOM     33  C   UNL A   1      30.260  28.563  23.515  1.00  0.00     0.001 A 
ENDBRANCH  23  24
ENDBRANCH   8  23
ENDBRANCH   5   8
ENDBRANCH   3   4
ENDBRANCH   2   3
ENDBRANCH   1   2
BRANCH   1  34
ATOM     34  C   UNL A   1      39.757  20.154  26.745  1.00  0.00     0.116 C 
BRANCH  34  35
ATOM     35  N   UNL A   1      40.834  19.382  26.145  1.00  0.00    -0.352 N 
ATOM     36  C   UNL A   1      42.087  19.802  25.773  1.00  0.00     0.251 C 
ATOM     37  H   UNL A   1      40.639  18.431  25.986  1.00  0.00     0.163 HD
ATOM     38  O   UNL A   1      42.821  19.048  25.140  1.00  0.00    -0.269 OA
BRANCH  36  39
ATOM     39  C   UNL A   1      42.532  21.170  26.115  1.00  0.00     0.039 A 
ATOM     40  C   UNL A   1      42.834  21.469  27.444  1.00  0.00     0.014 A 
ATOM     41  C   UNL A   1      42.651  22.152  25.128  1.00  0.00     0.014 A 
ATOM     42  C   UNL A   1      43.294  22.745  27.777  1.00  0.00     0.010 A 
ATOM     43  C   UNL A   1      43.196  23.392  25.446  1.00  0.00     0.010 A 
ATOM     44  C   UNL A   1      43.498  23.711  26.777  1.00  0.00    -0.014 A 
BRANCH  44  45
ATOM     45  C   UNL A   1      43.981  25.074  27.116  1.00  0.00     0.031 A 
ATOM     46  C   UNL A   1      45.426  25.435  26.893  1.00  0.00     0.074 A 
ATOM     47  C   UNL A   1      43.133  25.972  27.654  1.00  0.00     0.049 A 
ATOM     48  N   UNL A   1      46.046  26.559  27.145  1.00  0.00    -0.248 NA
ATOM     49  C   UNL A   1      46.299  24.384  26.343  1.00  0.00     0.031 C 
ATOM     50  C   UNL A   1      41.723  25.724  27.969  1.00  0.00     0.029 A 
ATOM     51  N   UNL A   1      43.331  27.276  28.034  1.00  0.00    -0.354 N 
ATOM     52  C   UNL A   1      47.375  26.345  26.795  1.00  0.00     0.074 A 
ATOM     53  C   UNL A   1      47.487  24.966  26.381  1.00  0.00     0.031 C 
ATOM     54  C   UNL A   1      41.179  26.848  28.462  1.00  0.00     0.029 A 
ATOM     55  C   UNL A   1      42.204  27.884  28.532  1.00  0.00     0.049 A 
ATOM     56  H   UNL A   1      44.200  27.732  27.956  1.00  0.00     0.167 HD
ATOM     57  C   UNL A   1      48.403  27.228  26.790  1.00  0.00     0.037 A 
ATOM     58  C   UNL A   1      42.019  29.136  28.993  1.00  0.00     0.037 A 
ATOM     59  C   UNL A   1      48.279  28.608  27.180  1.00  0.00     0.049 A 
ATOM     60  C   UNL A   1      43.175  30.100  28.968  1.00  0.00     0.074 A 
ATOM     61  C   UNL A   1      49.244  29.598  27.161  1.00  0.00     0.029 A 
ATOM     62  N   UNL A   1      47.116  29.194  27.660  1.00  0.00    -0.354 N 
ATOM     63  N   UNL A   1      44.409  29.901  28.573  1.00  0.00    -0.248 NA
ATOM     64  C   UNL A   1      42.907  31.467  29.438  1.00  0.00     0.031 C 
ATOM     65  C   UNL A   1      48.679  30.770  27.676  1.00  0.00     0.029 A 
ATOM     66  C   UNL A   1      47.345  30.526  27.958  1.00  0.00     0.049 A 
ATOM     67  H   UNL A   1      46.255  28.730  27.772  1.00  0.00     0.167 HD
ATOM     68  C   UNL A   1      45.058  31.124  28.716  1.00  0.00     0.074 A 
ATOM     69  C   UNL A   1      44.071  32.059  29.216  1.00  0.00     0.031 C 
ATOM     70  C   UNL A   1      46.350  31.445  28.456  1.00  0.00     0.037 A 
BRANCH  57  71
ATOM     71  C   UNL A   1      49.751  26.724  26.342  1.00  0.00     0.058 A 
ATOM     72  C   UNL A   1      50.190  26.867  25.015  1.00  0.00     0.135 A 
ATOM     73  C   UNL A   1      50.625  26.115  27.256  1.00  0.00     0.135 A 
ATOM     74  F   UNL A   1      49.390  27.426  24.094  1.00  0.00    -0.206 F 
ATOM     75  C   UNL A   1      51.432  26.394  24.604  1.00  0.00     0.059 A 
ATOM     76  C   UNL A   1      51.886  25.665  26.873  1.00  0.00     0.059 A 
ATOM     77  F   UNL A   1      50.259  25.950  28.537  1.00  0.00    -0.206 F 
ATOM     78  C   UNL A   1      52.274  25.795  25.541  1.00  0.00     0.060 A 
BRANCH  78  79
ATOM     79  S   UNL A   1      53.885  25.194  24.991  1.00  0.00     0.124 S 
ATOM     80  O   UNL A   1      54.034  25.888  23.715  1.00  0.00    -0.237 OA
ATOM     81  O   UNL A   1      54.767  25.643  26.063  1.00  0.00    -0.237 OA
ATOM     82  O   UNL A   1      53.698  23.750  24.901  1.00  0.00    -0.744 OA
ENDBRANCH  78  79
ENDBRANCH  57  71
BRANCH  58  83
ATOM     83  C   UNL A   1      40.680  29.560  29.486  1.00  0.00     0.058 A 
ATOM     84  C   UNL A   1      39.600  29.718  28.605  1.00  0.00     0.135 A 
ATOM     85  C   UNL A   1      40.452  29.814  30.848  1.00  0.00     0.135 A 
ATOM     86  F   UNL A   1      39.766  29.492  27.293  1.00  0.00    -0.206 F 
ATOM     87  C   UNL A   1      38.349  30.134  29.050  1.00  0.00     0.059 A 
ATOM     88  C   UNL A   1      39.203  30.204  31.321  1.00  0.00     0.059 A 
ATOM     89  F   UNL A   1      41.447  29.661  31.736  1.00  0.00    -0.206 F 
ATOM     90  C   UNL A   1      38.160  30.373  30.411  1.00  0.00     0.060 A 
BRANCH  90  91
ATOM     91  S   UNL A   1      36.521  30.872  30.983  1.00  0.00     0.124 S 
ATOM     92  O   UNL A   1      36.146  29.741  31.824  1.00  0.00    -0.237 OA
ATOM     93  O   UNL A   1      36.808  32.121  31.680  1.00  0.00    -0.237 OA
ATOM     94  O   UNL A   1      35.763  31.015  29.743  1.00  0.00    -0.744 OA
ENDBRANCH  90  91
ENDBRANCH  58  83
BRANCH  70  95
ATOM     95  C   UNL A   1      46.759  32.880  28.668  1.00  0.00     0.058 A 
ATOM     96  C   UNL A   1      46.654  33.840  27.649  1.00  0.00     0.135 A 
ATOM     97  C   UNL A   1      47.251  33.299  29.915  1.00  0.00     0.135 A 
ATOM     98  F   UNL A   1      46.191  33.494  26.438  1.00  0.00    -0.206 F 
ATOM     99  C   UNL A   1      47.068  35.154  27.845  1.00  0.00     0.059 A 
ATOM    100  C   UNL A   1      47.637  34.616  30.144  1.00  0.00     0.059 A 
ATOM    101  F   UNL A   1      47.356  32.426  30.930  1.00  0.00    -0.206 F 
ATOM    102  C   UNL A   1      47.563  35.531  29.095  1.00  0.00     0.060 A 
BRANCH 102 103
ATOM    103  S   UNL A   1      48.106  37.235  29.334  1.00  0.00     0.124 S 
ATOM    104  O   UNL A   1      49.404  37.043  29.972  1.00  0.00    -0.237 OA
ATOM    105  O   UNL A   1      48.142  37.746  27.966  1.00  0.00    -0.237 OA
ATOM    106  O   UNL A   1      47.067  37.808  30.183  1.00  0.00    -0.744 OA
ENDBRANCH 102 103
ENDBRANCH  70  95
ENDBRANCH  44  45
ENDBRANCH  36  39
ENDBRANCH  34  35
ENDBRANCH   1  34
TORSDOF 17
ENDMDL
