MODEL 1
REMARK VINA RESULT:     -12.1      0.000      0.000
REMARK SMILES CC[C@]1(C(=O)NCCCCNC(=O)c2ccc(-c3c4nc(c(-c5c(F)cc(S(=O)(=O)[O-])cc5F)c5ccc([nH]5)c(-c5c(F)cc(S(=O)(=O)[O-])cc5F)c5nc(c(-c6c(F)cc(S(=O)(=O)[O-])cc6F)c6ccc3[nH]6)C=C5)C=C4)cc2)CCC[N@@H+]([C@@H]2CCC[C@H](S(C)(=O)=O)C2)C1
REMARK SMILES IDX 9 1 8 2 7 3 6 4 4 5 5 6 3 8 80 9 94 10 81 11 83 12 82 13
REMARK SMILES IDX 2 15 1 16 84 17 85 18 93 19 86 20 88 21 87 22 89 23 90 24
REMARK SMILES IDX 91 25 92 26 10 27 11 28 12 29 13 31 14 32 15 33 79 34 16 35
REMARK SMILES IDX 78 36 17 37 18 38 19 39 72 40 20 41 77 42 71 43 73 44 21 45
REMARK SMILES IDX 76 46 70 47 69 48 22 50 56 51 35 52 55 53 36 54 39 55 54 56
REMARK SMILES IDX 74 57 37 58 38 59 53 61 75 62 40 63 23 64 24 65 33 66 25 67
REMARK SMILES IDX 26 68 32 69 34 70 27 71 28 72 29 73 30 74 31 75 57 76 58 77
REMARK SMILES IDX 67 78 59 79 60 80 66 81 68 82 61 83 62 84 63 85 64 86 65 87
REMARK SMILES IDX 41 88 42 89 51 90 43 91 44 92 50 93 52 94 45 95 46 96 47 97
REMARK SMILES IDX 48 98 49 99
REMARK H PARENT 6 7 83 14 11 30 73 49 39 60
REMARK Flexibility Score: inf
ROOT
ATOM      1  C   UNL A   1      38.911  22.860  26.512  1.00  0.00     0.023 C 
ENDROOT
BRANCH   1   2
ATOM      2  C   UNL A   1      37.877  23.935  26.183  1.00  0.00     0.023 C 
BRANCH   2   3
ATOM      3  C   UNL A   1      36.551  23.385  25.669  1.00  0.00     0.116 C 
BRANCH   3   4
ATOM      4  N   UNL A   1      35.695  22.950  26.763  1.00  0.00    -0.355 N 
ATOM      5  C   UNL A   1      34.338  22.862  26.893  1.00  0.00     0.231 C 
ATOM      6  O   UNL A   1      33.941  22.565  28.020  1.00  0.00    -0.274 OA
ATOM      7  H   UNL A   1      36.190  22.664  27.564  1.00  0.00     0.163 HD
BRANCH   5   8
ATOM      8  C   UNL A   1      33.381  23.128  25.702  1.00  0.00     0.098 C 
ATOM      9  C   UNL A   1      31.957  22.705  26.147  1.00  0.00     0.028 C 
ATOM     10  C   UNL A   1      33.485  24.646  25.327  1.00  0.00     0.279 C 
ATOM     11  C   UNL A   1      30.883  23.335  25.283  1.00  0.00     0.063 C 
ATOM     12  N   UNL A   1      32.303  25.292  24.712  1.00  0.00    -0.332 N 
ATOM     13  C   UNL A   1      31.025  24.849  25.281  1.00  0.00     0.262 C 
ATOM     14  H   UNL A   1      32.273  24.967  23.746  1.00  0.00     0.348 HD
BRANCH   8  15
ATOM     15  C   UNL A   1      33.700  22.275  24.420  1.00  0.00     0.019 C 
ATOM     16  C   UNL A   1      33.666  20.755  24.533  1.00  0.00     0.005 C 
ENDBRANCH   8  15
BRANCH  12  17
ATOM     17  C   UNL A   1      32.447  26.779  24.649  1.00  0.00     0.185 C 
ATOM     18  C   UNL A   1      32.612  27.476  26.020  1.00  0.00     0.065 C 
ATOM     19  C   UNL A   1      31.284  27.410  23.852  1.00  0.00     0.084 C 
ATOM     20  C   UNL A   1      32.714  28.993  25.887  1.00  0.00     0.007 C 
ATOM     21  C   UNL A   1      31.331  28.945  23.783  1.00  0.00     0.114 C 
ATOM     22  C   UNL A   1      31.499  29.565  25.171  1.00  0.00     0.020 C 
BRANCH  21  23
ATOM     23  S   UNL A   1      29.819  29.535  22.977  1.00  0.00     0.150 S 
ATOM     24  C   UNL A   1      28.653  28.206  23.147  1.00  0.00     0.158 C 
ATOM     25  O   UNL A   1      29.304  30.644  23.761  1.00  0.00    -0.229 OA
ATOM     26  O   UNL A   1      30.080  29.696  21.561  1.00  0.00    -0.229 OA
ENDBRANCH  21  23
ENDBRANCH  12  17
ENDBRANCH   5   8
ENDBRANCH   3   4
ENDBRANCH   2   3
ENDBRANCH   1   2
BRANCH   1  27
ATOM     27  C   UNL A   1      40.227  23.390  27.065  1.00  0.00     0.116 C 
BRANCH  27  28
ATOM     28  N   UNL A   1      41.045  24.031  26.045  1.00  0.00    -0.352 N 
ATOM     29  C   UNL A   1      41.545  25.310  26.025  1.00  0.00     0.251 C 
ATOM     30  H   UNL A   1      41.267  23.474  25.264  1.00  0.00     0.163 HD
ATOM     31  O   UNL A   1      42.077  25.749  25.012  1.00  0.00    -0.269 OA
BRANCH  29  32
ATOM     32  C   UNL A   1      41.412  26.153  27.231  1.00  0.00     0.039 A 
ATOM     33  C   UNL A   1      42.346  27.164  27.460  1.00  0.00     0.014 A 
ATOM     34  C   UNL A   1      40.343  25.964  28.113  1.00  0.00     0.014 A 
ATOM     35  C   UNL A   1      42.178  28.021  28.548  1.00  0.00     0.010 A 
ATOM     36  C   UNL A   1      40.131  26.872  29.145  1.00  0.00     0.010 A 
ATOM     37  C   UNL A   1      41.053  27.901  29.382  1.00  0.00    -0.014 A 
BRANCH  37  38
ATOM     38  C   UNL A   1      40.837  28.830  30.521  1.00  0.00     0.031 A 
ATOM     39  C   UNL A   1      41.673  28.697  31.766  1.00  0.00     0.074 A 
ATOM     40  C   UNL A   1      39.859  29.755  30.456  1.00  0.00     0.049 A 
ATOM     41  N   UNL A   1      41.607  29.377  32.882  1.00  0.00    -0.248 NA
ATOM     42  C   UNL A   1      42.699  27.641  31.770  1.00  0.00     0.031 C 
ATOM     43  C   UNL A   1      38.948  29.946  29.325  1.00  0.00     0.029 A 
ATOM     44  N   UNL A   1      39.462  30.705  31.363  1.00  0.00    -0.354 N 
ATOM     45  C   UNL A   1      42.569  28.825  33.720  1.00  0.00     0.074 A 
ATOM     46  C   UNL A   1      43.161  27.714  33.009  1.00  0.00     0.031 C 
ATOM     47  C   UNL A   1      38.120  30.968  29.593  1.00  0.00     0.029 A 
ATOM     48  C   UNL A   1      38.411  31.480  30.929  1.00  0.00     0.049 A 
ATOM     49  H   UNL A   1      39.889  30.821  32.242  1.00  0.00     0.167 HD
ATOM     50  C   UNL A   1      42.947  29.227  34.957  1.00  0.00     0.037 A 
ATOM     51  C   UNL A   1      37.755  32.485  31.541  1.00  0.00     0.037 A 
ATOM     52  C   UNL A   1      42.368  30.349  35.648  1.00  0.00     0.049 A 
ATOM     53  C   UNL A   1      38.193  32.914  32.915  1.00  0.00     0.074 A 
ATOM     54  C   UNL A   1      42.716  30.872  36.881  1.00  0.00     0.029 A 
ATOM     55  N   UNL A   1      41.322  31.122  35.167  1.00  0.00    -0.354 N 
ATOM     56  N   UNL A   1      39.151  32.424  33.667  1.00  0.00    -0.248 NA
ATOM     57  C   UNL A   1      37.470  34.039  33.523  1.00  0.00     0.031 C 
ATOM     58  C   UNL A   1      41.845  31.928  37.168  1.00  0.00     0.029 A 
ATOM     59  C   UNL A   1      40.997  32.105  36.088  1.00  0.00     0.049 A 
ATOM     60  H   UNL A   1      40.876  30.992  34.299  1.00  0.00     0.167 HD
ATOM     61  C   UNL A   1      39.167  33.202  34.820  1.00  0.00     0.074 A 
ATOM     62  C   UNL A   1      38.131  34.201  34.660  1.00  0.00     0.031 C 
ATOM     63  C   UNL A   1      39.968  33.100  35.910  1.00  0.00     0.037 A 
BRANCH  50  64
ATOM     64  C   UNL A   1      44.039  28.448  35.640  1.00  0.00     0.058 A 
ATOM     65  C   UNL A   1      45.397  28.755  35.449  1.00  0.00     0.135 A 
ATOM     66  C   UNL A   1      43.726  27.401  36.522  1.00  0.00     0.135 A 
ATOM     67  F   UNL A   1      45.757  29.735  34.604  1.00  0.00    -0.206 F 
ATOM     68  C   UNL A   1      46.403  28.033  36.080  1.00  0.00     0.059 A 
ATOM     69  C   UNL A   1      44.716  26.686  37.191  1.00  0.00     0.059 A 
ATOM     70  F   UNL A   1      42.446  27.062  36.743  1.00  0.00    -0.206 F 
ATOM     71  C   UNL A   1      46.053  26.999  36.951  1.00  0.00     0.060 A 
BRANCH  71  72
ATOM     72  S   UNL A   1      47.373  26.075  37.764  1.00  0.00     0.124 S 
ATOM     73  O   UNL A   1      48.505  26.983  37.604  1.00  0.00    -0.237 OA
ATOM     74  O   UNL A   1      46.862  25.936  39.125  1.00  0.00    -0.237 OA
ATOM     75  O   UNL A   1      47.446  24.837  36.996  1.00  0.00    -0.744 OA
ENDBRANCH  71  72
ENDBRANCH  50  64
BRANCH  51  76
ATOM     76  C   UNL A   1      36.635  33.176  30.846  1.00  0.00     0.058 A 
ATOM     77  C   UNL A   1      36.878  34.059  29.782  1.00  0.00     0.135 A 
ATOM     78  C   UNL A   1      35.301  32.962  31.223  1.00  0.00     0.135 A 
ATOM     79  F   UNL A   1      38.137  34.301  29.386  1.00  0.00    -0.206 F 
ATOM     80  C   UNL A   1      35.841  34.721  29.132  1.00  0.00     0.059 A 
ATOM     81  C   UNL A   1      34.245  33.591  30.569  1.00  0.00     0.059 A 
ATOM     82  F   UNL A   1      35.012  32.114  32.222  1.00  0.00    -0.206 F 
ATOM     83  C   UNL A   1      34.527  34.478  29.532  1.00  0.00     0.060 A 
BRANCH  83  84
ATOM     84  S   UNL A   1      33.187  35.310  28.652  1.00  0.00     0.124 S 
ATOM     85  O   UNL A   1      32.581  34.202  27.924  1.00  0.00    -0.237 OA
ATOM     86  O   UNL A   1      32.397  35.861  29.750  1.00  0.00    -0.237 OA
ATOM     87  O   UNL A   1      33.885  36.298  27.834  1.00  0.00    -0.744 OA
ENDBRANCH  83  84
ENDBRANCH  51  76
BRANCH  63  88
ATOM     88  C   UNL A   1      39.793  34.126  36.998  1.00  0.00     0.058 A 
ATOM     89  C   UNL A   1      38.964  33.899  38.107  1.00  0.00     0.135 A 
ATOM     90  C   UNL A   1      40.504  35.337  36.948  1.00  0.00     0.135 A 
ATOM     91  F   UNL A   1      38.259  32.761  38.203  1.00  0.00    -0.206 F 
ATOM     92  C   UNL A   1      38.822  34.850  39.113  1.00  0.00     0.059 A 
ATOM     93  C   UNL A   1      40.402  36.287  37.958  1.00  0.00     0.059 A 
ATOM     94  F   UNL A   1      41.322  35.599  35.916  1.00  0.00    -0.206 F 
ATOM     95  C   UNL A   1      39.546  36.040  39.029  1.00  0.00     0.060 A 
BRANCH  95  96
ATOM     96  S   UNL A   1      39.370  37.254  40.353  1.00  0.00     0.124 S 
ATOM     97  O   UNL A   1      38.567  36.517  41.323  1.00  0.00    -0.237 OA
ATOM     98  O   UNL A   1      40.757  37.502  40.736  1.00  0.00    -0.237 OA
ATOM     99  O   UNL A   1      38.697  38.374  39.702  1.00  0.00    -0.744 OA
ENDBRANCH  95  96
ENDBRANCH  63  88
ENDBRANCH  37  38
ENDBRANCH  29  32
ENDBRANCH  27  28
ENDBRANCH   1  27
TORSDOF 17
ENDMDL
MODEL 2
REMARK VINA RESULT:     -11.8      1.142      2.102
REMARK SMILES CC[C@]1(C(=O)NCCCCNC(=O)c2ccc(-c3c4nc(c(-c5c(F)cc(S(=O)(=O)[O-])cc5F)c5ccc([nH]5)c(-c5c(F)cc(S(=O)(=O)[O-])cc5F)c5nc(c(-c6c(F)cc(S(=O)(=O)[O-])cc6F)c6ccc3[nH]6)C=C5)C=C4)cc2)CCC[N@@H+]([C@@H]2CCC[C@H](S(C)(=O)=O)C2)C1
REMARK SMILES IDX 9 1 8 2 7 3 6 4 4 5 5 6 3 8 80 9 94 10 81 11 83 12 82 13
REMARK SMILES IDX 2 15 1 16 84 17 85 18 93 19 86 20 88 21 87 22 89 23 90 24
REMARK SMILES IDX 91 25 92 26 10 27 11 28 12 29 13 31 14 32 15 33 79 34 16 35
REMARK SMILES IDX 78 36 17 37 18 38 19 39 72 40 20 41 77 42 71 43 73 44 21 45
REMARK SMILES IDX 76 46 70 47 69 48 22 50 56 51 35 52 55 53 36 54 39 55 54 56
REMARK SMILES IDX 74 57 37 58 38 59 53 61 75 62 40 63 23 64 24 65 33 66 25 67
REMARK SMILES IDX 26 68 32 69 34 70 27 71 28 72 29 73 30 74 31 75 57 76 58 77
REMARK SMILES IDX 67 78 59 79 60 80 66 81 68 82 61 83 62 84 63 85 64 86 65 87
REMARK SMILES IDX 41 88 42 89 51 90 43 91 44 92 50 93 52 94 45 95 46 96 47 97
REMARK SMILES IDX 48 98 49 99
REMARK H PARENT 6 7 83 14 11 30 73 49 39 60
REMARK Flexibility Score: inf
ROOT
ATOM      1  C   UNL A   1      40.061  21.960  26.978  1.00  0.00     0.023 C 
ENDROOT
BRANCH   1   2
ATOM      2  C   UNL A   1      39.162  21.522  25.824  1.00  0.00     0.023 C 
BRANCH   2   3
ATOM      3  C   UNL A   1      37.781  22.169  25.832  1.00  0.00     0.116 C 
BRANCH   3   4
ATOM      4  N   UNL A   1      37.402  22.633  24.506  1.00  0.00    -0.355 N 
ATOM      5  C   UNL A   1      36.190  22.798  23.898  1.00  0.00     0.231 C 
ATOM      6  O   UNL A   1      36.243  23.097  22.704  1.00  0.00    -0.274 OA
ATOM      7  H   UNL A   1      38.168  22.875  23.936  1.00  0.00     0.163 HD
BRANCH   5   8
ATOM      8  C   UNL A   1      34.855  22.611  24.665  1.00  0.00     0.098 C 
ATOM      9  C   UNL A   1      35.141  22.876  26.166  1.00  0.00     0.028 C 
ATOM     10  C   UNL A   1      33.803  23.598  24.052  1.00  0.00     0.279 C 
ATOM     11  C   UNL A   1      33.873  23.187  26.937  1.00  0.00     0.063 C 
ATOM     12  N   UNL A   1      32.714  24.084  24.931  1.00  0.00    -0.332 N 
ATOM     13  C   UNL A   1      33.144  24.363  26.306  1.00  0.00     0.262 C 
ATOM     14  H   UNL A   1      32.059  23.308  25.026  1.00  0.00     0.348 HD
BRANCH   8  15
ATOM     15  C   UNL A   1      34.273  21.152  24.591  1.00  0.00     0.019 C 
ATOM     16  C   UNL A   1      32.932  20.940  23.899  1.00  0.00     0.005 C 
ENDBRANCH   8  15
BRANCH  12  17
ATOM     17  C   UNL A   1      31.947  25.203  24.304  1.00  0.00     0.185 C 
ATOM     18  C   UNL A   1      32.197  25.397  22.790  1.00  0.00     0.065 C 
ATOM     19  C   UNL A   1      32.180  26.525  25.069  1.00  0.00     0.084 C 
ATOM     20  C   UNL A   1      31.416  26.578  22.222  1.00  0.00     0.007 C 
ATOM     21  C   UNL A   1      31.465  27.740  24.456  1.00  0.00     0.114 C 
ATOM     22  C   UNL A   1      31.754  27.866  22.959  1.00  0.00     0.020 C 
BRANCH  21  23
ATOM     23  S   UNL A   1      31.978  29.228  25.354  1.00  0.00     0.150 S 
ATOM     24  C   UNL A   1      31.772  28.828  27.072  1.00  0.00     0.158 C 
ATOM     25  O   UNL A   1      33.402  29.406  25.135  1.00  0.00    -0.229 OA
ATOM     26  O   UNL A   1      31.048  30.297  25.050  1.00  0.00    -0.229 OA
ENDBRANCH  21  23
ENDBRANCH  12  17
ENDBRANCH   5   8
ENDBRANCH   3   4
ENDBRANCH   2   3
ENDBRANCH   1   2
BRANCH   1  27
ATOM     27  C   UNL A   1      40.134  23.466  27.192  1.00  0.00     0.116 C 
BRANCH  27  28
ATOM     28  N   UNL A   1      40.847  24.148  26.122  1.00  0.00    -0.352 N 
ATOM     29  C   UNL A   1      41.280  25.451  26.075  1.00  0.00     0.251 C 
ATOM     30  H   UNL A   1      41.045  23.604  25.326  1.00  0.00     0.163 HD
ATOM     31  O   UNL A   1      41.720  25.917  25.029  1.00  0.00    -0.269 OA
BRANCH  29  32
ATOM     32  C   UNL A   1      41.185  26.285  27.290  1.00  0.00     0.039 A 
ATOM     33  C   UNL A   1      42.089  27.334  27.467  1.00  0.00     0.014 A 
ATOM     34  C   UNL A   1      40.181  26.050  28.234  1.00  0.00     0.014 A 
ATOM     35  C   UNL A   1      41.952  28.180  28.568  1.00  0.00     0.010 A 
ATOM     36  C   UNL A   1      39.994  26.946  29.281  1.00  0.00     0.010 A 
ATOM     37  C   UNL A   1      40.885  28.012  29.467  1.00  0.00    -0.014 A 
BRANCH  37  38
ATOM     38  C   UNL A   1      40.701  28.928  30.622  1.00  0.00     0.031 A 
ATOM     39  C   UNL A   1      41.553  28.767  31.852  1.00  0.00     0.074 A 
ATOM     40  C   UNL A   1      39.736  29.869  30.584  1.00  0.00     0.049 A 
ATOM     41  N   UNL A   1      41.514  29.432  32.978  1.00  0.00    -0.248 NA
ATOM     42  C   UNL A   1      42.563  27.696  31.826  1.00  0.00     0.031 C 
ATOM     43  C   UNL A   1      38.810  30.088  29.470  1.00  0.00     0.029 A 
ATOM     44  N   UNL A   1      39.367  30.812  31.509  1.00  0.00    -0.354 N 
ATOM     45  C   UNL A   1      42.480  28.855  33.793  1.00  0.00     0.074 A 
ATOM     46  C   UNL A   1      43.045  27.745  33.059  1.00  0.00     0.031 C 
ATOM     47  C   UNL A   1      38.002  31.118  29.764  1.00  0.00     0.029 A 
ATOM     48  C   UNL A   1      38.321  31.609  31.102  1.00  0.00     0.049 A 
ATOM     49  H   UNL A   1      39.808  30.910  32.383  1.00  0.00     0.167 HD
ATOM     50  C   UNL A   1      42.883  29.234  35.030  1.00  0.00     0.037 A 
ATOM     51  C   UNL A   1      37.690  32.615  31.737  1.00  0.00     0.037 A 
ATOM     52  C   UNL A   1      42.332  30.355  35.744  1.00  0.00     0.049 A 
ATOM     53  C   UNL A   1      38.154  33.018  33.110  1.00  0.00     0.074 A 
ATOM     54  C   UNL A   1      42.706  30.857  36.979  1.00  0.00     0.029 A 
ATOM     55  N   UNL A   1      41.290  31.150  35.290  1.00  0.00    -0.354 N 
ATOM     56  N   UNL A   1      39.116  32.504  33.841  1.00  0.00    -0.248 NA
ATOM     57  C   UNL A   1      37.457  34.146  33.744  1.00  0.00     0.031 C 
ATOM     58  C   UNL A   1      41.855  31.922  37.293  1.00  0.00     0.029 A 
ATOM     59  C   UNL A   1      40.994  32.125  36.228  1.00  0.00     0.049 A 
ATOM     60  H   UNL A   1      40.829  31.039  34.427  1.00  0.00     0.167 HD
ATOM     61  C   UNL A   1      39.162  33.266  35.003  1.00  0.00     0.074 A 
ATOM     62  C   UNL A   1      38.138  34.283  34.872  1.00  0.00     0.031 C 
ATOM     63  C   UNL A   1      39.977  33.138  36.080  1.00  0.00     0.037 A 
BRANCH  50  64
ATOM     64  C   UNL A   1      43.974  28.430  35.686  1.00  0.00     0.058 A 
ATOM     65  C   UNL A   1      43.686  27.351  36.538  1.00  0.00     0.135 A 
ATOM     66  C   UNL A   1      45.325  28.721  35.435  1.00  0.00     0.135 A 
ATOM     67  F   UNL A   1      42.413  27.038  36.828  1.00  0.00    -0.206 F 
ATOM     68  C   UNL A   1      44.696  26.612  37.143  1.00  0.00     0.059 A 
ATOM     69  C   UNL A   1      46.352  27.973  36.004  1.00  0.00     0.059 A 
ATOM     70  F   UNL A   1      45.660  29.742  34.630  1.00  0.00    -0.206 F 
ATOM     71  C   UNL A   1      46.028  26.930  36.870  1.00  0.00     0.060 A 
BRANCH  71  72
ATOM     72  S   UNL A   1      47.325  25.956  37.661  1.00  0.00     0.124 S 
ATOM     73  O   UNL A   1      46.990  26.117  39.073  1.00  0.00    -0.237 OA
ATOM     74  O   UNL A   1      47.099  24.625  37.104  1.00  0.00    -0.237 OA
ATOM     75  O   UNL A   1      48.555  26.612  37.229  1.00  0.00    -0.744 OA
ENDBRANCH  71  72
ENDBRANCH  50  64
BRANCH  51  76
ATOM     76  C   UNL A   1      36.570  33.331  31.068  1.00  0.00     0.058 A 
ATOM     77  C   UNL A   1      36.803  34.181  29.976  1.00  0.00     0.135 A 
ATOM     78  C   UNL A   1      35.243  33.175  31.499  1.00  0.00     0.135 A 
ATOM     79  F   UNL A   1      38.054  34.368  29.528  1.00  0.00    -0.206 F 
ATOM     80  C   UNL A   1      35.767  34.867  29.350  1.00  0.00     0.059 A 
ATOM     81  C   UNL A   1      34.187  33.828  30.872  1.00  0.00     0.059 A 
ATOM     82  F   UNL A   1      34.962  32.360  32.528  1.00  0.00    -0.206 F 
ATOM     83  C   UNL A   1      34.461  34.682  29.804  1.00  0.00     0.060 A 
BRANCH  83  84
ATOM     84  S   UNL A   1      33.119  35.543  28.956  1.00  0.00     0.124 S 
ATOM     85  O   UNL A   1      33.856  36.477  28.114  1.00  0.00    -0.237 OA
ATOM     86  O   UNL A   1      32.446  34.449  28.260  1.00  0.00    -0.237 OA
ATOM     87  O   UNL A   1      32.359  36.141  30.050  1.00  0.00    -0.744 OA
ENDBRANCH  83  84
ENDBRANCH  51  76
BRANCH  63  88
ATOM     88  C   UNL A   1      39.834  34.151  37.183  1.00  0.00     0.058 A 
ATOM     89  C   UNL A   1      40.550  35.358  37.182  1.00  0.00     0.135 A 
ATOM     90  C   UNL A   1      38.928  33.928  38.234  1.00  0.00     0.135 A 
ATOM     91  F   UNL A   1      41.432  35.620  36.204  1.00  0.00    -0.206 F 
ATOM     92  C   UNL A   1      40.398  36.293  38.201  1.00  0.00     0.059 A 
ATOM     93  C   UNL A   1      38.736  34.863  39.245  1.00  0.00     0.059 A 
ATOM     94  F   UNL A   1      38.207  32.796  38.277  1.00  0.00    -0.206 F 
ATOM     95  C   UNL A   1      39.487  36.037  39.227  1.00  0.00     0.060 A 
BRANCH  95  96
ATOM     96  S   UNL A   1      39.282  37.269  40.530  1.00  0.00     0.124 S 
ATOM     97  O   UNL A   1      38.219  38.104  39.979  1.00  0.00    -0.237 OA
ATOM     98  O   UNL A   1      38.913  36.450  41.680  1.00  0.00    -0.237 OA
ATOM     99  O   UNL A   1      40.596  37.900  40.613  1.00  0.00    -0.744 OA
ENDBRANCH  95  96
ENDBRANCH  63  88
ENDBRANCH  37  38
ENDBRANCH  29  32
ENDBRANCH  27  28
ENDBRANCH   1  27
TORSDOF 17
ENDMDL
MODEL 3
REMARK VINA RESULT:     -11.8      6.643     12.097
REMARK SMILES CC[C@]1(C(=O)NCCCCNC(=O)c2ccc(-c3c4nc(c(-c5c(F)cc(S(=O)(=O)[O-])cc5F)c5ccc([nH]5)c(-c5c(F)cc(S(=O)(=O)[O-])cc5F)c5nc(c(-c6c(F)cc(S(=O)(=O)[O-])cc6F)c6ccc3[nH]6)C=C5)C=C4)cc2)CCC[N@@H+]([C@@H]2CCC[C@H](S(C)(=O)=O)C2)C1
REMARK SMILES IDX 9 1 8 2 7 3 6 4 4 5 5 6 3 8 80 9 94 10 81 11 83 12 82 13
REMARK SMILES IDX 2 15 1 16 84 17 85 18 93 19 86 20 88 21 87 22 89 23 90 24
REMARK SMILES IDX 91 25 92 26 10 27 11 28 12 29 13 31 14 32 15 33 79 34 16 35
REMARK SMILES IDX 78 36 17 37 18 38 19 39 72 40 20 41 77 42 71 43 73 44 21 45
REMARK SMILES IDX 76 46 70 47 69 48 22 50 56 51 35 52 55 53 36 54 39 55 54 56
REMARK SMILES IDX 74 57 37 58 38 59 53 61 75 62 40 63 23 64 24 65 33 66 25 67
REMARK SMILES IDX 26 68 32 69 34 70 27 71 28 72 29 73 30 74 31 75 57 76 58 77
REMARK SMILES IDX 67 78 59 79 60 80 66 81 68 82 61 83 62 84 63 85 64 86 65 87
REMARK SMILES IDX 41 88 42 89 51 90 43 91 44 92 50 93 52 94 45 95 46 96 47 97
REMARK SMILES IDX 48 98 49 99
REMARK H PARENT 6 7 83 14 11 30 73 49 39 60
REMARK Flexibility Score: inf
ROOT
ATOM      1  C   UNL A   1      34.191  29.107  27.292  1.00  0.00     0.023 C 
ENDROOT
BRANCH   1   2
ATOM      2  C   UNL A   1      32.832  29.768  27.067  1.00  0.00     0.023 C 
BRANCH   2   3
ATOM      3  C   UNL A   1      32.193  29.429  25.724  1.00  0.00     0.116 C 
BRANCH   3   4
ATOM      4  N   UNL A   1      33.163  29.493  24.641  1.00  0.00    -0.355 N 
ATOM      5  C   UNL A   1      33.376  28.706  23.546  1.00  0.00     0.231 C 
ATOM      6  O   UNL A   1      34.381  28.984  22.891  1.00  0.00    -0.274 OA
ATOM      7  H   UNL A   1      33.786  30.253  24.711  1.00  0.00     0.163 HD
BRANCH   5   8
ATOM      8  C   UNL A   1      32.419  27.543  23.172  1.00  0.00     0.098 C 
ATOM      9  C   UNL A   1      32.696  27.171  21.693  1.00  0.00     0.028 C 
ATOM     10  C   UNL A   1      32.684  26.361  24.167  1.00  0.00     0.279 C 
ATOM     11  C   UNL A   1      32.188  25.784  21.353  1.00  0.00     0.063 C 
ATOM     12  N   UNL A   1      32.413  24.983  23.694  1.00  0.00    -0.332 N 
ATOM     13  C   UNL A   1      32.791  24.754  22.295  1.00  0.00     0.262 C 
ATOM     14  H   UNL A   1      31.399  24.876  23.701  1.00  0.00     0.348 HD
BRANCH   8  15
ATOM     15  C   UNL A   1      30.894  27.921  23.242  1.00  0.00     0.019 C 
ATOM     16  C   UNL A   1      30.417  29.156  22.485  1.00  0.00     0.005 C 
ENDBRANCH   8  15
BRANCH  12  17
ATOM     17  C   UNL A   1      32.949  23.953  24.636  1.00  0.00     0.185 C 
ATOM     18  C   UNL A   1      32.962  24.376  26.124  1.00  0.00     0.065 C 
ATOM     19  C   UNL A   1      34.349  23.478  24.192  1.00  0.00     0.084 C 
ATOM     20  C   UNL A   1      33.556  23.297  27.025  1.00  0.00     0.007 C 
ATOM     21  C   UNL A   1      34.994  22.452  25.139  1.00  0.00     0.114 C 
ATOM     22  C   UNL A   1      34.968  22.933  26.590  1.00  0.00     0.020 C 
BRANCH  21  23
ATOM     23  S   UNL A   1      36.688  22.133  24.581  1.00  0.00     0.150 S 
ATOM     24  C   UNL A   1      37.728  22.972  25.751  1.00  0.00     0.158 C 
ATOM     25  O   UNL A   1      36.945  20.713  24.739  1.00  0.00    -0.229 OA
ATOM     26  O   UNL A   1      36.883  22.777  23.297  1.00  0.00    -0.229 OA
ENDBRANCH  21  23
ENDBRANCH  12  17
ENDBRANCH   5   8
ENDBRANCH   3   4
ENDBRANCH   2   3
ENDBRANCH   1   2
BRANCH   1  27
ATOM     27  C   UNL A   1      35.326  30.075  27.601  1.00  0.00     0.116 C 
BRANCH  27  28
ATOM     28  N   UNL A   1      35.313  30.527  28.985  1.00  0.00    -0.352 N 
ATOM     29  C   UNL A   1      36.289  30.388  29.940  1.00  0.00     0.251 C 
ATOM     30  H   UNL A   1      34.496  30.994  29.274  1.00  0.00     0.163 HD
ATOM     31  O   UNL A   1      36.055  30.679  31.109  1.00  0.00    -0.269 OA
BRANCH  29  32
ATOM     32  C   UNL A   1      37.612  29.863  29.547  1.00  0.00     0.039 A 
ATOM     33  C   UNL A   1      38.001  29.933  28.209  1.00  0.00     0.014 A 
ATOM     34  C   UNL A   1      38.479  29.333  30.508  1.00  0.00     0.014 A 
ATOM     35  C   UNL A   1      39.283  29.519  27.843  1.00  0.00     0.010 A 
ATOM     36  C   UNL A   1      39.783  29.004  30.156  1.00  0.00     0.010 A 
ATOM     37  C   UNL A   1      40.195  29.080  28.818  1.00  0.00    -0.014 A 
BRANCH  37  38
ATOM     38  C   UNL A   1      41.576  28.674  28.452  1.00  0.00     0.031 A 
ATOM     39  C   UNL A   1      42.673  29.703  28.404  1.00  0.00     0.074 A 
ATOM     40  C   UNL A   1      41.831  27.394  28.116  1.00  0.00     0.049 A 
ATOM     41  N   UNL A   1      43.928  29.558  28.063  1.00  0.00    -0.248 NA
ATOM     42  C   UNL A   1      42.306  31.085  28.755  1.00  0.00     0.031 C 
ATOM     43  C   UNL A   1      40.841  26.315  28.072  1.00  0.00     0.029 A 
ATOM     44  N   UNL A   1      43.000  26.783  27.738  1.00  0.00    -0.354 N 
ATOM     45  C   UNL A   1      44.492  30.826  28.148  1.00  0.00     0.074 A 
ATOM     46  C   UNL A   1      43.431  31.738  28.509  1.00  0.00     0.031 C 
ATOM     47  C   UNL A   1      41.449  25.172  27.719  1.00  0.00     0.029 A 
ATOM     48  C   UNL A   1      42.863  25.439  27.472  1.00  0.00     0.049 A 
ATOM     49  H   UNL A   1      43.858  27.260  27.665  1.00  0.00     0.167 HD
ATOM     50  C   UNL A   1      45.785  31.192  27.972  1.00  0.00     0.037 A 
ATOM     51  C   UNL A   1      43.771  24.530  27.070  1.00  0.00     0.037 A 
ATOM     52  C   UNL A   1      46.840  30.272  27.635  1.00  0.00     0.049 A 
ATOM     53  C   UNL A   1      45.201  24.960  26.880  1.00  0.00     0.074 A 
ATOM     54  C   UNL A   1      48.192  30.532  27.487  1.00  0.00     0.029 A 
ATOM     55  N   UNL A   1      46.665  28.917  27.395  1.00  0.00    -0.354 N 
ATOM     56  N   UNL A   1      45.732  26.151  27.030  1.00  0.00    -0.248 NA
ATOM     57  C   UNL A   1      46.160  23.922  26.477  1.00  0.00     0.031 C 
ATOM     58  C   UNL A   1      48.824  29.344  27.106  1.00  0.00     0.029 A 
ATOM     59  C   UNL A   1      47.880  28.331  27.079  1.00  0.00     0.049 A 
ATOM     60  H   UNL A   1      45.804  28.442  27.443  1.00  0.00     0.167 HD
ATOM     61  C   UNL A   1      47.090  25.999  26.773  1.00  0.00     0.074 A 
ATOM     62  C   UNL A   1      47.300  24.598  26.470  1.00  0.00     0.031 C 
ATOM     63  C   UNL A   1      48.074  26.932  26.789  1.00  0.00     0.037 A 
BRANCH  50  64
ATOM     64  C   UNL A   1      46.127  32.648  28.142  1.00  0.00     0.058 A 
ATOM     65  C   UNL A   1      46.035  33.558  27.075  1.00  0.00     0.135 A 
ATOM     66  C   UNL A   1      46.523  33.148  29.393  1.00  0.00     0.135 A 
ATOM     67  F   UNL A   1      45.679  33.134  25.852  1.00  0.00    -0.206 F 
ATOM     68  C   UNL A   1      46.354  34.902  27.236  1.00  0.00     0.059 A 
ATOM     69  C   UNL A   1      46.814  34.495  29.584  1.00  0.00     0.059 A 
ATOM     70  F   UNL A   1      46.630  32.323  30.448  1.00  0.00    -0.206 F 
ATOM     71  C   UNL A   1      46.742  35.362  28.495  1.00  0.00     0.060 A 
BRANCH  71  72
ATOM     72  S   UNL A   1      47.148  37.110  28.685  1.00  0.00     0.124 S 
ATOM     73  O   UNL A   1      47.230  37.234  30.138  1.00  0.00    -0.237 OA
ATOM     74  O   UNL A   1      48.415  37.216  27.968  1.00  0.00    -0.237 OA
ATOM     75  O   UNL A   1      46.019  37.792  28.061  1.00  0.00    -0.744 OA
ENDBRANCH  71  72
ENDBRANCH  50  64
BRANCH  51  76
ATOM     76  C   UNL A   1      43.363  23.116  26.849  1.00  0.00     0.058 A 
ATOM     77  C   UNL A   1      43.238  22.592  25.553  1.00  0.00     0.135 A 
ATOM     78  C   UNL A   1      43.098  22.257  27.926  1.00  0.00     0.135 A 
ATOM     79  F   UNL A   1      43.476  23.375  24.489  1.00  0.00    -0.206 F 
ATOM     80  C   UNL A   1      42.845  21.277  25.332  1.00  0.00     0.059 A 
ATOM     81  C   UNL A   1      42.731  20.929  27.731  1.00  0.00     0.059 A 
ATOM     82  F   UNL A   1      43.220  22.701  29.187  1.00  0.00    -0.206 F 
ATOM     83  C   UNL A   1      42.596  20.451  26.429  1.00  0.00     0.060 A 
BRANCH  83  84
ATOM     84  S   UNL A   1      42.128  18.732  26.130  1.00  0.00     0.124 S 
ATOM     85  O   UNL A   1      43.044  18.361  25.058  1.00  0.00    -0.237 OA
ATOM     86  O   UNL A   1      42.382  18.117  27.430  1.00  0.00    -0.237 OA
ATOM     87  O   UNL A   1      40.720  18.828  25.755  1.00  0.00    -0.744 OA
ENDBRANCH  83  84
ENDBRANCH  51  76
BRANCH  63  88
ATOM     88  C   UNL A   1      49.479  26.463  26.520  1.00  0.00     0.058 A 
ATOM     89  C   UNL A   1      50.043  26.502  25.236  1.00  0.00     0.135 A 
ATOM     90  C   UNL A   1      50.288  26.011  27.577  1.00  0.00     0.135 A 
ATOM     91  F   UNL A   1      49.313  26.921  24.189  1.00  0.00    -0.206 F 
ATOM     92  C   UNL A   1      51.348  26.078  25.002  1.00  0.00     0.059 A 
ATOM     93  C   UNL A   1      51.604  25.615  27.372  1.00  0.00     0.059 A 
ATOM     94  F   UNL A   1      49.803  25.967  28.828  1.00  0.00    -0.206 F 
ATOM     95  C   UNL A   1      52.121  25.638  26.078  1.00  0.00     0.060 A 
BRANCH  95  96
ATOM     96  S   UNL A   1      53.819  25.114  25.765  1.00  0.00     0.124 S 
ATOM     97  O   UNL A   1      54.221  26.036  24.707  1.00  0.00    -0.237 OA
ATOM     98  O   UNL A   1      54.454  25.323  27.063  1.00  0.00    -0.237 OA
ATOM     99  O   UNL A   1      53.678  23.719  25.361  1.00  0.00    -0.744 OA
ENDBRANCH  95  96
ENDBRANCH  63  88
ENDBRANCH  37  38
ENDBRANCH  29  32
ENDBRANCH  27  28
ENDBRANCH   1  27
TORSDOF 17
ENDMDL
