MODEL 1
REMARK VINA RESULT:     -13.2      0.000      0.000
REMARK SMILES O=C(NCCCCNC(=O)c1ccc(-c2c3nc(c(-c4c(F)cc(S(=O)(=O)[O-])cc4F)c4ccc([nH]4)c(-c4c(F)cc(S(=O)(=O)[O-])cc4F)c4nc(c(-c5c(F)cc(S(=O)(=O)[O-])cc5F)c5ccc2[nH]5)C=C4)C=C3)cc1)C1=Cc2cc(Cl)cc(-c3ccccc3)c2O[C@@H]1C(F)(F)F
REMARK SMILES IDX 6 1 5 2 4 3 3 4 1 5 2 6 77 8 78 9 93 10 79 11 92 12 80 13
REMARK SMILES IDX 91 14 81 15 84 16 82 17 83 18 94 19 95 20 96 21 97 22 85 23
REMARK SMILES IDX 86 24 90 25 87 26 89 27 88 28 7 29 8 30 9 31 10 33 11 34
REMARK SMILES IDX 12 35 76 36 13 37 75 38 14 39 15 40 16 41 69 42 17 43 74 44
REMARK SMILES IDX 68 45 70 46 18 47 73 48 67 49 66 50 19 52 53 53 32 54 52 55
REMARK SMILES IDX 33 56 36 57 51 58 71 59 34 60 35 61 50 63 72 64 37 65 20 66
REMARK SMILES IDX 21 67 30 68 22 69 23 70 29 71 31 72 24 73 25 74 26 75 27 76
REMARK SMILES IDX 28 77 54 78 55 79 64 80 56 81 57 82 63 83 65 84 58 85 59 86
REMARK SMILES IDX 60 87 61 88 62 89 38 90 39 91 48 92 40 93 41 94 47 95 49 96
REMARK SMILES IDX 42 97 43 98 44 99 45 100 46 101
REMARK H PARENT 3 7 8 32 70 51 36 62
REMARK Flexibility Score: inf
ROOT
ATOM      1  C   UNL A   1      32.546  28.091  26.205  1.00  0.00     0.023 C 
ENDROOT
BRANCH   1   2
ATOM      2  C   UNL A   1      31.246  27.493  26.745  1.00  0.00     0.023 C 
BRANCH   2   3
ATOM      3  C   UNL A   1      30.840  26.164  26.110  1.00  0.00     0.116 C 
BRANCH   3   4
ATOM      4  N   UNL A   1      31.171  24.996  26.923  1.00  0.00    -0.352 N 
ATOM      5  O   UNL A   1      32.353  23.217  27.643  1.00  0.00    -0.270 OA
ATOM      6  C   UNL A   1      32.068  23.975  26.720  1.00  0.00     0.251 C 
ATOM      7  H   UNL A   1      30.662  24.928  27.763  1.00  0.00     0.163 HD
BRANCH   6   8
ATOM      8  C   UNL A   1      32.824  23.899  25.444  1.00  0.00     0.067 C 
ATOM      9  C   UNL A   1      34.122  24.197  25.311  1.00  0.00     0.025 C 
ATOM     10  C   UNL A   1      32.226  23.007  24.406  1.00  0.00     0.314 C 
ATOM     11  C   UNL A   1      34.954  23.043  24.930  1.00  0.00     0.019 A 
ATOM     12  O   UNL A   1      32.965  21.769  24.310  1.00  0.00    -0.475 OA
ATOM     13  C   UNL A   1      36.307  23.063  25.286  1.00  0.00     0.032 A 
ATOM     14  C   UNL A   1      34.313  21.815  24.608  1.00  0.00     0.135 A 
ATOM     15  C   UNL A   1      37.004  21.864  25.370  1.00  0.00     0.042 A 
ATOM     16  C   UNL A   1      34.991  20.587  24.784  1.00  0.00     0.026 A 
ATOM     17  Cl  UNL A   1      38.629  21.866  25.938  1.00  0.00    -0.084 Cl
ATOM     18  C   UNL A   1      36.359  20.649  25.132  1.00  0.00     0.033 A 
BRANCH  10  19
ATOM     19  C   UNL A   1      32.129  23.766  23.059  1.00  0.00     0.429 C 
ATOM     20  F   UNL A   1      30.849  23.867  22.632  1.00  0.00    -0.167 F 
ATOM     21  F   UNL A   1      32.606  25.033  23.163  1.00  0.00    -0.167 F 
ATOM     22  F   UNL A   1      32.832  23.171  22.064  1.00  0.00    -0.167 F 
ENDBRANCH  10  19
BRANCH  16  23
ATOM     23  C   UNL A   1      34.299  19.268  24.821  1.00  0.00    -0.015 A 
ATOM     24  C   UNL A   1      34.903  18.138  24.227  1.00  0.00     0.009 A 
ATOM     25  C   UNL A   1      33.060  19.067  25.446  1.00  0.00     0.009 A 
ATOM     26  C   UNL A   1      34.289  16.883  24.227  1.00  0.00     0.001 A 
ATOM     27  C   UNL A   1      32.451  17.803  25.469  1.00  0.00     0.001 A 
ATOM     28  C   UNL A   1      33.063  16.715  24.853  1.00  0.00     0.000 A 
ENDBRANCH  16  23
ENDBRANCH   6   8
ENDBRANCH   3   4
ENDBRANCH   2   3
ENDBRANCH   1   2
BRANCH   1  29
ATOM     29  C   UNL A   1      33.586  28.486  27.251  1.00  0.00     0.116 C 
BRANCH  29  30
ATOM     30  N   UNL A   1      33.514  29.868  27.694  1.00  0.00    -0.352 N 
ATOM     31  C   UNL A   1      34.519  30.635  28.241  1.00  0.00     0.251 C 
ATOM     32  H   UNL A   1      32.640  30.310  27.592  1.00  0.00     0.163 HD
ATOM     33  O   UNL A   1      34.283  31.794  28.594  1.00  0.00    -0.269 OA
BRANCH  31  34
ATOM     34  C   UNL A   1      35.872  30.065  28.433  1.00  0.00     0.039 A 
ATOM     35  C   UNL A   1      36.765  30.064  27.357  1.00  0.00     0.014 A 
ATOM     36  C   UNL A   1      36.276  29.558  29.672  1.00  0.00     0.014 A 
ATOM     37  C   UNL A   1      38.081  29.636  27.548  1.00  0.00     0.010 A 
ATOM     38  C   UNL A   1      37.599  29.184  29.878  1.00  0.00     0.010 A 
ATOM     39  C   UNL A   1      38.514  29.230  28.820  1.00  0.00    -0.014 A 
BRANCH  39  40
ATOM     40  C   UNL A   1      39.931  28.888  29.080  1.00  0.00     0.031 A 
ATOM     41  C   UNL A   1      40.874  29.930  29.614  1.00  0.00     0.074 A 
ATOM     42  C   UNL A   1      40.376  27.660  28.749  1.00  0.00     0.049 A 
ATOM     43  N   UNL A   1      42.151  29.831  29.870  1.00  0.00    -0.248 NA
ATOM     44  C   UNL A   1      40.311  31.267  29.871  1.00  0.00     0.031 C 
ATOM     45  C   UNL A   1      39.559  26.602  28.147  1.00  0.00     0.029 A 
ATOM     46  N   UNL A   1      41.621  27.098  28.850  1.00  0.00    -0.354 N 
ATOM     47  C   UNL A   1      42.542  31.079  30.338  1.00  0.00     0.074 A 
ATOM     48  C   UNL A   1      41.383  31.941  30.263  1.00  0.00     0.031 C 
ATOM     49  C   UNL A   1      40.326  25.519  27.936  1.00  0.00     0.029 A 
ATOM     50  C   UNL A   1      41.687  25.811  28.370  1.00  0.00     0.049 A 
ATOM     51  H   UNL A   1      42.396  27.572  29.230  1.00  0.00     0.167 HD
ATOM     52  C   UNL A   1      43.750  31.459  30.820  1.00  0.00     0.037 A 
ATOM     53  C   UNL A   1      42.732  24.965  28.290  1.00  0.00     0.037 A 
ATOM     54  C   UNL A   1      44.896  30.587  30.878  1.00  0.00     0.049 A 
ATOM     55  C   UNL A   1      44.063  25.411  28.834  1.00  0.00     0.074 A 
ATOM     56  C   UNL A   1      46.163  30.860  31.364  1.00  0.00     0.029 A 
ATOM     57  N   UNL A   1      44.912  29.271  30.438  1.00  0.00    -0.354 N 
ATOM     58  N   UNL A   1      44.398  26.575  29.344  1.00  0.00    -0.248 NA
ATOM     59  C   UNL A   1      45.151  24.425  28.821  1.00  0.00     0.031 C 
ATOM     60  C   UNL A   1      46.955  29.721  31.183  1.00  0.00     0.029 A 
ATOM     61  C   UNL A   1      46.166  28.720  30.639  1.00  0.00     0.049 A 
ATOM     62  H   UNL A   1      44.145  28.799  30.040  1.00  0.00     0.167 HD
ATOM     63  C   UNL A   1      45.721  26.443  29.753  1.00  0.00     0.074 A 
ATOM     64  C   UNL A   1      46.119  25.086  29.440  1.00  0.00     0.031 C 
ATOM     65  C   UNL A   1      46.532  27.358  30.339  1.00  0.00     0.037 A 
BRANCH  52  66
ATOM     66  C   UNL A   1      43.886  32.859  31.353  1.00  0.00     0.058 A 
ATOM     67  C   UNL A   1      44.336  33.908  30.533  1.00  0.00     0.135 A 
ATOM     68  C   UNL A   1      43.502  33.176  32.666  1.00  0.00     0.135 A 
ATOM     69  F   UNL A   1      44.735  33.660  29.275  1.00  0.00    -0.206 F 
ATOM     70  C   UNL A   1      44.412  35.217  30.998  1.00  0.00     0.059 A 
ATOM     71  C   UNL A   1      43.543  34.484  33.144  1.00  0.00     0.059 A 
ATOM     72  F   UNL A   1      43.071  32.213  33.495  1.00  0.00    -0.206 F 
ATOM     73  C   UNL A   1      44.006  35.496  32.304  1.00  0.00     0.060 A 
BRANCH  73  74
ATOM     74  S   UNL A   1      44.071  37.208  32.873  1.00  0.00     0.124 S 
ATOM     75  O   UNL A   1      43.874  37.938  31.624  1.00  0.00    -0.237 OA
ATOM     76  O   UNL A   1      42.963  37.262  33.821  1.00  0.00    -0.237 OA
ATOM     77  O   UNL A   1      45.402  37.321  33.460  1.00  0.00    -0.744 OA
ENDBRANCH  73  74
ENDBRANCH  52  66
BRANCH  53  78
ATOM     78  C   UNL A   1      42.561  23.607  27.705  1.00  0.00     0.058 A 
ATOM     79  C   UNL A   1      42.367  22.483  28.522  1.00  0.00     0.135 A 
ATOM     80  C   UNL A   1      42.610  23.402  26.317  1.00  0.00     0.135 A 
ATOM     81  F   UNL A   1      42.305  22.626  29.855  1.00  0.00    -0.206 F 
ATOM     82  C   UNL A   1      42.275  21.201  27.990  1.00  0.00     0.059 A 
ATOM     83  C   UNL A   1      42.490  22.133  25.759  1.00  0.00     0.059 A 
ATOM     84  F   UNL A   1      42.766  24.446  25.487  1.00  0.00    -0.206 F 
ATOM     85  C   UNL A   1      42.346  21.035  26.607  1.00  0.00     0.060 A 
BRANCH  85  86
ATOM     86  S   UNL A   1      42.230  19.366  25.925  1.00  0.00     0.124 S 
ATOM     87  O   UNL A   1      43.076  19.475  24.742  1.00  0.00    -0.237 OA
ATOM     88  O   UNL A   1      42.756  18.552  27.016  1.00  0.00    -0.237 OA
ATOM     89  O   UNL A   1      40.802  19.209  25.669  1.00  0.00    -0.744 OA
ENDBRANCH  85  86
ENDBRANCH  53  78
BRANCH  65  90
ATOM     90  C   UNL A   1      47.906  26.899  30.743  1.00  0.00     0.058 A 
ATOM     91  C   UNL A   1      48.146  26.248  31.963  1.00  0.00     0.135 A 
ATOM     92  C   UNL A   1      48.996  27.100  29.880  1.00  0.00     0.135 A 
ATOM     93  F   UNL A   1      47.140  26.033  32.825  1.00  0.00    -0.206 F 
ATOM     94  C   UNL A   1      49.428  25.854  32.334  1.00  0.00     0.059 A 
ATOM     95  C   UNL A   1      50.280  26.682  30.216  1.00  0.00     0.059 A 
ATOM     96  F   UNL A   1      48.819  27.704  28.695  1.00  0.00    -0.206 F 
ATOM     97  C   UNL A   1      50.489  26.079  31.454  1.00  0.00     0.060 A 
BRANCH  97  98
ATOM     98  S   UNL A   1      52.146  25.561  31.947  1.00  0.00     0.124 S 
ATOM     99  O   UNL A   1      52.920  25.883  30.752  1.00  0.00    -0.237 OA
ATOM    100  O   UNL A   1      52.402  26.400  33.113  1.00  0.00    -0.237 OA
ATOM    101  O   UNL A   1      51.988  24.138  32.228  1.00  0.00    -0.744 OA
ENDBRANCH  97  98
ENDBRANCH  65  90
ENDBRANCH  39  40
ENDBRANCH  31  34
ENDBRANCH  29  30
ENDBRANCH   1  29
TORSDOF 16
ENDMDL
MODEL 2
REMARK VINA RESULT:     -12.8      0.625      8.008
REMARK SMILES O=C(NCCCCNC(=O)c1ccc(-c2c3nc(c(-c4c(F)cc(S(=O)(=O)[O-])cc4F)c4ccc([nH]4)c(-c4c(F)cc(S(=O)(=O)[O-])cc4F)c4nc(c(-c5c(F)cc(S(=O)(=O)[O-])cc5F)c5ccc2[nH]5)C=C4)C=C3)cc1)C1=Cc2cc(Cl)cc(-c3ccccc3)c2O[C@@H]1C(F)(F)F
REMARK SMILES IDX 6 1 5 2 4 3 3 4 1 5 2 6 77 8 78 9 93 10 79 11 92 12 80 13
REMARK SMILES IDX 91 14 81 15 84 16 82 17 83 18 94 19 95 20 96 21 97 22 85 23
REMARK SMILES IDX 86 24 90 25 87 26 89 27 88 28 7 29 8 30 9 31 10 33 11 34
REMARK SMILES IDX 12 35 76 36 13 37 75 38 14 39 15 40 16 41 69 42 17 43 74 44
REMARK SMILES IDX 68 45 70 46 18 47 73 48 67 49 66 50 19 52 53 53 32 54 52 55
REMARK SMILES IDX 33 56 36 57 51 58 71 59 34 60 35 61 50 63 72 64 37 65 20 66
REMARK SMILES IDX 21 67 30 68 22 69 23 70 29 71 31 72 24 73 25 74 26 75 27 76
REMARK SMILES IDX 28 77 54 78 55 79 64 80 56 81 57 82 63 83 65 84 58 85 59 86
REMARK SMILES IDX 60 87 61 88 62 89 38 90 39 91 48 92 40 93 41 94 47 95 49 96
REMARK SMILES IDX 42 97 43 98 44 99 45 100 46 101
REMARK H PARENT 3 7 8 32 70 51 36 62
REMARK Flexibility Score: inf
ROOT
ATOM      1  C   UNL A   1      32.798  27.966  26.041  1.00  0.00     0.023 C 
ENDROOT
BRANCH   1   2
ATOM      2  C   UNL A   1      31.484  27.547  26.703  1.00  0.00     0.023 C 
BRANCH   2   3
ATOM      3  C   UNL A   1      30.861  26.272  26.137  1.00  0.00     0.116 C 
BRANCH   3   4
ATOM      4  N   UNL A   1      31.146  25.076  26.926  1.00  0.00    -0.352 N 
ATOM      5  O   UNL A   1      32.268  23.249  27.621  1.00  0.00    -0.270 OA
ATOM      6  C   UNL A   1      32.020  24.036  26.713  1.00  0.00     0.251 C 
ATOM      7  H   UNL A   1      30.620  25.000  27.754  1.00  0.00     0.163 HD
BRANCH   6   8
ATOM      8  C   UNL A   1      32.797  23.973  25.449  1.00  0.00     0.067 C 
ATOM      9  C   UNL A   1      34.092  24.291  25.336  1.00  0.00     0.025 C 
ATOM     10  C   UNL A   1      32.230  23.071  24.402  1.00  0.00     0.314 C 
ATOM     11  C   UNL A   1      34.949  23.150  24.969  1.00  0.00     0.019 A 
ATOM     12  O   UNL A   1      32.989  21.845  24.319  1.00  0.00    -0.475 OA
ATOM     13  C   UNL A   1      36.295  23.192  25.346  1.00  0.00     0.032 A 
ATOM     14  C   UNL A   1      34.332  21.913  24.637  1.00  0.00     0.135 A 
ATOM     15  C   UNL A   1      37.010  22.004  25.443  1.00  0.00     0.042 A 
ATOM     16  C   UNL A   1      35.026  20.695  24.825  1.00  0.00     0.026 A 
ATOM     17  Cl  UNL A   1      38.625  22.032  26.036  1.00  0.00    -0.084 Cl
ATOM     18  C   UNL A   1      36.388  20.779  25.195  1.00  0.00     0.033 A 
BRANCH  10  19
ATOM     19  C   UNL A   1      32.142  23.828  23.053  1.00  0.00     0.429 C 
ATOM     20  F   UNL A   1      30.860  23.986  22.651  1.00  0.00    -0.167 F 
ATOM     21  F   UNL A   1      32.679  25.072  23.142  1.00  0.00    -0.167 F 
ATOM     22  F   UNL A   1      32.798  23.197  22.048  1.00  0.00    -0.167 F 
ENDBRANCH  10  19
BRANCH  16  23
ATOM     23  C   UNL A   1      34.355  19.366  24.851  1.00  0.00    -0.015 A 
ATOM     24  C   UNL A   1      35.003  18.237  24.302  1.00  0.00     0.009 A 
ATOM     25  C   UNL A   1      33.093  19.152  25.424  1.00  0.00     0.009 A 
ATOM     26  C   UNL A   1      34.410  16.972  24.294  1.00  0.00     0.001 A 
ATOM     27  C   UNL A   1      32.505  17.879  25.439  1.00  0.00     0.001 A 
ATOM     28  C   UNL A   1      33.160  16.792  24.868  1.00  0.00     0.000 A 
ENDBRANCH  16  23
ENDBRANCH   6   8
ENDBRANCH   3   4
ENDBRANCH   2   3
ENDBRANCH   1   2
BRANCH   1  29
ATOM     29  C   UNL A   1      33.920  28.385  26.988  1.00  0.00     0.116 C 
BRANCH  29  30
ATOM     30  N   UNL A   1      33.762  29.704  27.580  1.00  0.00    -0.352 N 
ATOM     31  C   UNL A   1      34.716  30.463  28.221  1.00  0.00     0.251 C 
ATOM     32  H   UNL A   1      32.864  30.102  27.516  1.00  0.00     0.163 HD
ATOM     33  O   UNL A   1      34.408  31.560  28.696  1.00  0.00    -0.269 OA
BRANCH  31  34
ATOM     34  C   UNL A   1      36.100  29.956  28.367  1.00  0.00     0.039 A 
ATOM     35  C   UNL A   1      36.970  30.042  27.276  1.00  0.00     0.014 A 
ATOM     36  C   UNL A   1      36.552  29.424  29.579  1.00  0.00     0.014 A 
ATOM     37  C   UNL A   1      38.309  29.675  27.428  1.00  0.00     0.010 A 
ATOM     38  C   UNL A   1      37.896  29.110  29.747  1.00  0.00     0.010 A 
ATOM     39  C   UNL A   1      38.787  29.244  28.676  1.00  0.00    -0.014 A 
BRANCH  39  40
ATOM     40  C   UNL A   1      40.225  28.965  28.897  1.00  0.00     0.031 A 
ATOM     41  C   UNL A   1      40.783  27.601  28.608  1.00  0.00     0.074 A 
ATOM     42  C   UNL A   1      40.997  29.926  29.441  1.00  0.00     0.049 A 
ATOM     43  N   UNL A   1      42.002  27.158  28.771  1.00  0.00    -0.248 NA
ATOM     44  C   UNL A   1      39.842  26.593  28.089  1.00  0.00     0.031 C 
ATOM     45  C   UNL A   1      40.532  31.259  29.836  1.00  0.00     0.029 A 
ATOM     46  N   UNL A   1      42.326  29.929  29.776  1.00  0.00    -0.354 N 
ATOM     47  C   UNL A   1      41.982  25.832  28.356  1.00  0.00     0.074 A 
ATOM     48  C   UNL A   1      40.615  25.520  28.002  1.00  0.00     0.031 C 
ATOM     49  C   UNL A   1      41.561  31.949  30.356  1.00  0.00     0.029 A 
ATOM     50  C   UNL A   1      42.750  31.105  30.348  1.00  0.00     0.049 A 
ATOM     51  H   UNL A   1      42.921  29.159  29.623  1.00  0.00     0.167 HD
ATOM     52  C   UNL A   1      43.019  24.967  28.248  1.00  0.00     0.037 A 
ATOM     53  C   UNL A   1      43.964  31.459  30.813  1.00  0.00     0.037 A 
ATOM     54  C   UNL A   1      44.374  25.294  28.616  1.00  0.00     0.049 A 
ATOM     55  C   UNL A   1      45.099  30.479  30.679  1.00  0.00     0.074 A 
ATOM     56  C   UNL A   1      45.505  24.502  28.531  1.00  0.00     0.029 A 
ATOM     57  N   UNL A   1      44.779  26.515  29.136  1.00  0.00    -0.354 N 
ATOM     58  N   UNL A   1      45.079  29.251  30.214  1.00  0.00    -0.248 NA
ATOM     59  C   UNL A   1      46.427  30.939  31.105  1.00  0.00     0.031 C 
ATOM     60  C   UNL A   1      46.588  25.232  29.034  1.00  0.00     0.029 A 
ATOM     61  C   UNL A   1      46.142  26.498  29.378  1.00  0.00     0.049 A 
ATOM     62  H   UNL A   1      44.184  27.281  29.309  1.00  0.00     0.167 HD
ATOM     63  C   UNL A   1      46.397  28.810  30.248  1.00  0.00     0.074 A 
ATOM     64  C   UNL A   1      47.188  29.906  30.770  1.00  0.00     0.031 C 
ATOM     65  C   UNL A   1      46.910  27.611  29.878  1.00  0.00     0.037 A 
BRANCH  52  66
ATOM     66  C   UNL A   1      42.740  23.602  27.681  1.00  0.00     0.058 A 
ATOM     67  C   UNL A   1      42.822  23.357  26.300  1.00  0.00     0.135 A 
ATOM     68  C   UNL A   1      42.456  22.513  28.521  1.00  0.00     0.135 A 
ATOM     69  F   UNL A   1      43.071  24.365  25.449  1.00  0.00    -0.206 F 
ATOM     70  C   UNL A   1      42.622  22.086  25.771  1.00  0.00     0.059 A 
ATOM     71  C   UNL A   1      42.280  21.227  28.015  1.00  0.00     0.059 A 
ATOM     72  F   UNL A   1      42.360  22.689  29.848  1.00  0.00    -0.206 F 
ATOM     73  C   UNL A   1      42.359  21.026  26.638  1.00  0.00     0.060 A 
BRANCH  73  74
ATOM     74  S   UNL A   1      42.146  19.377  25.935  1.00  0.00     0.124 S 
ATOM     75  O   UNL A   1      40.701  19.333  25.727  1.00  0.00    -0.237 OA
ATOM     76  O   UNL A   1      42.958  19.448  24.725  1.00  0.00    -0.237 OA
ATOM     77  O   UNL A   1      42.654  18.493  26.978  1.00  0.00    -0.744 OA
ENDBRANCH  73  74
ENDBRANCH  52  66
BRANCH  53  78
ATOM     78  C   UNL A   1      44.180  32.803  31.415  1.00  0.00     0.058 A 
ATOM     79  C   UNL A   1      43.987  33.024  32.787  1.00  0.00     0.135 A 
ATOM     80  C   UNL A   1      44.563  33.899  30.627  1.00  0.00     0.135 A 
ATOM     81  F   UNL A   1      43.627  32.007  33.585  1.00  0.00    -0.206 F 
ATOM     82  C   UNL A   1      44.119  34.290  33.348  1.00  0.00     0.059 A 
ATOM     83  C   UNL A   1      44.731  35.169  31.170  1.00  0.00     0.059 A 
ATOM     84  F   UNL A   1      44.789  33.738  29.313  1.00  0.00    -0.206 F 
ATOM     85  C   UNL A   1      44.484  35.359  32.529  1.00  0.00     0.060 A 
BRANCH  85  86
ATOM     86  S   UNL A   1      44.649  37.000  33.265  1.00  0.00     0.124 S 
ATOM     87  O   UNL A   1      44.652  37.852  32.082  1.00  0.00    -0.237 OA
ATOM     88  O   UNL A   1      43.459  37.079  34.107  1.00  0.00    -0.237 OA
ATOM     89  O   UNL A   1      45.914  36.916  33.988  1.00  0.00    -0.744 OA
ENDBRANCH  85  86
ENDBRANCH  53  78
BRANCH  65  90
ATOM     90  C   UNL A   1      48.404  27.448  29.958  1.00  0.00     0.058 A 
ATOM     91  C   UNL A   1      49.035  26.902  31.086  1.00  0.00     0.135 A 
ATOM     92  C   UNL A   1      49.211  27.832  28.875  1.00  0.00     0.135 A 
ATOM     93  F   UNL A   1      48.309  26.521  32.150  1.00  0.00    -0.206 F 
ATOM     94  C   UNL A   1      50.419  26.783  31.156  1.00  0.00     0.059 A 
ATOM     95  C   UNL A   1      50.594  27.689  28.909  1.00  0.00     0.059 A 
ATOM     96  F   UNL A   1      48.657  28.346  27.766  1.00  0.00    -0.206 F 
ATOM     97  C   UNL A   1      51.191  27.183  30.062  1.00  0.00     0.060 A 
BRANCH  97  98
ATOM     98  S   UNL A   1      52.985  27.023  30.164  1.00  0.00     0.124 S 
ATOM     99  O   UNL A   1      53.395  28.415  30.315  1.00  0.00    -0.237 OA
ATOM    100  O   UNL A   1      53.157  26.180  31.342  1.00  0.00    -0.237 OA
ATOM    101  O   UNL A   1      53.343  26.397  28.895  1.00  0.00    -0.744 OA
ENDBRANCH  97  98
ENDBRANCH  65  90
ENDBRANCH  39  40
ENDBRANCH  31  34
ENDBRANCH  29  30
ENDBRANCH   1  29
TORSDOF 16
ENDMDL
MODEL 3
REMARK VINA RESULT:     -12.7      2.488      3.135
REMARK SMILES O=C(NCCCCNC(=O)c1ccc(-c2c3nc(c(-c4c(F)cc(S(=O)(=O)[O-])cc4F)c4ccc([nH]4)c(-c4c(F)cc(S(=O)(=O)[O-])cc4F)c4nc(c(-c5c(F)cc(S(=O)(=O)[O-])cc5F)c5ccc2[nH]5)C=C4)C=C3)cc1)C1=Cc2cc(Cl)cc(-c3ccccc3)c2O[C@@H]1C(F)(F)F
REMARK SMILES IDX 6 1 5 2 4 3 3 4 1 5 2 6 77 8 78 9 93 10 79 11 92 12 80 13
REMARK SMILES IDX 91 14 81 15 84 16 82 17 83 18 94 19 95 20 96 21 97 22 85 23
REMARK SMILES IDX 86 24 90 25 87 26 89 27 88 28 7 29 8 30 9 31 10 33 11 34
REMARK SMILES IDX 12 35 76 36 13 37 75 38 14 39 15 40 16 41 69 42 17 43 74 44
REMARK SMILES IDX 68 45 70 46 18 47 73 48 67 49 66 50 19 52 53 53 32 54 52 55
REMARK SMILES IDX 33 56 36 57 51 58 71 59 34 60 35 61 50 63 72 64 37 65 20 66
REMARK SMILES IDX 21 67 30 68 22 69 23 70 29 71 31 72 24 73 25 74 26 75 27 76
REMARK SMILES IDX 28 77 54 78 55 79 64 80 56 81 57 82 63 83 65 84 58 85 59 86
REMARK SMILES IDX 60 87 61 88 62 89 38 90 39 91 48 92 40 93 41 94 47 95 49 96
REMARK SMILES IDX 42 97 43 98 44 99 45 100 46 101
REMARK H PARENT 3 7 8 32 70 51 36 62
REMARK Flexibility Score: inf
ROOT
ATOM      1  C   UNL A   1      33.426  27.570  26.481  1.00  0.00     0.023 C 
ENDROOT
BRANCH   1   2
ATOM      2  C   UNL A   1      31.912  27.574  26.695  1.00  0.00     0.023 C 
BRANCH   2   3
ATOM      3  C   UNL A   1      31.181  26.361  26.121  1.00  0.00     0.116 C 
BRANCH   3   4
ATOM      4  N   UNL A   1      31.390  25.131  26.881  1.00  0.00    -0.352 N 
ATOM      5  O   UNL A   1      32.401  23.229  27.543  1.00  0.00    -0.270 OA
ATOM      6  C   UNL A   1      32.209  24.052  26.652  1.00  0.00     0.251 C 
ATOM      7  H   UNL A   1      30.849  25.063  27.701  1.00  0.00     0.163 HD
BRANCH   6   8
ATOM      8  C   UNL A   1      32.999  23.978  25.397  1.00  0.00     0.067 C 
ATOM      9  C   UNL A   1      34.307  24.250  25.305  1.00  0.00     0.025 C 
ATOM     10  C   UNL A   1      32.413  23.114  24.329  1.00  0.00     0.314 C 
ATOM     11  C   UNL A   1      35.125  23.083  24.931  1.00  0.00     0.019 A 
ATOM     12  O   UNL A   1      33.127  21.862  24.237  1.00  0.00    -0.475 OA
ATOM     13  C   UNL A   1      36.467  23.069  25.325  1.00  0.00     0.032 A 
ATOM     14  C   UNL A   1      34.467  21.875  24.572  1.00  0.00     0.135 A 
ATOM     15  C   UNL A   1      37.136  21.854  25.412  1.00  0.00     0.042 A 
ATOM     16  C   UNL A   1      35.113  20.630  24.750  1.00  0.00     0.026 A 
ATOM     17  Cl  UNL A   1      38.744  21.813  26.026  1.00  0.00    -0.084 Cl
ATOM     18  C   UNL A   1      36.472  20.657  25.138  1.00  0.00     0.033 A 
BRANCH  10  19
ATOM     19  C   UNL A   1      32.370  23.894  22.991  1.00  0.00     0.429 C 
ATOM     20  F   UNL A   1      33.114  25.024  23.047  1.00  0.00    -0.167 F 
ATOM     21  F   UNL A   1      32.863  23.154  21.965  1.00  0.00    -0.167 F 
ATOM     22  F   UNL A   1      31.116  24.262  22.632  1.00  0.00    -0.167 F 
ENDBRANCH  10  19
BRANCH  16  23
ATOM     23  C   UNL A   1      34.393  19.326  24.747  1.00  0.00    -0.015 A 
ATOM     24  C   UNL A   1      35.076  18.144  24.386  1.00  0.00     0.009 A 
ATOM     25  C   UNL A   1      33.046  19.191  25.114  1.00  0.00     0.009 A 
ATOM     26  C   UNL A   1      34.441  16.899  24.359  1.00  0.00     0.001 A 
ATOM     27  C   UNL A   1      32.412  17.940  25.110  1.00  0.00     0.001 A 
ATOM     28  C   UNL A   1      33.107  16.797  24.726  1.00  0.00     0.000 A 
ENDBRANCH  16  23
ENDBRANCH   6   8
ENDBRANCH   3   4
ENDBRANCH   2   3
ENDBRANCH   1   2
BRANCH   1  29
ATOM     29  C   UNL A   1      34.001  28.780  25.750  1.00  0.00     0.116 C 
BRANCH  29  30
ATOM     30  N   UNL A   1      33.671  30.067  26.340  1.00  0.00    -0.352 N 
ATOM     31  C   UNL A   1      34.359  30.752  27.317  1.00  0.00     0.251 C 
ATOM     32  H   UNL A   1      32.856  30.503  26.000  1.00  0.00     0.163 HD
ATOM     33  O   UNL A   1      33.925  31.830  27.732  1.00  0.00    -0.269 OA
BRANCH  31  34
ATOM     34  C   UNL A   1      35.602  30.185  27.891  1.00  0.00     0.039 A 
ATOM     35  C   UNL A   1      36.816  30.418  27.240  1.00  0.00     0.014 A 
ATOM     36  C   UNL A   1      35.580  29.450  29.081  1.00  0.00     0.014 A 
ATOM     37  C   UNL A   1      38.010  29.989  27.824  1.00  0.00     0.010 A 
ATOM     38  C   UNL A   1      36.770  29.072  29.692  1.00  0.00     0.010 A 
ATOM     39  C   UNL A   1      37.995  29.348  29.073  1.00  0.00    -0.014 A 
BRANCH  39  40
ATOM     40  C   UNL A   1      39.250  28.993  29.774  1.00  0.00     0.031 A 
ATOM     41  C   UNL A   1      39.701  29.789  30.966  1.00  0.00     0.074 A 
ATOM     42  C   UNL A   1      40.018  28.005  29.272  1.00  0.00     0.049 A 
ATOM     43  N   UNL A   1      40.784  29.653  31.685  1.00  0.00    -0.248 NA
ATOM     44  C   UNL A   1      38.833  30.899  31.391  1.00  0.00     0.031 C 
ATOM     45  C   UNL A   1      39.710  27.226  28.070  1.00  0.00     0.029 A 
ATOM     46  N   UNL A   1      41.220  27.500  29.693  1.00  0.00    -0.354 N 
ATOM     47  C   UNL A   1      40.718  30.641  32.659  1.00  0.00     0.074 A 
ATOM     48  C   UNL A   1      39.527  31.417  32.395  1.00  0.00     0.031 C 
ATOM     49  C   UNL A   1      40.697  26.340  27.853  1.00  0.00     0.029 A 
ATOM     50  C   UNL A   1      41.712  26.500  28.887  1.00  0.00     0.049 A 
ATOM     51  H   UNL A   1      41.689  27.824  30.496  1.00  0.00     0.167 HD
ATOM     52  C   UNL A   1      41.560  30.857  33.698  1.00  0.00     0.037 A 
ATOM     53  C   UNL A   1      42.856  25.794  28.977  1.00  0.00     0.037 A 
ATOM     54  C   UNL A   1      42.749  30.080  33.939  1.00  0.00     0.049 A 
ATOM     55  C   UNL A   1      43.772  26.053  30.143  1.00  0.00     0.074 A 
ATOM     56  C   UNL A   1      43.663  30.199  34.971  1.00  0.00     0.029 A 
ATOM     57  N   UNL A   1      43.186  29.035  33.136  1.00  0.00    -0.354 N 
ATOM     58  N   UNL A   1      43.657  26.945  31.100  1.00  0.00    -0.248 NA
ATOM     59  C   UNL A   1      44.958  25.194  30.260  1.00  0.00     0.031 C 
ATOM     60  C   UNL A   1      44.672  29.250  34.772  1.00  0.00     0.029 A 
ATOM     61  C   UNL A   1      44.356  28.502  33.649  1.00  0.00     0.049 A 
ATOM     62  H   UNL A   1      42.731  28.720  32.322  1.00  0.00     0.167 HD
ATOM     63  C   UNL A   1      44.730  26.722  31.957  1.00  0.00     0.074 A 
ATOM     64  C   UNL A   1      45.474  25.607  31.409  1.00  0.00     0.031 C 
ATOM     65  C   UNL A   1      45.068  27.376  33.096  1.00  0.00     0.037 A 
BRANCH  52  66
ATOM     66  C   UNL A   1      41.210  31.951  34.671  1.00  0.00     0.058 A 
ATOM     67  C   UNL A   1      41.611  33.279  34.447  1.00  0.00     0.135 A 
ATOM     68  C   UNL A   1      40.412  31.692  35.797  1.00  0.00     0.135 A 
ATOM     69  F   UNL A   1      42.390  33.581  33.396  1.00  0.00    -0.206 F 
ATOM     70  C   UNL A   1      41.244  34.307  35.308  1.00  0.00     0.059 A 
ATOM     71  C   UNL A   1      40.011  32.710  36.658  1.00  0.00     0.059 A 
ATOM     72  F   UNL A   1      40.006  30.441  36.064  1.00  0.00    -0.206 F 
ATOM     73  C   UNL A   1      40.437  34.013  36.408  1.00  0.00     0.060 A 
BRANCH  73  74
ATOM     74  S   UNL A   1      39.938  35.370  37.490  1.00  0.00     0.124 S 
ATOM     75  O   UNL A   1      38.636  34.903  37.960  1.00  0.00    -0.237 OA
ATOM     76  O   UNL A   1      41.004  35.382  38.486  1.00  0.00    -0.237 OA
ATOM     77  O   UNL A   1      39.903  36.523  36.597  1.00  0.00    -0.744 OA
ENDBRANCH  73  74
ENDBRANCH  52  66
BRANCH  53  78
ATOM     78  C   UNL A   1      43.186  24.759  27.960  1.00  0.00     0.058 A 
ATOM     79  C   UNL A   1      42.848  23.411  28.159  1.00  0.00     0.135 A 
ATOM     80  C   UNL A   1      43.864  25.091  26.777  1.00  0.00     0.135 A 
ATOM     81  F   UNL A   1      42.193  23.041  29.270  1.00  0.00    -0.206 F 
ATOM     82  C   UNL A   1      43.212  22.425  27.248  1.00  0.00     0.059 A 
ATOM     83  C   UNL A   1      44.212  24.128  25.836  1.00  0.00     0.059 A 
ATOM     84  F   UNL A   1      44.186  26.370  26.522  1.00  0.00    -0.206 F 
ATOM     85  C   UNL A   1      43.902  22.792  26.092  1.00  0.00     0.060 A 
BRANCH  85  86
ATOM     86  S   UNL A   1      44.374  21.505  24.916  1.00  0.00     0.124 S 
ATOM     87  O   UNL A   1      43.390  20.469  25.207  1.00  0.00    -0.237 OA
ATOM     88  O   UNL A   1      44.223  22.189  23.635  1.00  0.00    -0.237 OA
ATOM     89  O   UNL A   1      45.749  21.196  25.294  1.00  0.00    -0.744 OA
ENDBRANCH  85  86
ENDBRANCH  53  78
BRANCH  65  90
ATOM     90  C   UNL A   1      46.253  26.855  33.862  1.00  0.00     0.058 A 
ATOM     91  C   UNL A   1      47.553  27.336  33.641  1.00  0.00     0.135 A 
ATOM     92  C   UNL A   1      46.076  25.869  34.846  1.00  0.00     0.135 A 
ATOM     93  F   UNL A   1      47.778  28.277  32.709  1.00  0.00    -0.206 F 
ATOM     94  C   UNL A   1      48.643  26.825  34.337  1.00  0.00     0.059 A 
ATOM     95  C   UNL A   1      47.147  25.369  35.579  1.00  0.00     0.059 A 
ATOM     96  F   UNL A   1      44.852  25.386  35.108  1.00  0.00    -0.206 F 
ATOM     97  C   UNL A   1      48.430  25.838  35.303  1.00  0.00     0.060 A 
BRANCH  97  98
ATOM     98  S   UNL A   1      49.852  25.184  36.201  1.00  0.00     0.124 S 
ATOM     99  O   UNL A   1      50.415  26.399  36.782  1.00  0.00    -0.237 OA
ATOM    100  O   UNL A   1      49.229  24.261  37.144  1.00  0.00    -0.237 OA
ATOM    101  O   UNL A   1      50.654  24.557  35.156  1.00  0.00    -0.744 OA
ENDBRANCH  97  98
ENDBRANCH  65  90
ENDBRANCH  39  40
ENDBRANCH  31  34
ENDBRANCH  29  30
ENDBRANCH   1  29
TORSDOF 16
ENDMDL
