MODEL 1
REMARK VINA RESULT:     -13.0      0.000      0.000
REMARK SMILES Cc1ccc(C(F)(F)F)cc1/C=C/C(=O)NCCCCNC(=O)c1ccc(-c2c3nc(c(-c4c(F)cc(S(=O)(=O)[O-])cc4F)c4ccc([nH]4)c(-c4c(F)cc(S(=O)(=O)[O-])cc4F)c4nc(c(-c5c(F)cc(S(=O)(=O)[O-])cc5F)c5ccc2[nH]5)C=C4)C=C3)cc1
REMARK SMILES IDX 19 1 18 2 17 3 16 4 14 5 15 6 13 8 12 9 11 10 1 11 2 12 3 13
REMARK SMILES IDX 4 14 10 15 5 16 6 17 7 18 8 19 9 20 20 21 21 22 22 23 23 25
REMARK SMILES IDX 24 26 25 27 89 28 26 29 88 30 27 31 28 32 29 33 82 34 30 35
REMARK SMILES IDX 87 36 81 37 83 38 31 39 86 40 80 41 79 42 32 44 66 45 45 46
REMARK SMILES IDX 65 47 46 48 49 49 64 50 84 51 47 52 48 53 63 55 85 56 50 57
REMARK SMILES IDX 33 58 34 59 43 60 35 61 36 62 42 63 44 64 37 65 38 66 39 67
REMARK SMILES IDX 40 68 41 69 67 70 68 71 77 72 69 73 70 74 76 75 78 76 71 77
REMARK SMILES IDX 72 78 73 79 74 80 75 81 51 82 52 83 61 84 53 85 54 86 60 87
REMARK SMILES IDX 62 88 55 89 56 90 57 91 58 92 59 93
REMARK H PARENT 16 7 21 24 83 43 49 54
REMARK Flexibility Score: inf
ROOT
ATOM      1  C   UNL A   1      37.806  22.033  25.257  1.00  0.00     0.023 C 
ENDROOT
BRANCH   1   2
ATOM      2  C   UNL A   1      36.767  22.480  24.223  1.00  0.00     0.023 C 
BRANCH   2   3
ATOM      3  C   UNL A   1      35.439  21.709  24.272  1.00  0.00     0.116 C 
BRANCH   3   4
ATOM      4  N   UNL A   1      34.956  21.509  25.630  1.00  0.00    -0.353 N 
ATOM      5  C   UNL A   1      34.463  22.404  26.528  1.00  0.00     0.243 C 
ATOM      6  O   UNL A   1      33.964  22.016  27.582  1.00  0.00    -0.270 OA
ATOM      7  H   UNL A   1      34.994  20.579  25.951  1.00  0.00     0.163 HD
BRANCH   5   8
ATOM      8  C   UNL A   1      34.467  23.850  26.224  1.00  0.00     0.072 C 
ATOM      9  C   UNL A   1      33.461  24.448  25.570  1.00  0.00     0.014 C 
BRANCH   9  10
ATOM     10  C   UNL A   1      33.470  25.866  25.191  1.00  0.00    -0.022 A 
ATOM     11  C   UNL A   1      33.657  25.297  22.697  1.00  0.00     0.045 C 
ATOM     12  C   UNL A   1      33.588  26.269  23.846  1.00  0.00    -0.044 A 
ATOM     13  C   UNL A   1      33.689  27.639  23.550  1.00  0.00     0.004 A 
ATOM     14  C   UNL A   1      33.649  28.597  24.564  1.00  0.00     0.013 A 
ATOM     15  C   UNL A   1      33.429  26.840  26.202  1.00  0.00     0.021 A 
ATOM     16  C   UNL A   1      33.510  28.208  25.901  1.00  0.00     0.056 A 
BRANCH  16  17
ATOM     17  C   UNL A   1      33.485  29.249  26.990  1.00  0.00     0.416 C 
ATOM     18  F   UNL A   1      33.721  30.504  26.514  1.00  0.00    -0.166 F 
ATOM     19  F   UNL A   1      32.282  29.317  27.626  1.00  0.00    -0.166 F 
ATOM     20  F   UNL A   1      34.411  29.046  27.970  1.00  0.00    -0.166 F 
ENDBRANCH  16  17
ENDBRANCH   9  10
ENDBRANCH   5   8
ENDBRANCH   3   4
ENDBRANCH   2   3
ENDBRANCH   1   2
BRANCH   1  21
ATOM     21  C   UNL A   1      38.238  23.161  26.187  1.00  0.00     0.116 C 
BRANCH  21  22
ATOM     22  N   UNL A   1      39.484  22.916  26.900  1.00  0.00    -0.352 N 
ATOM     23  C   UNL A   1      40.326  23.855  27.472  1.00  0.00     0.251 C 
ATOM     24  H   UNL A   1      39.759  21.975  26.985  1.00  0.00     0.163 HD
ATOM     25  O   UNL A   1      41.442  23.565  27.871  1.00  0.00    -0.269 OA
BRANCH  23  26
ATOM     26  C   UNL A   1      39.779  25.216  27.679  1.00  0.00     0.039 A 
ATOM     27  C   UNL A   1      40.225  26.226  26.818  1.00  0.00     0.014 A 
ATOM     28  C   UNL A   1      39.098  25.524  28.852  1.00  0.00     0.014 A 
ATOM     29  C   UNL A   1      40.164  27.555  27.232  1.00  0.00     0.010 A 
ATOM     30  C   UNL A   1      39.122  26.831  29.300  1.00  0.00     0.010 A 
ATOM     31  C   UNL A   1      39.703  27.841  28.516  1.00  0.00    -0.014 A 
BRANCH  31  32
ATOM     32  C   UNL A   1      39.891  29.129  29.180  1.00  0.00     0.031 A 
ATOM     33  C   UNL A   1      38.861  30.190  29.075  1.00  0.00     0.074 A 
ATOM     34  C   UNL A   1      40.948  29.311  30.002  1.00  0.00     0.049 A 
ATOM     35  N   UNL A   1      39.034  31.427  29.404  1.00  0.00    -0.248 NA
ATOM     36  C   UNL A   1      37.538  29.933  28.522  1.00  0.00     0.031 C 
ATOM     37  C   UNL A   1      41.083  30.320  31.048  1.00  0.00     0.029 A 
ATOM     38  N   UNL A   1      42.202  28.719  29.946  1.00  0.00    -0.354 N 
ATOM     39  C   UNL A   1      37.801  32.047  29.403  1.00  0.00     0.074 A 
ATOM     40  C   UNL A   1      36.925  31.096  28.761  1.00  0.00     0.031 C 
ATOM     41  C   UNL A   1      42.377  30.437  31.380  1.00  0.00     0.029 A 
ATOM     42  C   UNL A   1      43.143  29.630  30.447  1.00  0.00     0.049 A 
ATOM     43  H   UNL A   1      42.399  27.815  29.610  1.00  0.00     0.167 HD
ATOM     44  C   UNL A   1      37.647  33.227  30.079  1.00  0.00     0.037 A 
ATOM     45  C   UNL A   1      44.147  30.120  29.659  1.00  0.00     0.037 A 
ATOM     46  C   UNL A   1      38.944  33.739  30.535  1.00  0.00     0.049 A 
ATOM     47  C   UNL A   1      44.080  31.613  29.417  1.00  0.00     0.074 A 
ATOM     48  C   UNL A   1      39.591  33.714  31.760  1.00  0.00     0.029 A 
ATOM     49  N   UNL A   1      39.897  34.135  29.599  1.00  0.00    -0.354 N 
ATOM     50  N   UNL A   1      43.042  32.352  29.698  1.00  0.00    -0.248 NA
ATOM     51  C   UNL A   1      45.164  32.391  28.820  1.00  0.00     0.031 C 
ATOM     52  C   UNL A   1      40.957  34.021  31.545  1.00  0.00     0.029 A 
ATOM     53  C   UNL A   1      41.141  34.255  30.193  1.00  0.00     0.049 A 
ATOM     54  H   UNL A   1      39.712  34.305  28.648  1.00  0.00     0.167 HD
ATOM     55  C   UNL A   1      43.268  33.642  29.298  1.00  0.00     0.074 A 
ATOM     56  C   UNL A   1      44.626  33.625  28.786  1.00  0.00     0.031 C 
ATOM     57  C   UNL A   1      42.312  34.613  29.405  1.00  0.00     0.037 A 
BRANCH  44  58
ATOM     58  C   UNL A   1      36.309  33.746  30.604  1.00  0.00     0.058 A 
ATOM     59  C   UNL A   1      35.339  34.272  29.717  1.00  0.00     0.135 A 
ATOM     60  C   UNL A   1      35.949  33.850  31.964  1.00  0.00     0.135 A 
ATOM     61  F   UNL A   1      35.457  34.139  28.390  1.00  0.00    -0.206 F 
ATOM     62  C   UNL A   1      34.199  34.964  30.145  1.00  0.00     0.059 A 
ATOM     63  C   UNL A   1      34.844  34.579  32.419  1.00  0.00     0.059 A 
ATOM     64  F   UNL A   1      36.611  33.192  32.918  1.00  0.00    -0.206 F 
ATOM     65  C   UNL A   1      33.982  35.153  31.500  1.00  0.00     0.060 A 
BRANCH  65  66
ATOM     66  S   UNL A   1      32.565  36.126  32.042  1.00  0.00     0.124 S 
ATOM     67  O   UNL A   1      31.641  35.093  32.501  1.00  0.00    -0.237 OA
ATOM     68  O   UNL A   1      33.151  36.963  33.084  1.00  0.00    -0.237 OA
ATOM     69  O   UNL A   1      32.153  36.831  30.832  1.00  0.00    -0.744 OA
ENDBRANCH  65  66
ENDBRANCH  44  58
BRANCH  45  70
ATOM     70  C   UNL A   1      44.688  29.113  28.707  1.00  0.00     0.058 A 
ATOM     71  C   UNL A   1      44.242  29.190  27.374  1.00  0.00     0.135 A 
ATOM     72  C   UNL A   1      45.905  28.460  28.952  1.00  0.00     0.135 A 
ATOM     73  F   UNL A   1      43.073  29.788  27.091  1.00  0.00    -0.206 F 
ATOM     74  C   UNL A   1      45.052  28.808  26.314  1.00  0.00     0.059 A 
ATOM     75  C   UNL A   1      46.733  28.061  27.900  1.00  0.00     0.059 A 
ATOM     76  F   UNL A   1      46.375  28.352  30.203  1.00  0.00    -0.206 F 
ATOM     77  C   UNL A   1      46.326  28.317  26.589  1.00  0.00     0.060 A 
BRANCH  77  78
ATOM     78  S   UNL A   1      47.503  28.238  25.218  1.00  0.00     0.124 S 
ATOM     79  O   UNL A   1      47.645  26.800  25.019  1.00  0.00    -0.237 OA
ATOM     80  O   UNL A   1      46.768  28.952  24.175  1.00  0.00    -0.237 OA
ATOM     81  O   UNL A   1      48.676  28.925  25.746  1.00  0.00    -0.744 OA
ENDBRANCH  77  78
ENDBRANCH  45  70
BRANCH  57  82
ATOM     82  C   UNL A   1      42.418  36.010  28.847  1.00  0.00     0.058 A 
ATOM     83  C   UNL A   1      42.968  37.095  29.550  1.00  0.00     0.135 A 
ATOM     84  C   UNL A   1      42.082  36.262  27.496  1.00  0.00     0.135 A 
ATOM     85  F   UNL A   1      43.418  36.953  30.807  1.00  0.00    -0.206 F 
ATOM     86  C   UNL A   1      43.118  38.359  28.976  1.00  0.00     0.059 A 
ATOM     87  C   UNL A   1      42.271  37.501  26.888  1.00  0.00     0.059 A 
ATOM     88  F   UNL A   1      41.562  35.301  26.716  1.00  0.00    -0.206 F 
ATOM     89  C   UNL A   1      42.768  38.553  27.643  1.00  0.00     0.060 A 
BRANCH  89  90
ATOM     90  S   UNL A   1      43.016  40.162  26.866  1.00  0.00     0.124 S 
ATOM     91  O   UNL A   1      43.894  39.815  25.754  1.00  0.00    -0.237 OA
ATOM     92  O   UNL A   1      41.661  40.560  26.496  1.00  0.00    -0.237 OA
ATOM     93  O   UNL A   1      43.622  40.952  27.931  1.00  0.00    -0.744 OA
ENDBRANCH  89  90
ENDBRANCH  57  82
ENDBRANCH  31  32
ENDBRANCH  23  26
ENDBRANCH  21  22
ENDBRANCH   1  21
TORSDOF 16
ENDMDL
MODEL 2
REMARK VINA RESULT:     -12.9      5.217     11.554
REMARK SMILES Cc1ccc(C(F)(F)F)cc1/C=C/C(=O)NCCCCNC(=O)c1ccc(-c2c3nc(c(-c4c(F)cc(S(=O)(=O)[O-])cc4F)c4ccc([nH]4)c(-c4c(F)cc(S(=O)(=O)[O-])cc4F)c4nc(c(-c5c(F)cc(S(=O)(=O)[O-])cc5F)c5ccc2[nH]5)C=C4)C=C3)cc1
REMARK SMILES IDX 19 1 18 2 17 3 16 4 14 5 15 6 13 8 12 9 11 10 1 11 2 12 3 13
REMARK SMILES IDX 4 14 10 15 5 16 6 17 7 18 8 19 9 20 20 21 21 22 22 23 23 25
REMARK SMILES IDX 24 26 25 27 89 28 26 29 88 30 27 31 28 32 29 33 82 34 30 35
REMARK SMILES IDX 87 36 81 37 83 38 31 39 86 40 80 41 79 42 32 44 66 45 45 46
REMARK SMILES IDX 65 47 46 48 49 49 64 50 84 51 47 52 48 53 63 55 85 56 50 57
REMARK SMILES IDX 33 58 34 59 43 60 35 61 36 62 42 63 44 64 37 65 38 66 39 67
REMARK SMILES IDX 40 68 41 69 67 70 68 71 77 72 69 73 70 74 76 75 78 76 71 77
REMARK SMILES IDX 72 78 73 79 74 80 75 81 51 82 52 83 61 84 53 85 54 86 60 87
REMARK SMILES IDX 62 88 55 89 56 90 57 91 58 92 59 93
REMARK H PARENT 16 7 21 24 83 43 49 54
REMARK Flexibility Score: inf
ROOT
ATOM      1  C   UNL A   1      33.363  29.279  27.678  1.00  0.00     0.023 C 
ENDROOT
BRANCH   1   2
ATOM      2  C   UNL A   1      32.031  28.958  26.989  1.00  0.00     0.023 C 
BRANCH   2   3
ATOM      3  C   UNL A   1      32.078  27.763  26.024  1.00  0.00     0.116 C 
BRANCH   3   4
ATOM      4  N   UNL A   1      30.994  26.819  26.249  1.00  0.00    -0.353 N 
ATOM      5  C   UNL A   1      30.994  25.459  26.225  1.00  0.00     0.243 C 
ATOM      6  O   UNL A   1      30.002  24.831  26.590  1.00  0.00    -0.270 OA
ATOM      7  H   UNL A   1      30.122  27.230  26.449  1.00  0.00     0.163 HD
BRANCH   5   8
ATOM      8  C   UNL A   1      32.205  24.717  25.815  1.00  0.00     0.072 C 
ATOM      9  C   UNL A   1      32.303  23.385  25.933  1.00  0.00     0.014 C 
BRANCH   9  10
ATOM     10  C   UNL A   1      33.518  22.630  25.603  1.00  0.00    -0.022 A 
ATOM     11  C   UNL A   1      32.164  20.560  24.926  1.00  0.00     0.045 C 
ATOM     12  C   UNL A   1      33.458  21.297  25.154  1.00  0.00    -0.044 A 
ATOM     13  C   UNL A   1      34.656  20.593  24.945  1.00  0.00     0.004 A 
ATOM     14  C   UNL A   1      35.893  21.204  25.151  1.00  0.00     0.013 A 
ATOM     15  C   UNL A   1      34.769  23.236  25.805  1.00  0.00     0.021 A 
ATOM     16  C   UNL A   1      35.963  22.535  25.576  1.00  0.00     0.056 A 
BRANCH  16  17
ATOM     17  C   UNL A   1      37.303  23.181  25.813  1.00  0.00     0.416 C 
ATOM     18  F   UNL A   1      38.292  22.266  26.018  1.00  0.00    -0.166 F 
ATOM     19  F   UNL A   1      37.717  23.939  24.757  1.00  0.00    -0.166 F 
ATOM     20  F   UNL A   1      37.335  24.008  26.895  1.00  0.00    -0.166 F 
ENDBRANCH  16  17
ENDBRANCH   9  10
ENDBRANCH   5   8
ENDBRANCH   3   4
ENDBRANCH   2   3
ENDBRANCH   1   2
BRANCH   1  21
ATOM     21  C   UNL A   1      34.344  29.997  26.760  1.00  0.00     0.116 C 
BRANCH  21  22
ATOM     22  N   UNL A   1      35.008  31.145  27.361  1.00  0.00    -0.352 N 
ATOM     23  C   UNL A   1      36.172  31.149  28.113  1.00  0.00     0.251 C 
ATOM     24  H   UNL A   1      34.580  32.020  27.217  1.00  0.00     0.163 HD
ATOM     25  O   UNL A   1      36.536  32.132  28.737  1.00  0.00    -0.269 OA
BRANCH  23  26
ATOM     26  C   UNL A   1      37.021  29.936  28.049  1.00  0.00     0.039 A 
ATOM     27  C   UNL A   1      37.038  29.103  29.173  1.00  0.00     0.014 A 
ATOM     28  C   UNL A   1      37.974  29.805  27.044  1.00  0.00     0.014 A 
ATOM     29  C   UNL A   1      38.133  28.268  29.389  1.00  0.00     0.010 A 
ATOM     30  C   UNL A   1      39.100  29.046  27.304  1.00  0.00     0.010 A 
ATOM     31  C   UNL A   1      39.206  28.319  28.501  1.00  0.00    -0.014 A 
BRANCH  31  32
ATOM     32  C   UNL A   1      40.523  27.752  28.783  1.00  0.00     0.031 A 
ATOM     33  C   UNL A   1      40.830  26.344  28.431  1.00  0.00     0.074 A 
ATOM     34  C   UNL A   1      41.510  28.549  29.246  1.00  0.00     0.049 A 
ATOM     35  N   UNL A   1      41.854  25.680  28.855  1.00  0.00    -0.248 NA
ATOM     36  C   UNL A   1      39.945  25.544  27.596  1.00  0.00     0.031 C 
ATOM     37  C   UNL A   1      42.946  28.293  29.188  1.00  0.00     0.029 A 
ATOM     38  N   UNL A   1      41.407  29.692  30.028  1.00  0.00    -0.354 N 
ATOM     39  C   UNL A   1      41.934  24.509  28.130  1.00  0.00     0.074 A 
ATOM     40  C   UNL A   1      40.674  24.437  27.429  1.00  0.00     0.031 C 
ATOM     41  C   UNL A   1      43.571  29.094  30.063  1.00  0.00     0.029 A 
ATOM     42  C   UNL A   1      42.549  29.778  30.837  1.00  0.00     0.049 A 
ATOM     43  H   UNL A   1      40.660  30.332  30.018  1.00  0.00     0.167 HD
ATOM     44  C   UNL A   1      43.117  23.822  28.100  1.00  0.00     0.037 A 
ATOM     45  C   UNL A   1      42.460  29.726  32.200  1.00  0.00     0.037 A 
ATOM     46  C   UNL A   1      44.072  24.388  29.060  1.00  0.00     0.049 A 
ATOM     47  C   UNL A   1      43.139  28.525  32.824  1.00  0.00     0.074 A 
ATOM     48  C   UNL A   1      45.154  25.242  28.924  1.00  0.00     0.029 A 
ATOM     49  N   UNL A   1      43.801  24.318  30.425  1.00  0.00    -0.354 N 
ATOM     50  N   UNL A   1      43.552  27.487  32.150  1.00  0.00    -0.248 NA
ATOM     51  C   UNL A   1      43.386  28.383  34.258  1.00  0.00     0.031 C 
ATOM     52  C   UNL A   1      45.485  25.747  30.206  1.00  0.00     0.029 A 
ATOM     53  C   UNL A   1      44.619  25.186  31.128  1.00  0.00     0.049 A 
ATOM     54  H   UNL A   1      43.123  23.734  30.833  1.00  0.00     0.167 HD
ATOM     55  C   UNL A   1      44.056  26.546  33.008  1.00  0.00     0.074 A 
ATOM     56  C   UNL A   1      43.963  27.169  34.316  1.00  0.00     0.031 C 
ATOM     57  C   UNL A   1      44.490  25.326  32.572  1.00  0.00     0.037 A 
BRANCH  44  58
ATOM     58  C   UNL A   1      43.522  22.856  26.987  1.00  0.00     0.058 A 
ATOM     59  C   UNL A   1      42.863  21.613  26.835  1.00  0.00     0.135 A 
ATOM     60  C   UNL A   1      44.602  23.038  26.099  1.00  0.00     0.135 A 
ATOM     61  F   UNL A   1      41.739  21.328  27.504  1.00  0.00    -0.206 F 
ATOM     62  C   UNL A   1      43.325  20.595  25.991  1.00  0.00     0.059 A 
ATOM     63  C   UNL A   1      45.113  22.022  25.284  1.00  0.00     0.059 A 
ATOM     64  F   UNL A   1      45.175  24.232  25.924  1.00  0.00    -0.206 F 
ATOM     65  C   UNL A   1      44.480  20.792  25.251  1.00  0.00     0.060 A 
BRANCH  65  66
ATOM     66  S   UNL A   1      45.123  19.446  24.240  1.00  0.00     0.124 S 
ATOM     67  O   UNL A   1      44.646  18.268  24.958  1.00  0.00    -0.237 OA
ATOM     68  O   UNL A   1      44.491  19.704  22.950  1.00  0.00    -0.237 OA
ATOM     69  O   UNL A   1      46.568  19.651  24.279  1.00  0.00    -0.744 OA
ENDBRANCH  65  66
ENDBRANCH  44  58
BRANCH  45  70
ATOM     70  C   UNL A   1      41.255  30.413  32.734  1.00  0.00     0.058 A 
ATOM     71  C   UNL A   1      40.164  29.601  33.097  1.00  0.00     0.135 A 
ATOM     72  C   UNL A   1      41.341  31.688  33.313  1.00  0.00     0.135 A 
ATOM     73  F   UNL A   1      40.027  28.379  32.555  1.00  0.00    -0.206 F 
ATOM     74  C   UNL A   1      39.304  29.957  34.126  1.00  0.00     0.059 A 
ATOM     75  C   UNL A   1      40.481  32.070  34.345  1.00  0.00     0.059 A 
ATOM     76  F   UNL A   1      42.355  32.507  32.998  1.00  0.00    -0.206 F 
ATOM     77  C   UNL A   1      39.522  31.160  34.794  1.00  0.00     0.060 A 
BRANCH  77  78
ATOM     78  S   UNL A   1      38.684  31.397  36.379  1.00  0.00     0.124 S 
ATOM     79  O   UNL A   1      39.735  31.996  37.194  1.00  0.00    -0.237 OA
ATOM     80  O   UNL A   1      37.596  32.293  35.991  1.00  0.00    -0.237 OA
ATOM     81  O   UNL A   1      38.286  30.044  36.751  1.00  0.00    -0.744 OA
ENDBRANCH  77  78
ENDBRANCH  45  70
BRANCH  57  82
ATOM     82  C   UNL A   1      44.907  24.178  33.458  1.00  0.00     0.058 A 
ATOM     83  C   UNL A   1      44.094  23.068  33.738  1.00  0.00     0.135 A 
ATOM     84  C   UNL A   1      46.234  24.107  33.947  1.00  0.00     0.135 A 
ATOM     85  F   UNL A   1      42.850  22.976  33.243  1.00  0.00    -0.206 F 
ATOM     86  C   UNL A   1      44.540  21.988  34.502  1.00  0.00     0.059 A 
ATOM     87  C   UNL A   1      46.715  23.017  34.667  1.00  0.00     0.059 A 
ATOM     88  F   UNL A   1      47.111  25.099  33.732  1.00  0.00    -0.206 F 
ATOM     89  C   UNL A   1      45.854  21.970  34.962  1.00  0.00     0.060 A 
BRANCH  89  90
ATOM     90  S   UNL A   1      46.467  20.553  35.895  1.00  0.00     0.124 S 
ATOM     91  O   UNL A   1      45.888  20.798  37.211  1.00  0.00    -0.237 OA
ATOM     92  O   UNL A   1      45.912  19.416  35.166  1.00  0.00    -0.237 OA
ATOM     93  O   UNL A   1      47.915  20.699  35.801  1.00  0.00    -0.744 OA
ENDBRANCH  89  90
ENDBRANCH  57  82
ENDBRANCH  31  32
ENDBRANCH  23  26
ENDBRANCH  21  22
ENDBRANCH   1  21
TORSDOF 16
ENDMDL
MODEL 3
REMARK VINA RESULT:     -12.7      5.302     11.596
REMARK SMILES Cc1ccc(C(F)(F)F)cc1/C=C/C(=O)NCCCCNC(=O)c1ccc(-c2c3nc(c(-c4c(F)cc(S(=O)(=O)[O-])cc4F)c4ccc([nH]4)c(-c4c(F)cc(S(=O)(=O)[O-])cc4F)c4nc(c(-c5c(F)cc(S(=O)(=O)[O-])cc5F)c5ccc2[nH]5)C=C4)C=C3)cc1
REMARK SMILES IDX 19 1 18 2 17 3 16 4 14 5 15 6 13 8 12 9 11 10 1 11 2 12 3 13
REMARK SMILES IDX 4 14 10 15 5 16 6 17 7 18 8 19 9 20 20 21 21 22 22 23 23 25
REMARK SMILES IDX 24 26 25 27 89 28 26 29 88 30 27 31 28 32 29 33 82 34 30 35
REMARK SMILES IDX 87 36 81 37 83 38 31 39 86 40 80 41 79 42 32 44 66 45 45 46
REMARK SMILES IDX 65 47 46 48 49 49 64 50 84 51 47 52 48 53 63 55 85 56 50 57
REMARK SMILES IDX 33 58 34 59 43 60 35 61 36 62 42 63 44 64 37 65 38 66 39 67
REMARK SMILES IDX 40 68 41 69 67 70 68 71 77 72 69 73 70 74 76 75 78 76 71 77
REMARK SMILES IDX 72 78 73 79 74 80 75 81 51 82 52 83 61 84 53 85 54 86 60 87
REMARK SMILES IDX 62 88 55 89 56 90 57 91 58 92 59 93
REMARK H PARENT 16 7 21 24 83 43 49 54
REMARK Flexibility Score: inf
ROOT
ATOM      1  C   UNL A   1      32.917  30.377  26.740  1.00  0.00     0.023 C 
ENDROOT
BRANCH   1   2
ATOM      2  C   UNL A   1      32.602  29.817  25.348  1.00  0.00     0.023 C 
BRANCH   2   3
ATOM      3  C   UNL A   1      31.108  29.599  25.065  1.00  0.00     0.116 C 
BRANCH   3   4
ATOM      4  N   UNL A   1      30.753  29.882  23.682  1.00  0.00    -0.353 N 
ATOM      5  C   UNL A   1      30.741  29.066  22.594  1.00  0.00     0.243 C 
ATOM      6  O   UNL A   1      30.264  29.456  21.530  1.00  0.00    -0.270 OA
ATOM      7  H   UNL A   1      30.478  30.811  23.507  1.00  0.00     0.163 HD
BRANCH   5   8
ATOM      8  C   UNL A   1      31.249  27.682  22.690  1.00  0.00     0.072 C 
ATOM      9  C   UNL A   1      32.550  27.386  22.554  1.00  0.00     0.014 C 
BRANCH   9  10
ATOM     10  C   UNL A   1      33.074  26.015  22.571  1.00  0.00    -0.022 A 
ATOM     11  C   UNL A   1      32.222  25.554  20.197  1.00  0.00     0.045 C 
ATOM     12  C   UNL A   1      32.900  25.144  21.478  1.00  0.00    -0.044 A 
ATOM     13  C   UNL A   1      33.339  23.814  21.589  1.00  0.00     0.004 A 
ATOM     14  C   UNL A   1      33.961  23.357  22.751  1.00  0.00     0.013 A 
ATOM     15  C   UNL A   1      33.704  25.544  23.736  1.00  0.00     0.021 A 
ATOM     16  C   UNL A   1      34.158  24.220  23.834  1.00  0.00     0.056 A 
BRANCH  16  17
ATOM     17  C   UNL A   1      34.816  23.714  25.092  1.00  0.00     0.416 C 
ATOM     18  F   UNL A   1      35.716  22.720  24.843  1.00  0.00    -0.166 F 
ATOM     19  F   UNL A   1      35.512  24.684  25.750  1.00  0.00    -0.166 F 
ATOM     20  F   UNL A   1      33.943  23.201  26.004  1.00  0.00    -0.166 F 
ENDBRANCH  16  17
ENDBRANCH   9  10
ENDBRANCH   5   8
ENDBRANCH   3   4
ENDBRANCH   2   3
ENDBRANCH   1   2
BRANCH   1  21
ATOM     21  C   UNL A   1      34.347  30.092  27.182  1.00  0.00     0.116 C 
BRANCH  21  22
ATOM     22  N   UNL A   1      35.111  31.272  27.563  1.00  0.00    -0.352 N 
ATOM     23  C   UNL A   1      36.369  31.311  28.140  1.00  0.00     0.251 C 
ATOM     24  H   UNL A   1      34.683  32.141  27.391  1.00  0.00     0.163 HD
ATOM     25  O   UNL A   1      36.837  32.339  28.604  1.00  0.00    -0.269 OA
BRANCH  23  26
ATOM     26  C   UNL A   1      37.178  30.071  28.083  1.00  0.00     0.039 A 
ATOM     27  C   UNL A   1      37.180  29.252  29.218  1.00  0.00     0.014 A 
ATOM     28  C   UNL A   1      38.116  29.896  27.070  1.00  0.00     0.014 A 
ATOM     29  C   UNL A   1      38.249  28.384  29.433  1.00  0.00     0.010 A 
ATOM     30  C   UNL A   1      39.219  29.104  27.329  1.00  0.00     0.010 A 
ATOM     31  C   UNL A   1      39.314  28.389  28.533  1.00  0.00    -0.014 A 
BRANCH  31  32
ATOM     32  C   UNL A   1      40.615  27.783  28.809  1.00  0.00     0.031 A 
ATOM     33  C   UNL A   1      40.873  26.363  28.470  1.00  0.00     0.074 A 
ATOM     34  C   UNL A   1      41.631  28.553  29.255  1.00  0.00     0.049 A 
ATOM     35  N   UNL A   1      41.879  25.670  28.891  1.00  0.00    -0.248 NA
ATOM     36  C   UNL A   1      39.955  25.582  27.651  1.00  0.00     0.031 C 
ATOM     37  C   UNL A   1      43.057  28.250  29.186  1.00  0.00     0.029 A 
ATOM     38  N   UNL A   1      41.573  29.706  30.025  1.00  0.00    -0.354 N 
ATOM     39  C   UNL A   1      41.915  24.490  28.177  1.00  0.00     0.074 A 
ATOM     40  C   UNL A   1      40.646  24.451  27.490  1.00  0.00     0.031 C 
ATOM     41  C   UNL A   1      43.716  29.040  30.046  1.00  0.00     0.029 A 
ATOM     42  C   UNL A   1      42.725  29.764  30.822  1.00  0.00     0.049 A 
ATOM     43  H   UNL A   1      40.846  30.370  30.015  1.00  0.00     0.167 HD
ATOM     44  C   UNL A   1      43.075  23.765  28.144  1.00  0.00     0.037 A 
ATOM     45  C   UNL A   1      42.647  29.729  32.186  1.00  0.00     0.037 A 
ATOM     46  C   UNL A   1      44.056  24.310  29.089  1.00  0.00     0.049 A 
ATOM     47  C   UNL A   1      43.293  28.513  32.817  1.00  0.00     0.074 A 
ATOM     48  C   UNL A   1      45.164  25.127  28.933  1.00  0.00     0.029 A 
ATOM     49  N   UNL A   1      43.797  24.263  30.457  1.00  0.00    -0.354 N 
ATOM     50  N   UNL A   1      43.666  27.456  32.150  1.00  0.00    -0.248 NA
ATOM     51  C   UNL A   1      43.549  28.379  34.250  1.00  0.00     0.031 C 
ATOM     52  C   UNL A   1      45.523  25.634  30.207  1.00  0.00     0.029 A 
ATOM     53  C   UNL A   1      44.649  25.111  31.143  1.00  0.00     0.049 A 
ATOM     54  H   UNL A   1      43.104  23.705  30.877  1.00  0.00     0.167 HD
ATOM     55  C   UNL A   1      44.148  26.508  33.014  1.00  0.00     0.074 A 
ATOM     56  C   UNL A   1      44.087  27.147  34.315  1.00  0.00     0.031 C 
ATOM     57  C   UNL A   1      44.538  25.270  32.587  1.00  0.00     0.037 A 
BRANCH  44  58
ATOM     58  C   UNL A   1      43.438  22.775  27.038  1.00  0.00     0.058 A 
ATOM     59  C   UNL A   1      42.771  21.530  26.935  1.00  0.00     0.135 A 
ATOM     60  C   UNL A   1      44.486  22.935  26.109  1.00  0.00     0.135 A 
ATOM     61  F   UNL A   1      41.670  21.263  27.649  1.00  0.00    -0.206 F 
ATOM     62  C   UNL A   1      43.200  20.495  26.096  1.00  0.00     0.059 A 
ATOM     63  C   UNL A   1      44.966  21.901  25.297  1.00  0.00     0.059 A 
ATOM     64  F   UNL A   1      45.055  24.123  25.889  1.00  0.00    -0.206 F 
ATOM     65  C   UNL A   1      44.328  20.672  25.312  1.00  0.00     0.060 A 
BRANCH  65  66
ATOM     66  S   UNL A   1      44.932  19.304  24.307  1.00  0.00     0.124 S 
ATOM     67  O   UNL A   1      44.482  19.682  22.971  1.00  0.00    -0.237 OA
ATOM     68  O   UNL A   1      46.372  19.369  24.535  1.00  0.00    -0.237 OA
ATOM     69  O   UNL A   1      44.262  18.140  24.878  1.00  0.00    -0.744 OA
ENDBRANCH  65  66
ENDBRANCH  44  58
BRANCH  45  70
ATOM     70  C   UNL A   1      41.470  30.460  32.725  1.00  0.00     0.058 A 
ATOM     71  C   UNL A   1      40.304  29.708  32.963  1.00  0.00     0.135 A 
ATOM     72  C   UNL A   1      41.619  31.670  33.418  1.00  0.00     0.135 A 
ATOM     73  F   UNL A   1      40.106  28.551  32.309  1.00  0.00    -0.206 F 
ATOM     74  C   UNL A   1      39.421  30.041  33.981  1.00  0.00     0.059 A 
ATOM     75  C   UNL A   1      40.738  32.028  34.440  1.00  0.00     0.059 A 
ATOM     76  F   UNL A   1      42.706  32.431  33.224  1.00  0.00    -0.206 F 
ATOM     77  C   UNL A   1      39.692  31.161  34.762  1.00  0.00     0.060 A 
BRANCH  77  78
ATOM     78  S   UNL A   1      38.792  31.327  36.322  1.00  0.00     0.124 S 
ATOM     79  O   UNL A   1      38.572  29.934  36.697  1.00  0.00    -0.237 OA
ATOM     80  O   UNL A   1      39.766  32.055  37.133  1.00  0.00    -0.237 OA
ATOM     81  O   UNL A   1      37.600  32.076  35.942  1.00  0.00    -0.744 OA
ENDBRANCH  77  78
ENDBRANCH  45  70
BRANCH  57  82
ATOM     82  C   UNL A   1      44.927  24.119  33.481  1.00  0.00     0.058 A 
ATOM     83  C   UNL A   1      44.089  23.028  33.764  1.00  0.00     0.135 A 
ATOM     84  C   UNL A   1      46.250  24.022  33.976  1.00  0.00     0.135 A 
ATOM     85  F   UNL A   1      42.845  22.960  33.264  1.00  0.00    -0.206 F 
ATOM     86  C   UNL A   1      44.509  21.943  34.536  1.00  0.00     0.059 A 
ATOM     87  C   UNL A   1      46.705  22.926  34.705  1.00  0.00     0.059 A 
ATOM     88  F   UNL A   1      47.149  24.994  33.759  1.00  0.00    -0.206 F 
ATOM     89  C   UNL A   1      45.820  21.899  35.002  1.00  0.00     0.060 A 
BRANCH  89  90
ATOM     90  S   UNL A   1      46.399  20.475  35.945  1.00  0.00     0.124 S 
ATOM     91  O   UNL A   1      45.522  19.420  35.447  1.00  0.00    -0.237 OA
ATOM     92  O   UNL A   1      47.800  20.367  35.549  1.00  0.00    -0.237 OA
ATOM     93  O   UNL A   1      46.178  20.884  37.327  1.00  0.00    -0.744 OA
ENDBRANCH  89  90
ENDBRANCH  57  82
ENDBRANCH  31  32
ENDBRANCH  23  26
ENDBRANCH  21  22
ENDBRANCH   1  21
TORSDOF 16
ENDMDL
