MODEL 1
REMARK VINA RESULT:     -10.9      0.000      0.000
REMARK SMILES CC(C)C[C@H](CNC(=O)c1cc(F)ccc1F)C(=O)NCCCCNC(=O)c1ccc(-c2c3nc(c(-c4c(F)cc(S(=O)(=O)[O-])cc4F)c4ccc([nH]4)c(-c4c(F)cc(S(=O)(=O)[O-])cc4F)c4nc(c(-c5c(F)cc(S(=O)(=O)[O-])cc5F)c5ccc2[nH]5)C=C4)C=C3)cc1
REMARK SMILES IDX 22 1 21 2 20 3 18 4 19 5 5 7 4 8 2 9 1 10 3 11 6 12 7 13
REMARK SMILES IDX 8 14 9 16 10 17 11 18 16 19 12 20 15 21 17 22 13 23 14 24
REMARK SMILES IDX 23 25 24 26 25 27 26 28 27 30 28 31 29 32 93 33 30 34 92 35
REMARK SMILES IDX 31 36 32 37 33 38 86 39 34 40 91 41 85 42 87 43 35 44 90 45
REMARK SMILES IDX 84 46 83 47 36 49 70 50 49 51 69 52 50 53 53 54 68 55 88 56
REMARK SMILES IDX 51 57 52 58 67 60 89 61 54 62 37 63 38 64 47 65 39 66 40 67
REMARK SMILES IDX 46 68 48 69 41 70 42 71 43 72 44 73 45 74 71 75 72 76 81 77
REMARK SMILES IDX 73 78 74 79 80 80 82 81 75 82 76 83 77 84 78 85 79 86 55 87
REMARK SMILES IDX 56 88 65 89 57 90 58 91 64 92 66 93 59 94 60 95 61 96 62 97
REMARK SMILES IDX 63 98
REMARK H PARENT 20 6 7 15 25 29 87 48 53 59
REMARK Flexibility Score: inf
ROOT
ATOM      1  C   UNL A   1      31.334  27.577  26.614  1.00  0.00     0.023 C 
ENDROOT
BRANCH   1   2
ATOM      2  C   UNL A   1      30.632  26.609  25.664  1.00  0.00     0.116 C 
BRANCH   2   3
ATOM      3  N   UNL A   1      30.151  25.440  26.372  1.00  0.00    -0.356 N 
ATOM      4  C   UNL A   1      30.378  24.118  26.182  1.00  0.00     0.224 C 
ATOM      5  O   UNL A   1      29.779  23.334  26.927  1.00  0.00    -0.275 OA
ATOM      6  H   UNL A   1      29.551  25.642  27.126  1.00  0.00     0.163 HD
BRANCH   4   7
ATOM      7  C   UNL A   1      31.280  23.557  25.084  1.00  0.00     0.098 C 
BRANCH   7   8
ATOM      8  C   UNL A   1      30.907  23.789  23.606  1.00  0.00     0.018 C 
BRANCH   8   9
ATOM      9  C   UNL A   1      31.992  24.265  22.618  1.00  0.00    -0.017 C 
ATOM     10  C   UNL A   1      32.724  25.538  23.035  1.00  0.00     0.007 C 
ATOM     11  C   UNL A   1      33.009  23.136  22.407  1.00  0.00     0.007 C 
ENDBRANCH   8   9
ENDBRANCH   7   8
BRANCH   7  12
ATOM     12  C   UNL A   1      31.695  22.100  25.392  1.00  0.00     0.129 C 
BRANCH  12  13
ATOM     13  N   UNL A   1      32.354  21.935  26.679  1.00  0.00    -0.351 N 
ATOM     14  C   UNL A   1      33.680  21.798  26.985  1.00  0.00     0.254 C 
ATOM     15  H   UNL A   1      31.747  21.919  27.455  1.00  0.00     0.163 HD
ATOM     16  O   UNL A   1      34.031  21.274  28.039  1.00  0.00    -0.269 OA
BRANCH  14  17
ATOM     17  C   UNL A   1      34.676  22.399  26.099  1.00  0.00     0.078 A 
ATOM     18  C   UNL A   1      35.524  21.546  25.387  1.00  0.00     0.056 A 
ATOM     19  C   UNL A   1      34.709  23.774  25.882  1.00  0.00     0.136 A 
ATOM     20  C   UNL A   1      36.422  22.094  24.483  1.00  0.00     0.124 A 
ATOM     21  C   UNL A   1      35.616  24.315  24.972  1.00  0.00     0.043 A 
ATOM     22  F   UNL A   1      33.896  24.602  26.553  1.00  0.00    -0.206 F 
ATOM     23  F   UNL A   1      37.241  21.284  23.802  1.00  0.00    -0.207 F 
ATOM     24  C   UNL A   1      36.479  23.469  24.271  1.00  0.00     0.042 A 
ENDBRANCH  14  17
ENDBRANCH  12  13
ENDBRANCH   7  12
ENDBRANCH   4   7
ENDBRANCH   2   3
ENDBRANCH   1   2
BRANCH   1  25
ATOM     25  C   UNL A   1      32.645  28.144  26.086  1.00  0.00     0.023 C 
BRANCH  25  26
ATOM     26  C   UNL A   1      33.669  28.478  27.157  1.00  0.00     0.116 C 
BRANCH  26  27
ATOM     27  N   UNL A   1      33.600  29.861  27.613  1.00  0.00    -0.352 N 
ATOM     28  C   UNL A   1      34.594  30.607  28.198  1.00  0.00     0.251 C 
ATOM     29  H   UNL A   1      32.736  30.315  27.488  1.00  0.00     0.163 HD
ATOM     30  O   UNL A   1      34.369  31.734  28.631  1.00  0.00    -0.269 OA
BRANCH  28  31
ATOM     31  C   UNL A   1      35.931  30.003  28.333  1.00  0.00     0.039 A 
ATOM     32  C   UNL A   1      36.834  30.110  27.275  1.00  0.00     0.014 A 
ATOM     33  C   UNL A   1      36.319  29.442  29.553  1.00  0.00     0.014 A 
ATOM     34  C   UNL A   1      38.159  29.719  27.469  1.00  0.00     0.010 A 
ATOM     35  C   UNL A   1      37.656  29.147  29.772  1.00  0.00     0.010 A 
ATOM     36  C   UNL A   1      38.589  29.277  28.732  1.00  0.00    -0.014 A 
BRANCH  36  37
ATOM     37  C   UNL A   1      40.008  28.932  28.987  1.00  0.00     0.031 A 
ATOM     38  C   UNL A   1      40.934  29.971  29.558  1.00  0.00     0.074 A 
ATOM     39  C   UNL A   1      40.477  27.716  28.641  1.00  0.00     0.049 A 
ATOM     40  N   UNL A   1      42.221  29.902  29.774  1.00  0.00    -0.248 NA
ATOM     41  C   UNL A   1      40.340  31.276  29.895  1.00  0.00     0.031 C 
ATOM     42  C   UNL A   1      39.689  26.647  28.021  1.00  0.00     0.029 A 
ATOM     43  N   UNL A   1      41.734  27.178  28.750  1.00  0.00    -0.354 N 
ATOM     44  C   UNL A   1      42.591  31.153  30.251  1.00  0.00     0.074 A 
ATOM     45  C   UNL A   1      41.407  31.983  30.231  1.00  0.00     0.031 C 
ATOM     46  C   UNL A   1      40.475  25.574  27.831  1.00  0.00     0.029 A 
ATOM     47  C   UNL A   1      41.828  25.889  28.279  1.00  0.00     0.049 A 
ATOM     48  H   UNL A   1      42.499  27.668  29.130  1.00  0.00     0.167 HD
ATOM     49  C   UNL A   1      43.801  31.565  30.697  1.00  0.00     0.037 A 
ATOM     50  C   UNL A   1      42.886  25.057  28.214  1.00  0.00     0.037 A 
ATOM     51  C   UNL A   1      44.964  30.721  30.750  1.00  0.00     0.049 A 
ATOM     52  C   UNL A   1      44.216  25.529  28.737  1.00  0.00     0.074 A 
ATOM     53  C   UNL A   1      46.223  31.020  31.239  1.00  0.00     0.029 A 
ATOM     54  N   UNL A   1      45.009  29.409  30.301  1.00  0.00    -0.354 N 
ATOM     55  N   UNL A   1      44.534  26.697  29.245  1.00  0.00    -0.248 NA
ATOM     56  C   UNL A   1      45.329  24.572  28.687  1.00  0.00     0.031 C 
ATOM     57  C   UNL A   1      47.038  29.899  31.055  1.00  0.00     0.029 A 
ATOM     58  C   UNL A   1      46.277  28.888  30.491  1.00  0.00     0.049 A 
ATOM     59  H   UNL A   1      44.251  28.920  29.906  1.00  0.00     0.167 HD
ATOM     60  C   UNL A   1      45.876  26.605  29.598  1.00  0.00     0.074 A 
ATOM     61  C   UNL A   1      46.305  25.265  29.257  1.00  0.00     0.031 C 
ATOM     62  C   UNL A   1      46.680  27.545  30.153  1.00  0.00     0.037 A 
BRANCH  49  63
ATOM     63  C   UNL A   1      43.917  32.985  31.178  1.00  0.00     0.058 A 
ATOM     64  C   UNL A   1      44.265  34.030  30.307  1.00  0.00     0.135 A 
ATOM     65  C   UNL A   1      43.660  33.310  32.519  1.00  0.00     0.135 A 
ATOM     66  F   UNL A   1      44.541  33.773  29.018  1.00  0.00    -0.206 F 
ATOM     67  C   UNL A   1      44.387  35.341  30.754  1.00  0.00     0.059 A 
ATOM     68  C   UNL A   1      43.746  34.620  32.983  1.00  0.00     0.059 A 
ATOM     69  F   UNL A   1      43.326  32.349  33.397  1.00  0.00    -0.206 F 
ATOM     70  C   UNL A   1      44.125  35.626  32.095  1.00  0.00     0.060 A 
BRANCH  70  71
ATOM     71  S   UNL A   1      44.281  37.334  32.658  1.00  0.00     0.124 S 
ATOM     72  O   UNL A   1      45.600  37.314  33.285  1.00  0.00    -0.237 OA
ATOM     73  O   UNL A   1      44.185  38.085  31.411  1.00  0.00    -0.237 OA
ATOM     74  O   UNL A   1      43.155  37.495  33.572  1.00  0.00    -0.744 OA
ENDBRANCH  70  71
ENDBRANCH  49  63
BRANCH  50  75
ATOM     75  C   UNL A   1      42.723  23.685  27.663  1.00  0.00     0.058 A 
ATOM     76  C   UNL A   1      42.474  22.593  28.506  1.00  0.00     0.135 A 
ATOM     77  C   UNL A   1      42.797  23.440  26.283  1.00  0.00     0.135 A 
ATOM     78  F   UNL A   1      42.399  22.775  29.835  1.00  0.00    -0.206 F 
ATOM     79  C   UNL A   1      42.322  21.304  28.007  1.00  0.00     0.059 A 
ATOM     80  C   UNL A   1      42.623  22.164  25.756  1.00  0.00     0.059 A 
ATOM     81  F   UNL A   1      43.015  24.454  25.431  1.00  0.00    -0.206 F 
ATOM     82  C   UNL A   1      42.396  21.100  26.628  1.00  0.00     0.060 A 
BRANCH  82  83
ATOM     83  S   UNL A   1      42.148  19.430  25.985  1.00  0.00     0.124 S 
ATOM     84  O   UNL A   1      42.661  18.614  27.079  1.00  0.00    -0.237 OA
ATOM     85  O   UNL A   1      40.704  19.391  25.781  1.00  0.00    -0.237 OA
ATOM     86  O   UNL A   1      42.946  19.420  24.762  1.00  0.00    -0.744 OA
ENDBRANCH  82  83
ENDBRANCH  50  75
BRANCH  62  87
ATOM     87  C   UNL A   1      48.097  27.150  30.460  1.00  0.00     0.058 A 
ATOM     88  C   UNL A   1      49.137  27.364  29.543  1.00  0.00     0.135 A 
ATOM     89  C   UNL A   1      48.425  26.603  31.711  1.00  0.00     0.135 A 
ATOM     90  F   UNL A   1      48.875  27.878  28.331  1.00  0.00    -0.206 F 
ATOM     91  C   UNL A   1      50.452  27.032  29.849  1.00  0.00     0.059 A 
ATOM     92  C   UNL A   1      49.737  26.289  32.048  1.00  0.00     0.059 A 
ATOM     93  F   UNL A   1      47.467  26.389  32.628  1.00  0.00    -0.206 F 
ATOM     94  C   UNL A   1      50.742  26.496  31.105  1.00  0.00     0.060 A 
BRANCH  94  95
ATOM     95  S   UNL A   1      52.459  26.104  31.503  1.00  0.00     0.124 S 
ATOM     96  O   UNL A   1      53.098  26.223  30.196  1.00  0.00    -0.237 OA
ATOM     97  O   UNL A   1      52.800  27.141  32.472  1.00  0.00    -0.237 OA
ATOM     98  O   UNL A   1      52.382  24.751  32.045  1.00  0.00    -0.744 OA
ENDBRANCH  94  95
ENDBRANCH  62  87
ENDBRANCH  36  37
ENDBRANCH  28  31
ENDBRANCH  26  27
ENDBRANCH  25  26
ENDBRANCH   1  25
TORSDOF 19
ENDMDL
MODEL 2
REMARK VINA RESULT:     -10.5      3.543      9.107
REMARK SMILES CC(C)C[C@H](CNC(=O)c1cc(F)ccc1F)C(=O)NCCCCNC(=O)c1ccc(-c2c3nc(c(-c4c(F)cc(S(=O)(=O)[O-])cc4F)c4ccc([nH]4)c(-c4c(F)cc(S(=O)(=O)[O-])cc4F)c4nc(c(-c5c(F)cc(S(=O)(=O)[O-])cc5F)c5ccc2[nH]5)C=C4)C=C3)cc1
REMARK SMILES IDX 22 1 21 2 20 3 18 4 19 5 5 7 4 8 2 9 1 10 3 11 6 12 7 13
REMARK SMILES IDX 8 14 9 16 10 17 11 18 16 19 12 20 15 21 17 22 13 23 14 24
REMARK SMILES IDX 23 25 24 26 25 27 26 28 27 30 28 31 29 32 93 33 30 34 92 35
REMARK SMILES IDX 31 36 32 37 33 38 86 39 34 40 91 41 85 42 87 43 35 44 90 45
REMARK SMILES IDX 84 46 83 47 36 49 70 50 49 51 69 52 50 53 53 54 68 55 88 56
REMARK SMILES IDX 51 57 52 58 67 60 89 61 54 62 37 63 38 64 47 65 39 66 40 67
REMARK SMILES IDX 46 68 48 69 41 70 42 71 43 72 44 73 45 74 71 75 72 76 81 77
REMARK SMILES IDX 73 78 74 79 80 80 82 81 75 82 76 83 77 84 78 85 79 86 55 87
REMARK SMILES IDX 56 88 65 89 57 90 58 91 64 92 66 93 59 94 60 95 61 96 62 97
REMARK SMILES IDX 63 98
REMARK H PARENT 20 6 7 15 25 29 87 48 53 59
REMARK Flexibility Score: inf
ROOT
ATOM      1  C   UNL A   1      39.375  22.867  26.468  1.00  0.00     0.023 C 
ENDROOT
BRANCH   1   2
ATOM      2  C   UNL A   1      38.050  23.535  26.102  1.00  0.00     0.116 C 
BRANCH   2   3
ATOM      3  N   UNL A   1      37.754  23.369  24.694  1.00  0.00    -0.356 N 
ATOM      4  C   UNL A   1      36.597  23.091  24.047  1.00  0.00     0.224 C 
ATOM      5  O   UNL A   1      36.661  22.956  22.819  1.00  0.00    -0.275 OA
ATOM      6  H   UNL A   1      38.532  23.476  24.101  1.00  0.00     0.163 HD
BRANCH   4   7
ATOM      7  C   UNL A   1      35.255  22.890  24.747  1.00  0.00     0.098 C 
BRANCH   7   8
ATOM      8  C   UNL A   1      34.674  24.028  25.609  1.00  0.00     0.018 C 
BRANCH   8   9
ATOM      9  C   UNL A   1      34.398  25.402  24.963  1.00  0.00    -0.017 C 
ATOM     10  C   UNL A   1      34.027  25.351  23.483  1.00  0.00     0.007 C 
ATOM     11  C   UNL A   1      33.285  26.110  25.746  1.00  0.00     0.007 C 
ENDBRANCH   8   9
ENDBRANCH   7   8
BRANCH   7  12
ATOM     12  C   UNL A   1      35.181  21.504  25.428  1.00  0.00     0.129 C 
BRANCH  12  13
ATOM     13  N   UNL A   1      34.513  20.489  24.628  1.00  0.00    -0.351 N 
ATOM     14  C   UNL A   1      33.183  20.286  24.384  1.00  0.00     0.254 C 
ATOM     15  H   UNL A   1      35.116  19.844  24.190  1.00  0.00     0.163 HD
ATOM     16  O   UNL A   1      32.767  19.183  24.038  1.00  0.00    -0.269 OA
BRANCH  14  17
ATOM     17  C   UNL A   1      32.275  21.432  24.419  1.00  0.00     0.078 A 
ATOM     18  C   UNL A   1      31.751  21.821  25.655  1.00  0.00     0.056 A 
ATOM     19  C   UNL A   1      32.025  22.186  23.275  1.00  0.00     0.136 A 
ATOM     20  C   UNL A   1      30.951  22.951  25.719  1.00  0.00     0.124 A 
ATOM     21  C   UNL A   1      31.218  23.320  23.350  1.00  0.00     0.043 A 
ATOM     22  F   UNL A   1      32.526  21.829  22.085  1.00  0.00    -0.206 F 
ATOM     23  F   UNL A   1      30.441  23.327  26.898  1.00  0.00    -0.207 F 
ATOM     24  C   UNL A   1      30.676  23.703  24.580  1.00  0.00     0.042 A 
ENDBRANCH  14  17
ENDBRANCH  12  13
ENDBRANCH   7  12
ENDBRANCH   4   7
ENDBRANCH   2   3
ENDBRANCH   1   2
BRANCH   1  25
ATOM     25  C   UNL A   1      39.548  21.459  25.915  1.00  0.00     0.023 C 
BRANCH  25  26
ATOM     26  C   UNL A   1      40.020  20.432  26.930  1.00  0.00     0.116 C 
BRANCH  26  27
ATOM     27  N   UNL A   1      40.883  19.406  26.356  1.00  0.00    -0.352 N 
ATOM     28  C   UNL A   1      42.186  19.534  25.941  1.00  0.00     0.251 C 
ATOM     29  H   UNL A   1      40.483  18.513  26.253  1.00  0.00     0.163 HD
ATOM     30  O   UNL A   1      42.765  18.609  25.377  1.00  0.00    -0.269 OA
BRANCH  28  31
ATOM     31  C   UNL A   1      42.860  20.827  26.150  1.00  0.00     0.039 A 
ATOM     32  C   UNL A   1      43.167  21.620  25.044  1.00  0.00     0.014 A 
ATOM     33  C   UNL A   1      43.073  21.296  27.450  1.00  0.00     0.014 A 
ATOM     34  C   UNL A   1      43.620  22.923  25.246  1.00  0.00     0.010 A 
ATOM     35  C   UNL A   1      43.430  22.622  27.645  1.00  0.00     0.010 A 
ATOM     36  C   UNL A   1      43.711  23.448  26.547  1.00  0.00    -0.014 A 
BRANCH  36  37
ATOM     37  C   UNL A   1      44.113  24.855  26.786  1.00  0.00     0.031 A 
ATOM     38  C   UNL A   1      45.552  25.255  26.610  1.00  0.00     0.074 A 
ATOM     39  C   UNL A   1      43.205  25.748  27.229  1.00  0.00     0.049 A 
ATOM     40  N   UNL A   1      46.125  26.406  26.852  1.00  0.00    -0.248 NA
ATOM     41  C   UNL A   1      46.478  24.213  26.137  1.00  0.00     0.031 C 
ATOM     42  C   UNL A   1      41.793  25.461  27.497  1.00  0.00     0.029 A 
ATOM     43  N   UNL A   1      43.336  27.077  27.542  1.00  0.00    -0.354 N 
ATOM     44  C   UNL A   1      47.474  26.219  26.578  1.00  0.00     0.074 A 
ATOM     45  C   UNL A   1      47.647  24.830  26.217  1.00  0.00     0.031 C 
ATOM     46  C   UNL A   1      41.185  26.587  27.908  1.00  0.00     0.029 A 
ATOM     47  C   UNL A   1      42.168  27.664  27.968  1.00  0.00     0.049 A 
ATOM     48  H   UNL A   1      44.188  27.566  27.469  1.00  0.00     0.167 HD
ATOM     49  C   UNL A   1      48.475  27.130  26.594  1.00  0.00     0.037 A 
ATOM     50  C   UNL A   1      41.919  28.927  28.365  1.00  0.00     0.037 A 
ATOM     51  C   UNL A   1      48.288  28.519  26.917  1.00  0.00     0.049 A 
ATOM     52  C   UNL A   1      43.042  29.928  28.354  1.00  0.00     0.074 A 
ATOM     53  C   UNL A   1      49.222  29.539  26.906  1.00  0.00     0.029 A 
ATOM     54  N   UNL A   1      47.081  29.084  27.305  1.00  0.00    -0.354 N 
ATOM     55  N   UNL A   1      44.302  29.750  28.031  1.00  0.00    -0.248 NA
ATOM     56  C   UNL A   1      42.713  31.304  28.751  1.00  0.00     0.031 C 
ATOM     57  C   UNL A   1      48.587  30.714  27.320  1.00  0.00     0.029 A 
ATOM     58  C   UNL A   1      47.249  30.436  27.548  1.00  0.00     0.049 A 
ATOM     59  H   UNL A   1      46.231  28.595  27.394  1.00  0.00     0.167 HD
ATOM     60  C   UNL A   1      44.908  30.994  28.162  1.00  0.00     0.074 A 
ATOM     61  C   UNL A   1      43.875  31.919  28.580  1.00  0.00     0.031 C 
ATOM     62  C   UNL A   1      46.203  31.341  27.955  1.00  0.00     0.037 A 
BRANCH  49  63
ATOM     63  C   UNL A   1      49.856  26.652  26.236  1.00  0.00     0.058 A 
ATOM     64  C   UNL A   1      50.371  26.800  24.939  1.00  0.00     0.135 A 
ATOM     65  C   UNL A   1      50.679  26.056  27.204  1.00  0.00     0.135 A 
ATOM     66  F   UNL A   1      49.619  27.345  23.970  1.00  0.00    -0.206 F 
ATOM     67  C   UNL A   1      51.642  26.344  24.604  1.00  0.00     0.059 A 
ATOM     68  C   UNL A   1      51.966  25.620  26.899  1.00  0.00     0.059 A 
ATOM     69  F   UNL A   1      50.236  25.886  28.460  1.00  0.00    -0.206 F 
ATOM     70  C   UNL A   1      52.432  25.755  25.591  1.00  0.00     0.060 A 
BRANCH  70  71
ATOM     71  S   UNL A   1      54.081  25.176  25.142  1.00  0.00     0.124 S 
ATOM     72  O   UNL A   1      54.315  25.904  23.898  1.00  0.00    -0.237 OA
ATOM     73  O   UNL A   1      54.884  25.599  26.284  1.00  0.00    -0.237 OA
ATOM     74  O   UNL A   1      53.909  23.734  25.001  1.00  0.00    -0.744 OA
ENDBRANCH  70  71
ENDBRANCH  49  63
BRANCH  50  75
ATOM     75  C   UNL A   1      40.545  29.322  28.775  1.00  0.00     0.058 A 
ATOM     76  C   UNL A   1      39.530  29.500  27.823  1.00  0.00     0.135 A 
ATOM     77  C   UNL A   1      40.213  29.516  30.126  1.00  0.00     0.135 A 
ATOM     78  F   UNL A   1      39.799  29.331  26.518  1.00  0.00    -0.206 F 
ATOM     79  C   UNL A   1      38.241  29.872  28.190  1.00  0.00     0.059 A 
ATOM     80  C   UNL A   1      38.925  29.863  30.520  1.00  0.00     0.059 A 
ATOM     81  F   UNL A   1      41.143  29.341  31.078  1.00  0.00    -0.206 F 
ATOM     82  C   UNL A   1      37.948  30.049  29.543  1.00  0.00     0.060 A 
BRANCH  82  83
ATOM     83  S   UNL A   1      36.258  30.485  30.013  1.00  0.00     0.124 S 
ATOM     84  O   UNL A   1      36.436  31.836  30.531  1.00  0.00    -0.237 OA
ATOM     85  O   UNL A   1      35.549  30.375  28.743  1.00  0.00    -0.237 OA
ATOM     86  O   UNL A   1      35.914  29.469  31.003  1.00  0.00    -0.744 OA
ENDBRANCH  82  83
ENDBRANCH  50  75
BRANCH  62  87
ATOM     87  C   UNL A   1      46.571  32.785  28.144  1.00  0.00     0.058 A 
ATOM     88  C   UNL A   1      46.492  33.709  27.091  1.00  0.00     0.135 A 
ATOM     89  C   UNL A   1      46.949  33.261  29.410  1.00  0.00     0.135 A 
ATOM     90  F   UNL A   1      46.142  33.304  25.860  1.00  0.00    -0.206 F 
ATOM     91  C   UNL A   1      46.796  35.053  27.281  1.00  0.00     0.059 A 
ATOM     92  C   UNL A   1      47.230  34.605  29.630  1.00  0.00     0.059 A 
ATOM     93  F   UNL A   1      47.027  32.419  30.453  1.00  0.00    -0.206 F 
ATOM     94  C   UNL A   1      47.162  35.491  28.556  1.00  0.00     0.060 A 
BRANCH  94  95
ATOM     95  S   UNL A   1      47.517  37.245  28.798  1.00  0.00     0.124 S 
ATOM     96  O   UNL A   1      48.172  37.235  30.101  1.00  0.00    -0.237 OA
ATOM     97  O   UNL A   1      48.376  37.550  27.658  1.00  0.00    -0.237 OA
ATOM     98  O   UNL A   1      46.196  37.866  28.763  1.00  0.00    -0.744 OA
ENDBRANCH  94  95
ENDBRANCH  62  87
ENDBRANCH  36  37
ENDBRANCH  28  31
ENDBRANCH  26  27
ENDBRANCH  25  26
ENDBRANCH   1  25
TORSDOF 19
ENDMDL
MODEL 3
REMARK VINA RESULT:     -10.4      1.267      2.249
REMARK SMILES CC(C)C[C@H](CNC(=O)c1cc(F)ccc1F)C(=O)NCCCCNC(=O)c1ccc(-c2c3nc(c(-c4c(F)cc(S(=O)(=O)[O-])cc4F)c4ccc([nH]4)c(-c4c(F)cc(S(=O)(=O)[O-])cc4F)c4nc(c(-c5c(F)cc(S(=O)(=O)[O-])cc5F)c5ccc2[nH]5)C=C4)C=C3)cc1
REMARK SMILES IDX 22 1 21 2 20 3 18 4 19 5 5 7 4 8 2 9 1 10 3 11 6 12 7 13
REMARK SMILES IDX 8 14 9 16 10 17 11 18 16 19 12 20 15 21 17 22 13 23 14 24
REMARK SMILES IDX 23 25 24 26 25 27 26 28 27 30 28 31 29 32 93 33 30 34 92 35
REMARK SMILES IDX 31 36 32 37 33 38 86 39 34 40 91 41 85 42 87 43 35 44 90 45
REMARK SMILES IDX 84 46 83 47 36 49 70 50 49 51 69 52 50 53 53 54 68 55 88 56
REMARK SMILES IDX 51 57 52 58 67 60 89 61 54 62 37 63 38 64 47 65 39 66 40 67
REMARK SMILES IDX 46 68 48 69 41 70 42 71 43 72 44 73 45 74 71 75 72 76 81 77
REMARK SMILES IDX 73 78 74 79 80 80 82 81 75 82 76 83 77 84 78 85 79 86 55 87
REMARK SMILES IDX 56 88 65 89 57 90 58 91 64 92 66 93 59 94 60 95 61 96 62 97
REMARK SMILES IDX 63 98
REMARK H PARENT 20 6 7 15 25 29 87 48 53 59
REMARK Flexibility Score: inf
ROOT
ATOM      1  C   UNL A   1      32.356  28.800  24.754  1.00  0.00     0.023 C 
ENDROOT
BRANCH   1   2
ATOM      2  C   UNL A   1      33.282  28.043  23.803  1.00  0.00     0.116 C 
BRANCH   2   3
ATOM      3  N   UNL A   1      33.825  26.859  24.437  1.00  0.00    -0.356 N 
ATOM      4  C   UNL A   1      33.582  25.541  24.236  1.00  0.00     0.224 C 
ATOM      5  O   UNL A   1      34.170  24.745  24.977  1.00  0.00    -0.275 OA
ATOM      6  H   UNL A   1      34.488  27.044  25.141  1.00  0.00     0.163 HD
BRANCH   4   7
ATOM      7  C   UNL A   1      32.603  25.004  23.195  1.00  0.00     0.098 C 
BRANCH   7   8
ATOM      8  C   UNL A   1      31.131  24.771  23.589  1.00  0.00     0.018 C 
BRANCH   8   9
ATOM      9  C   UNL A   1      30.429  25.781  24.520  1.00  0.00    -0.017 C 
ATOM     10  C   UNL A   1      29.070  26.270  24.026  1.00  0.00     0.007 C 
ATOM     11  C   UNL A   1      30.271  25.155  25.912  1.00  0.00     0.007 C 
ENDBRANCH   8   9
ENDBRANCH   7   8
BRANCH   7  12
ATOM     12  C   UNL A   1      33.220  23.830  22.401  1.00  0.00     0.129 C 
BRANCH  12  13
ATOM     13  N   UNL A   1      32.381  22.641  22.360  1.00  0.00    -0.351 N 
ATOM     14  C   UNL A   1      32.473  21.467  23.054  1.00  0.00     0.254 C 
ATOM     15  H   UNL A   1      31.624  22.691  21.731  1.00  0.00     0.163 HD
ATOM     16  O   UNL A   1      31.953  20.440  22.625  1.00  0.00    -0.269 OA
BRANCH  14  17
ATOM     17  C   UNL A   1      33.092  21.474  24.378  1.00  0.00     0.078 A 
ATOM     18  C   UNL A   1      34.470  21.253  24.463  1.00  0.00     0.056 A 
ATOM     19  C   UNL A   1      32.357  21.804  25.514  1.00  0.00     0.136 A 
ATOM     20  C   UNL A   1      35.087  21.334  25.702  1.00  0.00     0.124 A 
ATOM     21  C   UNL A   1      32.987  21.881  26.755  1.00  0.00     0.043 A 
ATOM     22  F   UNL A   1      31.037  22.025  25.445  1.00  0.00    -0.206 F 
ATOM     23  F   UNL A   1      36.405  21.118  25.792  1.00  0.00    -0.207 F 
ATOM     24  C   UNL A   1      34.360  21.642  26.849  1.00  0.00     0.042 A 
ENDBRANCH  14  17
ENDBRANCH  12  13
ENDBRANCH   7  12
ENDBRANCH   4   7
ENDBRANCH   2   3
ENDBRANCH   1   2
BRANCH   1  25
ATOM     25  C   UNL A   1      32.414  28.331  26.201  1.00  0.00     0.023 C 
BRANCH  25  26
ATOM     26  C   UNL A   1      33.659  28.759  26.958  1.00  0.00     0.116 C 
BRANCH  26  27
ATOM     27  N   UNL A   1      33.547  30.085  27.554  1.00  0.00    -0.352 N 
ATOM     28  C   UNL A   1      34.495  30.770  28.274  1.00  0.00     0.251 C 
ATOM     29  H   UNL A   1      32.687  30.546  27.425  1.00  0.00     0.163 HD
ATOM     30  O   UNL A   1      34.231  31.844  28.809  1.00  0.00    -0.269 OA
BRANCH  28  31
ATOM     31  C   UNL A   1      35.829  30.163  28.425  1.00  0.00     0.039 A 
ATOM     32  C   UNL A   1      36.737  30.249  27.370  1.00  0.00     0.014 A 
ATOM     33  C   UNL A   1      36.207  29.618  29.655  1.00  0.00     0.014 A 
ATOM     34  C   UNL A   1      38.059  29.856  27.577  1.00  0.00     0.010 A 
ATOM     35  C   UNL A   1      37.542  29.320  29.885  1.00  0.00     0.010 A 
ATOM     36  C   UNL A   1      38.481  29.431  28.848  1.00  0.00    -0.014 A 
BRANCH  36  37
ATOM     37  C   UNL A   1      39.897  29.083  29.117  1.00  0.00     0.031 A 
ATOM     38  C   UNL A   1      40.817  30.119  29.703  1.00  0.00     0.074 A 
ATOM     39  C   UNL A   1      40.369  27.869  28.768  1.00  0.00     0.049 A 
ATOM     40  N   UNL A   1      42.103  30.047  29.932  1.00  0.00    -0.248 NA
ATOM     41  C   UNL A   1      40.220  31.422  30.041  1.00  0.00     0.031 C 
ATOM     42  C   UNL A   1      39.587  26.804  28.134  1.00  0.00     0.029 A 
ATOM     43  N   UNL A   1      41.625  27.330  28.887  1.00  0.00    -0.354 N 
ATOM     44  C   UNL A   1      42.468  31.295  30.420  1.00  0.00     0.074 A 
ATOM     45  C   UNL A   1      41.285  32.126  30.393  1.00  0.00     0.031 C 
ATOM     46  C   UNL A   1      40.374  25.732  27.946  1.00  0.00     0.029 A 
ATOM     47  C   UNL A   1      41.722  26.043  28.410  1.00  0.00     0.049 A 
ATOM     48  H   UNL A   1      42.386  27.817  29.278  1.00  0.00     0.167 HD
ATOM     49  C   UNL A   1      43.673  31.704  30.881  1.00  0.00     0.037 A 
ATOM     50  C   UNL A   1      42.781  25.211  28.351  1.00  0.00     0.037 A 
ATOM     51  C   UNL A   1      44.836  30.859  30.941  1.00  0.00     0.049 A 
ATOM     52  C   UNL A   1      44.105  25.680  28.890  1.00  0.00     0.074 A 
ATOM     53  C   UNL A   1      46.089  31.154  31.445  1.00  0.00     0.029 A 
ATOM     54  N   UNL A   1      44.884  29.549  30.485  1.00  0.00    -0.354 N 
ATOM     55  N   UNL A   1      44.419  26.844  29.408  1.00  0.00    -0.248 NA
ATOM     56  C   UNL A   1      45.219  24.722  28.846  1.00  0.00     0.031 C 
ATOM     57  C   UNL A   1      46.906  30.034  31.263  1.00  0.00     0.029 A 
ATOM     58  C   UNL A   1      46.150  29.027  30.685  1.00  0.00     0.049 A 
ATOM     59  H   UNL A   1      44.130  29.064  30.080  1.00  0.00     0.167 HD
ATOM     60  C   UNL A   1      45.757  26.750  29.775  1.00  0.00     0.074 A 
ATOM     61  C   UNL A   1      46.189  25.411  29.430  1.00  0.00     0.031 C 
ATOM     62  C   UNL A   1      46.556  27.686  30.343  1.00  0.00     0.037 A 
BRANCH  49  63
ATOM     63  C   UNL A   1      43.785  33.121  31.372  1.00  0.00     0.058 A 
ATOM     64  C   UNL A   1      44.168  34.167  30.516  1.00  0.00     0.135 A 
ATOM     65  C   UNL A   1      43.489  33.442  32.706  1.00  0.00     0.135 A 
ATOM     66  F   UNL A   1      44.482  33.913  29.236  1.00  0.00    -0.206 F 
ATOM     67  C   UNL A   1      44.286  35.475  30.973  1.00  0.00     0.059 A 
ATOM     68  C   UNL A   1      43.570  34.750  33.177  1.00  0.00     0.059 A 
ATOM     69  F   UNL A   1      43.121  32.481  33.568  1.00  0.00    -0.206 F 
ATOM     70  C   UNL A   1      43.985  35.756  32.306  1.00  0.00     0.060 A 
BRANCH  70  71
ATOM     71  S   UNL A   1      44.136  37.461  32.881  1.00  0.00     0.124 S 
ATOM     72  O   UNL A   1      43.918  38.205  31.643  1.00  0.00    -0.237 OA
ATOM     73  O   UNL A   1      43.070  37.553  33.871  1.00  0.00    -0.237 OA
ATOM     74  O   UNL A   1      45.492  37.521  33.416  1.00  0.00    -0.744 OA
ENDBRANCH  70  71
ENDBRANCH  49  63
BRANCH  50  75
ATOM     75  C   UNL A   1      42.623  23.843  27.790  1.00  0.00     0.058 A 
ATOM     76  C   UNL A   1      42.649  23.623  26.405  1.00  0.00     0.135 A 
ATOM     77  C   UNL A   1      42.457  22.727  28.624  1.00  0.00     0.135 A 
ATOM     78  F   UNL A   1      42.801  24.660  25.564  1.00  0.00    -0.206 F 
ATOM     79  C   UNL A   1      42.500  22.350  25.864  1.00  0.00     0.059 A 
ATOM     80  C   UNL A   1      42.331  21.440  28.108  1.00  0.00     0.059 A 
ATOM     81  F   UNL A   1      42.442  22.880  29.957  1.00  0.00    -0.206 F 
ATOM     82  C   UNL A   1      42.343  21.264  26.726  1.00  0.00     0.060 A 
BRANCH  82  83
ATOM     83  S   UNL A   1      42.199  19.609  26.015  1.00  0.00     0.124 S 
ATOM     84  O   UNL A   1      42.643  18.773  27.125  1.00  0.00    -0.237 OA
ATOM     85  O   UNL A   1      40.779  19.537  25.689  1.00  0.00    -0.237 OA
ATOM     86  O   UNL A   1      43.096  19.659  24.865  1.00  0.00    -0.744 OA
ENDBRANCH  82  83
ENDBRANCH  50  75
BRANCH  62  87
ATOM     87  C   UNL A   1      47.969  27.287  30.662  1.00  0.00     0.058 A 
ATOM     88  C   UNL A   1      48.281  26.528  31.799  1.00  0.00     0.135 A 
ATOM     89  C   UNL A   1      49.015  27.620  29.786  1.00  0.00     0.135 A 
ATOM     90  F   UNL A   1      47.319  26.189  32.672  1.00  0.00    -0.206 F 
ATOM     91  C   UNL A   1      49.586  26.128  32.069  1.00  0.00     0.059 A 
ATOM     92  C   UNL A   1      50.322  27.208  30.021  1.00  0.00     0.059 A 
ATOM     93  F   UNL A   1      48.766  28.336  28.678  1.00  0.00    -0.206 F 
ATOM     94  C   UNL A   1      50.599  26.472  31.171  1.00  0.00     0.060 A 
BRANCH  94  95
ATOM     95  S   UNL A   1      52.282  25.914  31.513  1.00  0.00     0.124 S 
ATOM     96  O   UNL A   1      52.737  26.921  32.466  1.00  0.00    -0.237 OA
ATOM     97  O   UNL A   1      52.065  24.577  32.057  1.00  0.00    -0.237 OA
ATOM     98  O   UNL A   1      52.925  25.953  30.203  1.00  0.00    -0.744 OA
ENDBRANCH  94  95
ENDBRANCH  62  87
ENDBRANCH  36  37
ENDBRANCH  28  31
ENDBRANCH  26  27
ENDBRANCH  25  26
ENDBRANCH   1  25
TORSDOF 19
ENDMDL
