MODEL 1
REMARK VINA RESULT:     -11.0      0.000      0.000
REMARK SMILES NC(=O)CC[C@@H](NC(=O)Nc1ccc(Cl)c(Cl)c1)C(=O)NCCCCNC(=O)c1ccc(-c2c3nc(c(-c4c(F)cc(S(=O)(=O)[O-])cc4F)c4ccc([nH]4)c(-c4c(F)cc(S(=O)(=O)[O-])cc4F)c4nc(c(-c5c(F)cc(S(=O)(=O)[O-])cc5F)c5ccc2[nH]5)C=C4)C=C3)cc1
REMARK SMILES IDX 23 1 22 2 21 3 19 4 20 5 6 7 5 8 4 9 2 10 1 11 3 14 7 15
REMARK SMILES IDX 8 16 9 18 10 19 11 21 12 22 18 23 13 24 16 25 14 26 17 27
REMARK SMILES IDX 15 28 24 29 25 30 26 31 27 32 28 34 29 35 30 36 94 37 31 38
REMARK SMILES IDX 93 39 32 40 33 41 34 42 87 43 35 44 92 45 86 46 88 47 36 48
REMARK SMILES IDX 91 49 85 50 84 51 37 53 71 54 50 55 70 56 51 57 54 58 69 59
REMARK SMILES IDX 89 60 52 61 53 62 68 64 90 65 55 66 38 67 39 68 48 69 40 70
REMARK SMILES IDX 41 71 47 72 49 73 42 74 43 75 44 76 45 77 46 78 72 79 73 80
REMARK SMILES IDX 82 81 74 82 75 83 81 84 83 85 76 86 77 87 78 88 79 89 80 90
REMARK SMILES IDX 56 91 57 92 66 93 58 94 59 95 65 96 67 97 60 98 61 99 62 100
REMARK SMILES IDX 63 101 64 102
REMARK H PARENT 21 6 1 12 1 13 7 17 10 20 26 33 88 52 54 63
REMARK Flexibility Score: inf
ROOT
ATOM      1  C   UNL A   1      34.414  24.262  25.545  1.00  0.00     0.023 C 
ENDROOT
BRANCH   1   2
ATOM      2  C   UNL A   1      33.749  23.849  24.229  1.00  0.00     0.116 C 
BRANCH   2   3
ATOM      3  N   UNL A   1      34.168  24.766  23.192  1.00  0.00    -0.354 N 
ATOM      4  C   UNL A   1      33.493  25.828  22.685  1.00  0.00     0.242 C 
ATOM      5  O   UNL A   1      33.570  26.026  21.469  1.00  0.00    -0.273 OA
ATOM      6  H   UNL A   1      35.057  24.596  22.804  1.00  0.00     0.163 HD
BRANCH   4   7
ATOM      7  C   UNL A   1      32.597  26.708  23.572  1.00  0.00     0.173 C 
BRANCH   7   8
ATOM      8  C   UNL A   1      32.190  27.940  22.737  1.00  0.00     0.045 C 
BRANCH   8   9
ATOM      9  C   UNL A   1      30.707  28.043  22.389  1.00  0.00     0.102 C 
BRANCH   9  10
ATOM     10  C   UNL A   1      30.190  29.454  22.508  1.00  0.00     0.217 C 
ATOM     11  N   UNL A   1      30.455  30.263  21.446  1.00  0.00    -0.370 N 
ATOM     12  H   UNL A   1      30.149  31.199  21.450  1.00  0.00     0.159 HD
ATOM     13  H   UNL A   1      30.952  29.911  20.672  1.00  0.00     0.159 HD
ATOM     14  O   UNL A   1      29.560  29.860  23.475  1.00  0.00    -0.275 OA
ENDBRANCH   9  10
ENDBRANCH   8   9
ENDBRANCH   7   8
BRANCH   7  15
ATOM     15  N   UNL A   1      31.443  26.010  24.156  1.00  0.00    -0.326 N 
ATOM     16  C   UNL A   1      30.786  26.097  25.331  1.00  0.00     0.319 C 
ATOM     17  H   UNL A   1      31.065  25.327  23.556  1.00  0.00     0.166 HD
ATOM     18  O   UNL A   1      29.804  25.361  25.467  1.00  0.00    -0.248 OA
ATOM     19  N   UNL A   1      31.237  26.781  26.403  1.00  0.00    -0.308 N 
ATOM     20  H   UNL A   1      30.891  26.445  27.261  1.00  0.00     0.171 HD
BRANCH  19  21
ATOM     21  C   UNL A   1      32.100  27.871  26.533  1.00  0.00     0.044 A 
ATOM     22  C   UNL A   1      33.442  27.715  26.875  1.00  0.00     0.028 A 
ATOM     23  C   UNL A   1      31.576  29.150  26.328  1.00  0.00     0.048 A 
ATOM     24  C   UNL A   1      34.227  28.841  27.136  1.00  0.00     0.024 A 
ATOM     25  C   UNL A   1      32.347  30.277  26.636  1.00  0.00     0.061 A 
ATOM     26  C   UNL A   1      33.672  30.122  27.054  1.00  0.00     0.059 A 
ATOM     27  Cl  UNL A   1      31.574  31.819  26.548  1.00  0.00    -0.083 Cl
ATOM     28  Cl  UNL A   1      34.669  31.460  27.500  1.00  0.00    -0.083 Cl
ENDBRANCH  19  21
ENDBRANCH   7  15
ENDBRANCH   4   7
ENDBRANCH   2   3
ENDBRANCH   1   2
BRANCH   1  29
ATOM     29  C   UNL A   1      35.616  23.389  25.937  1.00  0.00     0.023 C 
BRANCH  29  30
ATOM     30  C   UNL A   1      36.953  23.886  25.397  1.00  0.00     0.116 C 
BRANCH  30  31
ATOM     31  N   UNL A   1      38.007  22.910  25.627  1.00  0.00    -0.352 N 
ATOM     32  C   UNL A   1      39.250  23.116  26.171  1.00  0.00     0.251 C 
ATOM     33  H   UNL A   1      37.802  21.985  25.358  1.00  0.00     0.163 HD
ATOM     34  O   UNL A   1      40.125  22.266  26.063  1.00  0.00    -0.269 OA
BRANCH  32  35
ATOM     35  C   UNL A   1      39.509  24.383  26.878  1.00  0.00     0.039 A 
ATOM     36  C   UNL A   1      39.046  24.543  28.185  1.00  0.00     0.014 A 
ATOM     37  C   UNL A   1      40.248  25.392  26.251  1.00  0.00     0.014 A 
ATOM     38  C   UNL A   1      39.376  25.700  28.890  1.00  0.00     0.010 A 
ATOM     39  C   UNL A   1      40.618  26.521  26.973  1.00  0.00     0.010 A 
ATOM     40  C   UNL A   1      40.191  26.681  28.300  1.00  0.00    -0.014 A 
BRANCH  40  41
ATOM     41  C   UNL A   1      40.637  27.871  29.064  1.00  0.00     0.031 A 
ATOM     42  C   UNL A   1      41.969  27.866  29.757  1.00  0.00     0.074 A 
ATOM     43  C   UNL A   1      39.802  28.921  29.194  1.00  0.00     0.049 A 
ATOM     44  N   UNL A   1      42.493  28.773  30.539  1.00  0.00    -0.248 NA
ATOM     45  C   UNL A   1      42.812  26.674  29.568  1.00  0.00     0.031 C 
ATOM     46  C   UNL A   1      38.465  29.015  28.602  1.00  0.00     0.029 A 
ATOM     47  N   UNL A   1      39.946  30.099  29.880  1.00  0.00    -0.354 N 
ATOM     48  C   UNL A   1      43.720  28.262  30.943  1.00  0.00     0.074 A 
ATOM     49  C   UNL A   1      43.843  26.945  30.353  1.00  0.00     0.031 C 
ATOM     50  C   UNL A   1      37.916  30.191  28.945  1.00  0.00     0.029 A 
ATOM     51  C   UNL A   1      38.843  30.917  29.808  1.00  0.00     0.049 A 
ATOM     52  H   UNL A   1      40.761  30.338  30.378  1.00  0.00     0.167 HD
ATOM     53  C   UNL A   1      44.663  28.846  31.718  1.00  0.00     0.037 A 
ATOM     54  C   UNL A   1      38.599  32.109  30.385  1.00  0.00     0.037 A 
ATOM     55  C   UNL A   1      44.539  30.165  32.280  1.00  0.00     0.049 A 
ATOM     56  C   UNL A   1      39.654  32.729  31.260  1.00  0.00     0.074 A 
ATOM     57  C   UNL A   1      45.472  30.880  33.011  1.00  0.00     0.029 A 
ATOM     58  N   UNL A   1      43.409  30.964  32.183  1.00  0.00    -0.354 N 
ATOM     59  N   UNL A   1      40.843  32.267  31.566  1.00  0.00    -0.248 NA
ATOM     60  C   UNL A   1      39.336  34.027  31.869  1.00  0.00     0.031 C 
ATOM     61  C   UNL A   1      44.890  32.093  33.394  1.00  0.00     0.029 A 
ATOM     62  C   UNL A   1      43.608  32.151  32.870  1.00  0.00     0.049 A 
ATOM     63  H   UNL A   1      42.587  30.723  31.699  1.00  0.00     0.167 HD
ATOM     64  C   UNL A   1      41.418  33.220  32.397  1.00  0.00     0.074 A 
ATOM     65  C   UNL A   1      40.456  34.295  32.530  1.00  0.00     0.031 C 
ATOM     66  C   UNL A   1      42.633  33.206  32.998  1.00  0.00     0.037 A 
BRANCH  53  67
ATOM     67  C   UNL A   1      45.915  28.064  32.002  1.00  0.00     0.058 A 
ATOM     68  C   UNL A   1      47.023  28.114  31.142  1.00  0.00     0.135 A 
ATOM     69  C   UNL A   1      46.023  27.285  33.165  1.00  0.00     0.135 A 
ATOM     70  F   UNL A   1      46.969  28.833  30.009  1.00  0.00    -0.206 F 
ATOM     71  C   UNL A   1      48.185  27.398  31.410  1.00  0.00     0.059 A 
ATOM     72  C   UNL A   1      47.184  26.579  33.466  1.00  0.00     0.059 A 
ATOM     73  F   UNL A   1      44.992  27.201  34.021  1.00  0.00    -0.206 F 
ATOM     74  C   UNL A   1      48.255  26.632  32.575  1.00  0.00     0.060 A 
BRANCH  74  75
ATOM     75  S   UNL A   1      49.770  25.710  32.910  1.00  0.00     0.124 S 
ATOM     76  O   UNL A   1      50.537  26.683  33.682  1.00  0.00    -0.237 OA
ATOM     77  O   UNL A   1      49.277  24.557  33.657  1.00  0.00    -0.237 OA
ATOM     78  O   UNL A   1      50.290  25.414  31.579  1.00  0.00    -0.744 OA
ENDBRANCH  74  75
ENDBRANCH  53  67
BRANCH  54  79
ATOM     79  C   UNL A   1      37.301  32.793  30.150  1.00  0.00     0.058 A 
ATOM     80  C   UNL A   1      36.170  32.474  30.914  1.00  0.00     0.135 A 
ATOM     81  C   UNL A   1      37.172  33.796  29.177  1.00  0.00     0.135 A 
ATOM     82  F   UNL A   1      36.244  31.517  31.852  1.00  0.00    -0.206 F 
ATOM     83  C   UNL A   1      34.954  33.119  30.720  1.00  0.00     0.059 A 
ATOM     84  C   UNL A   1      35.971  34.471  28.979  1.00  0.00     0.059 A 
ATOM     85  F   UNL A   1      38.230  34.148  28.430  1.00  0.00    -0.206 F 
ATOM     86  C   UNL A   1      34.865  34.119  29.751  1.00  0.00     0.060 A 
BRANCH  86  87
ATOM     87  S   UNL A   1      33.297  34.991  29.547  1.00  0.00     0.124 S 
ATOM     88  O   UNL A   1      33.726  36.212  28.872  1.00  0.00    -0.237 OA
ATOM     89  O   UNL A   1      32.527  34.052  28.737  1.00  0.00    -0.237 OA
ATOM     90  O   UNL A   1      32.825  35.158  30.918  1.00  0.00    -0.744 OA
ENDBRANCH  86  87
ENDBRANCH  54  79
BRANCH  66  91
ATOM     91  C   UNL A   1      42.993  34.384  33.857  1.00  0.00     0.058 A 
ATOM     92  C   UNL A   1      42.705  34.400  35.229  1.00  0.00     0.135 A 
ATOM     93  C   UNL A   1      43.695  35.474  33.319  1.00  0.00     0.135 A 
ATOM     94  F   UNL A   1      42.025  33.386  35.789  1.00  0.00    -0.206 F 
ATOM     95  C   UNL A   1      43.093  35.461  36.040  1.00  0.00     0.059 A 
ATOM     96  C   UNL A   1      44.115  36.536  34.116  1.00  0.00     0.059 A 
ATOM     97  F   UNL A   1      44.003  35.502  32.012  1.00  0.00    -0.206 F 
ATOM     98  C   UNL A   1      43.803  36.522  35.475  1.00  0.00     0.060 A 
BRANCH  98  99
ATOM     99  S   UNL A   1      44.353  37.865  36.549  1.00  0.00     0.124 S 
ATOM    100  O   UNL A   1      45.741  37.488  36.804  1.00  0.00    -0.237 OA
ATOM    101  O   UNL A   1      44.161  39.040  35.705  1.00  0.00    -0.237 OA
ATOM    102  O   UNL A   1      43.457  37.770  37.697  1.00  0.00    -0.744 OA
ENDBRANCH  98  99
ENDBRANCH  66  91
ENDBRANCH  40  41
ENDBRANCH  32  35
ENDBRANCH  30  31
ENDBRANCH  29  30
ENDBRANCH   1  29
TORSDOF 19
ENDMDL
MODEL 2
REMARK VINA RESULT:     -10.9      3.174      4.175
REMARK SMILES NC(=O)CC[C@@H](NC(=O)Nc1ccc(Cl)c(Cl)c1)C(=O)NCCCCNC(=O)c1ccc(-c2c3nc(c(-c4c(F)cc(S(=O)(=O)[O-])cc4F)c4ccc([nH]4)c(-c4c(F)cc(S(=O)(=O)[O-])cc4F)c4nc(c(-c5c(F)cc(S(=O)(=O)[O-])cc5F)c5ccc2[nH]5)C=C4)C=C3)cc1
REMARK SMILES IDX 23 1 22 2 21 3 19 4 20 5 6 7 5 8 4 9 2 10 1 11 3 14 7 15
REMARK SMILES IDX 8 16 9 18 10 19 11 21 12 22 18 23 13 24 16 25 14 26 17 27
REMARK SMILES IDX 15 28 24 29 25 30 26 31 27 32 28 34 29 35 30 36 94 37 31 38
REMARK SMILES IDX 93 39 32 40 33 41 34 42 87 43 35 44 92 45 86 46 88 47 36 48
REMARK SMILES IDX 91 49 85 50 84 51 37 53 71 54 50 55 70 56 51 57 54 58 69 59
REMARK SMILES IDX 89 60 52 61 53 62 68 64 90 65 55 66 38 67 39 68 48 69 40 70
REMARK SMILES IDX 41 71 47 72 49 73 42 74 43 75 44 76 45 77 46 78 72 79 73 80
REMARK SMILES IDX 82 81 74 82 75 83 81 84 83 85 76 86 77 87 78 88 79 89 80 90
REMARK SMILES IDX 56 91 57 92 66 93 58 94 59 95 65 96 67 97 60 98 61 99 62 100
REMARK SMILES IDX 63 101 64 102
REMARK H PARENT 21 6 1 12 1 13 7 17 10 20 26 33 88 52 54 63
REMARK Flexibility Score: inf
ROOT
ATOM      1  C   UNL A   1      36.643  23.751  24.810  1.00  0.00     0.023 C 
ENDROOT
BRANCH   1   2
ATOM      2  C   UNL A   1      35.307  24.064  25.489  1.00  0.00     0.116 C 
BRANCH   2   3
ATOM      3  N   UNL A   1      34.938  22.941  26.322  1.00  0.00    -0.354 N 
ATOM      4  C   UNL A   1      33.706  22.601  26.781  1.00  0.00     0.242 C 
ATOM      5  O   UNL A   1      33.625  22.171  27.934  1.00  0.00    -0.273 OA
ATOM      6  H   UNL A   1      35.676  22.347  26.593  1.00  0.00     0.163 HD
BRANCH   4   7
ATOM      7  C   UNL A   1      32.445  22.819  25.929  1.00  0.00     0.173 C 
BRANCH   7   8
ATOM      8  C   UNL A   1      32.628  22.019  24.622  1.00  0.00     0.045 C 
BRANCH   8   9
ATOM      9  C   UNL A   1      31.983  22.626  23.379  1.00  0.00     0.102 C 
BRANCH   9  10
ATOM     10  C   UNL A   1      32.997  23.256  22.460  1.00  0.00     0.217 C 
ATOM     11  N   UNL A   1      32.512  24.218  21.628  1.00  0.00    -0.370 N 
ATOM     12  H   UNL A   1      33.115  24.675  20.998  1.00  0.00     0.159 HD
ATOM     13  H   UNL A   1      31.557  24.457  21.657  1.00  0.00     0.159 HD
ATOM     14  O   UNL A   1      34.183  22.951  22.457  1.00  0.00    -0.275 OA
ENDBRANCH   9  10
ENDBRANCH   8   9
ENDBRANCH   7   8
BRANCH   7  15
ATOM     15  N   UNL A   1      31.184  22.506  26.616  1.00  0.00    -0.326 N 
ATOM     16  C   UNL A   1      30.055  23.198  26.873  1.00  0.00     0.319 C 
ATOM     17  H   UNL A   1      31.156  21.587  26.966  1.00  0.00     0.166 HD
ATOM     18  O   UNL A   1      29.155  22.585  27.454  1.00  0.00    -0.248 OA
ATOM     19  N   UNL A   1      29.929  24.532  26.707  1.00  0.00    -0.308 N 
ATOM     20  H   UNL A   1      29.241  24.938  27.281  1.00  0.00     0.171 HD
BRANCH  19  21
ATOM     21  C   UNL A   1      30.585  25.447  25.881  1.00  0.00     0.044 A 
ATOM     22  C   UNL A   1      30.203  25.654  24.557  1.00  0.00     0.028 A 
ATOM     23  C   UNL A   1      31.668  26.152  26.413  1.00  0.00     0.048 A 
ATOM     24  C   UNL A   1      30.978  26.470  23.730  1.00  0.00     0.024 A 
ATOM     25  C   UNL A   1      32.474  26.930  25.574  1.00  0.00     0.061 A 
ATOM     26  C   UNL A   1      32.136  27.079  24.225  1.00  0.00     0.059 A 
ATOM     27  Cl  UNL A   1      33.906  27.614  26.255  1.00  0.00    -0.083 Cl
ATOM     28  Cl  UNL A   1      33.107  27.980  23.118  1.00  0.00    -0.083 Cl
ENDBRANCH  19  21
ENDBRANCH   7  15
ENDBRANCH   4   7
ENDBRANCH   2   3
ENDBRANCH   1   2
BRANCH   1  29
ATOM     29  C   UNL A   1      37.674  23.089  25.738  1.00  0.00     0.023 C 
BRANCH  29  30
ATOM     30  C   UNL A   1      38.528  24.075  26.528  1.00  0.00     0.116 C 
BRANCH  30  31
ATOM     31  N   UNL A   1      39.945  23.834  26.309  1.00  0.00    -0.352 N 
ATOM     32  C   UNL A   1      41.005  24.632  26.659  1.00  0.00     0.251 C 
ATOM     33  H   UNL A   1      40.173  22.992  25.852  1.00  0.00     0.163 HD
ATOM     34  O   UNL A   1      42.116  24.435  26.184  1.00  0.00    -0.269 OA
BRANCH  32  35
ATOM     35  C   UNL A   1      40.775  25.733  27.612  1.00  0.00     0.039 A 
ATOM     36  C   UNL A   1      39.757  25.615  28.559  1.00  0.00     0.014 A 
ATOM     37  C   UNL A   1      41.601  26.861  27.583  1.00  0.00     0.014 A 
ATOM     38  C   UNL A   1      39.603  26.610  29.524  1.00  0.00     0.010 A 
ATOM     39  C   UNL A   1      41.478  27.827  28.577  1.00  0.00     0.010 A 
ATOM     40  C   UNL A   1      40.482  27.706  29.558  1.00  0.00    -0.014 A 
BRANCH  40  41
ATOM     41  C   UNL A   1      40.400  28.723  30.634  1.00  0.00     0.031 A 
ATOM     42  C   UNL A   1      41.250  28.590  31.865  1.00  0.00     0.074 A 
ATOM     43  C   UNL A   1      39.500  29.721  30.529  1.00  0.00     0.049 A 
ATOM     44  N   UNL A   1      41.257  29.327  32.944  1.00  0.00    -0.248 NA
ATOM     45  C   UNL A   1      42.199  27.464  31.897  1.00  0.00     0.031 C 
ATOM     46  C   UNL A   1      38.590  29.922  29.399  1.00  0.00     0.029 A 
ATOM     47  N   UNL A   1      39.190  30.741  31.391  1.00  0.00    -0.354 N 
ATOM     48  C   UNL A   1      42.200  28.754  33.788  1.00  0.00     0.074 A 
ATOM     49  C   UNL A   1      42.714  27.581  33.112  1.00  0.00     0.031 C 
ATOM     50  C   UNL A   1      37.829  31.003  29.635  1.00  0.00     0.029 A 
ATOM     51  C   UNL A   1      38.171  31.549  30.944  1.00  0.00     0.049 A 
ATOM     52  H   UNL A   1      39.652  30.881  32.249  1.00  0.00     0.167 HD
ATOM     53  C   UNL A   1      42.611  29.179  35.005  1.00  0.00     0.037 A 
ATOM     54  C   UNL A   1      37.569  32.601  31.532  1.00  0.00     0.037 A 
ATOM     55  C   UNL A   1      42.108  30.360  35.657  1.00  0.00     0.049 A 
ATOM     56  C   UNL A   1      38.028  33.042  32.894  1.00  0.00     0.074 A 
ATOM     57  C   UNL A   1      42.518  30.922  36.855  1.00  0.00     0.029 A 
ATOM     58  N   UNL A   1      41.079  31.155  35.174  1.00  0.00    -0.354 N 
ATOM     59  N   UNL A   1      38.978  32.536  33.644  1.00  0.00    -0.248 NA
ATOM     60  C   UNL A   1      37.335  34.191  33.492  1.00  0.00     0.031 C 
ATOM     61  C   UNL A   1      41.706  32.030  37.116  1.00  0.00     0.029 A 
ATOM     62  C   UNL A   1      40.816  32.183  36.064  1.00  0.00     0.049 A 
ATOM     63  H   UNL A   1      40.605  31.009  34.324  1.00  0.00     0.167 HD
ATOM     64  C   UNL A   1      39.003  33.310  34.798  1.00  0.00     0.074 A 
ATOM     65  C   UNL A   1      37.987  34.330  34.640  1.00  0.00     0.031 C 
ATOM     66  C   UNL A   1      39.794  33.184  35.892  1.00  0.00     0.037 A 
BRANCH  53  67
ATOM     67  C   UNL A   1      43.658  28.365  35.711  1.00  0.00     0.058 A 
ATOM     68  C   UNL A   1      43.314  27.346  36.612  1.00  0.00     0.135 A 
ATOM     69  C   UNL A   1      45.023  28.579  35.455  1.00  0.00     0.135 A 
ATOM     70  F   UNL A   1      42.025  27.108  36.903  1.00  0.00    -0.206 F 
ATOM     71  C   UNL A   1      44.283  26.586  37.258  1.00  0.00     0.059 A 
ATOM     72  C   UNL A   1      46.010  27.814  36.071  1.00  0.00     0.059 A 
ATOM     73  F   UNL A   1      45.408  29.541  34.602  1.00  0.00    -0.206 F 
ATOM     74  C   UNL A   1      45.630  26.829  36.981  1.00  0.00     0.060 A 
BRANCH  74  75
ATOM     75  S   UNL A   1      46.877  25.834  37.825  1.00  0.00     0.124 S 
ATOM     76  O   UNL A   1      46.433  25.927  39.212  1.00  0.00    -0.237 OA
ATOM     77  O   UNL A   1      46.715  24.527  37.194  1.00  0.00    -0.237 OA
ATOM     78  O   UNL A   1      48.127  26.523  37.518  1.00  0.00    -0.744 OA
ENDBRANCH  74  75
ENDBRANCH  53  67
BRANCH  54  79
ATOM     79  C   UNL A   1      36.468  33.309  30.829  1.00  0.00     0.058 A 
ATOM     80  C   UNL A   1      35.136  33.157  31.240  1.00  0.00     0.135 A 
ATOM     81  C   UNL A   1      36.727  34.171  29.751  1.00  0.00     0.135 A 
ATOM     82  F   UNL A   1      34.839  32.339  32.260  1.00  0.00    -0.206 F 
ATOM     83  C   UNL A   1      34.097  33.828  30.604  1.00  0.00     0.059 A 
ATOM     84  C   UNL A   1      35.706  34.870  29.114  1.00  0.00     0.059 A 
ATOM     85  F   UNL A   1      37.986  34.361  29.331  1.00  0.00    -0.206 F 
ATOM     86  C   UNL A   1      34.392  34.686  29.544  1.00  0.00     0.060 A 
BRANCH  86  87
ATOM     87  S   UNL A   1      33.043  35.599  28.765  1.00  0.00     0.124 S 
ATOM     88  O   UNL A   1      33.770  36.628  28.030  1.00  0.00    -0.237 OA
ATOM     89  O   UNL A   1      32.403  34.567  27.954  1.00  0.00    -0.237 OA
ATOM     90  O   UNL A   1      32.256  36.068  29.901  1.00  0.00    -0.744 OA
ENDBRANCH  86  87
ENDBRANCH  54  79
BRANCH  66  91
ATOM     91  C   UNL A   1      39.593  34.171  37.006  1.00  0.00     0.058 A 
ATOM     92  C   UNL A   1      38.843  33.842  38.145  1.00  0.00     0.135 A 
ATOM     93  C   UNL A   1      40.214  35.430  36.969  1.00  0.00     0.135 A 
ATOM     94  F   UNL A   1      38.221  32.655  38.224  1.00  0.00    -0.206 F 
ATOM     95  C   UNL A   1      38.708  34.729  39.207  1.00  0.00     0.059 A 
ATOM     96  C   UNL A   1      40.112  36.325  38.029  1.00  0.00     0.059 A 
ATOM     97  F   UNL A   1      40.949  35.789  35.904  1.00  0.00    -0.206 F 
ATOM     98  C   UNL A   1      39.352  35.967  39.142  1.00  0.00     0.060 A 
BRANCH  98  99
ATOM     99  S   UNL A   1      39.218  37.086  40.553  1.00  0.00     0.124 S 
ATOM    100  O   UNL A   1      38.162  37.993  40.110  1.00  0.00    -0.237 OA
ATOM    101  O   UNL A   1      38.861  36.179  41.639  1.00  0.00    -0.237 OA
ATOM    102  O   UNL A   1      40.551  37.674  40.647  1.00  0.00    -0.744 OA
ENDBRANCH  98  99
ENDBRANCH  66  91
ENDBRANCH  40  41
ENDBRANCH  32  35
ENDBRANCH  30  31
ENDBRANCH  29  30
ENDBRANCH   1  29
TORSDOF 19
ENDMDL
MODEL 3
REMARK VINA RESULT:     -10.9      3.218      9.273
REMARK SMILES NC(=O)CC[C@@H](NC(=O)Nc1ccc(Cl)c(Cl)c1)C(=O)NCCCCNC(=O)c1ccc(-c2c3nc(c(-c4c(F)cc(S(=O)(=O)[O-])cc4F)c4ccc([nH]4)c(-c4c(F)cc(S(=O)(=O)[O-])cc4F)c4nc(c(-c5c(F)cc(S(=O)(=O)[O-])cc5F)c5ccc2[nH]5)C=C4)C=C3)cc1
REMARK SMILES IDX 23 1 22 2 21 3 19 4 20 5 6 7 5 8 4 9 2 10 1 11 3 14 7 15
REMARK SMILES IDX 8 16 9 18 10 19 11 21 12 22 18 23 13 24 16 25 14 26 17 27
REMARK SMILES IDX 15 28 24 29 25 30 26 31 27 32 28 34 29 35 30 36 94 37 31 38
REMARK SMILES IDX 93 39 32 40 33 41 34 42 87 43 35 44 92 45 86 46 88 47 36 48
REMARK SMILES IDX 91 49 85 50 84 51 37 53 71 54 50 55 70 56 51 57 54 58 69 59
REMARK SMILES IDX 89 60 52 61 53 62 68 64 90 65 55 66 38 67 39 68 48 69 40 70
REMARK SMILES IDX 41 71 47 72 49 73 42 74 43 75 44 76 45 77 46 78 72 79 73 80
REMARK SMILES IDX 82 81 74 82 75 83 81 84 83 85 76 86 77 87 78 88 79 89 80 90
REMARK SMILES IDX 56 91 57 92 66 93 58 94 59 95 65 96 67 97 60 98 61 99 62 100
REMARK SMILES IDX 63 101 64 102
REMARK H PARENT 21 6 1 12 1 13 7 17 10 20 26 33 88 52 54 63
REMARK Flexibility Score: inf
ROOT
ATOM      1  C   UNL A   1      31.645  28.827  26.303  1.00  0.00     0.023 C 
ENDROOT
BRANCH   1   2
ATOM      2  C   UNL A   1      31.861  29.186  24.830  1.00  0.00     0.116 C 
BRANCH   2   3
ATOM      3  N   UNL A   1      30.655  28.872  24.096  1.00  0.00    -0.354 N 
ATOM      4  C   UNL A   1      30.505  28.025  23.047  1.00  0.00     0.242 C 
ATOM      5  O   UNL A   1      29.746  28.371  22.137  1.00  0.00    -0.273 OA
ATOM      6  H   UNL A   1      29.838  29.334  24.396  1.00  0.00     0.163 HD
BRANCH   4   7
ATOM      7  C   UNL A   1      31.311  26.719  22.948  1.00  0.00     0.173 C 
BRANCH   7   8
ATOM      8  C   UNL A   1      30.416  25.584  23.488  1.00  0.00     0.045 C 
BRANCH   8   9
ATOM      9  C   UNL A   1      29.842  25.803  24.886  1.00  0.00     0.102 C 
BRANCH   9  10
ATOM     10  C   UNL A   1      30.383  24.813  25.886  1.00  0.00     0.217 C 
ATOM     11  N   UNL A   1      30.140  23.505  25.600  1.00  0.00    -0.370 N 
ATOM     12  H   UNL A   1      30.462  22.799  26.207  1.00  0.00     0.159 HD
ATOM     13  H   UNL A   1      29.642  23.263  24.786  1.00  0.00     0.159 HD
ATOM     14  O   UNL A   1      31.013  25.141  26.883  1.00  0.00    -0.275 OA
ENDBRANCH   9  10
ENDBRANCH   8   9
ENDBRANCH   7   8
BRANCH   7  15
ATOM     15  N   UNL A   1      31.846  26.433  21.609  1.00  0.00    -0.326 N 
ATOM     16  C   UNL A   1      32.816  25.623  21.137  1.00  0.00     0.319 C 
ATOM     17  H   UNL A   1      31.397  26.946  20.899  1.00  0.00     0.166 HD
ATOM     18  O   UNL A   1      32.969  25.605  19.912  1.00  0.00    -0.248 OA
ATOM     19  N   UNL A   1      33.724  24.995  21.913  1.00  0.00    -0.308 N 
ATOM     20  H   UNL A   1      34.565  24.784  21.446  1.00  0.00     0.171 HD
BRANCH  19  21
ATOM     21  C   UNL A   1      33.706  24.588  23.248  1.00  0.00     0.044 A 
ATOM     22  C   UNL A   1      34.165  25.407  24.278  1.00  0.00     0.028 A 
ATOM     23  C   UNL A   1      33.225  23.307  23.536  1.00  0.00     0.048 A 
ATOM     24  C   UNL A   1      34.261  24.901  25.576  1.00  0.00     0.024 A 
ATOM     25  C   UNL A   1      33.367  22.783  24.826  1.00  0.00     0.061 A 
ATOM     26  C   UNL A   1      33.899  23.578  25.847  1.00  0.00     0.059 A 
ATOM     27  Cl  UNL A   1      32.933  21.128  25.066  1.00  0.00    -0.083 Cl
ATOM     28  Cl  UNL A   1      34.151  22.986  27.449  1.00  0.00    -0.083 Cl
ENDBRANCH  19  21
ENDBRANCH   7  15
ENDBRANCH   4   7
ENDBRANCH   2   3
ENDBRANCH   1   2
BRANCH   1  29
ATOM     29  C   UNL A   1      32.770  27.974  26.908  1.00  0.00     0.023 C 
BRANCH  29  30
ATOM     30  C   UNL A   1      34.121  28.678  26.979  1.00  0.00     0.116 C 
BRANCH  30  31
ATOM     31  N   UNL A   1      33.987  30.011  27.545  1.00  0.00    -0.352 N 
ATOM     32  C   UNL A   1      34.847  30.662  28.394  1.00  0.00     0.251 C 
ATOM     33  H   UNL A   1      33.179  30.510  27.286  1.00  0.00     0.163 HD
ATOM     34  O   UNL A   1      34.487  31.666  28.996  1.00  0.00    -0.269 OA
BRANCH  32  35
ATOM     35  C   UNL A   1      36.208  30.122  28.571  1.00  0.00     0.039 A 
ATOM     36  C   UNL A   1      37.109  30.181  27.508  1.00  0.00     0.014 A 
ATOM     37  C   UNL A   1      36.591  29.595  29.809  1.00  0.00     0.014 A 
ATOM     38  C   UNL A   1      38.426  29.762  27.705  1.00  0.00     0.010 A 
ATOM     39  C   UNL A   1      37.916  29.226  30.017  1.00  0.00     0.010 A 
ATOM     40  C   UNL A   1      38.845  29.313  28.968  1.00  0.00    -0.014 A 
BRANCH  40  41
ATOM     41  C   UNL A   1      40.261  28.958  29.227  1.00  0.00     0.031 A 
ATOM     42  C   UNL A   1      41.203  29.979  29.797  1.00  0.00     0.074 A 
ATOM     43  C   UNL A   1      40.710  27.738  28.871  1.00  0.00     0.049 A 
ATOM     44  N   UNL A   1      42.488  29.884  30.012  1.00  0.00    -0.248 NA
ATOM     45  C   UNL A   1      40.628  31.289  30.148  1.00  0.00     0.031 C 
ATOM     46  C   UNL A   1      39.894  26.682  28.265  1.00  0.00     0.029 A 
ATOM     47  N   UNL A   1      41.962  27.186  28.949  1.00  0.00    -0.354 N 
ATOM     48  C   UNL A   1      42.881  31.119  30.513  1.00  0.00     0.074 A 
ATOM     49  C   UNL A   1      41.703  31.961  30.530  1.00  0.00     0.031 C 
ATOM     50  C   UNL A   1      40.667  25.608  28.035  1.00  0.00     0.029 A 
ATOM     51  C   UNL A   1      42.036  25.911  28.440  1.00  0.00     0.049 A 
ATOM     52  H   UNL A   1      42.736  27.659  29.332  1.00  0.00     0.167 HD
ATOM     53  C   UNL A   1      44.106  31.506  30.937  1.00  0.00     0.037 A 
ATOM     54  C   UNL A   1      43.091  25.086  28.301  1.00  0.00     0.037 A 
ATOM     55  C   UNL A   1      45.265  30.652  30.936  1.00  0.00     0.049 A 
ATOM     56  C   UNL A   1      44.447  25.545  28.760  1.00  0.00     0.074 A 
ATOM     57  C   UNL A   1      46.533  30.922  31.421  1.00  0.00     0.029 A 
ATOM     58  N   UNL A   1      45.301  29.366  30.416  1.00  0.00    -0.354 N 
ATOM     59  N   UNL A   1      44.785  26.689  29.307  1.00  0.00    -0.248 NA
ATOM     60  C   UNL A   1      45.564  24.609  28.581  1.00  0.00     0.031 C 
ATOM     61  C   UNL A   1      47.347  29.816  31.154  1.00  0.00     0.029 A 
ATOM     62  C   UNL A   1      46.577  28.841  30.537  1.00  0.00     0.049 A 
ATOM     63  H   UNL A   1      44.533  28.896  30.019  1.00  0.00     0.167 HD
ATOM     64  C   UNL A   1      46.151  26.606  29.546  1.00  0.00     0.074 A 
ATOM     65  C   UNL A   1      46.575  25.293  29.102  1.00  0.00     0.031 C 
ATOM     66  C   UNL A   1      46.981  27.535  30.081  1.00  0.00     0.037 A 
BRANCH  53  67
ATOM     67  C   UNL A   1      44.257  32.913  31.441  1.00  0.00     0.058 A 
ATOM     68  C   UNL A   1      44.486  33.987  30.566  1.00  0.00     0.135 A 
ATOM     69  C   UNL A   1      44.134  33.199  32.811  1.00  0.00     0.135 A 
ATOM     70  F   UNL A   1      44.625  33.768  29.249  1.00  0.00    -0.206 F 
ATOM     71  C   UNL A   1      44.616  35.291  31.033  1.00  0.00     0.059 A 
ATOM     72  C   UNL A   1      44.236  34.499  33.297  1.00  0.00     0.059 A 
ATOM     73  F   UNL A   1      43.916  32.209  33.691  1.00  0.00    -0.206 F 
ATOM     74  C   UNL A   1      44.491  35.537  32.401  1.00  0.00     0.060 A 
BRANCH  74  75
ATOM     75  S   UNL A   1      44.660  37.234  32.991  1.00  0.00     0.124 S 
ATOM     76  O   UNL A   1      45.598  37.065  34.097  1.00  0.00    -0.237 OA
ATOM     77  O   UNL A   1      45.184  37.924  31.816  1.00  0.00    -0.237 OA
ATOM     78  O   UNL A   1      43.299  37.599  33.373  1.00  0.00    -0.744 OA
ENDBRANCH  74  75
ENDBRANCH  53  67
BRANCH  54  79
ATOM     79  C   UNL A   1      42.901  23.739  27.702  1.00  0.00     0.058 A 
ATOM     80  C   UNL A   1      43.090  23.528  26.330  1.00  0.00     0.135 A 
ATOM     81  C   UNL A   1      42.555  22.632  28.493  1.00  0.00     0.135 A 
ATOM     82  F   UNL A   1      43.415  24.557  25.532  1.00  0.00    -0.206 F 
ATOM     83  C   UNL A   1      42.935  22.270  25.758  1.00  0.00     0.059 A 
ATOM     84  C   UNL A   1      42.416  21.359  27.948  1.00  0.00     0.059 A 
ATOM     85  F   UNL A   1      42.378  22.780  29.815  1.00  0.00    -0.206 F 
ATOM     86  C   UNL A   1      42.602  21.190  26.576  1.00  0.00     0.060 A 
BRANCH  86  87
ATOM     87  S   UNL A   1      42.462  19.550  25.834  1.00  0.00     0.124 S 
ATOM     88  O   UNL A   1      43.465  19.620  24.777  1.00  0.00    -0.237 OA
ATOM     89  O   UNL A   1      42.781  18.676  26.958  1.00  0.00    -0.237 OA
ATOM     90  O   UNL A   1      41.073  19.502  25.387  1.00  0.00    -0.744 OA
ENDBRANCH  86  87
ENDBRANCH  54  79
BRANCH  66  91
ATOM     91  C   UNL A   1      48.432  27.169  30.216  1.00  0.00     0.058 A 
ATOM     92  C   UNL A   1      49.367  27.526  29.234  1.00  0.00     0.135 A 
ATOM     93  C   UNL A   1      48.903  26.521  31.369  1.00  0.00     0.135 A 
ATOM     94  F   UNL A   1      48.965  28.137  28.108  1.00  0.00    -0.206 F 
ATOM     95  C   UNL A   1      50.721  27.245  29.385  1.00  0.00     0.059 A 
ATOM     96  C   UNL A   1      50.256  26.251  31.552  1.00  0.00     0.059 A 
ATOM     97  F   UNL A   1      48.048  26.166  32.342  1.00  0.00    -0.206 F 
ATOM     98  C   UNL A   1      51.157  26.613  30.551  1.00  0.00     0.060 A 
BRANCH  98  99
ATOM     99  S   UNL A   1      52.923  26.308  30.762  1.00  0.00     0.124 S 
ATOM    100  O   UNL A   1      53.340  26.035  29.389  1.00  0.00    -0.237 OA
ATOM    101  O   UNL A   1      53.394  27.569  31.328  1.00  0.00    -0.237 OA
ATOM    102  O   UNL A   1      52.965  25.166  31.669  1.00  0.00    -0.744 OA
ENDBRANCH  98  99
ENDBRANCH  66  91
ENDBRANCH  40  41
ENDBRANCH  32  35
ENDBRANCH  30  31
ENDBRANCH  29  30
ENDBRANCH   1  29
TORSDOF 19
ENDMDL
