MODEL 1
REMARK VINA RESULT:     -10.7      0.000      0.000
REMARK SMILES COCCCC(=O)Nc1nc2ccc(C(=O)NCCCCNC(=O)c3ccc(-c4c5nc(c(-c6c(F)cc(S(=O)(=O)[O-])cc6F)c6ccc([nH]6)c(-c6c(F)cc(S(=O)(=O)[O-])cc6F)c6nc(c(-c7c(F)cc(S(=O)(=O)[O-])cc7F)c7ccc4[nH]7)C=C6)C=C5)cc3)cc2s1
REMARK SMILES IDX 18 1 17 2 15 3 16 4 14 6 9 7 10 8 93 9 11 10 92 11 12 12
REMARK SMILES IDX 91 13 13 14 8 15 6 16 7 17 5 19 4 20 3 21 2 22 1 23 19 24
REMARK SMILES IDX 20 25 21 26 22 27 23 28 24 30 25 31 26 32 90 33 27 34 89 35
REMARK SMILES IDX 28 36 29 37 30 38 83 39 31 40 88 41 82 42 84 43 32 44 87 45
REMARK SMILES IDX 81 46 80 47 33 49 67 50 46 51 66 52 47 53 50 54 65 55 85 56
REMARK SMILES IDX 48 57 49 58 64 60 86 61 51 62 34 63 35 64 44 65 36 66 37 67
REMARK SMILES IDX 43 68 45 69 38 70 39 71 40 72 41 73 42 74 68 75 69 76 78 77
REMARK SMILES IDX 70 78 71 79 77 80 79 81 72 82 73 83 74 84 75 85 76 86 52 87
REMARK SMILES IDX 53 88 62 89 54 90 55 91 61 92 63 93 56 94 57 95 58 96 59 97
REMARK SMILES IDX 60 98
REMARK H PARENT 17 5 8 18 22 29 84 48 50 59
REMARK Flexibility Score: inf
ROOT
ATOM      1  C   UNL A   1      45.993  20.167  37.171  1.00  0.00     0.116 C 
ENDROOT
BRANCH   1   2
ATOM      2  N   UNL A   1      47.091  19.851  38.062  1.00  0.00    -0.352 N 
ATOM      3  C   UNL A   1      47.232  18.841  38.976  1.00  0.00     0.251 C 
ATOM      4  O   UNL A   1      48.314  18.699  39.542  1.00  0.00    -0.269 OA
ATOM      5  H   UNL A   1      47.861  20.461  37.999  1.00  0.00     0.163 HD
BRANCH   3   6
ATOM      6  C   UNL A   1      46.132  17.894  39.300  1.00  0.00     0.041 A 
ATOM      7  C   UNL A   1      42.801  15.973  41.973  1.00  0.00     0.190 A 
ATOM      8  N   UNL A   1      42.707  15.901  40.670  1.00  0.00    -0.220 NA
ATOM      9  S   UNL A   1      44.369  16.249  42.593  1.00  0.00    -0.097 S 
ATOM     10  C   UNL A   1      43.865  16.431  40.111  1.00  0.00     0.084 A 
ATOM     11  C   UNL A   1      44.845  16.815  41.032  1.00  0.00     0.057 A 
ATOM     12  C   UNL A   1      44.090  16.690  38.743  1.00  0.00     0.031 A 
ATOM     13  C   UNL A   1      45.979  17.549  40.653  1.00  0.00     0.035 A 
ATOM     14  C   UNL A   1      45.204  17.450  38.355  1.00  0.00     0.016 A 
BRANCH   7  15
ATOM     15  N   UNL A   1      41.878  15.565  42.880  1.00  0.00    -0.302 N 
ATOM     16  C   UNL A   1      41.520  14.287  43.175  1.00  0.00     0.226 C 
ATOM     17  O   UNL A   1      40.710  14.136  44.100  1.00  0.00    -0.275 OA
ATOM     18  H   UNL A   1      41.415  16.274  43.383  1.00  0.00     0.172 HD
BRANCH  16  19
ATOM     19  C   UNL A   1      42.089  13.051  42.483  1.00  0.00     0.103 C 
BRANCH  19  20
ATOM     20  C   UNL A   1      41.769  11.666  43.056  1.00  0.00     0.038 C 
BRANCH  20  21
ATOM     21  C   UNL A   1      42.921  10.690  43.298  1.00  0.00     0.160 C 
BRANCH  21  22
ATOM     22  O   UNL A   1      43.984  11.208  44.088  1.00  0.00    -0.385 OA
ATOM     23  C   UNL A   1      44.191  10.562  45.332  1.00  0.00     0.194 C 
ENDBRANCH  21  22
ENDBRANCH  20  21
ENDBRANCH  19  20
ENDBRANCH  16  19
ENDBRANCH   7  15
ENDBRANCH   3   6
ENDBRANCH   1   2
BRANCH   1  24
ATOM     24  C   UNL A   1      46.114  21.597  36.644  1.00  0.00     0.023 C 
BRANCH  24  25
ATOM     25  C   UNL A   1      46.452  22.639  37.715  1.00  0.00     0.023 C 
BRANCH  25  26
ATOM     26  C   UNL A   1      46.788  24.031  37.184  1.00  0.00     0.116 C 
BRANCH  26  27
ATOM     27  N   UNL A   1      47.189  24.963  38.227  1.00  0.00    -0.352 N 
ATOM     28  C   UNL A   1      46.858  26.288  38.370  1.00  0.00     0.251 C 
ATOM     29  H   UNL A   1      47.777  24.594  38.924  1.00  0.00     0.163 HD
ATOM     30  O   UNL A   1      47.382  26.956  39.257  1.00  0.00    -0.269 OA
BRANCH  28  31
ATOM     31  C   UNL A   1      45.903  26.909  37.430  1.00  0.00     0.039 A 
ATOM     32  C   UNL A   1      44.567  26.508  37.468  1.00  0.00     0.014 A 
ATOM     33  C   UNL A   1      46.316  27.901  36.536  1.00  0.00     0.014 A 
ATOM     34  C   UNL A   1      43.633  27.148  36.654  1.00  0.00     0.010 A 
ATOM     35  C   UNL A   1      45.370  28.591  35.782  1.00  0.00     0.010 A 
ATOM     36  C   UNL A   1      44.019  28.221  35.832  1.00  0.00    -0.014 A 
BRANCH  36  37
ATOM     37  C   UNL A   1      43.009  28.971  35.044  1.00  0.00     0.031 A 
ATOM     38  C   UNL A   1      42.689  28.573  33.629  1.00  0.00     0.074 A 
ATOM     39  C   UNL A   1      42.403  30.041  35.599  1.00  0.00     0.049 A 
ATOM     40  N   UNL A   1      41.820  29.095  32.802  1.00  0.00    -0.248 NA
ATOM     41  C   UNL A   1      43.463  27.459  33.059  1.00  0.00     0.031 C 
ATOM     42  C   UNL A   1      42.682  30.568  36.938  1.00  0.00     0.029 A 
ATOM     43  N   UNL A   1      41.428  30.873  35.113  1.00  0.00    -0.354 N 
ATOM     44  C   UNL A   1      41.944  28.379  31.617  1.00  0.00     0.074 A 
ATOM     45  C   UNL A   1      43.017  27.428  31.812  1.00  0.00     0.031 C 
ATOM     46  C   UNL A   1      41.868  31.607  37.180  1.00  0.00     0.029 A 
ATOM     47  C   UNL A   1      41.034  31.841  36.007  1.00  0.00     0.049 A 
ATOM     48  H   UNL A   1      41.046  30.787  34.210  1.00  0.00     0.167 HD
ATOM     49  C   UNL A   1      41.212  28.484  30.482  1.00  0.00     0.037 A 
ATOM     50  C   UNL A   1      40.099  32.806  35.896  1.00  0.00     0.037 A 
ATOM     51  C   UNL A   1      40.136  29.426  30.303  1.00  0.00     0.049 A 
ATOM     52  C   UNL A   1      39.290  32.893  34.631  1.00  0.00     0.074 A 
ATOM     53  C   UNL A   1      39.294  29.576  29.215  1.00  0.00     0.029 A 
ATOM     54  N   UNL A   1      39.758  30.385  31.234  1.00  0.00    -0.354 N 
ATOM     55  N   UNL A   1      39.366  32.153  33.550  1.00  0.00    -0.248 NA
ATOM     56  C   UNL A   1      38.260  33.938  34.577  1.00  0.00     0.031 C 
ATOM     57  C   UNL A   1      38.440  30.655  29.467  1.00  0.00     0.029 A 
ATOM     58  C   UNL A   1      38.712  31.144  30.735  1.00  0.00     0.049 A 
ATOM     59  H   UNL A   1      40.173  30.506  32.118  1.00  0.00     0.167 HD
ATOM     60  C   UNL A   1      38.379  32.631  32.694  1.00  0.00     0.074 A 
ATOM     61  C   UNL A   1      37.705  33.705  33.396  1.00  0.00     0.031 C 
ATOM     62  C   UNL A   1      38.060  32.220  31.441  1.00  0.00     0.037 A 
BRANCH  49  63
ATOM     63  C   UNL A   1      41.548  27.552  29.348  1.00  0.00     0.058 A 
ATOM     64  C   UNL A   1      42.732  27.691  28.605  1.00  0.00     0.135 A 
ATOM     65  C   UNL A   1      40.692  26.489  29.016  1.00  0.00     0.135 A 
ATOM     66  F   UNL A   1      43.582  28.698  28.867  1.00  0.00    -0.206 F 
ATOM     67  C   UNL A   1      43.038  26.834  27.553  1.00  0.00     0.059 A 
ATOM     68  C   UNL A   1      40.993  25.600  27.988  1.00  0.00     0.059 A 
ATOM     69  F   UNL A   1      39.547  26.307  29.692  1.00  0.00    -0.206 F 
ATOM     70  C   UNL A   1      42.161  25.791  27.252  1.00  0.00     0.060 A 
BRANCH  70  71
ATOM     71  S   UNL A   1      42.574  24.688  25.883  1.00  0.00     0.124 S 
ATOM     72  O   UNL A   1      41.497  23.706  25.965  1.00  0.00    -0.237 OA
ATOM     73  O   UNL A   1      42.528  25.586  24.734  1.00  0.00    -0.237 OA
ATOM     74  O   UNL A   1      43.901  24.192  26.235  1.00  0.00    -0.744 OA
ENDBRANCH  70  71
ENDBRANCH  49  63
BRANCH  50  75
ATOM     75  C   UNL A   1      39.856  33.737  37.030  1.00  0.00     0.058 A 
ATOM     76  C   UNL A   1      40.528  34.966  37.112  1.00  0.00     0.135 A 
ATOM     77  C   UNL A   1      38.935  33.428  38.043  1.00  0.00     0.135 A 
ATOM     78  F   UNL A   1      41.422  35.306  36.172  1.00  0.00    -0.206 F 
ATOM     79  C   UNL A   1      40.309  35.848  38.166  1.00  0.00     0.059 A 
ATOM     80  C   UNL A   1      38.679  34.305  39.091  1.00  0.00     0.059 A 
ATOM     81  F   UNL A   1      38.252  32.273  37.999  1.00  0.00    -0.206 F 
ATOM     82  C   UNL A   1      39.378  35.510  39.149  1.00  0.00     0.060 A 
BRANCH  82  83
ATOM     83  S   UNL A   1      39.062  36.686  40.483  1.00  0.00     0.124 S 
ATOM     84  O   UNL A   1      38.168  35.921  41.343  1.00  0.00    -0.237 OA
ATOM     85  O   UNL A   1      40.404  36.925  41.004  1.00  0.00    -0.237 OA
ATOM     86  O   UNL A   1      38.456  37.821  39.792  1.00  0.00    -0.744 OA
ENDBRANCH  82  83
ENDBRANCH  50  75
BRANCH  62  87
ATOM     87  C   UNL A   1      36.920  32.928  30.760  1.00  0.00     0.058 A 
ATOM     88  C   UNL A   1      37.140  33.922  29.792  1.00  0.00     0.135 A 
ATOM     89  C   UNL A   1      35.590  32.605  31.075  1.00  0.00     0.135 A 
ATOM     90  F   UNL A   1      38.391  34.271  29.455  1.00  0.00    -0.206 F 
ATOM     91  C   UNL A   1      36.083  34.602  29.197  1.00  0.00     0.059 A 
ATOM     92  C   UNL A   1      34.517  33.251  30.468  1.00  0.00     0.059 A 
ATOM     93  F   UNL A   1      35.320  31.653  31.982  1.00  0.00    -0.206 F 
ATOM     94  C   UNL A   1      34.775  34.264  29.546  1.00  0.00     0.060 A 
BRANCH  94  95
ATOM     95  S   UNL A   1      33.413  35.163  28.776  1.00  0.00     0.124 S 
ATOM     96  O   UNL A   1      32.785  35.792  29.933  1.00  0.00    -0.237 OA
ATOM     97  O   UNL A   1      34.108  36.065  27.863  1.00  0.00    -0.237 OA
ATOM     98  O   UNL A   1      32.632  34.110  28.133  1.00  0.00    -0.744 OA
ENDBRANCH  94  95
ENDBRANCH  62  87
ENDBRANCH  36  37
ENDBRANCH  28  31
ENDBRANCH  26  27
ENDBRANCH  25  26
ENDBRANCH  24  25
ENDBRANCH   1  24
TORSDOF 19
ENDMDL
MODEL 2
REMARK VINA RESULT:     -10.6      6.349     13.015
REMARK SMILES COCCCC(=O)Nc1nc2ccc(C(=O)NCCCCNC(=O)c3ccc(-c4c5nc(c(-c6c(F)cc(S(=O)(=O)[O-])cc6F)c6ccc([nH]6)c(-c6c(F)cc(S(=O)(=O)[O-])cc6F)c6nc(c(-c7c(F)cc(S(=O)(=O)[O-])cc7F)c7ccc4[nH]7)C=C6)C=C5)cc3)cc2s1
REMARK SMILES IDX 18 1 17 2 15 3 16 4 14 6 9 7 10 8 93 9 11 10 92 11 12 12
REMARK SMILES IDX 91 13 13 14 8 15 6 16 7 17 5 19 4 20 3 21 2 22 1 23 19 24
REMARK SMILES IDX 20 25 21 26 22 27 23 28 24 30 25 31 26 32 90 33 27 34 89 35
REMARK SMILES IDX 28 36 29 37 30 38 83 39 31 40 88 41 82 42 84 43 32 44 87 45
REMARK SMILES IDX 81 46 80 47 33 49 67 50 46 51 66 52 47 53 50 54 65 55 85 56
REMARK SMILES IDX 48 57 49 58 64 60 86 61 51 62 34 63 35 64 44 65 36 66 37 67
REMARK SMILES IDX 43 68 45 69 38 70 39 71 40 72 41 73 42 74 68 75 69 76 78 77
REMARK SMILES IDX 70 78 71 79 77 80 79 81 72 82 73 83 74 84 75 85 76 86 52 87
REMARK SMILES IDX 53 88 62 89 54 90 55 91 61 92 63 93 56 94 57 95 58 96 59 97
REMARK SMILES IDX 60 98
REMARK H PARENT 17 5 8 18 22 29 84 48 50 59
REMARK Flexibility Score: inf
ROOT
ATOM      1  C   UNL A   1      40.248  21.575  27.082  1.00  0.00     0.116 C 
ENDROOT
BRANCH   1   2
ATOM      2  N   UNL A   1      40.112  22.982  26.764  1.00  0.00    -0.352 N 
ATOM      3  C   UNL A   1      39.040  23.687  26.286  1.00  0.00     0.251 C 
ATOM      4  O   UNL A   1      39.122  24.911  26.204  1.00  0.00    -0.269 OA
ATOM      5  H   UNL A   1      40.923  23.519  26.919  1.00  0.00     0.163 HD
BRANCH   3   6
ATOM      6  C   UNL A   1      37.769  23.032  25.878  1.00  0.00     0.041 A 
ATOM      7  C   UNL A   1      33.261  22.874  24.616  1.00  0.00     0.190 A 
ATOM      8  N   UNL A   1      34.071  21.916  24.246  1.00  0.00    -0.220 NA
ATOM      9  S   UNL A   1      33.759  23.788  25.972  1.00  0.00    -0.097 S 
ATOM     10  C   UNL A   1      35.311  22.127  24.841  1.00  0.00     0.084 A 
ATOM     11  C   UNL A   1      35.368  23.211  25.722  1.00  0.00     0.057 A 
ATOM     12  C   UNL A   1      36.498  21.417  24.570  1.00  0.00     0.031 A 
ATOM     13  C   UNL A   1      36.580  23.684  26.246  1.00  0.00     0.035 A 
ATOM     14  C   UNL A   1      37.721  21.899  25.062  1.00  0.00     0.016 A 
BRANCH   7  15
ATOM     15  N   UNL A   1      31.964  23.032  24.251  1.00  0.00    -0.302 N 
ATOM     16  C   UNL A   1      31.471  23.869  23.301  1.00  0.00     0.226 C 
ATOM     17  O   UNL A   1      30.256  23.794  23.070  1.00  0.00    -0.275 OA
ATOM     18  H   UNL A   1      31.305  22.477  24.727  1.00  0.00     0.172 HD
BRANCH  16  19
ATOM     19  C   UNL A   1      32.319  24.837  22.481  1.00  0.00     0.103 C 
BRANCH  19  20
ATOM     20  C   UNL A   1      32.548  26.257  23.011  1.00  0.00     0.038 C 
BRANCH  20  21
ATOM     21  C   UNL A   1      31.364  27.224  23.050  1.00  0.00     0.160 C 
BRANCH  21  22
ATOM     22  O   UNL A   1      30.952  27.609  24.356  1.00  0.00    -0.385 OA
ATOM     23  C   UNL A   1      31.202  28.960  24.701  1.00  0.00     0.194 C 
ENDBRANCH  21  22
ENDBRANCH  20  21
ENDBRANCH  19  20
ENDBRANCH  16  19
ENDBRANCH   7  15
ENDBRANCH   3   6
ENDBRANCH   1   2
BRANCH   1  24
ATOM     24  C   UNL A   1      41.628  21.281  27.670  1.00  0.00     0.023 C 
BRANCH  24  25
ATOM     25  C   UNL A   1      42.798  21.823  26.844  1.00  0.00     0.023 C 
BRANCH  25  26
ATOM     26  C   UNL A   1      43.198  23.264  27.152  1.00  0.00     0.116 C 
BRANCH  26  27
ATOM     27  N   UNL A   1      43.061  24.156  26.011  1.00  0.00    -0.352 N 
ATOM     28  C   UNL A   1      42.705  25.482  25.993  1.00  0.00     0.251 C 
ATOM     29  H   UNL A   1      43.249  23.755  25.132  1.00  0.00     0.163 HD
ATOM     30  O   UNL A   1      42.528  26.053  24.920  1.00  0.00    -0.269 OA
BRANCH  28  31
ATOM     31  C   UNL A   1      42.498  26.201  27.266  1.00  0.00     0.039 A 
ATOM     32  C   UNL A   1      43.238  27.359  27.510  1.00  0.00     0.014 A 
ATOM     33  C   UNL A   1      41.560  25.754  28.201  1.00  0.00     0.014 A 
ATOM     34  C   UNL A   1      42.991  28.103  28.664  1.00  0.00     0.010 A 
ATOM     35  C   UNL A   1      41.260  26.539  29.311  1.00  0.00     0.010 A 
ATOM     36  C   UNL A   1      41.973  27.721  29.555  1.00  0.00    -0.014 A 
BRANCH  36  37
ATOM     37  C   UNL A   1      41.639  28.567  30.728  1.00  0.00     0.031 A 
ATOM     38  C   UNL A   1      42.442  28.474  31.996  1.00  0.00     0.074 A 
ATOM     39  C   UNL A   1      40.579  29.399  30.658  1.00  0.00     0.049 A 
ATOM     40  N   UNL A   1      42.310  29.152  33.107  1.00  0.00    -0.248 NA
ATOM     41  C   UNL A   1      43.519  27.471  32.031  1.00  0.00     0.031 C 
ATOM     42  C   UNL A   1      39.680  29.526  29.507  1.00  0.00     0.029 A 
ATOM     43  N   UNL A   1      40.081  30.298  31.566  1.00  0.00    -0.354 N 
ATOM     44  C   UNL A   1      43.280  28.658  33.972  1.00  0.00     0.074 A 
ATOM     45  C   UNL A   1      43.950  27.580  33.279  1.00  0.00     0.031 C 
ATOM     46  C   UNL A   1      38.768  30.475  29.764  1.00  0.00     0.029 A 
ATOM     47  C   UNL A   1      38.994  31.002  31.105  1.00  0.00     0.049 A 
ATOM     48  H   UNL A   1      40.465  30.426  32.464  1.00  0.00     0.167 HD
ATOM     49  C   UNL A   1      43.602  29.083  35.218  1.00  0.00     0.037 A 
ATOM     50  C   UNL A   1      38.266  31.970  31.694  1.00  0.00     0.037 A 
ATOM     51  C   UNL A   1      42.936  30.168  35.895  1.00  0.00     0.049 A 
ATOM     52  C   UNL A   1      38.651  32.435  33.072  1.00  0.00     0.074 A 
ATOM     53  C   UNL A   1      43.222  30.715  37.132  1.00  0.00     0.029 A 
ATOM     54  N   UNL A   1      41.846  30.866  35.393  1.00  0.00    -0.354 N 
ATOM     55  N   UNL A   1      39.624  32.013  33.843  1.00  0.00    -0.248 NA
ATOM     56  C   UNL A   1      37.847  33.518  33.652  1.00  0.00     0.031 C 
ATOM     57  C   UNL A   1      42.275  31.710  37.401  1.00  0.00     0.029 A 
ATOM     58  C   UNL A   1      41.432  31.822  36.307  1.00  0.00     0.049 A 
ATOM     59  H   UNL A   1      41.428  30.704  34.516  1.00  0.00     0.167 HD
ATOM     60  C   UNL A   1      39.563  32.791  34.994  1.00  0.00     0.074 A 
ATOM     61  C   UNL A   1      38.472  33.727  34.803  1.00  0.00     0.031 C 
ATOM     62  C   UNL A   1      40.335  32.737  36.107  1.00  0.00     0.037 A 
BRANCH  49  63
ATOM     63  C   UNL A   1      44.728  28.377  35.925  1.00  0.00     0.058 A 
ATOM     64  C   UNL A   1      46.069  28.752  35.736  1.00  0.00     0.135 A 
ATOM     65  C   UNL A   1      44.465  27.330  36.824  1.00  0.00     0.135 A 
ATOM     66  F   UNL A   1      46.382  29.736  34.877  1.00  0.00    -0.206 F 
ATOM     67  C   UNL A   1      47.108  28.093  36.384  1.00  0.00     0.059 A 
ATOM     68  C   UNL A   1      45.487  26.678  37.507  1.00  0.00     0.059 A 
ATOM     69  F   UNL A   1      43.203  26.929  37.043  1.00  0.00    -0.206 F 
ATOM     70  C   UNL A   1      46.807  27.056  37.268  1.00  0.00     0.060 A 
BRANCH  70  71
ATOM     71  S   UNL A   1      48.169  26.213  38.100  1.00  0.00     0.124 S 
ATOM     72  O   UNL A   1      48.630  25.303  37.055  1.00  0.00    -0.237 OA
ATOM     73  O   UNL A   1      49.069  27.316  38.422  1.00  0.00    -0.237 OA
ATOM     74  O   UNL A   1      47.527  25.577  39.246  1.00  0.00    -0.744 OA
ENDBRANCH  70  71
ENDBRANCH  49  63
BRANCH  50  75
ATOM     75  C   UNL A   1      37.124  32.588  30.966  1.00  0.00     0.058 A 
ATOM     76  C   UNL A   1      37.336  33.596  30.014  1.00  0.00     0.135 A 
ATOM     77  C   UNL A   1      35.804  32.171  31.193  1.00  0.00     0.135 A 
ATOM     78  F   UNL A   1      38.580  34.033  29.765  1.00  0.00    -0.206 F 
ATOM     79  C   UNL A   1      36.279  34.182  29.325  1.00  0.00     0.059 A 
ATOM     80  C   UNL A   1      34.733  32.722  30.497  1.00  0.00     0.059 A 
ATOM     81  F   UNL A   1      35.550  31.196  32.080  1.00  0.00    -0.206 F 
ATOM     82  C   UNL A   1      34.980  33.734  29.570  1.00  0.00     0.060 A 
BRANCH  82  83
ATOM     83  S   UNL A   1      33.621  34.462  28.630  1.00  0.00     0.124 S 
ATOM     84  O   UNL A   1      34.284  35.581  27.972  1.00  0.00    -0.237 OA
ATOM     85  O   UNL A   1      33.221  33.357  27.765  1.00  0.00    -0.237 OA
ATOM     86  O   UNL A   1      32.653  34.819  29.663  1.00  0.00    -0.744 OA
ENDBRANCH  82  83
ENDBRANCH  50  75
BRANCH  62  87
ATOM     87  C   UNL A   1      40.035  33.732  37.196  1.00  0.00     0.058 A 
ATOM     88  C   UNL A   1      39.066  33.479  38.181  1.00  0.00     0.135 A 
ATOM     89  C   UNL A   1      40.728  34.952  37.259  1.00  0.00     0.135 A 
ATOM     90  F   UNL A   1      38.372  32.331  38.166  1.00  0.00    -0.206 F 
ATOM     91  C   UNL A   1      38.762  34.420  39.159  1.00  0.00     0.059 A 
ATOM     92  C   UNL A   1      40.462  35.894  38.248  1.00  0.00     0.059 A 
ATOM     93  F   UNL A   1      41.675  35.240  36.352  1.00  0.00    -0.206 F 
ATOM     94  C   UNL A   1      39.462  35.627  39.181  1.00  0.00     0.060 A 
BRANCH  94  95
ATOM     95  S   UNL A   1      39.050  36.844  40.448  1.00  0.00     0.124 S 
ATOM     96  O   UNL A   1      40.359  37.110  41.036  1.00  0.00    -0.237 OA
ATOM     97  O   UNL A   1      38.475  37.933  39.663  1.00  0.00    -0.237 OA
ATOM     98  O   UNL A   1      38.108  36.135  41.307  1.00  0.00    -0.744 OA
ENDBRANCH  94  95
ENDBRANCH  62  87
ENDBRANCH  36  37
ENDBRANCH  28  31
ENDBRANCH  26  27
ENDBRANCH  25  26
ENDBRANCH  24  25
ENDBRANCH   1  24
TORSDOF 19
ENDMDL
MODEL 3
REMARK VINA RESULT:     -10.5      4.727     10.051
REMARK SMILES COCCCC(=O)Nc1nc2ccc(C(=O)NCCCCNC(=O)c3ccc(-c4c5nc(c(-c6c(F)cc(S(=O)(=O)[O-])cc6F)c6ccc([nH]6)c(-c6c(F)cc(S(=O)(=O)[O-])cc6F)c6nc(c(-c7c(F)cc(S(=O)(=O)[O-])cc7F)c7ccc4[nH]7)C=C6)C=C5)cc3)cc2s1
REMARK SMILES IDX 18 1 17 2 15 3 16 4 14 6 9 7 10 8 93 9 11 10 92 11 12 12
REMARK SMILES IDX 91 13 13 14 8 15 6 16 7 17 5 19 4 20 3 21 2 22 1 23 19 24
REMARK SMILES IDX 20 25 21 26 22 27 23 28 24 30 25 31 26 32 90 33 27 34 89 35
REMARK SMILES IDX 28 36 29 37 30 38 83 39 31 40 88 41 82 42 84 43 32 44 87 45
REMARK SMILES IDX 81 46 80 47 33 49 67 50 46 51 66 52 47 53 50 54 65 55 85 56
REMARK SMILES IDX 48 57 49 58 64 60 86 61 51 62 34 63 35 64 44 65 36 66 37 67
REMARK SMILES IDX 43 68 45 69 38 70 39 71 40 72 41 73 42 74 68 75 69 76 78 77
REMARK SMILES IDX 70 78 71 79 77 80 79 81 72 82 73 83 74 84 75 85 76 86 52 87
REMARK SMILES IDX 53 88 62 89 54 90 55 91 61 92 63 93 56 94 57 95 58 96 59 97
REMARK SMILES IDX 60 98
REMARK H PARENT 17 5 8 18 22 29 84 48 50 59
REMARK Flexibility Score: inf
ROOT
ATOM      1  C   UNL A   1      46.955  25.143  28.359  1.00  0.00     0.116 C 
ENDROOT
BRANCH   1   2
ATOM      2  N   UNL A   1      46.243  26.403  28.420  1.00  0.00    -0.352 N 
ATOM      3  C   UNL A   1      45.691  27.061  29.486  1.00  0.00     0.251 C 
ATOM      4  O   UNL A   1      45.233  28.190  29.315  1.00  0.00    -0.269 OA
ATOM      5  H   UNL A   1      46.140  26.860  27.555  1.00  0.00     0.163 HD
BRANCH   3   6
ATOM      6  C   UNL A   1      45.638  26.474  30.851  1.00  0.00     0.041 A 
ATOM      7  C   UNL A   1      45.114  23.058  34.012  1.00  0.00     0.190 A 
ATOM      8  N   UNL A   1      45.834  24.110  34.308  1.00  0.00    -0.220 NA
ATOM      9  S   UNL A   1      43.982  23.261  32.749  1.00  0.00    -0.097 S 
ATOM     10  C   UNL A   1      45.736  25.024  33.264  1.00  0.00     0.084 A 
ATOM     11  C   UNL A   1      44.863  24.656  32.236  1.00  0.00     0.057 A 
ATOM     12  C   UNL A   1      46.487  26.207  33.118  1.00  0.00     0.031 A 
ATOM     13  C   UNL A   1      44.801  25.359  31.023  1.00  0.00     0.035 A 
ATOM     14  C   UNL A   1      46.457  26.901  31.898  1.00  0.00     0.016 A 
BRANCH   7  15
ATOM     15  N   UNL A   1      44.951  21.943  34.768  1.00  0.00    -0.302 N 
ATOM     16  C   UNL A   1      45.782  20.871  34.847  1.00  0.00     0.226 C 
ATOM     17  O   UNL A   1      45.481  19.992  35.666  1.00  0.00    -0.275 OA
ATOM     18  H   UNL A   1      44.138  21.906  35.322  1.00  0.00     0.172 HD
BRANCH  16  19
ATOM     19  C   UNL A   1      47.069  20.717  34.040  1.00  0.00     0.103 C 
BRANCH  19  20
ATOM     20  C   UNL A   1      48.365  20.351  34.773  1.00  0.00     0.038 C 
BRANCH  20  21
ATOM     21  C   UNL A   1      49.591  21.246  34.583  1.00  0.00     0.160 C 
BRANCH  21  22
ATOM     22  O   UNL A   1      50.248  21.097  33.330  1.00  0.00    -0.385 OA
ATOM     23  C   UNL A   1      51.635  20.813  33.399  1.00  0.00     0.194 C 
ENDBRANCH  21  22
ENDBRANCH  20  21
ENDBRANCH  19  20
ENDBRANCH  16  19
ENDBRANCH   7  15
ENDBRANCH   3   6
ENDBRANCH   1   2
BRANCH   1  24
ATOM     24  C   UNL A   1      46.076  24.049  27.753  1.00  0.00     0.023 C 
BRANCH  24  25
ATOM     25  C   UNL A   1      44.826  24.567  27.035  1.00  0.00     0.023 C 
BRANCH  25  26
ATOM     26  C   UNL A   1      43.499  24.207  27.699  1.00  0.00     0.116 C 
BRANCH  26  27
ATOM     27  N   UNL A   1      42.396  24.092  26.756  1.00  0.00    -0.352 N 
ATOM     28  C   UNL A   1      41.204  24.772  26.739  1.00  0.00     0.251 C 
ATOM     29  H   UNL A   1      42.523  23.438  26.031  1.00  0.00     0.163 HD
ATOM     30  O   UNL A   1      40.336  24.463  25.927  1.00  0.00    -0.269 OA
BRANCH  28  31
ATOM     31  C   UNL A   1      40.958  25.843  27.726  1.00  0.00     0.039 A 
ATOM     32  C   UNL A   1      39.838  25.750  28.552  1.00  0.00     0.014 A 
ATOM     33  C   UNL A   1      41.843  26.918  27.856  1.00  0.00     0.014 A 
ATOM     34  C   UNL A   1      39.639  26.702  29.552  1.00  0.00     0.010 A 
ATOM     35  C   UNL A   1      41.685  27.821  28.904  1.00  0.00     0.010 A 
ATOM     36  C   UNL A   1      40.581  27.724  29.762  1.00  0.00    -0.014 A 
BRANCH  36  37
ATOM     37  C   UNL A   1      40.425  28.676  30.890  1.00  0.00     0.031 A 
ATOM     38  C   UNL A   1      41.283  28.555  32.120  1.00  0.00     0.074 A 
ATOM     39  C   UNL A   1      39.477  29.632  30.818  1.00  0.00     0.049 A 
ATOM     40  N   UNL A   1      41.302  29.309  33.188  1.00  0.00    -0.248 NA
ATOM     41  C   UNL A   1      42.225  27.425  32.167  1.00  0.00     0.031 C 
ATOM     42  C   UNL A   1      38.535  29.805  29.708  1.00  0.00     0.029 A 
ATOM     43  N   UNL A   1      39.149  30.640  31.688  1.00  0.00    -0.354 N 
ATOM     44  C   UNL A   1      42.251  28.747  34.035  1.00  0.00     0.074 A 
ATOM     45  C   UNL A   1      42.739  27.551  33.382  1.00  0.00     0.031 C 
ATOM     46  C   UNL A   1      37.766  30.878  29.946  1.00  0.00     0.029 A 
ATOM     47  C   UNL A   1      38.135  31.451  31.236  1.00  0.00     0.049 A 
ATOM     48  H   UNL A   1      39.598  30.771  32.555  1.00  0.00     0.167 HD
ATOM     49  C   UNL A   1      42.696  29.201  35.231  1.00  0.00     0.037 A 
ATOM     50  C   UNL A   1      37.570  32.539  31.796  1.00  0.00     0.037 A 
ATOM     51  C   UNL A   1      42.212  30.401  35.867  1.00  0.00     0.049 A 
ATOM     52  C   UNL A   1      38.090  33.031  33.118  1.00  0.00     0.074 A 
ATOM     53  C   UNL A   1      42.637  30.979  37.049  1.00  0.00     0.029 A 
ATOM     54  N   UNL A   1      41.192  31.202  35.375  1.00  0.00    -0.354 N 
ATOM     55  N   UNL A   1      39.046  32.533  33.866  1.00  0.00    -0.248 NA
ATOM     56  C   UNL A   1      37.464  34.242  33.665  1.00  0.00     0.031 C 
ATOM     57  C   UNL A   1      41.840  32.103  37.298  1.00  0.00     0.029 A 
ATOM     58  C   UNL A   1      40.956  32.257  36.243  1.00  0.00     0.049 A 
ATOM     59  H   UNL A   1      40.706  31.045  34.533  1.00  0.00     0.167 HD
ATOM     60  C   UNL A   1      39.150  33.380  34.964  1.00  0.00     0.074 A 
ATOM     61  C   UNL A   1      38.177  34.436  34.766  1.00  0.00     0.031 C 
ATOM     62  C   UNL A   1      39.973  33.293  36.038  1.00  0.00     0.037 A 
BRANCH  49  63
ATOM     63  C   UNL A   1      43.763  28.398  35.927  1.00  0.00     0.058 A 
ATOM     64  C   UNL A   1      43.443  27.353  36.810  1.00  0.00     0.135 A 
ATOM     65  C   UNL A   1      45.123  28.655  35.689  1.00  0.00     0.135 A 
ATOM     66  F   UNL A   1      42.159  27.072  37.088  1.00  0.00    -0.206 F 
ATOM     67  C   UNL A   1      44.429  26.617  37.458  1.00  0.00     0.059 A 
ATOM     68  C   UNL A   1      46.127  27.910  36.302  1.00  0.00     0.059 A 
ATOM     69  F   UNL A   1      45.489  29.641  34.854  1.00  0.00    -0.206 F 
ATOM     70  C   UNL A   1      45.770  26.904  37.197  1.00  0.00     0.060 A 
BRANCH  70  71
ATOM     71  S   UNL A   1      47.037  25.939  38.047  1.00  0.00     0.124 S 
ATOM     72  O   UNL A   1      47.587  26.928  38.969  1.00  0.00    -0.237 OA
ATOM     73  O   UNL A   1      46.256  24.868  38.658  1.00  0.00    -0.237 OA
ATOM     74  O   UNL A   1      47.929  25.524  36.969  1.00  0.00    -0.744 OA
ENDBRANCH  70  71
ENDBRANCH  49  63
BRANCH  50  75
ATOM     75  C   UNL A   1      36.475  33.254  31.086  1.00  0.00     0.058 A 
ATOM     76  C   UNL A   1      35.149  33.173  31.537  1.00  0.00     0.135 A 
ATOM     77  C   UNL A   1      36.734  34.046  29.957  1.00  0.00     0.135 A 
ATOM     78  F   UNL A   1      34.849  32.424  32.609  1.00  0.00    -0.206 F 
ATOM     79  C   UNL A   1      34.115  33.838  30.884  1.00  0.00     0.059 A 
ATOM     80  C   UNL A   1      35.722  34.742  29.305  1.00  0.00     0.059 A 
ATOM     81  F   UNL A   1      37.989  34.172  29.498  1.00  0.00    -0.206 F 
ATOM     82  C   UNL A   1      34.413  34.625  29.771  1.00  0.00     0.060 A 
BRANCH  82  83
ATOM     83  S   UNL A   1      33.072  35.527  28.965  1.00  0.00     0.124 S 
ATOM     84  O   UNL A   1      32.434  34.473  28.187  1.00  0.00    -0.237 OA
ATOM     85  O   UNL A   1      32.313  36.030  30.106  1.00  0.00    -0.237 OA
ATOM     86  O   UNL A   1      33.773  36.548  28.191  1.00  0.00    -0.744 OA
ENDBRANCH  82  83
ENDBRANCH  50  75
BRANCH  62  87
ATOM     87  C   UNL A   1      39.865  34.382  37.072  1.00  0.00     0.058 A 
ATOM     88  C   UNL A   1      39.005  34.268  38.177  1.00  0.00     0.135 A 
ATOM     89  C   UNL A   1      40.633  35.552  36.959  1.00  0.00     0.135 A 
ATOM     90  F   UNL A   1      38.247  33.172  38.332  1.00  0.00    -0.206 F 
ATOM     91  C   UNL A   1      38.877  35.295  39.107  1.00  0.00     0.059 A 
ATOM     92  C   UNL A   1      40.544  36.578  37.895  1.00  0.00     0.059 A 
ATOM     93  F   UNL A   1      41.482  35.708  35.931  1.00  0.00    -0.206 F 
ATOM     94  C   UNL A   1      39.646  36.449  38.953  1.00  0.00     0.060 A 
BRANCH  94  95
ATOM     95  S   UNL A   1      39.462  37.779  40.158  1.00  0.00     0.124 S 
ATOM     96  O   UNL A   1      39.212  37.031  41.385  1.00  0.00    -0.237 OA
ATOM     97  O   UNL A   1      40.754  38.455  40.080  1.00  0.00    -0.237 OA
ATOM     98  O   UNL A   1      38.329  38.545  39.648  1.00  0.00    -0.744 OA
ENDBRANCH  94  95
ENDBRANCH  62  87
ENDBRANCH  36  37
ENDBRANCH  28  31
ENDBRANCH  26  27
ENDBRANCH  25  26
ENDBRANCH  24  25
ENDBRANCH   1  24
TORSDOF 19
ENDMDL
