MODEL 1
REMARK VINA RESULT:     -11.6      0.000      0.000
REMARK SMILES Cc1cc(C(=O)N[C@@H](Cc2ccccc2)C(=O)NCCCCNC(=O)c2ccc(-c3c4nc(c(-c5c(F)cc(S(=O)(=O)[O-])cc5F)c5ccc([nH]5)c(-c5c(F)cc(S(=O)(=O)[O-])cc5F)c5nc(c(-c6c(F)cc(S(=O)(=O)[O-])cc6F)c6ccc3[nH]6)C=C5)C=C4)cc2)c(C)o1
REMARK SMILES IDX 21 1 20 2 19 3 18 4 16 5 17 6 8 8 7 9 5 10 6 11 4 13 1 14
REMARK SMILES IDX 2 15 3 16 94 17 92 18 93 19 9 20 10 21 11 22 15 23 12 24
REMARK SMILES IDX 14 25 13 26 22 27 23 28 24 29 25 31 26 32 27 33 91 34 28 35
REMARK SMILES IDX 90 36 29 37 30 38 31 39 84 40 32 41 89 42 83 43 85 44 33 45
REMARK SMILES IDX 88 46 82 47 81 48 34 50 68 51 47 52 67 53 48 54 51 55 66 56
REMARK SMILES IDX 86 57 49 58 50 59 65 61 87 62 52 63 35 64 36 65 45 66 37 67
REMARK SMILES IDX 38 68 44 69 46 70 39 71 40 72 41 73 42 74 43 75 69 76 70 77
REMARK SMILES IDX 79 78 71 79 72 80 78 81 80 82 73 83 74 84 75 85 76 86 77 87
REMARK SMILES IDX 53 88 54 89 63 90 55 91 56 92 62 93 64 94 57 95 58 96 59 97
REMARK SMILES IDX 60 98 61 99
REMARK H PARENT 18 7 7 12 23 30 85 49 51 60
REMARK Flexibility Score: inf
ROOT
ATOM      1  C   UNL A   1      33.685  27.961  25.158  1.00  0.00     0.023 C 
ENDROOT
BRANCH   1   2
ATOM      2  C   UNL A   1      33.121  26.564  24.919  1.00  0.00     0.023 C 
BRANCH   2   3
ATOM      3  C   UNL A   1      34.148  25.449  24.782  1.00  0.00     0.116 C 
BRANCH   3   4
ATOM      4  N   UNL A   1      34.144  24.756  23.510  1.00  0.00    -0.354 N 
ATOM      5  C   UNL A   1      34.279  23.419  23.253  1.00  0.00     0.242 C 
ATOM      6  O   UNL A   1      33.878  23.011  22.157  1.00  0.00    -0.273 OA
ATOM      7  H   UNL A   1      34.028  25.328  22.718  1.00  0.00     0.163 HD
BRANCH   5   8
ATOM      8  C   UNL A   1      34.848  22.406  24.281  1.00  0.00     0.176 C 
BRANCH   8   9
ATOM      9  N   UNL A   1      33.904  21.327  24.570  1.00  0.00    -0.340 N 
ATOM     10  C   UNL A   1      32.616  21.303  25.035  1.00  0.00     0.255 C 
ATOM     11  O   UNL A   1      32.075  20.196  25.001  1.00  0.00    -0.269 OA
ATOM     12  H   UNL A   1      34.271  20.431  24.392  1.00  0.00     0.164 HD
BRANCH  10  13
ATOM     13  C   UNL A   1      31.939  22.467  25.608  1.00  0.00     0.081 A 
ATOM     14  C   UNL A   1      29.873  25.528  26.126  1.00  0.00     0.087 C 
ATOM     15  C   UNL A   1      30.723  24.323  26.064  1.00  0.00     0.101 A 
ATOM     16  C   UNL A   1      30.903  23.329  25.130  1.00  0.00     0.059 A 
ATOM     17  O   UNL A   1      31.507  24.088  27.142  1.00  0.00    -0.466 OA
ATOM     18  C   UNL A   1      32.217  22.955  26.885  1.00  0.00     0.113 A 
ATOM     19  C   UNL A   1      33.095  22.530  28.002  1.00  0.00     0.088 C 
ENDBRANCH  10  13
ENDBRANCH   8   9
BRANCH   8  20
ATOM     20  C   UNL A   1      36.307  21.956  24.052  1.00  0.00     0.070 C 
BRANCH  20  21
ATOM     21  C   UNL A   1      37.378  22.410  25.011  1.00  0.00    -0.045 A 
ATOM     22  C   UNL A   1      38.411  21.533  25.376  1.00  0.00     0.004 A 
ATOM     23  C   UNL A   1      37.367  23.703  25.555  1.00  0.00     0.004 A 
ATOM     24  C   UNL A   1      39.379  21.921  26.304  1.00  0.00     0.000 A 
ATOM     25  C   UNL A   1      38.323  24.081  26.500  1.00  0.00     0.000 A 
ATOM     26  C   UNL A   1      39.324  23.188  26.880  1.00  0.00     0.000 A 
ENDBRANCH  20  21
ENDBRANCH   8  20
ENDBRANCH   5   8
ENDBRANCH   3   4
ENDBRANCH   2   3
ENDBRANCH   1   2
BRANCH   1  27
ATOM     27  C   UNL A   1      33.663  28.472  26.597  1.00  0.00     0.116 C 
BRANCH  27  28
ATOM     28  N   UNL A   1      33.640  29.921  26.730  1.00  0.00    -0.352 N 
ATOM     29  C   UNL A   1      34.560  30.752  27.333  1.00  0.00     0.251 C 
ATOM     30  H   UNL A   1      32.860  30.371  26.333  1.00  0.00     0.163 HD
ATOM     31  O   UNL A   1      34.361  31.961  27.369  1.00  0.00    -0.269 OA
BRANCH  29  32
ATOM     32  C   UNL A   1      35.767  30.175  27.971  1.00  0.00     0.039 A 
ATOM     33  C   UNL A   1      36.966  30.148  27.250  1.00  0.00     0.014 A 
ATOM     34  C   UNL A   1      35.729  29.690  29.280  1.00  0.00     0.014 A 
ATOM     35  C   UNL A   1      38.139  29.710  27.872  1.00  0.00     0.010 A 
ATOM     36  C   UNL A   1      36.912  29.328  29.921  1.00  0.00     0.010 A 
ATOM     37  C   UNL A   1      38.130  29.332  29.226  1.00  0.00    -0.014 A 
BRANCH  37  38
ATOM     38  C   UNL A   1      39.383  28.935  29.922  1.00  0.00     0.031 A 
ATOM     39  C   UNL A   1      39.806  29.643  31.183  1.00  0.00     0.074 A 
ATOM     40  C   UNL A   1      40.174  27.982  29.388  1.00  0.00     0.049 A 
ATOM     41  N   UNL A   1      40.882  29.470  31.906  1.00  0.00    -0.248 NA
ATOM     42  C   UNL A   1      38.920  30.710  31.675  1.00  0.00     0.031 C 
ATOM     43  C   UNL A   1      39.921  27.275  28.129  1.00  0.00     0.029 A 
ATOM     44  N   UNL A   1      41.359  27.449  29.831  1.00  0.00    -0.354 N 
ATOM     45  C   UNL A   1      40.814  30.417  32.923  1.00  0.00     0.074 A 
ATOM     46  C   UNL A   1      39.617  31.196  32.693  1.00  0.00     0.031 C 
ATOM     47  C   UNL A   1      40.906  26.387  27.915  1.00  0.00     0.029 A 
ATOM     48  C   UNL A   1      41.870  26.472  29.008  1.00  0.00     0.049 A 
ATOM     49  H   UNL A   1      41.801  27.738  30.662  1.00  0.00     0.167 HD
ATOM     50  C   UNL A   1      41.655  30.604  33.966  1.00  0.00     0.037 A 
ATOM     51  C   UNL A   1      42.985  25.725  29.126  1.00  0.00     0.037 A 
ATOM     52  C   UNL A   1      42.818  29.796  34.222  1.00  0.00     0.049 A 
ATOM     53  C   UNL A   1      43.858  25.896  30.339  1.00  0.00     0.074 A 
ATOM     54  C   UNL A   1      43.698  29.863  35.290  1.00  0.00     0.029 A 
ATOM     55  N   UNL A   1      43.258  28.763  33.408  1.00  0.00    -0.354 N 
ATOM     56  N   UNL A   1      43.738  26.750  31.328  1.00  0.00    -0.248 NA
ATOM     57  C   UNL A   1      45.007  24.988  30.464  1.00  0.00     0.031 C 
ATOM     58  C   UNL A   1      44.680  28.882  35.110  1.00  0.00     0.029 A 
ATOM     59  C   UNL A   1      44.393  28.184  33.949  1.00  0.00     0.049 A 
ATOM     60  H   UNL A   1      42.826  28.484  32.568  1.00  0.00     0.167 HD
ATOM     61  C   UNL A   1      44.776  26.461  32.206  1.00  0.00     0.074 A 
ATOM     62  C   UNL A   1      45.506  25.346  31.639  1.00  0.00     0.031 C 
ATOM     63  C   UNL A   1      45.096  27.064  33.379  1.00  0.00     0.037 A 
BRANCH  50  64
ATOM     64  C   UNL A   1      41.335  31.716  34.927  1.00  0.00     0.058 A 
ATOM     65  C   UNL A   1      41.901  32.993  34.786  1.00  0.00     0.135 A 
ATOM     66  C   UNL A   1      40.429  31.514  35.981  1.00  0.00     0.135 A 
ATOM     67  F   UNL A   1      42.787  33.235  33.806  1.00  0.00    -0.206 F 
ATOM     68  C   UNL A   1      41.603  34.023  35.671  1.00  0.00     0.059 A 
ATOM     69  C   UNL A   1      40.096  32.538  36.864  1.00  0.00     0.059 A 
ATOM     70  F   UNL A   1      39.860  30.311  36.163  1.00  0.00    -0.206 F 
ATOM     71  C   UNL A   1      40.700  33.785  36.709  1.00  0.00     0.060 A 
BRANCH  71  72
ATOM     72  S   UNL A   1      40.316  35.134  37.845  1.00  0.00     0.124 S 
ATOM     73  O   UNL A   1      41.250  34.870  38.934  1.00  0.00    -0.237 OA
ATOM     74  O   UNL A   1      40.602  36.316  37.037  1.00  0.00    -0.237 OA
ATOM     75  O   UNL A   1      38.906  34.921  38.160  1.00  0.00    -0.744 OA
ENDBRANCH  71  72
ENDBRANCH  50  64
BRANCH  51  76
ATOM     76  C   UNL A   1      43.316  24.708  28.093  1.00  0.00     0.058 A 
ATOM     77  C   UNL A   1      42.756  23.422  28.143  1.00  0.00     0.135 A 
ATOM     78  C   UNL A   1      44.202  24.996  27.045  1.00  0.00     0.135 A 
ATOM     79  F   UNL A   1      41.906  23.099  29.129  1.00  0.00    -0.206 F 
ATOM     80  C   UNL A   1      43.084  22.447  27.207  1.00  0.00     0.059 A 
ATOM     81  C   UNL A   1      44.528  24.045  26.082  1.00  0.00     0.059 A 
ATOM     82  F   UNL A   1      44.748  26.217  26.942  1.00  0.00    -0.206 F 
ATOM     83  C   UNL A   1      43.974  22.767  26.181  1.00  0.00     0.060 A 
BRANCH  83  84
ATOM     84  S   UNL A   1      44.372  21.507  24.949  1.00  0.00     0.124 S 
ATOM     85  O   UNL A   1      45.736  21.150  25.326  1.00  0.00    -0.237 OA
ATOM     86  O   UNL A   1      43.354  20.494  25.203  1.00  0.00    -0.237 OA
ATOM     87  O   UNL A   1      44.231  22.221  23.685  1.00  0.00    -0.744 OA
ENDBRANCH  83  84
ENDBRANCH  51  76
BRANCH  63  88
ATOM     88  C   UNL A   1      46.256  26.496  34.146  1.00  0.00     0.058 A 
ATOM     89  C   UNL A   1      47.557  27.005  34.003  1.00  0.00     0.135 A 
ATOM     90  C   UNL A   1      46.059  25.439  35.049  1.00  0.00     0.135 A 
ATOM     91  F   UNL A   1      47.798  28.014  33.151  1.00  0.00    -0.206 F 
ATOM     92  C   UNL A   1      48.630  26.461  34.702  1.00  0.00     0.059 A 
ATOM     93  C   UNL A   1      47.113  24.895  35.775  1.00  0.00     0.059 A 
ATOM     94  F   UNL A   1      44.832  24.926  35.231  1.00  0.00    -0.206 F 
ATOM     95  C   UNL A   1      48.398  25.400  35.580  1.00  0.00     0.060 A 
BRANCH  95  96
ATOM     96  S   UNL A   1      49.794  24.697  36.483  1.00  0.00     0.124 S 
ATOM     97  O   UNL A   1      49.614  25.286  37.806  1.00  0.00    -0.237 OA
ATOM     98  O   UNL A   1      49.541  23.262  36.390  1.00  0.00    -0.237 OA
ATOM     99  O   UNL A   1      50.954  25.172  35.734  1.00  0.00    -0.744 OA
ENDBRANCH  95  96
ENDBRANCH  63  88
ENDBRANCH  37  38
ENDBRANCH  29  32
ENDBRANCH  27  28
ENDBRANCH   1  27
TORSDOF 18
ENDMDL
MODEL 2
REMARK VINA RESULT:     -11.5      3.306      9.413
REMARK SMILES Cc1cc(C(=O)N[C@@H](Cc2ccccc2)C(=O)NCCCCNC(=O)c2ccc(-c3c4nc(c(-c5c(F)cc(S(=O)(=O)[O-])cc5F)c5ccc([nH]5)c(-c5c(F)cc(S(=O)(=O)[O-])cc5F)c5nc(c(-c6c(F)cc(S(=O)(=O)[O-])cc6F)c6ccc3[nH]6)C=C5)C=C4)cc2)c(C)o1
REMARK SMILES IDX 21 1 20 2 19 3 18 4 16 5 17 6 8 8 7 9 5 10 6 11 4 13 1 14
REMARK SMILES IDX 2 15 3 16 94 17 92 18 93 19 9 20 10 21 11 22 15 23 12 24
REMARK SMILES IDX 14 25 13 26 22 27 23 28 24 29 25 31 26 32 27 33 91 34 28 35
REMARK SMILES IDX 90 36 29 37 30 38 31 39 84 40 32 41 89 42 83 43 85 44 33 45
REMARK SMILES IDX 88 46 82 47 81 48 34 50 68 51 47 52 67 53 48 54 51 55 66 56
REMARK SMILES IDX 86 57 49 58 50 59 65 61 87 62 52 63 35 64 36 65 45 66 37 67
REMARK SMILES IDX 38 68 44 69 46 70 39 71 40 72 41 73 42 74 43 75 69 76 70 77
REMARK SMILES IDX 79 78 71 79 72 80 78 81 80 82 73 83 74 84 75 85 76 86 77 87
REMARK SMILES IDX 53 88 54 89 63 90 55 91 56 92 62 93 64 94 57 95 58 96 59 97
REMARK SMILES IDX 60 98 61 99
REMARK H PARENT 18 7 7 12 23 30 85 49 51 60
REMARK Flexibility Score: inf
ROOT
ATOM      1  C   UNL A   1      37.659  23.725  25.852  1.00  0.00     0.023 C 
ENDROOT
BRANCH   1   2
ATOM      2  C   UNL A   1      37.669  22.265  25.409  1.00  0.00     0.023 C 
BRANCH   2   3
ATOM      3  C   UNL A   1      36.305  21.605  25.269  1.00  0.00     0.116 C 
BRANCH   3   4
ATOM      4  N   UNL A   1      35.525  21.530  26.486  1.00  0.00    -0.354 N 
ATOM      5  C   UNL A   1      34.245  21.951  26.721  1.00  0.00     0.242 C 
ATOM      6  O   UNL A   1      33.658  21.460  27.692  1.00  0.00    -0.273 OA
ATOM      7  H   UNL A   1      35.981  21.117  27.254  1.00  0.00     0.163 HD
BRANCH   5   8
ATOM      8  C   UNL A   1      33.494  22.952  25.804  1.00  0.00     0.176 C 
BRANCH   8   9
ATOM      9  N   UNL A   1      33.033  22.325  24.567  1.00  0.00    -0.340 N 
ATOM     10  C   UNL A   1      32.810  22.795  23.299  1.00  0.00     0.255 C 
ATOM     11  O   UNL A   1      32.571  21.924  22.460  1.00  0.00    -0.269 OA
ATOM     12  H   UNL A   1      32.843  21.364  24.665  1.00  0.00     0.164 HD
BRANCH  10  13
ATOM     13  C   UNL A   1      32.773  24.217  22.957  1.00  0.00     0.081 A 
ATOM     14  C   UNL A   1      33.679  27.732  22.101  1.00  0.00     0.087 C 
ATOM     15  C   UNL A   1      33.179  26.382  22.428  1.00  0.00     0.101 A 
ATOM     16  C   UNL A   1      33.767  25.140  22.503  1.00  0.00     0.059 A 
ATOM     17  O   UNL A   1      31.859  26.284  22.710  1.00  0.00    -0.466 OA
ATOM     18  C   UNL A   1      31.604  24.978  22.998  1.00  0.00     0.113 A 
ATOM     19  C   UNL A   1      30.177  24.693  23.281  1.00  0.00     0.088 C 
ENDBRANCH  10  13
ENDBRANCH   8   9
BRANCH   8  20
ATOM     20  C   UNL A   1      32.462  23.865  26.500  1.00  0.00     0.070 C 
BRANCH  20  21
ATOM     21  C   UNL A   1      32.558  25.359  26.320  1.00  0.00    -0.045 A 
ATOM     22  C   UNL A   1      31.411  26.157  26.451  1.00  0.00     0.004 A 
ATOM     23  C   UNL A   1      33.780  25.978  26.019  1.00  0.00     0.004 A 
ATOM     24  C   UNL A   1      31.474  27.535  26.234  1.00  0.00     0.000 A 
ATOM     25  C   UNL A   1      33.837  27.352  25.779  1.00  0.00     0.000 A 
ATOM     26  C   UNL A   1      32.683  28.129  25.879  1.00  0.00     0.000 A 
ENDBRANCH  20  21
ENDBRANCH   8  20
ENDBRANCH   5   8
ENDBRANCH   3   4
ENDBRANCH   2   3
ENDBRANCH   1   2
BRANCH   1  27
ATOM     27  C   UNL A   1      38.873  24.209  26.643  1.00  0.00     0.116 C 
BRANCH  27  28
ATOM     28  N   UNL A   1      40.036  24.538  25.832  1.00  0.00    -0.352 N 
ATOM     29  C   UNL A   1      41.029  25.464  26.074  1.00  0.00     0.251 C 
ATOM     30  H   UNL A   1      40.128  24.028  24.996  1.00  0.00     0.163 HD
ATOM     31  O   UNL A   1      41.930  25.623  25.258  1.00  0.00    -0.269 OA
BRANCH  29  32
ATOM     32  C   UNL A   1      40.980  26.293  27.302  1.00  0.00     0.039 A 
ATOM     33  C   UNL A   1      41.757  27.455  27.366  1.00  0.00     0.014 A 
ATOM     34  C   UNL A   1      40.154  25.947  28.374  1.00  0.00     0.014 A 
ATOM     35  C   UNL A   1      41.641  28.306  28.469  1.00  0.00     0.010 A 
ATOM     36  C   UNL A   1      39.983  26.835  29.434  1.00  0.00     0.010 A 
ATOM     37  C   UNL A   1      40.725  28.024  29.495  1.00  0.00    -0.014 A 
BRANCH  37  38
ATOM     38  C   UNL A   1      40.536  28.957  30.638  1.00  0.00     0.031 A 
ATOM     39  C   UNL A   1      41.379  28.816  31.879  1.00  0.00     0.074 A 
ATOM     40  C   UNL A   1      39.563  29.889  30.587  1.00  0.00     0.049 A 
ATOM     41  N   UNL A   1      41.332  29.503  32.991  1.00  0.00    -0.248 NA
ATOM     42  C   UNL A   1      42.382  27.740  31.882  1.00  0.00     0.031 C 
ATOM     43  C   UNL A   1      38.623  30.078  29.479  1.00  0.00     0.029 A 
ATOM     44  N   UNL A   1      39.194  30.850  31.496  1.00  0.00    -0.354 N 
ATOM     45  C   UNL A   1      42.280  28.930  33.832  1.00  0.00     0.074 A 
ATOM     46  C   UNL A   1      42.850  27.807  33.120  1.00  0.00     0.031 C 
ATOM     47  C   UNL A   1      37.805  31.105  29.763  1.00  0.00     0.029 A 
ATOM     48  C   UNL A   1      38.145  31.636  31.079  1.00  0.00     0.049 A 
ATOM     49  H   UNL A   1      39.640  30.966  32.367  1.00  0.00     0.167 HD
ATOM     50  C   UNL A   1      42.661  29.318  35.071  1.00  0.00     0.037 A 
ATOM     51  C   UNL A   1      37.535  32.673  31.685  1.00  0.00     0.037 A 
ATOM     52  C   UNL A   1      42.129  30.466  35.758  1.00  0.00     0.049 A 
ATOM     53  C   UNL A   1      38.033  33.136  33.027  1.00  0.00     0.074 A 
ATOM     54  C   UNL A   1      42.497  30.982  36.990  1.00  0.00     0.029 A 
ATOM     55  N   UNL A   1      41.124  31.285  35.268  1.00  0.00    -0.354 N 
ATOM     56  N   UNL A   1      38.980  32.624  33.776  1.00  0.00    -0.248 NA
ATOM     57  C   UNL A   1      37.394  34.331  33.597  1.00  0.00     0.031 C 
ATOM     58  C   UNL A   1      41.699  32.102  37.251  1.00  0.00     0.029 A 
ATOM     59  C   UNL A   1      40.860  32.302  36.168  1.00  0.00     0.049 A 
ATOM     60  H   UNL A   1      40.665  31.160  34.405  1.00  0.00     0.167 HD
ATOM     61  C   UNL A   1      39.072  33.452  34.889  1.00  0.00     0.074 A 
ATOM     62  C   UNL A   1      38.093  34.504  34.710  1.00  0.00     0.031 C 
ATOM     63  C   UNL A   1      39.894  33.351  35.965  1.00  0.00     0.037 A 
BRANCH  50  64
ATOM     64  C   UNL A   1      43.724  28.506  35.759  1.00  0.00     0.058 A 
ATOM     65  C   UNL A   1      45.089  28.779  35.576  1.00  0.00     0.135 A 
ATOM     66  C   UNL A   1      43.376  27.465  36.634  1.00  0.00     0.135 A 
ATOM     67  F   UNL A   1      45.477  29.753  34.736  1.00  0.00    -0.206 F 
ATOM     68  C   UNL A   1      46.073  28.032  36.213  1.00  0.00     0.059 A 
ATOM     69  C   UNL A   1      44.344  26.719  37.302  1.00  0.00     0.059 A 
ATOM     70  F   UNL A   1      42.086  27.160  36.843  1.00  0.00    -0.206 F 
ATOM     71  C   UNL A   1      45.690  27.002  37.074  1.00  0.00     0.060 A 
BRANCH  71  72
ATOM     72  S   UNL A   1      46.978  26.045  37.902  1.00  0.00     0.124 S 
ATOM     73  O   UNL A   1      46.521  26.082  39.287  1.00  0.00    -0.237 OA
ATOM     74  O   UNL A   1      46.882  24.748  37.237  1.00  0.00    -0.237 OA
ATOM     75  O   UNL A   1      48.195  26.800  37.621  1.00  0.00    -0.744 OA
ENDBRANCH  71  72
ENDBRANCH  50  64
BRANCH  51  76
ATOM     76  C   UNL A   1      36.415  33.380  31.009  1.00  0.00     0.058 A 
ATOM     77  C   UNL A   1      36.647  34.185  29.883  1.00  0.00     0.135 A 
ATOM     78  C   UNL A   1      35.097  33.274  31.476  1.00  0.00     0.135 A 
ATOM     79  F   UNL A   1      37.892  34.320  29.401  1.00  0.00    -0.206 F 
ATOM     80  C   UNL A   1      35.618  34.884  29.261  1.00  0.00     0.059 A 
ATOM     81  C   UNL A   1      34.046  33.945  30.857  1.00  0.00     0.059 A 
ATOM     82  F   UNL A   1      34.820  32.500  32.537  1.00  0.00    -0.206 F 
ATOM     83  C   UNL A   1      34.320  34.760  29.758  1.00  0.00     0.060 A 
BRANCH  83  84
ATOM     84  S   UNL A   1      32.982  35.644  28.927  1.00  0.00     0.124 S 
ATOM     85  O   UNL A   1      33.721  36.649  28.170  1.00  0.00    -0.237 OA
ATOM     86  O   UNL A   1      32.354  34.588  28.141  1.00  0.00    -0.237 OA
ATOM     87  O   UNL A   1      32.179  36.150  30.035  1.00  0.00    -0.744 OA
ENDBRANCH  83  84
ENDBRANCH  51  76
BRANCH  63  88
ATOM     88  C   UNL A   1      39.799  34.433  37.001  1.00  0.00     0.058 A 
ATOM     89  C   UNL A   1      38.917  34.340  38.089  1.00  0.00     0.135 A 
ATOM     90  C   UNL A   1      40.618  35.571  36.913  1.00  0.00     0.135 A 
ATOM     91  F   UNL A   1      38.113  33.273  38.218  1.00  0.00    -0.206 F 
ATOM     92  C   UNL A   1      38.821  35.356  39.035  1.00  0.00     0.059 A 
ATOM     93  C   UNL A   1      40.555  36.588  37.860  1.00  0.00     0.059 A 
ATOM     94  F   UNL A   1      41.487  35.702  35.899  1.00  0.00    -0.206 F 
ATOM     95  C   UNL A   1      39.640  36.480  38.907  1.00  0.00     0.060 A 
BRANCH  95  96
ATOM     96  S   UNL A   1      39.511  37.796  40.136  1.00  0.00     0.124 S 
ATOM     97  O   UNL A   1      40.785  38.485  39.961  1.00  0.00    -0.237 OA
ATOM     98  O   UNL A   1      38.328  38.529  39.693  1.00  0.00    -0.237 OA
ATOM     99  O   UNL A   1      39.356  37.069  41.393  1.00  0.00    -0.744 OA
ENDBRANCH  95  96
ENDBRANCH  63  88
ENDBRANCH  37  38
ENDBRANCH  29  32
ENDBRANCH  27  28
ENDBRANCH   1  27
TORSDOF 18
ENDMDL
MODEL 3
REMARK VINA RESULT:     -11.5      5.273      9.619
REMARK SMILES Cc1cc(C(=O)N[C@@H](Cc2ccccc2)C(=O)NCCCCNC(=O)c2ccc(-c3c4nc(c(-c5c(F)cc(S(=O)(=O)[O-])cc5F)c5ccc([nH]5)c(-c5c(F)cc(S(=O)(=O)[O-])cc5F)c5nc(c(-c6c(F)cc(S(=O)(=O)[O-])cc6F)c6ccc3[nH]6)C=C5)C=C4)cc2)c(C)o1
REMARK SMILES IDX 21 1 20 2 19 3 18 4 16 5 17 6 8 8 7 9 5 10 6 11 4 13 1 14
REMARK SMILES IDX 2 15 3 16 94 17 92 18 93 19 9 20 10 21 11 22 15 23 12 24
REMARK SMILES IDX 14 25 13 26 22 27 23 28 24 29 25 31 26 32 27 33 91 34 28 35
REMARK SMILES IDX 90 36 29 37 30 38 31 39 84 40 32 41 89 42 83 43 85 44 33 45
REMARK SMILES IDX 88 46 82 47 81 48 34 50 68 51 47 52 67 53 48 54 51 55 66 56
REMARK SMILES IDX 86 57 49 58 50 59 65 61 87 62 52 63 35 64 36 65 45 66 37 67
REMARK SMILES IDX 38 68 44 69 46 70 39 71 40 72 41 73 42 74 43 75 69 76 70 77
REMARK SMILES IDX 79 78 71 79 72 80 78 81 80 82 73 83 74 84 75 85 76 86 77 87
REMARK SMILES IDX 53 88 54 89 63 90 55 91 56 92 62 93 64 94 57 95 58 96 59 97
REMARK SMILES IDX 60 98 61 99
REMARK H PARENT 18 7 7 12 23 30 85 49 51 60
REMARK Flexibility Score: inf
ROOT
ATOM      1  C   UNL A   1      34.014  29.594  26.928  1.00  0.00     0.023 C 
ENDROOT
BRANCH   1   2
ATOM      2  C   UNL A   1      32.794  28.716  27.189  1.00  0.00     0.023 C 
BRANCH   2   3
ATOM      3  C   UNL A   1      31.770  28.652  26.065  1.00  0.00     0.116 C 
BRANCH   3   4
ATOM      4  N   UNL A   1      32.204  29.207  24.799  1.00  0.00    -0.354 N 
ATOM      5  C   UNL A   1      32.607  28.560  23.664  1.00  0.00     0.242 C 
ATOM      6  O   UNL A   1      32.573  29.199  22.606  1.00  0.00    -0.273 OA
ATOM      7  H   UNL A   1      32.209  30.190  24.749  1.00  0.00     0.163 HD
BRANCH   5   8
ATOM      8  C   UNL A   1      33.043  27.071  23.640  1.00  0.00     0.176 C 
BRANCH   8   9
ATOM      9  N   UNL A   1      33.223  26.573  22.277  1.00  0.00    -0.340 N 
ATOM     10  C   UNL A   1      32.994  25.362  21.679  1.00  0.00     0.255 C 
ATOM     11  O   UNL A   1      33.117  25.360  20.453  1.00  0.00    -0.269 OA
ATOM     12  H   UNL A   1      33.583  27.250  21.660  1.00  0.00     0.164 HD
BRANCH  10  13
ATOM     13  C   UNL A   1      32.705  24.135  22.421  1.00  0.00     0.081 A 
ATOM     14  C   UNL A   1      32.804  20.690  23.848  1.00  0.00     0.087 C 
ATOM     15  C   UNL A   1      32.644  22.075  23.365  1.00  0.00     0.101 A 
ATOM     16  C   UNL A   1      33.458  22.946  22.677  1.00  0.00     0.059 A 
ATOM     17  O   UNL A   1      31.462  22.674  23.643  1.00  0.00    -0.466 OA
ATOM     18  C   UNL A   1      31.507  23.924  23.105  1.00  0.00     0.113 A 
ATOM     19  C   UNL A   1      30.295  24.735  23.370  1.00  0.00     0.088 C 
ENDBRANCH  10  13
ENDBRANCH   8   9
BRANCH   8  20
ATOM     20  C   UNL A   1      34.155  26.674  24.634  1.00  0.00     0.070 C 
BRANCH  20  21
ATOM     21  C   UNL A   1      34.014  25.402  25.430  1.00  0.00    -0.045 A 
ATOM     22  C   UNL A   1      35.087  24.500  25.510  1.00  0.00     0.004 A 
ATOM     23  C   UNL A   1      32.821  25.092  26.100  1.00  0.00     0.004 A 
ATOM     24  C   UNL A   1      34.952  23.293  26.199  1.00  0.00     0.000 A 
ATOM     25  C   UNL A   1      32.681  23.874  26.769  1.00  0.00     0.000 A 
ATOM     26  C   UNL A   1      33.743  22.972  26.811  1.00  0.00     0.000 A 
ENDBRANCH  20  21
ENDBRANCH   8  20
ENDBRANCH   5   8
ENDBRANCH   3   4
ENDBRANCH   2   3
ENDBRANCH   1   2
BRANCH   1  27
ATOM     27  C   UNL A   1      35.249  29.324  27.787  1.00  0.00     0.116 C 
BRANCH  27  28
ATOM     28  N   UNL A   1      35.316  30.097  29.018  1.00  0.00    -0.352 N 
ATOM     29  C   UNL A   1      36.414  30.392  29.798  1.00  0.00     0.251 C 
ATOM     30  H   UNL A   1      34.459  30.460  29.337  1.00  0.00     0.163 HD
ATOM     31  O   UNL A   1      36.275  31.044  30.827  1.00  0.00    -0.269 OA
BRANCH  29  32
ATOM     32  C   UNL A   1      37.751  29.883  29.411  1.00  0.00     0.039 A 
ATOM     33  C   UNL A   1      38.114  29.892  28.061  1.00  0.00     0.014 A 
ATOM     34  C   UNL A   1      38.656  29.428  30.373  1.00  0.00     0.014 A 
ATOM     35  C   UNL A   1      39.409  29.519  27.688  1.00  0.00     0.010 A 
ATOM     36  C   UNL A   1      39.968  29.133  30.009  1.00  0.00     0.010 A 
ATOM     37  C   UNL A   1      40.360  29.174  28.663  1.00  0.00    -0.014 A 
BRANCH  37  38
ATOM     38  C   UNL A   1      41.762  28.848  28.290  1.00  0.00     0.031 A 
ATOM     39  C   UNL A   1      42.135  27.442  27.894  1.00  0.00     0.074 A 
ATOM     40  C   UNL A   1      42.715  29.799  28.369  1.00  0.00     0.049 A 
ATOM     41  N   UNL A   1      43.307  26.956  27.580  1.00  0.00    -0.248 NA
ATOM     42  C   UNL A   1      41.051  26.446  27.885  1.00  0.00     0.031 C 
ATOM     43  C   UNL A   1      42.503  31.179  28.815  1.00  0.00     0.029 A 
ATOM     44  N   UNL A   1      44.057  29.749  28.085  1.00  0.00    -0.354 N 
ATOM     45  C   UNL A   1      43.109  25.598  27.358  1.00  0.00     0.074 A 
ATOM     46  C   UNL A   1      41.713  25.327  27.624  1.00  0.00     0.031 C 
ATOM     47  C   UNL A   1      43.666  31.848  28.753  1.00  0.00     0.029 A 
ATOM     48  C   UNL A   1      44.711  30.944  28.280  1.00  0.00     0.049 A 
ATOM     49  H   UNL A   1      44.510  28.934  27.769  1.00  0.00     0.167 HD
ATOM     50  C   UNL A   1      43.999  24.666  26.944  1.00  0.00     0.037 A 
ATOM     51  C   UNL A   1      46.003  31.274  28.091  1.00  0.00     0.037 A 
ATOM     52  C   UNL A   1      45.376  24.946  26.631  1.00  0.00     0.049 A 
ATOM     53  C   UNL A   1      46.954  30.241  27.552  1.00  0.00     0.074 A 
ATOM     54  C   UNL A   1      46.342  24.084  26.141  1.00  0.00     0.029 A 
ATOM     55  N   UNL A   1      45.981  26.187  26.766  1.00  0.00    -0.354 N 
ATOM     56  N   UNL A   1      46.730  28.977  27.280  1.00  0.00    -0.248 NA
ATOM     57  C   UNL A   1      48.328  30.682  27.273  1.00  0.00     0.031 C 
ATOM     58  C   UNL A   1      47.536  24.800  25.997  1.00  0.00     0.029 A 
ATOM     59  C   UNL A   1      47.303  26.115  26.366  1.00  0.00     0.049 A 
ATOM     60  H   UNL A   1      45.533  26.999  27.097  1.00  0.00     0.167 HD
ATOM     61  C   UNL A   1      47.925  28.482  26.769  1.00  0.00     0.074 A 
ATOM     62  C   UNL A   1      48.864  29.585  26.759  1.00  0.00     0.031 C 
ATOM     63  C   UNL A   1      48.219  27.226  26.346  1.00  0.00     0.037 A 
BRANCH  50  64
ATOM     64  C   UNL A   1      43.505  23.255  26.784  1.00  0.00     0.058 A 
ATOM     65  C   UNL A   1      43.284  22.694  25.515  1.00  0.00     0.135 A 
ATOM     66  C   UNL A   1      43.280  22.442  27.906  1.00  0.00     0.135 A 
ATOM     67  F   UNL A   1      43.467  23.434  24.409  1.00  0.00    -0.206 F 
ATOM     68  C   UNL A   1      42.831  21.389  25.365  1.00  0.00     0.059 A 
ATOM     69  C   UNL A   1      42.851  21.124  27.779  1.00  0.00     0.059 A 
ATOM     70  F   UNL A   1      43.474  22.928  29.143  1.00  0.00    -0.206 F 
ATOM     71  C   UNL A   1      42.615  20.611  26.504  1.00  0.00     0.060 A 
BRANCH  71  72
ATOM     72  S   UNL A   1      42.035  18.914  26.294  1.00  0.00     0.124 S 
ATOM     73  O   UNL A   1      42.996  18.398  25.325  1.00  0.00    -0.237 OA
ATOM     74  O   UNL A   1      42.146  18.375  27.646  1.00  0.00    -0.237 OA
ATOM     75  O   UNL A   1      40.672  19.081  25.799  1.00  0.00    -0.744 OA
ENDBRANCH  71  72
ENDBRANCH  50  64
BRANCH  51  76
ATOM     76  C   UNL A   1      46.469  32.660  28.365  1.00  0.00     0.058 A 
ATOM     77  C   UNL A   1      46.419  33.646  27.368  1.00  0.00     0.135 A 
ATOM     78  C   UNL A   1      46.978  33.023  29.620  1.00  0.00     0.135 A 
ATOM     79  F   UNL A   1      45.941  33.345  26.150  1.00  0.00    -0.206 F 
ATOM     80  C   UNL A   1      46.884  34.937  27.595  1.00  0.00     0.059 A 
ATOM     81  C   UNL A   1      47.429  34.314  29.879  1.00  0.00     0.059 A 
ATOM     82  F   UNL A   1      47.028  32.121  30.612  1.00  0.00    -0.206 F 
ATOM     83  C   UNL A   1      47.391  35.261  28.854  1.00  0.00     0.060 A 
BRANCH  83  84
ATOM     84  S   UNL A   1      47.965  36.947  29.153  1.00  0.00     0.124 S 
ATOM     85  O   UNL A   1      46.719  37.701  29.066  1.00  0.00    -0.237 OA
ATOM     86  O   UNL A   1      48.555  36.842  30.484  1.00  0.00    -0.237 OA
ATOM     87  O   UNL A   1      48.918  37.172  28.071  1.00  0.00    -0.744 OA
ENDBRANCH  83  84
ENDBRANCH  51  76
BRANCH  63  88
ATOM     88  C   UNL A   1      49.596  26.996  25.792  1.00  0.00     0.058 A 
ATOM     89  C   UNL A   1      49.892  27.207  24.436  1.00  0.00     0.135 A 
ATOM     90  C   UNL A   1      50.636  26.576  26.636  1.00  0.00     0.135 A 
ATOM     91  F   UNL A   1      48.932  27.607  23.589  1.00  0.00    -0.206 F 
ATOM     92  C   UNL A   1      51.166  26.972  23.927  1.00  0.00     0.059 A 
ATOM     93  C   UNL A   1      51.923  26.358  26.153  1.00  0.00     0.059 A 
ATOM     94  F   UNL A   1      50.408  26.373  27.943  1.00  0.00    -0.206 F 
ATOM     95  C   UNL A   1      52.172  26.541  24.793  1.00  0.00     0.060 A 
BRANCH  95  96
ATOM     96  S   UNL A   1      53.823  26.236  24.127  1.00  0.00     0.124 S 
ATOM     97  O   UNL A   1      54.561  27.385  24.640  1.00  0.00    -0.237 OA
ATOM     98  O   UNL A   1      54.169  24.946  24.716  1.00  0.00    -0.237 OA
ATOM     99  O   UNL A   1      53.606  26.220  22.683  1.00  0.00    -0.744 OA
ENDBRANCH  95  96
ENDBRANCH  63  88
ENDBRANCH  37  38
ENDBRANCH  29  32
ENDBRANCH  27  28
ENDBRANCH   1  27
TORSDOF 18
ENDMDL
