MODEL 1
REMARK VINA RESULT:     -13.4      0.000      0.000
REMARK SMILES Cc1ccc(Nc2c(Cl)cc(Cl)cc2Cl)c(CC(=O)NCCCCNC(=O)c2ccc(-c3c4nc(c(-c5c(F)cc(S(=O)(=O)[O-])cc5F)c5ccc([nH]5)c(-c5c(F)cc(S(=O)(=O)[O-])cc5F)c5nc(c(-c6c(F)cc(S(=O)(=O)[O-])cc6F)c6ccc3[nH]6)C=C5)C=C4)cc2)c1
REMARK SMILES IDX 22 1 21 2 20 3 18 4 19 5 17 7 16 8 1 9 2 10 3 11 94 12 4 13
REMARK SMILES IDX 5 14 6 15 7 17 8 18 14 19 9 20 10 21 13 22 15 23 11 24 12 25
REMARK SMILES IDX 23 26 24 27 25 28 26 29 27 31 28 32 29 33 93 34 30 35 92 36
REMARK SMILES IDX 31 37 32 38 33 39 86 40 34 41 91 42 85 43 87 44 35 45 90 46
REMARK SMILES IDX 84 47 83 48 36 50 70 51 49 52 69 53 50 54 53 55 68 56 88 57
REMARK SMILES IDX 51 58 52 59 67 61 89 62 54 63 37 64 38 65 47 66 39 67 40 68
REMARK SMILES IDX 46 69 48 70 41 71 42 72 43 73 44 74 45 75 71 76 72 77 81 78
REMARK SMILES IDX 73 79 74 80 80 81 82 82 75 83 76 84 77 85 78 86 79 87 55 88
REMARK SMILES IDX 56 89 65 90 57 91 58 92 64 93 66 94 59 95 60 96 61 97 62 98
REMARK SMILES IDX 63 99
REMARK H PARENT 20 6 6 16 25 30 87 49 53 60
REMARK Flexibility Score: inf
ROOT
ATOM      1  C   UNL A   1      35.744  22.757  25.098  1.00  0.00     0.023 C 
ENDROOT
BRANCH   1   2
ATOM      2  C   UNL A   1      34.947  23.667  26.046  1.00  0.00     0.116 C 
BRANCH   2   3
ATOM      3  N   UNL A   1      34.315  22.947  27.142  1.00  0.00    -0.356 N 
ATOM      4  C   UNL A   1      32.995  22.722  27.391  1.00  0.00     0.224 C 
ATOM      5  O   UNL A   1      32.673  22.183  28.455  1.00  0.00    -0.275 OA
ATOM      6  H   UNL A   1      34.936  22.563  27.802  1.00  0.00     0.163 HD
BRANCH   4   7
ATOM      7  C   UNL A   1      31.923  23.161  26.411  1.00  0.00     0.137 C 
BRANCH   7   8
ATOM      8  C   UNL A   1      31.917  22.349  25.135  1.00  0.00    -0.015 A 
ATOM      9  C   UNL A   1      32.990  18.800  24.206  1.00  0.00     0.044 C 
ATOM     10  C   UNL A   1      32.469  20.202  24.097  1.00  0.00    -0.051 A 
ATOM     11  C   UNL A   1      32.215  20.763  22.848  1.00  0.00     0.005 A 
ATOM     12  C   UNL A   1      32.290  20.991  25.234  1.00  0.00     0.009 A 
ATOM     13  C   UNL A   1      31.790  22.091  22.741  1.00  0.00     0.026 A 
ATOM     14  C   UNL A   1      31.637  22.914  23.869  1.00  0.00     0.042 A 
BRANCH  14  15
ATOM     15  N   UNL A   1      31.187  24.250  23.746  1.00  0.00    -0.353 N 
ATOM     16  H   UNL A   1      30.328  24.364  23.280  1.00  0.00     0.167 HD
BRANCH  15  17
ATOM     17  C   UNL A   1      31.797  25.447  24.198  1.00  0.00     0.076 A 
ATOM     18  C   UNL A   1      33.110  25.820  23.846  1.00  0.00     0.067 A 
ATOM     19  C   UNL A   1      31.110  26.275  25.111  1.00  0.00     0.067 A 
ATOM     20  Cl  UNL A   1      34.024  24.964  22.648  1.00  0.00    -0.082 Cl
ATOM     21  C   UNL A   1      33.716  26.951  24.406  1.00  0.00     0.043 A 
ATOM     22  C   UNL A   1      31.710  27.410  25.666  1.00  0.00     0.043 A 
ATOM     23  Cl  UNL A   1      29.494  25.908  25.612  1.00  0.00    -0.082 Cl
ATOM     24  C   UNL A   1      33.015  27.733  25.318  1.00  0.00     0.044 A 
ATOM     25  Cl  UNL A   1      33.768  29.114  26.013  1.00  0.00    -0.084 Cl
ENDBRANCH  15  17
ENDBRANCH  14  15
ENDBRANCH   7   8
ENDBRANCH   4   7
ENDBRANCH   2   3
ENDBRANCH   1   2
BRANCH   1  26
ATOM     26  C   UNL A   1      37.140  22.359  25.578  1.00  0.00     0.023 C 
BRANCH  26  27
ATOM     27  C   UNL A   1      37.947  23.533  26.115  1.00  0.00     0.116 C 
BRANCH  27  28
ATOM     28  N   UNL A   1      39.113  23.147  26.893  1.00  0.00    -0.352 N 
ATOM     29  C   UNL A   1      39.992  23.984  27.567  1.00  0.00     0.251 C 
ATOM     30  H   UNL A   1      39.302  22.182  26.947  1.00  0.00     0.163 HD
ATOM     31  O   UNL A   1      41.051  23.594  28.011  1.00  0.00    -0.269 OA
BRANCH  29  32
ATOM     32  C   UNL A   1      39.520  25.364  27.828  1.00  0.00     0.039 A 
ATOM     33  C   UNL A   1      39.975  26.362  26.958  1.00  0.00     0.014 A 
ATOM     34  C   UNL A   1      38.914  25.686  29.039  1.00  0.00     0.014 A 
ATOM     35  C   UNL A   1      40.002  27.685  27.391  1.00  0.00     0.010 A 
ATOM     36  C   UNL A   1      39.011  26.987  29.496  1.00  0.00     0.010 A 
ATOM     37  C   UNL A   1      39.611  27.974  28.697  1.00  0.00    -0.014 A 
BRANCH  37  38
ATOM     38  C   UNL A   1      39.881  29.246  29.359  1.00  0.00     0.031 A 
ATOM     39  C   UNL A   1      38.929  30.370  29.229  1.00  0.00     0.074 A 
ATOM     40  C   UNL A   1      40.937  29.355  30.199  1.00  0.00     0.049 A 
ATOM     41  N   UNL A   1      39.142  31.553  29.699  1.00  0.00    -0.248 NA
ATOM     42  C   UNL A   1      37.673  30.269  28.485  1.00  0.00     0.031 C 
ATOM     43  C   UNL A   1      41.144  30.358  31.239  1.00  0.00     0.029 A 
ATOM     44  N   UNL A   1      42.172  28.708  30.092  1.00  0.00    -0.354 N 
ATOM     45  C   UNL A   1      37.966  32.251  29.603  1.00  0.00     0.074 A 
ATOM     46  C   UNL A   1      37.135  31.469  28.725  1.00  0.00     0.031 C 
ATOM     47  C   UNL A   1      42.457  30.456  31.495  1.00  0.00     0.029 A 
ATOM     48  C   UNL A   1      43.148  29.640  30.517  1.00  0.00     0.049 A 
ATOM     49  H   UNL A   1      42.331  27.787  29.783  1.00  0.00     0.167 HD
ATOM     50  C   UNL A   1      37.789  33.346  30.391  1.00  0.00     0.037 A 
ATOM     51  C   UNL A   1      44.080  30.111  29.635  1.00  0.00     0.037 A 
ATOM     52  C   UNL A   1      39.071  33.862  30.875  1.00  0.00     0.049 A 
ATOM     53  C   UNL A   1      43.978  31.594  29.328  1.00  0.00     0.074 A 
ATOM     54  C   UNL A   1      39.734  33.930  32.087  1.00  0.00     0.029 A 
ATOM     55  N   UNL A   1      40.002  34.238  29.918  1.00  0.00    -0.354 N 
ATOM     56  N   UNL A   1      43.129  32.415  29.885  1.00  0.00    -0.248 NA
ATOM     57  C   UNL A   1      44.791  32.254  28.303  1.00  0.00     0.031 C 
ATOM     58  C   UNL A   1      41.105  34.251  31.821  1.00  0.00     0.029 A 
ATOM     59  C   UNL A   1      41.259  34.418  30.455  1.00  0.00     0.049 A 
ATOM     60  H   UNL A   1      39.790  34.363  28.964  1.00  0.00     0.167 HD
ATOM     61  C   UNL A   1      43.208  33.637  29.272  1.00  0.00     0.074 A 
ATOM     62  C   UNL A   1      44.285  33.498  28.307  1.00  0.00     0.031 C 
ATOM     63  C   UNL A   1      42.362  34.673  29.541  1.00  0.00     0.037 A 
BRANCH  50  64
ATOM     64  C   UNL A   1      36.435  33.879  30.806  1.00  0.00     0.058 A 
ATOM     65  C   UNL A   1      35.553  34.425  29.850  1.00  0.00     0.135 A 
ATOM     66  C   UNL A   1      36.007  34.013  32.148  1.00  0.00     0.135 A 
ATOM     67  F   UNL A   1      35.853  34.402  28.543  1.00  0.00    -0.206 F 
ATOM     68  C   UNL A   1      34.348  35.050  30.199  1.00  0.00     0.059 A 
ATOM     69  C   UNL A   1      34.787  34.579  32.514  1.00  0.00     0.059 A 
ATOM     70  F   UNL A   1      36.783  33.675  33.185  1.00  0.00    -0.206 F 
ATOM     71  C   UNL A   1      33.974  35.123  31.537  1.00  0.00     0.060 A 
BRANCH  71  72
ATOM     72  S   UNL A   1      32.452  35.968  32.005  1.00  0.00     0.124 S 
ATOM     73  O   UNL A   1      31.710  34.900  32.667  1.00  0.00    -0.237 OA
ATOM     74  O   UNL A   1      32.937  37.040  32.869  1.00  0.00    -0.237 OA
ATOM     75  O   UNL A   1      31.902  36.408  30.724  1.00  0.00    -0.744 OA
ENDBRANCH  71  72
ENDBRANCH  50  64
BRANCH  51  76
ATOM     76  C   UNL A   1      44.555  29.050  28.703  1.00  0.00     0.058 A 
ATOM     77  C   UNL A   1      43.953  28.999  27.428  1.00  0.00     0.135 A 
ATOM     78  C   UNL A   1      45.814  28.454  28.852  1.00  0.00     0.135 A 
ATOM     79  F   UNL A   1      42.738  29.539  27.236  1.00  0.00    -0.206 F 
ATOM     80  C   UNL A   1      44.647  28.550  26.313  1.00  0.00     0.059 A 
ATOM     81  C   UNL A   1      46.523  27.983  27.746  1.00  0.00     0.059 A 
ATOM     82  F   UNL A   1      46.433  28.468  30.042  1.00  0.00    -0.206 F 
ATOM     83  C   UNL A   1      45.960  28.114  26.475  1.00  0.00     0.060 A 
BRANCH  83  84
ATOM     84  S   UNL A   1      46.971  27.932  24.987  1.00  0.00     0.124 S 
ATOM     85  O   UNL A   1      46.429  26.712  24.399  1.00  0.00    -0.237 OA
ATOM     86  O   UNL A   1      46.660  29.170  24.274  1.00  0.00    -0.237 OA
ATOM     87  O   UNL A   1      48.326  27.831  25.516  1.00  0.00    -0.744 OA
ENDBRANCH  83  84
ENDBRANCH  51  76
BRANCH  63  88
ATOM     88  C   UNL A   1      42.511  36.018  28.888  1.00  0.00     0.058 A 
ATOM     89  C   UNL A   1      41.871  36.323  27.675  1.00  0.00     0.135 A 
ATOM     90  C   UNL A   1      43.386  36.999  29.398  1.00  0.00     0.135 A 
ATOM     91  F   UNL A   1      41.046  35.435  27.096  1.00  0.00    -0.206 F 
ATOM     92  C   UNL A   1      42.061  37.540  27.020  1.00  0.00     0.059 A 
ATOM     93  C   UNL A   1      43.627  38.203  28.739  1.00  0.00     0.059 A 
ATOM     94  F   UNL A   1      44.012  36.828  30.572  1.00  0.00    -0.206 F 
ATOM     95  C   UNL A   1      42.943  38.474  27.560  1.00  0.00     0.060 A 
BRANCH  95  96
ATOM     96  S   UNL A   1      43.222  40.036  26.701  1.00  0.00     0.124 S 
ATOM     97  O   UNL A   1      43.331  40.993  27.799  1.00  0.00    -0.237 OA
ATOM     98  O   UNL A   1      44.461  39.755  25.984  1.00  0.00    -0.237 OA
ATOM     99  O   UNL A   1      42.029  40.180  25.872  1.00  0.00    -0.744 OA
ENDBRANCH  95  96
ENDBRANCH  63  88
ENDBRANCH  37  38
ENDBRANCH  29  32
ENDBRANCH  27  28
ENDBRANCH  26  27
ENDBRANCH   1  26
TORSDOF 17
ENDMDL
MODEL 2
REMARK VINA RESULT:     -13.4      1.327      3.087
REMARK SMILES Cc1ccc(Nc2c(Cl)cc(Cl)cc2Cl)c(CC(=O)NCCCCNC(=O)c2ccc(-c3c4nc(c(-c5c(F)cc(S(=O)(=O)[O-])cc5F)c5ccc([nH]5)c(-c5c(F)cc(S(=O)(=O)[O-])cc5F)c5nc(c(-c6c(F)cc(S(=O)(=O)[O-])cc6F)c6ccc3[nH]6)C=C5)C=C4)cc2)c1
REMARK SMILES IDX 22 1 21 2 20 3 18 4 19 5 17 7 16 8 1 9 2 10 3 11 94 12 4 13
REMARK SMILES IDX 5 14 6 15 7 17 8 18 14 19 9 20 10 21 13 22 15 23 11 24 12 25
REMARK SMILES IDX 23 26 24 27 25 28 26 29 27 31 28 32 29 33 93 34 30 35 92 36
REMARK SMILES IDX 31 37 32 38 33 39 86 40 34 41 91 42 85 43 87 44 35 45 90 46
REMARK SMILES IDX 84 47 83 48 36 50 70 51 49 52 69 53 50 54 53 55 68 56 88 57
REMARK SMILES IDX 51 58 52 59 67 61 89 62 54 63 37 64 38 65 47 66 39 67 40 68
REMARK SMILES IDX 46 69 48 70 41 71 42 72 43 73 44 74 45 75 71 76 72 77 81 78
REMARK SMILES IDX 73 79 74 80 80 81 82 82 75 83 76 84 77 85 78 86 79 87 55 88
REMARK SMILES IDX 56 89 65 90 57 91 58 92 64 93 66 94 59 95 60 96 61 97 62 98
REMARK SMILES IDX 63 99
REMARK H PARENT 20 6 6 16 25 30 87 49 53 60
REMARK Flexibility Score: inf
ROOT
ATOM      1  C   UNL A   1      36.766  23.198  23.885  1.00  0.00     0.023 C 
ENDROOT
BRANCH   1   2
ATOM      2  C   UNL A   1      35.235  23.308  23.964  1.00  0.00     0.116 C 
BRANCH   2   3
ATOM      3  N   UNL A   1      34.719  24.569  23.452  1.00  0.00    -0.356 N 
ATOM      4  C   UNL A   1      34.164  25.619  24.119  1.00  0.00     0.224 C 
ATOM      5  O   UNL A   1      33.680  26.550  23.467  1.00  0.00    -0.275 OA
ATOM      6  H   UNL A   1      34.783  24.681  22.476  1.00  0.00     0.163 HD
BRANCH   4   7
ATOM      7  C   UNL A   1      34.093  25.639  25.635  1.00  0.00     0.137 C 
BRANCH   7   8
ATOM      8  C   UNL A   1      33.233  26.759  26.175  1.00  0.00    -0.015 A 
ATOM      9  C   UNL A   1      33.863  30.408  27.125  1.00  0.00     0.044 C 
ATOM     10  C   UNL A   1      33.173  29.094  26.908  1.00  0.00    -0.051 A 
ATOM     11  C   UNL A   1      31.883  28.889  27.391  1.00  0.00     0.005 A 
ATOM     12  C   UNL A   1      33.827  28.036  26.276  1.00  0.00     0.009 A 
ATOM     13  C   UNL A   1      31.262  27.643  27.246  1.00  0.00     0.026 A 
ATOM     14  C   UNL A   1      31.916  26.555  26.646  1.00  0.00     0.042 A 
BRANCH  14  15
ATOM     15  N   UNL A   1      31.266  25.307  26.488  1.00  0.00    -0.353 N 
ATOM     16  H   UNL A   1      30.597  25.090  27.176  1.00  0.00     0.167 HD
BRANCH  15  17
ATOM     17  C   UNL A   1      31.443  24.326  25.480  1.00  0.00     0.076 A 
ATOM     18  C   UNL A   1      30.965  24.484  24.163  1.00  0.00     0.067 A 
ATOM     19  C   UNL A   1      32.046  23.093  25.808  1.00  0.00     0.067 A 
ATOM     20  Cl  UNL A   1      30.313  25.983  23.589  1.00  0.00    -0.082 Cl
ATOM     21  C   UNL A   1      31.059  23.444  23.230  1.00  0.00     0.043 A 
ATOM     22  C   UNL A   1      32.148  22.056  24.877  1.00  0.00     0.043 A 
ATOM     23  Cl  UNL A   1      32.666  22.795  27.398  1.00  0.00    -0.082 Cl
ATOM     24  C   UNL A   1      31.642  22.235  23.596  1.00  0.00     0.044 A 
ATOM     25  Cl  UNL A   1      31.743  20.956  22.450  1.00  0.00    -0.084 Cl
ENDBRANCH  15  17
ENDBRANCH  14  15
ENDBRANCH   7   8
ENDBRANCH   4   7
ENDBRANCH   2   3
ENDBRANCH   1   2
BRANCH   1  26
ATOM     26  C   UNL A   1      37.444  22.507  25.068  1.00  0.00     0.023 C 
BRANCH  26  27
ATOM     27  C   UNL A   1      37.845  23.470  26.176  1.00  0.00     0.116 C 
BRANCH  27  28
ATOM     28  N   UNL A   1      39.057  23.092  26.884  1.00  0.00    -0.352 N 
ATOM     29  C   UNL A   1      39.981  23.937  27.485  1.00  0.00     0.251 C 
ATOM     30  H   UNL A   1      39.246  22.127  26.943  1.00  0.00     0.163 HD
ATOM     31  O   UNL A   1      41.065  23.549  27.866  1.00  0.00    -0.269 OA
BRANCH  29  32
ATOM     32  C   UNL A   1      39.533  25.323  27.751  1.00  0.00     0.039 A 
ATOM     33  C   UNL A   1      40.005  26.317  26.886  1.00  0.00     0.014 A 
ATOM     34  C   UNL A   1      38.931  25.650  28.963  1.00  0.00     0.014 A 
ATOM     35  C   UNL A   1      40.053  27.637  27.325  1.00  0.00     0.010 A 
ATOM     36  C   UNL A   1      39.050  26.947  29.426  1.00  0.00     0.010 A 
ATOM     37  C   UNL A   1      39.667  27.927  28.632  1.00  0.00    -0.014 A 
BRANCH  37  38
ATOM     38  C   UNL A   1      39.958  29.192  29.300  1.00  0.00     0.031 A 
ATOM     39  C   UNL A   1      39.011  30.323  29.197  1.00  0.00     0.074 A 
ATOM     40  C   UNL A   1      41.030  29.286  30.120  1.00  0.00     0.049 A 
ATOM     41  N   UNL A   1      39.240  31.500  29.673  1.00  0.00    -0.248 NA
ATOM     42  C   UNL A   1      37.741  30.237  28.476  1.00  0.00     0.031 C 
ATOM     43  C   UNL A   1      41.263  30.279  31.165  1.00  0.00     0.029 A 
ATOM     44  N   UNL A   1      42.259  28.632  29.984  1.00  0.00    -0.354 N 
ATOM     45  C   UNL A   1      38.068  32.207  29.605  1.00  0.00     0.074 A 
ATOM     46  C   UNL A   1      37.215  31.438  28.737  1.00  0.00     0.031 C 
ATOM     47  C   UNL A   1      42.581  30.366  31.397  1.00  0.00     0.029 A 
ATOM     48  C   UNL A   1      43.249  29.554  30.398  1.00  0.00     0.049 A 
ATOM     49  H   UNL A   1      42.406  27.713  29.665  1.00  0.00     0.167 HD
ATOM     50  C   UNL A   1      37.913  33.296  30.406  1.00  0.00     0.037 A 
ATOM     51  C   UNL A   1      44.167  30.027  29.503  1.00  0.00     0.037 A 
ATOM     52  C   UNL A   1      39.208  33.799  30.870  1.00  0.00     0.049 A 
ATOM     53  C   UNL A   1      44.069  31.513  29.211  1.00  0.00     0.074 A 
ATOM     54  C   UNL A   1      39.893  33.852  32.070  1.00  0.00     0.029 A 
ATOM     55  N   UNL A   1      40.122  34.177  29.899  1.00  0.00    -0.354 N 
ATOM     56  N   UNL A   1      43.236  32.335  29.791  1.00  0.00    -0.248 NA
ATOM     57  C   UNL A   1      44.867  32.176  28.177  1.00  0.00     0.031 C 
ATOM     58  C   UNL A   1      41.261  34.167  31.780  1.00  0.00     0.029 A 
ATOM     59  C   UNL A   1      41.390  34.345  30.414  1.00  0.00     0.049 A 
ATOM     60  H   UNL A   1      39.893  34.312  28.950  1.00  0.00     0.167 HD
ATOM     61  C   UNL A   1      43.311  33.561  29.187  1.00  0.00     0.074 A 
ATOM     62  C   UNL A   1      44.369  33.424  28.201  1.00  0.00     0.031 C 
ATOM     63  C   UNL A   1      42.477  34.601  29.481  1.00  0.00     0.037 A 
BRANCH  50  64
ATOM     64  C   UNL A   1      36.571  33.834  30.851  1.00  0.00     0.058 A 
ATOM     65  C   UNL A   1      35.667  34.377  29.914  1.00  0.00     0.135 A 
ATOM     66  C   UNL A   1      36.175  33.975  32.202  1.00  0.00     0.135 A 
ATOM     67  F   UNL A   1      35.935  34.347  28.600  1.00  0.00    -0.206 F 
ATOM     68  C   UNL A   1      34.472  35.007  30.289  1.00  0.00     0.059 A 
ATOM     69  C   UNL A   1      34.966  34.547  32.595  1.00  0.00     0.059 A 
ATOM     70  F   UNL A   1      36.976  33.640  33.221  1.00  0.00    -0.206 F 
ATOM     71  C   UNL A   1      34.130  35.088  31.635  1.00  0.00     0.060 A 
BRANCH  71  72
ATOM     72  S   UNL A   1      32.623  35.938  32.136  1.00  0.00     0.124 S 
ATOM     73  O   UNL A   1      32.181  36.528  30.875  1.00  0.00    -0.237 OA
ATOM     74  O   UNL A   1      31.801  34.850  32.654  1.00  0.00    -0.237 OA
ATOM     75  O   UNL A   1      33.090  36.892  33.140  1.00  0.00    -0.744 OA
ENDBRANCH  71  72
ENDBRANCH  50  64
BRANCH  51  76
ATOM     76  C   UNL A   1      44.617  28.971  28.553  1.00  0.00     0.058 A 
ATOM     77  C   UNL A   1      44.047  28.982  27.263  1.00  0.00     0.135 A 
ATOM     78  C   UNL A   1      45.843  28.314  28.716  1.00  0.00     0.135 A 
ATOM     79  F   UNL A   1      42.863  29.583  27.056  1.00  0.00    -0.206 F 
ATOM     80  C   UNL A   1      44.748  28.533  26.153  1.00  0.00     0.059 A 
ATOM     81  C   UNL A   1      46.559  27.840  27.615  1.00  0.00     0.059 A 
ATOM     82  F   UNL A   1      46.431  28.266  29.921  1.00  0.00    -0.206 F 
ATOM     83  C   UNL A   1      46.036  28.032  26.335  1.00  0.00     0.060 A 
BRANCH  83  84
ATOM     84  S   UNL A   1      47.075  27.844  24.868  1.00  0.00     0.124 S 
ATOM     85  O   UNL A   1      46.604  26.576  24.322  1.00  0.00    -0.237 OA
ATOM     86  O   UNL A   1      46.713  29.036  24.102  1.00  0.00    -0.237 OA
ATOM     87  O   UNL A   1      48.426  27.833  25.417  1.00  0.00    -0.744 OA
ENDBRANCH  83  84
ENDBRANCH  51  76
BRANCH  63  88
ATOM     88  C   UNL A   1      42.623  35.950  28.836  1.00  0.00     0.058 A 
ATOM     89  C   UNL A   1      43.211  37.031  29.515  1.00  0.00     0.135 A 
ATOM     90  C   UNL A   1      42.080  36.230  27.566  1.00  0.00     0.135 A 
ATOM     91  F   UNL A   1      43.724  36.867  30.745  1.00  0.00    -0.206 F 
ATOM     92  C   UNL A   1      43.285  38.307  28.956  1.00  0.00     0.059 A 
ATOM     93  C   UNL A   1      42.102  37.505  27.007  1.00  0.00     0.059 A 
ATOM     94  F   UNL A   1      41.537  35.260  26.815  1.00  0.00    -0.206 F 
ATOM     95  C   UNL A   1      42.725  38.535  27.701  1.00  0.00     0.060 A 
BRANCH  95  96
ATOM     96  S   UNL A   1      42.785  40.190  26.986  1.00  0.00     0.124 S 
ATOM     97  O   UNL A   1      43.361  40.989  28.065  1.00  0.00    -0.237 OA
ATOM     98  O   UNL A   1      43.649  39.976  25.831  1.00  0.00    -0.237 OA
ATOM     99  O   UNL A   1      41.385  40.476  26.686  1.00  0.00    -0.744 OA
ENDBRANCH  95  96
ENDBRANCH  63  88
ENDBRANCH  37  38
ENDBRANCH  29  32
ENDBRANCH  27  28
ENDBRANCH  26  27
ENDBRANCH   1  26
TORSDOF 17
ENDMDL
MODEL 3
REMARK VINA RESULT:     -13.3      1.289      2.251
REMARK SMILES Cc1ccc(Nc2c(Cl)cc(Cl)cc2Cl)c(CC(=O)NCCCCNC(=O)c2ccc(-c3c4nc(c(-c5c(F)cc(S(=O)(=O)[O-])cc5F)c5ccc([nH]5)c(-c5c(F)cc(S(=O)(=O)[O-])cc5F)c5nc(c(-c6c(F)cc(S(=O)(=O)[O-])cc6F)c6ccc3[nH]6)C=C5)C=C4)cc2)c1
REMARK SMILES IDX 22 1 21 2 20 3 18 4 19 5 17 7 16 8 1 9 2 10 3 11 94 12 4 13
REMARK SMILES IDX 5 14 6 15 7 17 8 18 14 19 9 20 10 21 13 22 15 23 11 24 12 25
REMARK SMILES IDX 23 26 24 27 25 28 26 29 27 31 28 32 29 33 93 34 30 35 92 36
REMARK SMILES IDX 31 37 32 38 33 39 86 40 34 41 91 42 85 43 87 44 35 45 90 46
REMARK SMILES IDX 84 47 83 48 36 50 70 51 49 52 69 53 50 54 53 55 68 56 88 57
REMARK SMILES IDX 51 58 52 59 67 61 89 62 54 63 37 64 38 65 47 66 39 67 40 68
REMARK SMILES IDX 46 69 48 70 41 71 42 72 43 73 44 74 45 75 71 76 72 77 81 78
REMARK SMILES IDX 73 79 74 80 80 81 82 82 75 83 76 84 77 85 78 86 79 87 55 88
REMARK SMILES IDX 56 89 65 90 57 91 58 92 64 93 66 94 59 95 60 96 61 97 62 98
REMARK SMILES IDX 63 99
REMARK H PARENT 20 6 6 16 25 30 87 49 53 60
REMARK Flexibility Score: inf
ROOT
ATOM      1  C   UNL A   1      36.053  22.412  25.325  1.00  0.00     0.023 C 
ENDROOT
BRANCH   1   2
ATOM      2  C   UNL A   1      35.408  23.352  26.355  1.00  0.00     0.116 C 
BRANCH   2   3
ATOM      3  N   UNL A   1      34.545  22.664  27.304  1.00  0.00    -0.356 N 
ATOM      4  C   UNL A   1      33.204  22.790  27.514  1.00  0.00     0.224 C 
ATOM      5  O   UNL A   1      32.691  22.188  28.462  1.00  0.00    -0.275 OA
ATOM      6  H   UNL A   1      34.998  22.007  27.880  1.00  0.00     0.163 HD
BRANCH   4   7
ATOM      7  C   UNL A   1      32.351  23.685  26.634  1.00  0.00     0.137 C 
BRANCH   7   8
ATOM      8  C   UNL A   1      32.304  23.232  25.193  1.00  0.00    -0.015 A 
ATOM      9  C   UNL A   1      32.349  19.833  23.445  1.00  0.00     0.044 C 
ATOM     10  C   UNL A   1      32.321  21.315  23.671  1.00  0.00    -0.051 A 
ATOM     11  C   UNL A   1      32.467  22.192  22.599  1.00  0.00     0.005 A 
ATOM     12  C   UNL A   1      32.210  21.843  24.957  1.00  0.00     0.009 A 
ATOM     13  C   UNL A   1      32.506  23.574  22.815  1.00  0.00     0.026 A 
ATOM     14  C   UNL A   1      32.432  24.125  24.104  1.00  0.00     0.042 A 
BRANCH  14  15
ATOM     15  N   UNL A   1      32.451  25.526  24.304  1.00  0.00    -0.353 N 
ATOM     16  H   UNL A   1      33.210  25.867  24.829  1.00  0.00     0.167 HD
BRANCH  15  17
ATOM     17  C   UNL A   1      31.531  26.508  23.857  1.00  0.00     0.076 A 
ATOM     18  C   UNL A   1      30.186  26.549  24.278  1.00  0.00     0.067 A 
ATOM     19  C   UNL A   1      31.935  27.444  22.881  1.00  0.00     0.067 A 
ATOM     20  Cl  UNL A   1      29.586  25.540  25.552  1.00  0.00    -0.082 Cl
ATOM     21  C   UNL A   1      29.283  27.463  23.725  1.00  0.00     0.043 A 
ATOM     22  C   UNL A   1      31.037  28.364  22.333  1.00  0.00     0.043 A 
ATOM     23  Cl  UNL A   1      33.564  27.479  22.294  1.00  0.00    -0.082 Cl
ATOM     24  C   UNL A   1      29.712  28.359  22.750  1.00  0.00     0.044 A 
ATOM     25  Cl  UNL A   1      28.594  29.472  22.064  1.00  0.00    -0.084 Cl
ENDBRANCH  15  17
ENDBRANCH  14  15
ENDBRANCH   7   8
ENDBRANCH   4   7
ENDBRANCH   2   3
ENDBRANCH   1   2
BRANCH   1  26
ATOM     26  C   UNL A   1      37.582  22.407  25.297  1.00  0.00     0.023 C 
BRANCH  26  27
ATOM     27  C   UNL A   1      38.200  23.551  26.088  1.00  0.00     0.116 C 
BRANCH  27  28
ATOM     28  N   UNL A   1      39.321  23.156  26.927  1.00  0.00    -0.352 N 
ATOM     29  C   UNL A   1      40.186  23.989  27.624  1.00  0.00     0.251 C 
ATOM     30  H   UNL A   1      39.485  22.189  27.010  1.00  0.00     0.163 HD
ATOM     31  O   UNL A   1      41.214  23.586  28.124  1.00  0.00    -0.269 OA
BRANCH  29  32
ATOM     32  C   UNL A   1      39.734  25.384  27.835  1.00  0.00     0.039 A 
ATOM     33  C   UNL A   1      40.251  26.353  26.968  1.00  0.00     0.014 A 
ATOM     34  C   UNL A   1      39.080  25.744  29.010  1.00  0.00     0.014 A 
ATOM     35  C   UNL A   1      40.286  27.684  27.375  1.00  0.00     0.010 A 
ATOM     36  C   UNL A   1      39.185  27.052  29.445  1.00  0.00     0.010 A 
ATOM     37  C   UNL A   1      39.842  28.009  28.655  1.00  0.00    -0.014 A 
BRANCH  37  38
ATOM     38  C   UNL A   1      40.110  29.288  29.304  1.00  0.00     0.031 A 
ATOM     39  C   UNL A   1      39.140  30.399  29.190  1.00  0.00     0.074 A 
ATOM     40  C   UNL A   1      41.183  29.416  30.118  1.00  0.00     0.049 A 
ATOM     41  N   UNL A   1      39.347  31.586  29.649  1.00  0.00    -0.248 NA
ATOM     42  C   UNL A   1      37.869  30.276  28.476  1.00  0.00     0.031 C 
ATOM     43  C   UNL A   1      41.401  30.429  31.148  1.00  0.00     0.029 A 
ATOM     44  N   UNL A   1      42.425  28.786  29.986  1.00  0.00    -0.354 N 
ATOM     45  C   UNL A   1      38.160  32.268  29.576  1.00  0.00     0.074 A 
ATOM     46  C   UNL A   1      37.319  31.469  28.722  1.00  0.00     0.031 C 
ATOM     47  C   UNL A   1      42.717  30.546  31.373  1.00  0.00     0.029 A 
ATOM     48  C   UNL A   1      43.397  29.734  30.383  1.00  0.00     0.049 A 
ATOM     49  H   UNL A   1      42.590  27.866  29.679  1.00  0.00     0.167 HD
ATOM     50  C   UNL A   1      37.985  33.365  30.362  1.00  0.00     0.037 A 
ATOM     51  C   UNL A   1      44.302  30.213  29.477  1.00  0.00     0.037 A 
ATOM     52  C   UNL A   1      39.271  33.901  30.813  1.00  0.00     0.049 A 
ATOM     53  C   UNL A   1      44.172  31.693  29.164  1.00  0.00     0.074 A 
ATOM     54  C   UNL A   1      39.960  33.986  32.009  1.00  0.00     0.029 A 
ATOM     55  N   UNL A   1      40.174  34.284  29.832  1.00  0.00    -0.354 N 
ATOM     56  N   UNL A   1      43.324  32.505  29.737  1.00  0.00    -0.248 NA
ATOM     57  C   UNL A   1      44.952  32.357  28.117  1.00  0.00     0.031 C 
ATOM     58  C   UNL A   1      41.321  34.324  31.708  1.00  0.00     0.029 A 
ATOM     59  C   UNL A   1      41.440  34.485  30.339  1.00  0.00     0.049 A 
ATOM     60  H   UNL A   1      39.938  34.401  28.883  1.00  0.00     0.167 HD
ATOM     61  C   UNL A   1      43.372  33.724  29.115  1.00  0.00     0.074 A 
ATOM     62  C   UNL A   1      44.428  33.594  28.126  1.00  0.00     0.031 C 
ATOM     63  C   UNL A   1      42.518  34.750  29.398  1.00  0.00     0.037 A 
BRANCH  50  64
ATOM     64  C   UNL A   1      36.634  33.881  30.805  1.00  0.00     0.058 A 
ATOM     65  C   UNL A   1      35.707  34.374  29.863  1.00  0.00     0.135 A 
ATOM     66  C   UNL A   1      36.249  34.052  32.156  1.00  0.00     0.135 A 
ATOM     67  F   UNL A   1      35.963  34.312  28.547  1.00  0.00    -0.206 F 
ATOM     68  C   UNL A   1      34.501  34.983  30.232  1.00  0.00     0.059 A 
ATOM     69  C   UNL A   1      35.029  34.604  32.545  1.00  0.00     0.059 A 
ATOM     70  F   UNL A   1      37.067  33.768  33.176  1.00  0.00    -0.206 F 
ATOM     71  C   UNL A   1      34.170  35.095  31.578  1.00  0.00     0.060 A 
BRANCH  71  72
ATOM     72  S   UNL A   1      32.646  35.921  32.070  1.00  0.00     0.124 S 
ATOM     73  O   UNL A   1      33.143  36.942  32.986  1.00  0.00    -0.237 OA
ATOM     74  O   UNL A   1      32.123  36.406  30.797  1.00  0.00    -0.237 OA
ATOM     75  O   UNL A   1      31.867  34.852  32.691  1.00  0.00    -0.744 OA
ENDBRANCH  71  72
ENDBRANCH  50  64
BRANCH  51  76
ATOM     76  C   UNL A   1      44.769  29.154  28.540  1.00  0.00     0.058 A 
ATOM     77  C   UNL A   1      45.772  28.279  29.007  1.00  0.00     0.135 A 
ATOM     78  C   UNL A   1      43.975  28.720  27.470  1.00  0.00     0.135 A 
ATOM     79  F   UNL A   1      46.573  28.654  30.018  1.00  0.00    -0.206 F 
ATOM     80  C   UNL A   1      45.856  26.966  28.566  1.00  0.00     0.059 A 
ATOM     81  C   UNL A   1      44.053  27.408  27.000  1.00  0.00     0.059 A 
ATOM     82  F   UNL A   1      43.009  29.511  26.980  1.00  0.00    -0.206 F 
ATOM     83  C   UNL A   1      44.940  26.521  27.614  1.00  0.00     0.060 A 
BRANCH  83  84
ATOM     84  S   UNL A   1      44.795  24.737  27.362  1.00  0.00     0.124 S 
ATOM     85  O   UNL A   1      44.207  24.299  28.623  1.00  0.00    -0.237 OA
ATOM     86  O   UNL A   1      43.912  24.680  26.198  1.00  0.00    -0.237 OA
ATOM     87  O   UNL A   1      46.174  24.322  27.129  1.00  0.00    -0.744 OA
ENDBRANCH  83  84
ENDBRANCH  51  76
BRANCH  63  88
ATOM     88  C   UNL A   1      42.633  36.093  28.734  1.00  0.00     0.058 A 
ATOM     89  C   UNL A   1      43.340  37.152  29.330  1.00  0.00     0.135 A 
ATOM     90  C   UNL A   1      41.948  36.393  27.539  1.00  0.00     0.135 A 
ATOM     91  F   UNL A   1      43.995  36.969  30.488  1.00  0.00    -0.206 F 
ATOM     92  C   UNL A   1      43.392  38.424  28.760  1.00  0.00     0.059 A 
ATOM     93  C   UNL A   1      41.948  37.666  26.975  1.00  0.00     0.059 A 
ATOM     94  F   UNL A   1      41.281  35.444  26.865  1.00  0.00    -0.206 F 
ATOM     95  C   UNL A   1      42.690  38.672  27.582  1.00  0.00     0.060 A 
BRANCH  95  96
ATOM     96  S   UNL A   1      42.723  40.324  26.858  1.00  0.00     0.124 S 
ATOM     97  O   UNL A   1      43.753  40.206  25.829  1.00  0.00    -0.237 OA
ATOM     98  O   UNL A   1      41.355  40.452  26.367  1.00  0.00    -0.237 OA
ATOM     99  O   UNL A   1      43.073  41.179  27.988  1.00  0.00    -0.744 OA
ENDBRANCH  95  96
ENDBRANCH  63  88
ENDBRANCH  37  38
ENDBRANCH  29  32
ENDBRANCH  27  28
ENDBRANCH  26  27
ENDBRANCH   1  26
TORSDOF 17
ENDMDL
