MODEL 1
REMARK VINA RESULT:     -12.9      0.000      0.000
REMARK SMILES C[C@@]1(CN2C(=O)c3ccc(C(=O)NCCCCNC(=O)c4ccc(-c5c6nc(c(-c7c(F)cc(S(=O)(=O)[O-])cc7F)c7ccc([nH]7)c(-c7c(F)cc(S(=O)(=O)[O-])cc7F)c7nc(c(-c8c(F)cc(S(=O)(=O)[O-])cc8F)c8ccc5[nH]8)C=C7)C=C6)cc4)cc3C2=O)CCCO1
REMARK SMILES IDX 16 1 15 2 14 3 13 4 11 5 12 6 10 8 4 9 5 10 89 11 6 12 7 13
REMARK SMILES IDX 88 14 90 15 8 16 87 17 9 18 3 19 2 20 1 21 91 22 94 23 92 24
REMARK SMILES IDX 93 25 17 26 18 27 19 28 20 30 21 31 22 32 86 33 23 34 85 35
REMARK SMILES IDX 24 36 25 37 26 38 79 39 27 40 84 41 78 42 80 43 28 44 83 45
REMARK SMILES IDX 77 46 76 47 29 49 63 50 42 51 62 52 43 53 46 54 61 55 81 56
REMARK SMILES IDX 44 57 45 58 60 60 82 61 47 62 30 63 31 64 40 65 32 66 33 67
REMARK SMILES IDX 39 68 41 69 34 70 35 71 36 72 37 73 38 74 64 75 65 76 74 77
REMARK SMILES IDX 66 78 67 79 73 80 75 81 68 82 69 83 70 84 71 85 72 86 48 87
REMARK SMILES IDX 49 88 58 89 50 90 51 91 57 92 59 93 52 94 53 95 54 96 55 97
REMARK SMILES IDX 56 98
REMARK H PARENT 13 7 18 29 80 48 46 59
REMARK Flexibility Score: inf
ROOT
ATOM      1  C   UNL A   1      40.041  21.833  26.840  1.00  0.00     0.023 C 
ENDROOT
BRANCH   1   2
ATOM      2  C   UNL A   1      38.964  21.500  25.805  1.00  0.00     0.023 C 
BRANCH   2   3
ATOM      3  C   UNL A   1      37.793  22.487  25.775  1.00  0.00     0.116 C 
BRANCH   3   4
ATOM      4  N   UNL A   1      36.586  21.867  26.282  1.00  0.00    -0.352 N 
ATOM      5  C   UNL A   1      35.257  22.062  26.012  1.00  0.00     0.251 C 
ATOM      6  O   UNL A   1      34.450  21.335  26.592  1.00  0.00    -0.269 OA
ATOM      7  H   UNL A   1      36.755  21.166  26.954  1.00  0.00     0.163 HD
BRANCH   5   8
ATOM      8  C   UNL A   1      34.733  23.078  25.049  1.00  0.00     0.040 A 
ATOM      9  N   UNL A   1      33.300  27.251  23.707  1.00  0.00    -0.271 N 
ATOM     10  C   UNL A   1      33.425  26.321  22.717  1.00  0.00     0.261 C 
ATOM     11  C   UNL A   1      33.683  26.751  24.926  1.00  0.00     0.261 C 
ATOM     12  O   UNL A   1      33.277  26.444  21.514  1.00  0.00    -0.269 OA
ATOM     13  C   UNL A   1      33.836  25.084  23.361  1.00  0.00     0.053 A 
ATOM     14  C   UNL A   1      34.008  25.338  24.706  1.00  0.00     0.054 A 
ATOM     15  O   UNL A   1      33.808  27.323  25.989  1.00  0.00    -0.269 OA
ATOM     16  C   UNL A   1      34.092  23.853  22.805  1.00  0.00     0.015 A 
ATOM     17  C   UNL A   1      34.455  24.359  25.575  1.00  0.00     0.028 A 
ATOM     18  C   UNL A   1      34.566  22.856  23.662  1.00  0.00     0.015 A 
BRANCH   9  19
ATOM     19  C   UNL A   1      32.898  28.626  23.468  1.00  0.00     0.164 C 
BRANCH  19  20
ATOM     20  C   UNL A   1      31.509  28.992  24.061  1.00  0.00     0.084 C 
ATOM     21  C   UNL A   1      31.596  29.810  25.349  1.00  0.00     0.044 C 
ATOM     22  C   UNL A   1      30.678  27.725  24.290  1.00  0.00     0.039 C 
ATOM     23  O   UNL A   1      30.771  29.765  23.089  1.00  0.00    -0.373 OA
ATOM     24  C   UNL A   1      29.997  27.524  22.959  1.00  0.00     0.031 C 
ATOM     25  C   UNL A   1      29.749  28.947  22.507  1.00  0.00     0.161 C 
ENDBRANCH  19  20
ENDBRANCH   9  19
ENDBRANCH   5   8
ENDBRANCH   3   4
ENDBRANCH   2   3
ENDBRANCH   1   2
BRANCH   1  26
ATOM     26  C   UNL A   1      40.202  23.318  27.139  1.00  0.00     0.116 C 
BRANCH  26  27
ATOM     27  N   UNL A   1      40.888  24.044  26.082  1.00  0.00    -0.352 N 
ATOM     28  C   UNL A   1      41.298  25.354  26.073  1.00  0.00     0.251 C 
ATOM     29  H   UNL A   1      41.084  23.529  25.265  1.00  0.00     0.163 HD
ATOM     30  O   UNL A   1      41.753  25.846  25.045  1.00  0.00    -0.269 OA
BRANCH  28  31
ATOM     31  C   UNL A   1      41.150  26.170  27.296  1.00  0.00     0.039 A 
ATOM     32  C   UNL A   1      42.067  27.194  27.535  1.00  0.00     0.014 A 
ATOM     33  C   UNL A   1      40.100  25.940  28.190  1.00  0.00     0.014 A 
ATOM     34  C   UNL A   1      41.902  28.017  28.648  1.00  0.00     0.010 A 
ATOM     35  C   UNL A   1      39.889  26.815  29.249  1.00  0.00     0.010 A 
ATOM     36  C   UNL A   1      40.795  27.854  29.499  1.00  0.00    -0.014 A 
BRANCH  36  37
ATOM     37  C   UNL A   1      40.589  28.761  30.657  1.00  0.00     0.031 A 
ATOM     38  C   UNL A   1      41.436  28.618  31.893  1.00  0.00     0.074 A 
ATOM     39  C   UNL A   1      39.618  29.695  30.601  1.00  0.00     0.049 A 
ATOM     40  N   UNL A   1      41.416  29.327  32.993  1.00  0.00    -0.248 NA
ATOM     41  C   UNL A   1      42.416  27.520  31.909  1.00  0.00     0.031 C 
ATOM     42  C   UNL A   1      38.692  29.885  29.483  1.00  0.00     0.029 A 
ATOM     43  N   UNL A   1      39.251  30.661  31.502  1.00  0.00    -0.354 N 
ATOM     44  C   UNL A   1      42.371  28.760  33.827  1.00  0.00     0.074 A 
ATOM     45  C   UNL A   1      42.906  27.608  33.136  1.00  0.00     0.031 C 
ATOM     46  C   UNL A   1      37.892  30.930  29.747  1.00  0.00     0.029 A 
ATOM     47  C   UNL A   1      38.222  31.461  31.066  1.00  0.00     0.049 A 
ATOM     48  H   UNL A   1      39.684  30.771  32.380  1.00  0.00     0.167 HD
ATOM     49  C   UNL A   1      42.788  29.180  35.046  1.00  0.00     0.037 A 
ATOM     50  C   UNL A   1      37.616  32.509  31.657  1.00  0.00     0.037 A 
ATOM     51  C   UNL A   1      42.262  30.340  35.717  1.00  0.00     0.049 A 
ATOM     52  C   UNL A   1      38.104  32.964  33.007  1.00  0.00     0.074 A 
ATOM     53  C   UNL A   1      42.648  30.881  36.931  1.00  0.00     0.029 A 
ATOM     54  N   UNL A   1      41.232  31.135  35.235  1.00  0.00    -0.354 N 
ATOM     55  N   UNL A   1      39.060  32.460  33.752  1.00  0.00    -0.248 NA
ATOM     56  C   UNL A   1      37.444  34.139  33.589  1.00  0.00     0.031 C 
ATOM     57  C   UNL A   1      41.818  31.973  37.206  1.00  0.00     0.029 A 
ATOM     58  C   UNL A   1      40.958  32.152  36.135  1.00  0.00     0.049 A 
ATOM     59  H   UNL A   1      40.765  30.997  34.380  1.00  0.00     0.167 HD
ATOM     60  C   UNL A   1      39.139  33.278  34.874  1.00  0.00     0.074 A 
ATOM     61  C   UNL A   1      38.143  34.315  34.702  1.00  0.00     0.031 C 
ATOM     62  C   UNL A   1      39.965  33.183  35.945  1.00  0.00     0.037 A 
BRANCH  49  63
ATOM     63  C   UNL A   1      43.870  28.385  35.728  1.00  0.00     0.058 A 
ATOM     64  C   UNL A   1      43.570  27.344  36.623  1.00  0.00     0.135 A 
ATOM     65  C   UNL A   1      45.225  28.644  35.462  1.00  0.00     0.135 A 
ATOM     66  F   UNL A   1      42.294  27.061  36.930  1.00  0.00    -0.206 F 
ATOM     67  C   UNL A   1      44.572  26.610  37.249  1.00  0.00     0.059 A 
ATOM     68  C   UNL A   1      46.243  27.901  36.052  1.00  0.00     0.059 A 
ATOM     69  F   UNL A   1      45.571  29.629  34.616  1.00  0.00    -0.206 F 
ATOM     70  C   UNL A   1      45.907  26.895  36.956  1.00  0.00     0.060 A 
BRANCH  70  71
ATOM     71  S   UNL A   1      47.193  25.927  37.772  1.00  0.00     0.124 S 
ATOM     72  O   UNL A   1      46.990  24.611  37.173  1.00  0.00    -0.237 OA
ATOM     73  O   UNL A   1      48.410  26.624  37.369  1.00  0.00    -0.237 OA
ATOM     74  O   UNL A   1      46.851  26.030  39.187  1.00  0.00    -0.744 OA
ENDBRANCH  70  71
ENDBRANCH  49  63
BRANCH  50  75
ATOM     75  C   UNL A   1      36.510  33.220  30.961  1.00  0.00     0.058 A 
ATOM     76  C   UNL A   1      35.183  33.105  31.403  1.00  0.00     0.135 A 
ATOM     77  C   UNL A   1      36.758  34.040  29.850  1.00  0.00     0.135 A 
ATOM     78  F   UNL A   1      34.893  32.331  32.461  1.00  0.00    -0.206 F 
ATOM     79  C   UNL A   1      34.139  33.758  30.755  1.00  0.00     0.059 A 
ATOM     80  C   UNL A   1      35.734  34.727  29.203  1.00  0.00     0.059 A 
ATOM     81  F   UNL A   1      38.012  34.201  29.399  1.00  0.00    -0.206 F 
ATOM     82  C   UNL A   1      34.426  34.569  29.656  1.00  0.00     0.060 A 
BRANCH  82  83
ATOM     83  S   UNL A   1      33.070  35.447  28.850  1.00  0.00     0.124 S 
ATOM     84  O   UNL A   1      32.461  34.384  28.060  1.00  0.00    -0.237 OA
ATOM     85  O   UNL A   1      32.291  35.920  29.991  1.00  0.00    -0.237 OA
ATOM     86  O   UNL A   1      33.751  36.491  28.090  1.00  0.00    -0.744 OA
ENDBRANCH  82  83
ENDBRANCH  50  75
BRANCH  62  87
ATOM     87  C   UNL A   1      39.864  34.259  36.994  1.00  0.00     0.058 A 
ATOM     88  C   UNL A   1      40.515  35.494  36.859  1.00  0.00     0.135 A 
ATOM     89  C   UNL A   1      39.076  34.055  38.138  1.00  0.00     0.135 A 
ATOM     90  F   UNL A   1      41.284  35.741  35.786  1.00  0.00    -0.206 F 
ATOM     91  C   UNL A   1      40.423  36.475  37.842  1.00  0.00     0.059 A 
ATOM     92  C   UNL A   1      38.941  35.034  39.117  1.00  0.00     0.059 A 
ATOM     93  F   UNL A   1      38.418  32.897  38.311  1.00  0.00    -0.206 F 
ATOM     94  C   UNL A   1      39.634  36.235  38.968  1.00  0.00     0.060 A 
BRANCH  94  95
ATOM     95  S   UNL A   1      39.516  37.517  40.233  1.00  0.00     0.124 S 
ATOM     96  O   UNL A   1      38.988  36.765  41.365  1.00  0.00    -0.237 OA
ATOM     97  O   UNL A   1      40.901  37.961  40.357  1.00  0.00    -0.237 OA
ATOM     98  O   UNL A   1      38.601  38.491  39.645  1.00  0.00    -0.744 OA
ENDBRANCH  94  95
ENDBRANCH  62  87
ENDBRANCH  36  37
ENDBRANCH  28  31
ENDBRANCH  26  27
ENDBRANCH   1  26
TORSDOF 16
ENDMDL
MODEL 2
REMARK VINA RESULT:     -12.8      4.687     10.512
REMARK SMILES C[C@@]1(CN2C(=O)c3ccc(C(=O)NCCCCNC(=O)c4ccc(-c5c6nc(c(-c7c(F)cc(S(=O)(=O)[O-])cc7F)c7ccc([nH]7)c(-c7c(F)cc(S(=O)(=O)[O-])cc7F)c7nc(c(-c8c(F)cc(S(=O)(=O)[O-])cc8F)c8ccc5[nH]8)C=C7)C=C6)cc4)cc3C2=O)CCCO1
REMARK SMILES IDX 16 1 15 2 14 3 13 4 11 5 12 6 10 8 4 9 5 10 89 11 6 12 7 13
REMARK SMILES IDX 88 14 90 15 8 16 87 17 9 18 3 19 2 20 1 21 91 22 94 23 92 24
REMARK SMILES IDX 93 25 17 26 18 27 19 28 20 30 21 31 22 32 86 33 23 34 85 35
REMARK SMILES IDX 24 36 25 37 26 38 79 39 27 40 84 41 78 42 80 43 28 44 83 45
REMARK SMILES IDX 77 46 76 47 29 49 63 50 42 51 62 52 43 53 46 54 61 55 81 56
REMARK SMILES IDX 44 57 45 58 60 60 82 61 47 62 30 63 31 64 40 65 32 66 33 67
REMARK SMILES IDX 39 68 41 69 34 70 35 71 36 72 37 73 38 74 64 75 65 76 74 77
REMARK SMILES IDX 66 78 67 79 73 80 75 81 68 82 69 83 70 84 71 85 72 86 48 87
REMARK SMILES IDX 49 88 58 89 50 90 51 91 57 92 59 93 52 94 53 95 54 96 55 97
REMARK SMILES IDX 56 98
REMARK H PARENT 13 7 18 29 80 48 46 59
REMARK Flexibility Score: inf
ROOT
ATOM      1  C   UNL A   1      33.158  28.273  25.776  1.00  0.00     0.023 C 
ENDROOT
BRANCH   1   2
ATOM      2  C   UNL A   1      32.830  29.552  25.001  1.00  0.00     0.023 C 
BRANCH   2   3
ATOM      3  C   UNL A   1      31.357  29.966  25.064  1.00  0.00     0.116 C 
BRANCH   3   4
ATOM      4  N   UNL A   1      30.751  29.905  23.750  1.00  0.00    -0.352 N 
ATOM      5  C   UNL A   1      30.391  28.860  22.940  1.00  0.00     0.251 C 
ATOM      6  O   UNL A   1      29.849  29.135  21.868  1.00  0.00    -0.269 OA
ATOM      7  H   UNL A   1      30.559  30.790  23.362  1.00  0.00     0.163 HD
BRANCH   5   8
ATOM      8  C   UNL A   1      30.593  27.419  23.283  1.00  0.00     0.040 A 
ATOM      9  N   UNL A   1      32.835  23.390  23.358  1.00  0.00    -0.271 N 
ATOM     10  C   UNL A   1      31.702  23.451  24.114  1.00  0.00     0.261 C 
ATOM     11  C   UNL A   1      33.107  24.591  22.751  1.00  0.00     0.261 C 
ATOM     12  O   UNL A   1      31.223  22.618  24.864  1.00  0.00    -0.269 OA
ATOM     13  C   UNL A   1      31.139  24.775  23.909  1.00  0.00     0.053 A 
ATOM     14  C   UNL A   1      31.993  25.483  23.089  1.00  0.00     0.054 A 
ATOM     15  O   UNL A   1      34.080  24.926  22.108  1.00  0.00    -0.269 OA
ATOM     16  C   UNL A   1      30.000  25.332  24.442  1.00  0.00     0.015 A 
ATOM     17  C   UNL A   1      31.750  26.803  22.758  1.00  0.00     0.028 A 
ATOM     18  C   UNL A   1      29.748  26.673  24.137  1.00  0.00     0.015 A 
BRANCH   9  19
ATOM     19  C   UNL A   1      33.690  22.218  23.288  1.00  0.00     0.164 C 
BRANCH  19  20
ATOM     20  C   UNL A   1      34.918  22.271  24.238  1.00  0.00     0.084 C 
ATOM     21  C   UNL A   1      36.217  22.655  23.529  1.00  0.00     0.044 C 
ATOM     22  C   UNL A   1      35.084  20.934  24.969  1.00  0.00     0.039 C 
ATOM     23  O   UNL A   1      34.670  23.247  25.274  1.00  0.00    -0.373 OA
ATOM     24  C   UNL A   1      34.205  21.103  26.183  1.00  0.00     0.031 C 
ATOM     25  C   UNL A   1      34.380  22.572  26.504  1.00  0.00     0.161 C 
ENDBRANCH  19  20
ENDBRANCH   9  19
ENDBRANCH   5   8
ENDBRANCH   3   4
ENDBRANCH   2   3
ENDBRANCH   1   2
BRANCH   1  26
ATOM     26  C   UNL A   1      33.754  28.501  27.161  1.00  0.00     0.116 C 
BRANCH  26  27
ATOM     27  N   UNL A   1      33.565  29.857  27.650  1.00  0.00    -0.352 N 
ATOM     28  C   UNL A   1      34.464  30.661  28.306  1.00  0.00     0.251 C 
ATOM     29  H   UNL A   1      32.676  30.250  27.490  1.00  0.00     0.163 HD
ATOM     30  O   UNL A   1      34.100  31.740  28.764  1.00  0.00    -0.269 OA
BRANCH  28  31
ATOM     31  C   UNL A   1      35.855  30.198  28.486  1.00  0.00     0.039 A 
ATOM     32  C   UNL A   1      36.750  30.334  27.424  1.00  0.00     0.014 A 
ATOM     33  C   UNL A   1      36.279  29.653  29.701  1.00  0.00     0.014 A 
ATOM     34  C   UNL A   1      38.084  29.965  27.599  1.00  0.00     0.010 A 
ATOM     35  C   UNL A   1      37.626  29.368  29.900  1.00  0.00     0.010 A 
ATOM     36  C   UNL A   1      38.540  29.507  28.847  1.00  0.00    -0.014 A 
BRANCH  36  37
ATOM     37  C   UNL A   1      39.970  29.162  29.052  1.00  0.00     0.031 A 
ATOM     38  C   UNL A   1      40.919  30.174  29.634  1.00  0.00     0.074 A 
ATOM     39  C   UNL A   1      40.416  27.944  28.686  1.00  0.00     0.049 A 
ATOM     40  N   UNL A   1      42.193  30.051  29.904  1.00  0.00    -0.248 NA
ATOM     41  C   UNL A   1      40.374  31.510  29.929  1.00  0.00     0.031 C 
ATOM     42  C   UNL A   1      39.603  26.902  28.051  1.00  0.00     0.029 A 
ATOM     43  N   UNL A   1      41.657  27.372  28.797  1.00  0.00    -0.354 N 
ATOM     44  C   UNL A   1      42.601  31.286  30.392  1.00  0.00     0.074 A 
ATOM     45  C   UNL A   1      41.457  32.166  30.319  1.00  0.00     0.031 C 
ATOM     46  C   UNL A   1      40.357  25.807  27.867  1.00  0.00     0.029 A 
ATOM     47  C   UNL A   1      41.713  26.078  28.336  1.00  0.00     0.049 A 
ATOM     48  H   UNL A   1      42.435  27.845  29.170  1.00  0.00     0.167 HD
ATOM     49  C   UNL A   1      43.809  31.646  30.887  1.00  0.00     0.037 A 
ATOM     50  C   UNL A   1      42.738  25.204  28.302  1.00  0.00     0.037 A 
ATOM     51  C   UNL A   1      44.937  30.754  30.972  1.00  0.00     0.049 A 
ATOM     52  C   UNL A   1      44.069  25.623  28.867  1.00  0.00     0.074 A 
ATOM     53  C   UNL A   1      46.192  31.003  31.500  1.00  0.00     0.029 A 
ATOM     54  N   UNL A   1      44.950  29.445  30.511  1.00  0.00    -0.354 N 
ATOM     55  N   UNL A   1      44.417  26.774  29.393  1.00  0.00    -0.248 NA
ATOM     56  C   UNL A   1      45.142  24.620  28.850  1.00  0.00     0.031 C 
ATOM     57  C   UNL A   1      46.978  29.861  31.314  1.00  0.00     0.029 A 
ATOM     58  C   UNL A   1      46.195  28.879  30.728  1.00  0.00     0.049 A 
ATOM     59  H   UNL A   1      44.186  28.987  30.093  1.00  0.00     0.167 HD
ATOM     60  C   UNL A   1      45.738  26.621  29.802  1.00  0.00     0.074 A 
ATOM     61  C   UNL A   1      46.119  25.263  29.472  1.00  0.00     0.031 C 
ATOM     62  C   UNL A   1      46.558  27.521  30.400  1.00  0.00     0.037 A 
BRANCH  49  63
ATOM     63  C   UNL A   1      43.972  33.059  31.379  1.00  0.00     0.058 A 
ATOM     64  C   UNL A   1      44.424  34.089  30.536  1.00  0.00     0.135 A 
ATOM     65  C   UNL A   1      43.644  33.398  32.702  1.00  0.00     0.135 A 
ATOM     66  F   UNL A   1      44.770  33.822  29.267  1.00  0.00    -0.206 F 
ATOM     67  C   UNL A   1      44.571  35.394  30.994  1.00  0.00     0.059 A 
ATOM     68  C   UNL A   1      43.752  34.704  33.173  1.00  0.00     0.059 A 
ATOM     69  F   UNL A   1      43.209  32.454  33.553  1.00  0.00    -0.206 F 
ATOM     70  C   UNL A   1      44.231  35.692  32.315  1.00  0.00     0.060 A 
BRANCH  70  71
ATOM     71  S   UNL A   1      44.419  37.393  32.889  1.00  0.00     0.124 S 
ATOM     72  O   UNL A   1      44.096  38.145  31.680  1.00  0.00    -0.237 OA
ATOM     73  O   UNL A   1      43.435  37.470  33.964  1.00  0.00    -0.237 OA
ATOM     74  O   UNL A   1      45.814  37.457  33.312  1.00  0.00    -0.744 OA
ENDBRANCH  70  71
ENDBRANCH  49  63
BRANCH  50  75
ATOM     75  C   UNL A   1      42.535  23.839  27.747  1.00  0.00     0.058 A 
ATOM     76  C   UNL A   1      42.341  22.735  28.592  1.00  0.00     0.135 A 
ATOM     77  C   UNL A   1      42.517  23.612  26.363  1.00  0.00     0.135 A 
ATOM     78  F   UNL A   1      42.352  22.899  29.924  1.00  0.00    -0.206 F 
ATOM     79  C   UNL A   1      42.160  21.451  28.085  1.00  0.00     0.059 A 
ATOM     80  C   UNL A   1      42.307  22.342  25.832  1.00  0.00     0.059 A 
ATOM     81  F   UNL A   1      42.677  24.636  25.510  1.00  0.00    -0.206 F 
ATOM     82  C   UNL A   1      42.142  21.266  26.702  1.00  0.00     0.060 A 
BRANCH  82  83
ATOM     83  S   UNL A   1      41.861  19.604  26.054  1.00  0.00     0.124 S 
ATOM     84  O   UNL A   1      42.723  19.598  24.878  1.00  0.00    -0.237 OA
ATOM     85  O   UNL A   1      42.294  18.765  27.168  1.00  0.00    -0.237 OA
ATOM     86  O   UNL A   1      40.426  19.586  25.787  1.00  0.00    -0.744 OA
ENDBRANCH  82  83
ENDBRANCH  50  75
BRANCH  62  87
ATOM     87  C   UNL A   1      47.935  27.051  30.787  1.00  0.00     0.058 A 
ATOM     88  C   UNL A   1      48.165  26.284  31.939  1.00  0.00     0.135 A 
ATOM     89  C   UNL A   1      49.037  27.351  29.969  1.00  0.00     0.135 A 
ATOM     90  F   UNL A   1      47.147  25.971  32.758  1.00  0.00    -0.206 F 
ATOM     91  C   UNL A   1      49.445  25.867  32.291  1.00  0.00     0.059 A 
ATOM     92  C   UNL A   1      50.320  26.915  30.283  1.00  0.00     0.059 A 
ATOM     93  F   UNL A   1      48.872  28.068  28.846  1.00  0.00    -0.206 F 
ATOM     94  C   UNL A   1      50.516  26.189  31.457  1.00  0.00     0.060 A 
BRANCH  94  95
ATOM     95  S   UNL A   1      52.171  25.636  31.920  1.00  0.00     0.124 S 
ATOM     96  O   UNL A   1      52.470  26.514  33.045  1.00  0.00    -0.237 OA
ATOM     97  O   UNL A   1      51.950  24.232  32.251  1.00  0.00    -0.237 OA
ATOM     98  O   UNL A   1      52.958  25.873  30.713  1.00  0.00    -0.744 OA
ENDBRANCH  94  95
ENDBRANCH  62  87
ENDBRANCH  36  37
ENDBRANCH  28  31
ENDBRANCH  26  27
ENDBRANCH   1  26
TORSDOF 16
ENDMDL
MODEL 3
REMARK VINA RESULT:     -12.8      6.483     12.140
REMARK SMILES C[C@@]1(CN2C(=O)c3ccc(C(=O)NCCCCNC(=O)c4ccc(-c5c6nc(c(-c7c(F)cc(S(=O)(=O)[O-])cc7F)c7ccc([nH]7)c(-c7c(F)cc(S(=O)(=O)[O-])cc7F)c7nc(c(-c8c(F)cc(S(=O)(=O)[O-])cc8F)c8ccc5[nH]8)C=C7)C=C6)cc4)cc3C2=O)CCCO1
REMARK SMILES IDX 16 1 15 2 14 3 13 4 11 5 12 6 10 8 4 9 5 10 89 11 6 12 7 13
REMARK SMILES IDX 88 14 90 15 8 16 87 17 9 18 3 19 2 20 1 21 91 22 94 23 92 24
REMARK SMILES IDX 93 25 17 26 18 27 19 28 20 30 21 31 22 32 86 33 23 34 85 35
REMARK SMILES IDX 24 36 25 37 26 38 79 39 27 40 84 41 78 42 80 43 28 44 83 45
REMARK SMILES IDX 77 46 76 47 29 49 63 50 42 51 62 52 43 53 46 54 61 55 81 56
REMARK SMILES IDX 44 57 45 58 60 60 82 61 47 62 30 63 31 64 40 65 32 66 33 67
REMARK SMILES IDX 39 68 41 69 34 70 35 71 36 72 37 73 38 74 64 75 65 76 74 77
REMARK SMILES IDX 66 78 67 79 73 80 75 81 68 82 69 83 70 84 71 85 72 86 48 87
REMARK SMILES IDX 49 88 58 89 50 90 51 91 57 92 59 93 52 94 53 95 54 96 55 97
REMARK SMILES IDX 56 98
REMARK H PARENT 13 7 18 29 80 48 46 59
REMARK Flexibility Score: inf
ROOT
ATOM      1  C   UNL A   1      35.005  31.907  28.024  1.00  0.00     0.023 C 
ENDROOT
BRANCH   1   2
ATOM      2  C   UNL A   1      34.729  30.455  27.628  1.00  0.00     0.023 C 
BRANCH   2   3
ATOM      3  C   UNL A   1      33.307  30.199  27.120  1.00  0.00     0.116 C 
BRANCH   3   4
ATOM      4  N   UNL A   1      33.292  30.077  25.677  1.00  0.00    -0.352 N 
ATOM      5  C   UNL A   1      33.040  29.025  24.836  1.00  0.00     0.251 C 
ATOM      6  O   UNL A   1      33.068  29.250  23.625  1.00  0.00    -0.269 OA
ATOM      7  H   UNL A   1      33.503  30.917  25.207  1.00  0.00     0.163 HD
BRANCH   5   8
ATOM      8  C   UNL A   1      32.716  27.639  25.293  1.00  0.00     0.040 A 
ATOM      9  N   UNL A   1      33.621  23.244  26.359  1.00  0.00    -0.271 N 
ATOM     10  C   UNL A   1      32.360  23.676  26.646  1.00  0.00     0.261 C 
ATOM     11  C   UNL A   1      34.398  24.251  25.840  1.00  0.00     0.261 C 
ATOM     12  O   UNL A   1      31.449  23.092  27.206  1.00  0.00    -0.269 OA
ATOM     13  C   UNL A   1      32.280  25.054  26.191  1.00  0.00     0.053 A 
ATOM     14  C   UNL A   1      33.520  25.419  25.709  1.00  0.00     0.054 A 
ATOM     15  O   UNL A   1      35.583  24.254  25.582  1.00  0.00    -0.269 OA
ATOM     16  C   UNL A   1      31.224  25.933  26.247  1.00  0.00     0.015 A 
ATOM     17  C   UNL A   1      33.770  26.701  25.253  1.00  0.00     0.028 A 
ATOM     18  C   UNL A   1      31.462  27.240  25.812  1.00  0.00     0.015 A 
BRANCH   9  19
ATOM     19  C   UNL A   1      34.098  21.906  26.658  1.00  0.00     0.164 C 
BRANCH  19  20
ATOM     20  C   UNL A   1      34.323  21.018  25.402  1.00  0.00     0.084 C 
ATOM     21  C   UNL A   1      35.783  20.962  24.953  1.00  0.00     0.044 C 
ATOM     22  C   UNL A   1      33.429  21.491  24.250  1.00  0.00     0.039 C 
ATOM     23  O   UNL A   1      33.892  19.671  25.695  1.00  0.00    -0.373 OA
ATOM     24  C   UNL A   1      32.146  20.735  24.488  1.00  0.00     0.031 C 
ATOM     25  C   UNL A   1      32.647  19.416  25.035  1.00  0.00     0.161 C 
ENDBRANCH  19  20
ENDBRANCH   9  19
ENDBRANCH   5   8
ENDBRANCH   3   4
ENDBRANCH   2   3
ENDBRANCH   1   2
BRANCH   1  26
ATOM     26  C   UNL A   1      36.090  32.087  29.078  1.00  0.00     0.116 C 
BRANCH  26  27
ATOM     27  N   UNL A   1      35.841  31.326  30.293  1.00  0.00    -0.352 N 
ATOM     28  C   UNL A   1      36.637  30.377  30.884  1.00  0.00     0.251 C 
ATOM     29  H   UNL A   1      34.990  31.517  30.750  1.00  0.00     0.163 HD
ATOM     30  O   UNL A   1      36.217  29.737  31.843  1.00  0.00    -0.269 OA
BRANCH  28  31
ATOM     31  C   UNL A   1      37.981  30.110  30.332  1.00  0.00     0.039 A 
ATOM     32  C   UNL A   1      39.045  29.925  31.215  1.00  0.00     0.014 A 
ATOM     33  C   UNL A   1      38.186  30.021  28.952  1.00  0.00     0.014 A 
ATOM     34  C   UNL A   1      40.306  29.604  30.713  1.00  0.00     0.010 A 
ATOM     35  C   UNL A   1      39.422  29.617  28.460  1.00  0.00     0.010 A 
ATOM     36  C   UNL A   1      40.499  29.418  29.334  1.00  0.00    -0.014 A 
BRANCH  36  37
ATOM     37  C   UNL A   1      41.829  29.027  28.801  1.00  0.00     0.031 A 
ATOM     38  C   UNL A   1      42.932  30.045  28.693  1.00  0.00     0.074 A 
ATOM     39  C   UNL A   1      42.030  27.759  28.390  1.00  0.00     0.049 A 
ATOM     40  N   UNL A   1      44.161  29.888  28.272  1.00  0.00    -0.248 NA
ATOM     41  C   UNL A   1      42.608  31.427  29.082  1.00  0.00     0.031 C 
ATOM     42  C   UNL A   1      41.017  26.701  28.386  1.00  0.00     0.029 A 
ATOM     43  N   UNL A   1      43.153  27.143  27.900  1.00  0.00    -0.354 N 
ATOM     44  C   UNL A   1      44.751  31.143  28.342  1.00  0.00     0.074 A 
ATOM     45  C   UNL A   1      43.728  32.066  28.780  1.00  0.00     0.031 C 
ATOM     46  C   UNL A   1      41.575  25.559  27.956  1.00  0.00     0.029 A 
ATOM     47  C   UNL A   1      42.974  25.809  27.620  1.00  0.00     0.049 A 
ATOM     48  H   UNL A   1      44.007  27.612  27.761  1.00  0.00     0.167 HD
ATOM     49  C   UNL A   1      46.036  31.492  28.094  1.00  0.00     0.037 A 
ATOM     50  C   UNL A   1      43.839  24.889  27.152  1.00  0.00     0.037 A 
ATOM     51  C   UNL A   1      47.052  30.560  27.675  1.00  0.00     0.049 A 
ATOM     52  C   UNL A   1      45.265  25.296  26.893  1.00  0.00     0.074 A 
ATOM     53  C   UNL A   1      48.396  30.799  27.444  1.00  0.00     0.029 A 
ATOM     54  N   UNL A   1      46.836  29.214  27.419  1.00  0.00    -0.354 N 
ATOM     55  N   UNL A   1      45.825  26.475  27.035  1.00  0.00    -0.248 NA
ATOM     56  C   UNL A   1      46.181  24.247  26.429  1.00  0.00     0.031 C 
ATOM     57  C   UNL A   1      48.980  29.608  27.000  1.00  0.00     0.029 A 
ATOM     58  C   UNL A   1      48.017  28.612  27.016  1.00  0.00     0.049 A 
ATOM     59  H   UNL A   1      45.971  28.754  27.510  1.00  0.00     0.167 HD
ATOM     60  C   UNL A   1      47.166  26.300  26.711  1.00  0.00     0.074 A 
ATOM     61  C   UNL A   1      47.333  24.900  26.379  1.00  0.00     0.031 C 
ATOM     62  C   UNL A   1      48.169  27.214  26.695  1.00  0.00     0.037 A 
BRANCH  49  63
ATOM     63  C   UNL A   1      46.418  32.937  28.275  1.00  0.00     0.058 A 
ATOM     64  C   UNL A   1      46.927  33.420  29.493  1.00  0.00     0.135 A 
ATOM     65  C   UNL A   1      46.305  33.846  27.210  1.00  0.00     0.135 A 
ATOM     66  F   UNL A   1      47.041  32.602  30.551  1.00  0.00    -0.206 F 
ATOM     67  C   UNL A   1      47.281  34.755  29.656  1.00  0.00     0.059 A 
ATOM     68  C   UNL A   1      46.684  35.179  27.341  1.00  0.00     0.059 A 
ATOM     69  F   UNL A   1      45.824  33.440  26.024  1.00  0.00    -0.206 F 
ATOM     70  C   UNL A   1      47.157  35.628  28.573  1.00  0.00     0.060 A 
BRANCH  70  71
ATOM     71  S   UNL A   1      47.630  37.354  28.801  1.00  0.00     0.124 S 
ATOM     72  O   UNL A   1      46.853  38.010  27.753  1.00  0.00    -0.237 OA
ATOM     73  O   UNL A   1      47.197  37.618  30.169  1.00  0.00    -0.237 OA
ATOM     74  O   UNL A   1      49.075  37.342  28.593  1.00  0.00    -0.744 OA
ENDBRANCH  70  71
ENDBRANCH  49  63
BRANCH  50  75
ATOM     75  C   UNL A   1      43.390  23.487  26.933  1.00  0.00     0.058 A 
ATOM     76  C   UNL A   1      43.195  22.612  28.013  1.00  0.00     0.135 A 
ATOM     77  C   UNL A   1      43.135  22.997  25.643  1.00  0.00     0.135 A 
ATOM     78  F   UNL A   1      43.427  23.031  29.267  1.00  0.00    -0.206 F 
ATOM     79  C   UNL A   1      42.784  21.296  27.821  1.00  0.00     0.059 A 
ATOM     80  C   UNL A   1      42.695  21.695  25.428  1.00  0.00     0.059 A 
ATOM     81  F   UNL A   1      43.287  23.798  24.577  1.00  0.00    -0.206 F 
ATOM     82  C   UNL A   1      42.534  20.848  26.523  1.00  0.00     0.060 A 
BRANCH  82  83
ATOM     83  S   UNL A   1      41.959  19.152  26.289  1.00  0.00     0.124 S 
ATOM     84  O   UNL A   1      40.588  19.366  25.842  1.00  0.00    -0.237 OA
ATOM     85  O   UNL A   1      42.888  18.652  25.279  1.00  0.00    -0.237 OA
ATOM     86  O   UNL A   1      42.109  18.561  27.615  1.00  0.00    -0.744 OA
ENDBRANCH  82  83
ENDBRANCH  50  75
BRANCH  62  87
ATOM     87  C   UNL A   1      49.550  26.718  26.357  1.00  0.00     0.058 A 
ATOM     88  C   UNL A   1      50.103  26.869  25.076  1.00  0.00     0.135 A 
ATOM     89  C   UNL A   1      50.341  26.109  27.344  1.00  0.00     0.135 A 
ATOM     90  F   UNL A   1      49.389  27.443  24.094  1.00  0.00    -0.206 F 
ATOM     91  C   UNL A   1      51.375  26.396  24.774  1.00  0.00     0.059 A 
ATOM     92  C   UNL A   1      51.629  25.658  27.074  1.00  0.00     0.059 A 
ATOM     93  F   UNL A   1      49.868  25.953  28.591  1.00  0.00    -0.206 F 
ATOM     94  C   UNL A   1      52.131  25.790  25.780  1.00  0.00     0.060 A 
BRANCH  94  95
ATOM     95  S   UNL A   1      53.783  25.185  25.378  1.00  0.00     0.124 S 
ATOM     96  O   UNL A   1      53.599  23.741  25.475  1.00  0.00    -0.237 OA
ATOM     97  O   UNL A   1      53.989  25.710  24.032  1.00  0.00    -0.237 OA
ATOM     98  O   UNL A   1      54.624  25.781  26.412  1.00  0.00    -0.744 OA
ENDBRANCH  94  95
ENDBRANCH  62  87
ENDBRANCH  36  37
ENDBRANCH  28  31
ENDBRANCH  26  27
ENDBRANCH   1  26
TORSDOF 16
ENDMDL
