MODEL 1
REMARK VINA RESULT:     -10.5      0.000      0.000
REMARK SMILES CC[C@H](O)C[C@]1(C(=O)NCCCCNC(=O)c2ccc(-c3c4nc(c(-c5c(F)cc(S(=O)(=O)[O-])cc5F)c5ccc([nH]5)c(-c5c(F)cc(S(=O)(=O)[O-])cc5F)c5nc(c(-c6c(F)cc(S(=O)(=O)[O-])cc6F)c6ccc3[nH]6)C=C5)C=C4)cc2)CC[C@H](CC)CC1
REMARK SMILES IDX 11 1 10 2 9 3 7 4 8 5 6 7 85 8 88 9 84 10 89 11 83 12 86 13
REMARK SMILES IDX 87 14 5 15 3 16 4 17 2 19 1 20 12 21 13 22 14 23 15 24 16 26
REMARK SMILES IDX 17 27 18 28 82 29 19 30 81 31 20 32 21 33 22 34 75 35 23 36
REMARK SMILES IDX 80 37 74 38 76 39 24 40 79 41 73 42 72 43 25 45 59 46 38 47
REMARK SMILES IDX 58 48 39 49 42 50 57 51 77 52 40 53 41 54 56 56 78 57 43 58
REMARK SMILES IDX 26 59 27 60 36 61 28 62 29 63 35 64 37 65 30 66 31 67 32 68
REMARK SMILES IDX 33 69 34 70 60 71 61 72 70 73 62 74 63 75 69 76 71 77 64 78
REMARK SMILES IDX 65 79 66 80 67 81 68 82 44 83 45 84 54 85 46 86 47 87 53 88
REMARK SMILES IDX 55 89 48 90 49 91 50 92 51 93 52 94
REMARK H PARENT 9 6 4 18 14 25 76 44 42 55
REMARK Flexibility Score: inf
ROOT
ATOM      1  C   UNL A   1      31.593  27.544  26.252  1.00  0.00     0.023 C 
ENDROOT
BRANCH   1   2
ATOM      2  C   UNL A   1      30.895  26.366  25.588  1.00  0.00     0.116 C 
BRANCH   2   3
ATOM      3  N   UNL A   1      30.764  25.207  26.451  1.00  0.00    -0.356 N 
ATOM      4  C   UNL A   1      31.529  24.100  26.648  1.00  0.00     0.226 C 
ATOM      5  O   UNL A   1      31.197  23.403  27.614  1.00  0.00    -0.274 OA
ATOM      6  H   UNL A   1      29.954  25.226  27.010  1.00  0.00     0.163 HD
BRANCH   4   7
ATOM      7  C   UNL A   1      32.782  23.742  25.803  1.00  0.00     0.052 C 
ATOM      8  C   UNL A   1      35.803  23.234  26.045  1.00  0.00    -0.011 C 
ATOM      9  C   UNL A   1      35.246  24.575  25.558  1.00  0.00     0.005 C 
ATOM     10  C   UNL A   1      34.807  22.111  25.753  1.00  0.00     0.005 C 
ATOM     11  C   UNL A   1      33.853  24.847  26.135  1.00  0.00     0.017 C 
ATOM     12  C   UNL A   1      33.403  22.404  26.273  1.00  0.00     0.017 C 
BRANCH   8  13
ATOM     13  C   UNL A   1      37.166  22.940  25.393  1.00  0.00    -0.000 C 
ATOM     14  C   UNL A   1      38.324  23.603  26.130  1.00  0.00     0.004 C 
ENDBRANCH   8  13
BRANCH   7  15
ATOM     15  C   UNL A   1      32.512  23.853  24.261  1.00  0.00     0.048 C 
BRANCH  15  16
ATOM     16  C   UNL A   1      31.543  22.885  23.566  1.00  0.00     0.115 C 
BRANCH  16  17
ATOM     17  O   UNL A   1      30.603  23.583  22.751  1.00  0.00    -0.393 OA
ATOM     18  H   UNL A   1      30.534  23.145  21.890  1.00  0.00     0.210 HD
ENDBRANCH  16  17
BRANCH  16  19
ATOM     19  C   UNL A   1      32.241  21.906  22.609  1.00  0.00     0.028 C 
ATOM     20  C   UNL A   1      32.252  20.466  23.094  1.00  0.00     0.006 C 
ENDBRANCH  16  19
ENDBRANCH  15  16
ENDBRANCH   7  15
ENDBRANCH   4   7
ENDBRANCH   2   3
ENDBRANCH   1   2
BRANCH   1  21
ATOM     21  C   UNL A   1      32.723  28.155  25.430  1.00  0.00     0.023 C 
BRANCH  21  22
ATOM     22  C   UNL A   1      33.907  28.687  26.232  1.00  0.00     0.116 C 
BRANCH  22  23
ATOM     23  N   UNL A   1      33.798  30.100  26.579  1.00  0.00    -0.352 N 
ATOM     24  C   UNL A   1      34.631  30.850  27.380  1.00  0.00     0.251 C 
ATOM     25  H   UNL A   1      33.030  30.579  26.190  1.00  0.00     0.163 HD
ATOM     26  O   UNL A   1      34.372  32.013  27.640  1.00  0.00    -0.269 OA
BRANCH  24  27
ATOM     27  C   UNL A   1      35.821  30.191  27.954  1.00  0.00     0.039 A 
ATOM     28  C   UNL A   1      37.018  30.216  27.235  1.00  0.00     0.014 A 
ATOM     29  C   UNL A   1      35.769  29.655  29.242  1.00  0.00     0.014 A 
ATOM     30  C   UNL A   1      38.192  29.777  27.849  1.00  0.00     0.010 A 
ATOM     31  C   UNL A   1      36.950  29.292  29.876  1.00  0.00     0.010 A 
ATOM     32  C   UNL A   1      38.173  29.356  29.188  1.00  0.00    -0.014 A 
BRANCH  32  33
ATOM     33  C   UNL A   1      39.417  28.973  29.901  1.00  0.00     0.031 A 
ATOM     34  C   UNL A   1      39.830  29.734  31.130  1.00  0.00     0.074 A 
ATOM     35  C   UNL A   1      40.215  28.012  29.396  1.00  0.00     0.049 A 
ATOM     36  N   UNL A   1      40.935  29.646  31.824  1.00  0.00    -0.248 NA
ATOM     37  C   UNL A   1      38.891  30.756  31.617  1.00  0.00     0.031 C 
ATOM     38  C   UNL A   1      39.944  27.234  28.184  1.00  0.00     0.029 A 
ATOM     39  N   UNL A   1      41.424  27.535  29.832  1.00  0.00    -0.354 N 
ATOM     40  C   UNL A   1      40.835  30.619  32.811  1.00  0.00     0.074 A 
ATOM     41  C   UNL A   1      39.586  31.317  32.593  1.00  0.00     0.031 C 
ATOM     42  C   UNL A   1      40.946  26.361  27.990  1.00  0.00     0.029 A 
ATOM     43  C   UNL A   1      41.947  26.542  29.038  1.00  0.00     0.049 A 
ATOM     44  H   UNL A   1      41.877  27.872  30.639  1.00  0.00     0.167 HD
ATOM     45  C   UNL A   1      41.695  30.892  33.820  1.00  0.00     0.037 A 
ATOM     46  C   UNL A   1      43.105  25.859  29.140  1.00  0.00     0.037 A 
ATOM     47  C   UNL A   1      42.917  30.170  34.052  1.00  0.00     0.049 A 
ATOM     48  C   UNL A   1      44.036  26.164  30.280  1.00  0.00     0.074 A 
ATOM     49  C   UNL A   1      43.832  30.329  35.078  1.00  0.00     0.029 A 
ATOM     50  N   UNL A   1      43.393  29.145  33.246  1.00  0.00    -0.354 N 
ATOM     51  N   UNL A   1      43.907  27.055  31.234  1.00  0.00    -0.248 NA
ATOM     52  C   UNL A   1      45.268  25.367  30.363  1.00  0.00     0.031 C 
ATOM     53  C   UNL A   1      44.875  29.417  34.877  1.00  0.00     0.029 A 
ATOM     54  C   UNL A   1      44.592  28.667  33.746  1.00  0.00     0.049 A 
ATOM     55  H   UNL A   1      42.944  28.809  32.436  1.00  0.00     0.167 HD
ATOM     56  C   UNL A   1      45.025  26.908  32.046  1.00  0.00     0.074 A 
ATOM     57  C   UNL A   1      45.819  25.841  31.473  1.00  0.00     0.031 C 
ATOM     58  C   UNL A   1      45.360  27.593  33.167  1.00  0.00     0.037 A 
BRANCH  45  59
ATOM     59  C   UNL A   1      41.331  32.024  34.740  1.00  0.00     0.058 A 
ATOM     60  C   UNL A   1      40.463  31.836  35.828  1.00  0.00     0.135 A 
ATOM     61  C   UNL A   1      41.835  33.314  34.519  1.00  0.00     0.135 A 
ATOM     62  F   UNL A   1      39.939  30.625  36.074  1.00  0.00    -0.206 F 
ATOM     63  C   UNL A   1      40.064  32.898  36.632  1.00  0.00     0.059 A 
ATOM     64  C   UNL A   1      41.473  34.387  35.329  1.00  0.00     0.059 A 
ATOM     65  F   UNL A   1      42.670  33.550  33.495  1.00  0.00    -0.206 F 
ATOM     66  C   UNL A   1      40.567  34.173  36.368  1.00  0.00     0.060 A 
BRANCH  66  67
ATOM     67  S   UNL A   1      40.014  35.552  37.393  1.00  0.00     0.124 S 
ATOM     68  O   UNL A   1      38.910  34.940  38.127  1.00  0.00    -0.237 OA
ATOM     69  O   UNL A   1      41.204  35.858  38.180  1.00  0.00    -0.237 OA
ATOM     70  O   UNL A   1      39.635  36.567  36.417  1.00  0.00    -0.744 OA
ENDBRANCH  66  67
ENDBRANCH  45  59
BRANCH  46  71
ATOM     71  C   UNL A   1      43.418  24.790  28.157  1.00  0.00     0.058 A 
ATOM     72  C   UNL A   1      43.000  23.470  28.383  1.00  0.00     0.135 A 
ATOM     73  C   UNL A   1      44.099  25.066  26.962  1.00  0.00     0.135 A 
ATOM     74  F   UNL A   1      42.351  23.157  29.514  1.00  0.00    -0.206 F 
ATOM     75  C   UNL A   1      43.248  22.460  27.460  1.00  0.00     0.059 A 
ATOM     76  C   UNL A   1      44.342  24.076  26.015  1.00  0.00     0.059 A 
ATOM     77  F   UNL A   1      44.506  26.316  26.694  1.00  0.00    -0.206 F 
ATOM     78  C   UNL A   1      43.915  22.774  26.275  1.00  0.00     0.060 A 
BRANCH  78  79
ATOM     79  S   UNL A   1      44.163  21.470  25.050  1.00  0.00     0.124 S 
ATOM     80  O   UNL A   1      45.471  20.952  25.432  1.00  0.00    -0.237 OA
ATOM     81  O   UNL A   1      43.027  20.589  25.305  1.00  0.00    -0.237 OA
ATOM     82  O   UNL A   1      44.114  22.189  23.781  1.00  0.00    -0.744 OA
ENDBRANCH  78  79
ENDBRANCH  46  71
BRANCH  58  83
ATOM     83  C   UNL A   1      46.620  27.183  33.877  1.00  0.00     0.058 A 
ATOM     84  C   UNL A   1      47.852  27.794  33.601  1.00  0.00     0.135 A 
ATOM     85  C   UNL A   1      46.577  26.215  34.891  1.00  0.00     0.135 A 
ATOM     86  F   UNL A   1      47.947  28.721  32.635  1.00  0.00    -0.206 F 
ATOM     87  C   UNL A   1      49.004  27.448  34.301  1.00  0.00     0.059 A 
ATOM     88  C   UNL A   1      47.711  25.868  35.619  1.00  0.00     0.059 A 
ATOM     89  F   UNL A   1      45.419  25.607  35.198  1.00  0.00    -0.206 F 
ATOM     90  C   UNL A   1      48.923  26.486  35.310  1.00  0.00     0.060 A 
BRANCH  90  91
ATOM     91  S   UNL A   1      50.413  26.080  36.245  1.00  0.00     0.124 S 
ATOM     92  O   UNL A   1      51.241  25.455  35.220  1.00  0.00    -0.237 OA
ATOM     93  O   UNL A   1      50.859  27.390  36.709  1.00  0.00    -0.237 OA
ATOM     94  O   UNL A   1      49.923  25.186  37.291  1.00  0.00    -0.744 OA
ENDBRANCH  90  91
ENDBRANCH  58  83
ENDBRANCH  32  33
ENDBRANCH  24  27
ENDBRANCH  22  23
ENDBRANCH  21  22
ENDBRANCH   1  21
TORSDOF 19
ENDMDL
MODEL 2
REMARK VINA RESULT:     -10.5      5.057      6.612
REMARK SMILES CC[C@H](O)C[C@]1(C(=O)NCCCCNC(=O)c2ccc(-c3c4nc(c(-c5c(F)cc(S(=O)(=O)[O-])cc5F)c5ccc([nH]5)c(-c5c(F)cc(S(=O)(=O)[O-])cc5F)c5nc(c(-c6c(F)cc(S(=O)(=O)[O-])cc6F)c6ccc3[nH]6)C=C5)C=C4)cc2)CC[C@H](CC)CC1
REMARK SMILES IDX 11 1 10 2 9 3 7 4 8 5 6 7 85 8 88 9 84 10 89 11 83 12 86 13
REMARK SMILES IDX 87 14 5 15 3 16 4 17 2 19 1 20 12 21 13 22 14 23 15 24 16 26
REMARK SMILES IDX 17 27 18 28 82 29 19 30 81 31 20 32 21 33 22 34 75 35 23 36
REMARK SMILES IDX 80 37 74 38 76 39 24 40 79 41 73 42 72 43 25 45 59 46 38 47
REMARK SMILES IDX 58 48 39 49 42 50 57 51 77 52 40 53 41 54 56 56 78 57 43 58
REMARK SMILES IDX 26 59 27 60 36 61 28 62 29 63 35 64 37 65 30 66 31 67 32 68
REMARK SMILES IDX 33 69 34 70 60 71 61 72 70 73 62 74 63 75 69 76 71 77 64 78
REMARK SMILES IDX 65 79 66 80 67 81 68 82 44 83 45 84 54 85 46 86 47 87 53 88
REMARK SMILES IDX 55 89 48 90 49 91 50 92 51 93 52 94
REMARK H PARENT 9 6 4 18 14 25 76 44 42 55
REMARK Flexibility Score: inf
ROOT
ATOM      1  C   UNL A   1      34.155  29.499  27.292  1.00  0.00     0.023 C 
ENDROOT
BRANCH   1   2
ATOM      2  C   UNL A   1      33.026  29.252  26.302  1.00  0.00     0.116 C 
BRANCH   2   3
ATOM      3  N   UNL A   1      33.450  29.300  24.914  1.00  0.00    -0.356 N 
ATOM      4  C   UNL A   1      33.530  28.365  23.931  1.00  0.00     0.226 C 
ATOM      5  O   UNL A   1      33.761  28.815  22.802  1.00  0.00    -0.274 OA
ATOM      6  H   UNL A   1      33.738  30.196  24.626  1.00  0.00     0.163 HD
BRANCH   4   7
ATOM      7  C   UNL A   1      33.276  26.849  24.144  1.00  0.00     0.052 C 
ATOM      8  C   UNL A   1      34.567  24.092  23.720  1.00  0.00    -0.011 C 
ATOM      9  C   UNL A   1      33.504  24.641  22.765  1.00  0.00     0.005 C 
ATOM     10  C   UNL A   1      34.399  24.710  25.109  1.00  0.00     0.005 C 
ATOM     11  C   UNL A   1      33.508  26.172  22.741  1.00  0.00     0.017 C 
ATOM     12  C   UNL A   1      34.342  26.234  25.084  1.00  0.00     0.017 C 
BRANCH   8  13
ATOM     13  C   UNL A   1      34.495  22.556  23.793  1.00  0.00    -0.000 C 
ATOM     14  C   UNL A   1      33.072  22.044  23.989  1.00  0.00     0.004 C 
ENDBRANCH   8  13
BRANCH   7  15
ATOM     15  C   UNL A   1      31.785  26.543  24.527  1.00  0.00     0.048 C 
BRANCH  15  16
ATOM     16  C   UNL A   1      31.445  25.871  25.866  1.00  0.00     0.115 C 
BRANCH  16  17
ATOM     17  O   UNL A   1      30.582  26.688  26.655  1.00  0.00    -0.393 OA
ATOM     18  H   UNL A   1      29.659  26.491  26.432  1.00  0.00     0.210 HD
ENDBRANCH  16  17
BRANCH  16  19
ATOM     19  C   UNL A   1      30.691  24.541  25.708  1.00  0.00     0.028 C 
ATOM     20  C   UNL A   1      31.077  23.484  26.728  1.00  0.00     0.006 C 
ENDBRANCH  16  19
ENDBRANCH  15  16
ENDBRANCH   7  15
ENDBRANCH   4   7
ENDBRANCH   2   3
ENDBRANCH   1   2
BRANCH   1  21
ATOM     21  C   UNL A   1      34.586  30.957  27.408  1.00  0.00     0.023 C 
BRANCH  21  22
ATOM     22  C   UNL A   1      35.780  31.221  28.321  1.00  0.00     0.116 C 
BRANCH  22  23
ATOM     23  N   UNL A   1      35.579  30.780  29.697  1.00  0.00    -0.352 N 
ATOM     24  C   UNL A   1      36.503  30.238  30.564  1.00  0.00     0.251 C 
ATOM     25  H   UNL A   1      34.666  30.883  30.052  1.00  0.00     0.163 HD
ATOM     26  O   UNL A   1      36.172  29.846  31.670  1.00  0.00    -0.269 OA
BRANCH  24  27
ATOM     27  C   UNL A   1      37.897  30.101  30.097  1.00  0.00     0.039 A 
ATOM     28  C   UNL A   1      38.929  30.133  31.036  1.00  0.00     0.014 A 
ATOM     29  C   UNL A   1      38.159  29.832  28.752  1.00  0.00     0.014 A 
ATOM     30  C   UNL A   1      40.226  29.807  30.637  1.00  0.00     0.010 A 
ATOM     31  C   UNL A   1      39.434  29.433  28.374  1.00  0.00     0.010 A 
ATOM     32  C   UNL A   1      40.478  29.410  29.314  1.00  0.00    -0.014 A 
BRANCH  32  33
ATOM     33  C   UNL A   1      41.825  28.964  28.878  1.00  0.00     0.031 A 
ATOM     34  C   UNL A   1      42.942  29.965  28.786  1.00  0.00     0.074 A 
ATOM     35  C   UNL A   1      42.018  27.692  28.481  1.00  0.00     0.049 A 
ATOM     36  N   UNL A   1      44.151  29.814  28.312  1.00  0.00    -0.248 NA
ATOM     37  C   UNL A   1      42.644  31.328  29.255  1.00  0.00     0.031 C 
ATOM     38  C   UNL A   1      40.999  26.639  28.480  1.00  0.00     0.029 A 
ATOM     39  N   UNL A   1      43.136  27.071  27.985  1.00  0.00    -0.354 N 
ATOM     40  C   UNL A   1      44.747  31.066  28.399  1.00  0.00     0.074 A 
ATOM     41  C   UNL A   1      43.751  31.974  28.923  1.00  0.00     0.031 C 
ATOM     42  C   UNL A   1      41.547  25.497  28.031  1.00  0.00     0.029 A 
ATOM     43  C   UNL A   1      42.942  25.745  27.676  1.00  0.00     0.049 A 
ATOM     44  H   UNL A   1      43.998  27.531  27.862  1.00  0.00     0.167 HD
ATOM     45  C   UNL A   1      46.017  31.422  28.090  1.00  0.00     0.037 A 
ATOM     46  C   UNL A   1      43.791  24.834  27.160  1.00  0.00     0.037 A 
ATOM     47  C   UNL A   1      47.012  30.506  27.603  1.00  0.00     0.049 A 
ATOM     48  C   UNL A   1      45.202  25.245  26.844  1.00  0.00     0.074 A 
ATOM     49  C   UNL A   1      48.343  30.751  27.313  1.00  0.00     0.029 A 
ATOM     50  N   UNL A   1      46.787  29.162  27.339  1.00  0.00    -0.354 N 
ATOM     51  N   UNL A   1      45.766  26.422  26.975  1.00  0.00    -0.248 NA
ATOM     52  C   UNL A   1      46.095  24.205  26.314  1.00  0.00     0.031 C 
ATOM     53  C   UNL A   1      48.915  29.561  26.848  1.00  0.00     0.029 A 
ATOM     54  C   UNL A   1      47.950  28.567  26.882  1.00  0.00     0.049 A 
ATOM     55  H   UNL A   1      45.925  28.700  27.457  1.00  0.00     0.167 HD
ATOM     56  C   UNL A   1      47.086  26.259  26.572  1.00  0.00     0.074 A 
ATOM     57  C   UNL A   1      47.238  24.868  26.194  1.00  0.00     0.031 C 
ATOM     58  C   UNL A   1      48.083  27.177  26.524  1.00  0.00     0.037 A 
BRANCH  45  59
ATOM     59  C   UNL A   1      46.384  32.868  28.273  1.00  0.00     0.058 A 
ATOM     60  C   UNL A   1      46.237  33.801  27.233  1.00  0.00     0.135 A 
ATOM     61  C   UNL A   1      46.911  33.322  29.491  1.00  0.00     0.135 A 
ATOM     62  F   UNL A   1      45.753  33.415  26.042  1.00  0.00    -0.206 F 
ATOM     63  C   UNL A   1      46.649  35.122  27.377  1.00  0.00     0.059 A 
ATOM     64  C   UNL A   1      47.303  34.646  29.667  1.00  0.00     0.059 A 
ATOM     65  F   UNL A   1      47.071  32.474  30.519  1.00  0.00    -0.206 F 
ATOM     66  C   UNL A   1      47.191  35.532  28.596  1.00  0.00     0.060 A 
BRANCH  66  67
ATOM     67  S   UNL A   1      47.759  37.237  28.760  1.00  0.00     0.124 S 
ATOM     68  O   UNL A   1      46.789  37.945  27.929  1.00  0.00    -0.237 OA
ATOM     69  O   UNL A   1      47.649  37.470  30.196  1.00  0.00    -0.237 OA
ATOM     70  O   UNL A   1      49.120  37.192  28.239  1.00  0.00    -0.744 OA
ENDBRANCH  66  67
ENDBRANCH  45  59
BRANCH  46  71
ATOM     71  C   UNL A   1      43.336  23.435  26.957  1.00  0.00     0.058 A 
ATOM     72  C   UNL A   1      43.043  22.960  25.669  1.00  0.00     0.135 A 
ATOM     73  C   UNL A   1      43.225  22.534  28.027  1.00  0.00     0.135 A 
ATOM     74  F   UNL A   1      43.128  23.786  24.615  1.00  0.00    -0.206 F 
ATOM     75  C   UNL A   1      42.652  21.644  25.449  1.00  0.00     0.059 A 
ATOM     76  C   UNL A   1      42.855  21.207  27.830  1.00  0.00     0.059 A 
ATOM     77  F   UNL A   1      43.510  22.936  29.275  1.00  0.00    -0.206 F 
ATOM     78  C   UNL A   1      42.568  20.772  26.536  1.00  0.00     0.060 A 
BRANCH  78  79
ATOM     79  S   UNL A   1      42.135  19.046  26.228  1.00  0.00     0.124 S 
ATOM     80  O   UNL A   1      42.356  18.448  27.539  1.00  0.00    -0.237 OA
ATOM     81  O   UNL A   1      40.743  19.150  25.799  1.00  0.00    -0.237 OA
ATOM     82  O   UNL A   1      43.074  18.647  25.184  1.00  0.00    -0.744 OA
ENDBRANCH  78  79
ENDBRANCH  46  71
BRANCH  58  83
ATOM     83  C   UNL A   1      49.440  26.702  26.087  1.00  0.00     0.058 A 
ATOM     84  C   UNL A   1      49.884  26.856  24.766  1.00  0.00     0.135 A 
ATOM     85  C   UNL A   1      50.329  26.146  27.020  1.00  0.00     0.135 A 
ATOM     86  F   UNL A   1      49.069  27.376  23.834  1.00  0.00    -0.206 F 
ATOM     87  C   UNL A   1      51.162  26.464  24.380  1.00  0.00     0.059 A 
ATOM     88  C   UNL A   1      51.619  25.767  26.663  1.00  0.00     0.059 A 
ATOM     89  F   UNL A   1      49.953  25.984  28.299  1.00  0.00    -0.206 F 
ATOM     90  C   UNL A   1      52.023  25.923  25.337  1.00  0.00     0.060 A 
BRANCH  90  91
ATOM     91  S   UNL A   1      53.696  25.463  24.839  1.00  0.00     0.124 S 
ATOM     92  O   UNL A   1      53.596  24.008  24.782  1.00  0.00    -0.237 OA
ATOM     93  O   UNL A   1      53.838  26.139  23.553  1.00  0.00    -0.237 OA
ATOM     94  O   UNL A   1      54.528  25.996  25.914  1.00  0.00    -0.744 OA
ENDBRANCH  90  91
ENDBRANCH  58  83
ENDBRANCH  32  33
ENDBRANCH  24  27
ENDBRANCH  22  23
ENDBRANCH  21  22
ENDBRANCH   1  21
TORSDOF 19
ENDMDL
MODEL 3
REMARK VINA RESULT:     -10.5      3.424      9.359
REMARK SMILES CC[C@H](O)C[C@]1(C(=O)NCCCCNC(=O)c2ccc(-c3c4nc(c(-c5c(F)cc(S(=O)(=O)[O-])cc5F)c5ccc([nH]5)c(-c5c(F)cc(S(=O)(=O)[O-])cc5F)c5nc(c(-c6c(F)cc(S(=O)(=O)[O-])cc6F)c6ccc3[nH]6)C=C5)C=C4)cc2)CC[C@H](CC)CC1
REMARK SMILES IDX 11 1 10 2 9 3 7 4 8 5 6 7 85 8 88 9 84 10 89 11 83 12 86 13
REMARK SMILES IDX 87 14 5 15 3 16 4 17 2 19 1 20 12 21 13 22 14 23 15 24 16 26
REMARK SMILES IDX 17 27 18 28 82 29 19 30 81 31 20 32 21 33 22 34 75 35 23 36
REMARK SMILES IDX 80 37 74 38 76 39 24 40 79 41 73 42 72 43 25 45 59 46 38 47
REMARK SMILES IDX 58 48 39 49 42 50 57 51 77 52 40 53 41 54 56 56 78 57 43 58
REMARK SMILES IDX 26 59 27 60 36 61 28 62 29 63 35 64 37 65 30 66 31 67 32 68
REMARK SMILES IDX 33 69 34 70 60 71 61 72 70 73 62 74 63 75 69 76 71 77 64 78
REMARK SMILES IDX 65 79 66 80 67 81 68 82 44 83 45 84 54 85 46 86 47 87 53 88
REMARK SMILES IDX 55 89 48 90 49 91 50 92 51 93 52 94
REMARK H PARENT 9 6 4 18 14 25 76 44 42 55
REMARK Flexibility Score: inf
ROOT
ATOM      1  C   UNL A   1      34.715  22.999  24.280  1.00  0.00     0.023 C 
ENDROOT
BRANCH   1   2
ATOM      2  C   UNL A   1      33.648  24.081  24.361  1.00  0.00     0.116 C 
BRANCH   2   3
ATOM      3  N   UNL A   1      32.842  24.012  25.565  1.00  0.00    -0.356 N 
ATOM      4  C   UNL A   1      32.150  24.940  26.278  1.00  0.00     0.226 C 
ATOM      5  O   UNL A   1      31.414  24.479  27.158  1.00  0.00    -0.274 OA
ATOM      6  H   UNL A   1      32.783  23.105  25.944  1.00  0.00     0.163 HD
BRANCH   4   7
ATOM      7  C   UNL A   1      32.185  26.466  25.992  1.00  0.00     0.052 C 
ATOM      8  C   UNL A   1      33.153  29.132  27.175  1.00  0.00    -0.011 C 
ATOM      9  C   UNL A   1      31.693  28.683  27.284  1.00  0.00     0.005 C 
ATOM     10  C   UNL A   1      33.811  28.494  25.951  1.00  0.00     0.005 C 
ATOM     11  C   UNL A   1      31.573  27.156  27.268  1.00  0.00     0.017 C 
ATOM     12  C   UNL A   1      33.642  26.979  25.899  1.00  0.00     0.017 C 
BRANCH   8  13
ATOM     13  C   UNL A   1      33.249  30.667  27.112  1.00  0.00    -0.000 C 
ATOM     14  C   UNL A   1      34.537  31.200  27.729  1.00  0.00     0.004 C 
ENDBRANCH   8  13
BRANCH   7  15
ATOM     15  C   UNL A   1      31.252  26.869  24.796  1.00  0.00     0.048 C 
BRANCH  15  16
ATOM     16  C   UNL A   1      31.846  27.188  23.416  1.00  0.00     0.115 C 
BRANCH  16  17
ATOM     17  O   UNL A   1      31.391  26.267  22.427  1.00  0.00    -0.393 OA
ATOM     18  H   UNL A   1      32.020  25.533  22.355  1.00  0.00     0.210 HD
ENDBRANCH  16  17
BRANCH  16  19
ATOM     19  C   UNL A   1      31.439  28.571  22.883  1.00  0.00     0.028 C 
ATOM     20  C   UNL A   1      30.551  29.364  23.827  1.00  0.00     0.006 C 
ENDBRANCH  16  19
ENDBRANCH  15  16
ENDBRANCH   7  15
ENDBRANCH   4   7
ENDBRANCH   2   3
ENDBRANCH   1   2
BRANCH   1  21
ATOM     21  C   UNL A   1      36.145  23.509  24.429  1.00  0.00     0.023 C 
BRANCH  21  22
ATOM     22  C   UNL A   1      36.726  23.441  25.838  1.00  0.00     0.116 C 
BRANCH  22  23
ATOM     23  N   UNL A   1      37.892  22.574  25.956  1.00  0.00    -0.352 N 
ATOM     24  C   UNL A   1      39.140  22.882  26.454  1.00  0.00     0.251 C 
ATOM     25  H   UNL A   1      37.773  21.649  25.638  1.00  0.00     0.163 HD
ATOM     26  O   UNL A   1      40.047  22.068  26.422  1.00  0.00    -0.269 OA
BRANCH  24  27
ATOM     27  C   UNL A   1      39.360  24.243  26.983  1.00  0.00     0.039 A 
ATOM     28  C   UNL A   1      39.011  24.516  28.307  1.00  0.00     0.014 A 
ATOM     29  C   UNL A   1      40.008  25.200  26.200  1.00  0.00     0.014 A 
ATOM     30  C   UNL A   1      39.395  25.730  28.878  1.00  0.00     0.010 A 
ATOM     31  C   UNL A   1      40.456  26.373  26.792  1.00  0.00     0.010 A 
ATOM     32  C   UNL A   1      40.160  26.646  28.138  1.00  0.00    -0.014 A 
BRANCH  32  33
ATOM     33  C   UNL A   1      40.667  27.904  28.742  1.00  0.00     0.031 A 
ATOM     34  C   UNL A   1      42.100  27.987  29.186  1.00  0.00     0.074 A 
ATOM     35  C   UNL A   1      39.822  28.928  28.974  1.00  0.00     0.049 A 
ATOM     36  N   UNL A   1      42.707  28.939  29.846  1.00  0.00    -0.248 NA
ATOM     37  C   UNL A   1      42.951  26.827  28.879  1.00  0.00     0.031 C 
ATOM     38  C   UNL A   1      38.398  28.949  28.630  1.00  0.00     0.029 A 
ATOM     39  N   UNL A   1      40.037  30.146  29.567  1.00  0.00    -0.354 N 
ATOM     40  C   UNL A   1      44.001  28.481  30.057  1.00  0.00     0.074 A 
ATOM     41  C   UNL A   1      44.076  27.147  29.501  1.00  0.00     0.031 C 
ATOM     42  C   UNL A   1      37.875  30.130  28.996  1.00  0.00     0.029 A 
ATOM     43  C   UNL A   1      38.913  30.935  29.634  1.00  0.00     0.049 A 
ATOM     44  H   UNL A   1      40.914  30.429  29.913  1.00  0.00     0.167 HD
ATOM     45  C   UNL A   1      45.041  29.121  30.643  1.00  0.00     0.037 A 
ATOM     46  C   UNL A   1      38.739  32.165  30.156  1.00  0.00     0.037 A 
ATOM     47  C   UNL A   1      44.970  30.460  31.162  1.00  0.00     0.049 A 
ATOM     48  C   UNL A   1      39.911  32.867  30.783  1.00  0.00     0.074 A 
ATOM     49  C   UNL A   1      45.979  31.223  31.724  1.00  0.00     0.029 A 
ATOM     50  N   UNL A   1      43.822  31.241  31.177  1.00  0.00    -0.354 N 
ATOM     51  N   UNL A   1      41.142  32.441  30.934  1.00  0.00    -0.248 NA
ATOM     52  C   UNL A   1      39.674  34.220  31.306  1.00  0.00     0.031 C 
ATOM     53  C   UNL A   1      45.434  32.456  32.103  1.00  0.00     0.029 A 
ATOM     54  C   UNL A   1      44.095  32.474  31.745  1.00  0.00     0.049 A 
ATOM     55  H   UNL A   1      42.943  30.959  30.835  1.00  0.00     0.167 HD
ATOM     56  C   UNL A   1      41.834  33.481  31.543  1.00  0.00     0.074 A 
ATOM     57  C   UNL A   1      40.884  34.559  31.731  1.00  0.00     0.031 C 
ATOM     58  C   UNL A   1      43.138  33.539  31.910  1.00  0.00     0.037 A 
BRANCH  45  59
ATOM     59  C   UNL A   1      46.336  28.366  30.748  1.00  0.00     0.058 A 
ATOM     60  C   UNL A   1      47.332  28.475  29.764  1.00  0.00     0.135 A 
ATOM     61  C   UNL A   1      46.576  27.506  31.830  1.00  0.00     0.135 A 
ATOM     62  F   UNL A   1      47.146  29.271  28.699  1.00  0.00    -0.206 F 
ATOM     63  C   UNL A   1      48.497  27.718  29.821  1.00  0.00     0.059 A 
ATOM     64  C   UNL A   1      47.748  26.760  31.923  1.00  0.00     0.059 A 
ATOM     65  F   UNL A   1      45.659  27.365  32.801  1.00  0.00    -0.206 F 
ATOM     66  C   UNL A   1      48.691  26.854  30.900  1.00  0.00     0.060 A 
BRANCH  66  67
ATOM     67  S   UNL A   1      50.188  25.847  30.945  1.00  0.00     0.124 S 
ATOM     68  O   UNL A   1      50.005  25.114  32.195  1.00  0.00    -0.237 OA
ATOM     69  O   UNL A   1      50.072  25.054  29.725  1.00  0.00    -0.237 OA
ATOM     70  O   UNL A   1      51.261  26.835  30.946  1.00  0.00    -0.744 OA
ENDBRANCH  66  67
ENDBRANCH  45  59
BRANCH  46  71
ATOM     71  C   UNL A   1      37.411  32.825  30.061  1.00  0.00     0.058 A 
ATOM     72  C   UNL A   1      36.428  32.589  31.033  1.00  0.00     0.135 A 
ATOM     73  C   UNL A   1      37.111  33.730  29.031  1.00  0.00     0.135 A 
ATOM     74  F   UNL A   1      36.666  31.727  32.032  1.00  0.00    -0.206 F 
ATOM     75  C   UNL A   1      35.191  33.224  30.987  1.00  0.00     0.059 A 
ATOM     76  C   UNL A   1      35.888  34.392  28.974  1.00  0.00     0.059 A 
ATOM     77  F   UNL A   1      38.025  34.000  28.087  1.00  0.00    -0.206 F 
ATOM     78  C   UNL A   1      34.933  34.130  29.956  1.00  0.00     0.060 A 
BRANCH  78  79
ATOM     79  S   UNL A   1      33.353  35.005  29.950  1.00  0.00     0.124 S 
ATOM     80  O   UNL A   1      33.760  36.344  29.542  1.00  0.00    -0.237 OA
ATOM     81  O   UNL A   1      32.584  34.244  28.971  1.00  0.00    -0.237 OA
ATOM     82  O   UNL A   1      32.895  34.877  31.331  1.00  0.00    -0.744 OA
ENDBRANCH  78  79
ENDBRANCH  46  71
BRANCH  58  83
ATOM     83  C   UNL A   1      43.630  34.824  32.512  1.00  0.00     0.058 A 
ATOM     84  C   UNL A   1      44.151  35.857  31.719  1.00  0.00     0.135 A 
ATOM     85  C   UNL A   1      43.516  35.048  33.893  1.00  0.00     0.135 A 
ATOM     86  F   UNL A   1      44.289  35.690  30.394  1.00  0.00    -0.206 F 
ATOM     87  C   UNL A   1      44.555  37.066  32.277  1.00  0.00     0.059 A 
ATOM     88  C   UNL A   1      43.891  36.257  34.470  1.00  0.00     0.059 A 
ATOM     89  F   UNL A   1      43.016  34.093  34.694  1.00  0.00    -0.206 F 
ATOM     90  C   UNL A   1      44.418  37.257  33.654  1.00  0.00     0.060 A 
BRANCH  90  91
ATOM     91  S   UNL A   1      44.897  38.847  34.362  1.00  0.00     0.124 S 
ATOM     92  O   UNL A   1      45.709  38.429  35.500  1.00  0.00    -0.237 OA
ATOM     93  O   UNL A   1      45.622  39.476  33.262  1.00  0.00    -0.237 OA
ATOM     94  O   UNL A   1      43.618  39.469  34.695  1.00  0.00    -0.744 OA
ENDBRANCH  90  91
ENDBRANCH  58  83
ENDBRANCH  32  33
ENDBRANCH  24  27
ENDBRANCH  22  23
ENDBRANCH  21  22
ENDBRANCH   1  21
TORSDOF 19
ENDMDL
