MODEL 1
REMARK VINA RESULT:     -12.1      0.000      0.000
REMARK SMILES Cc1cc(C)cc(-c2ccc([C@@H](C)C(=O)NCCCCNC(=O)c3ccc(-c4c5nc(c(-c6c(F)cc(S(=O)(=O)[O-])cc6F)c6ccc([nH]6)c(-c6c(F)cc(S(=O)(=O)[O-])cc6F)c6nc(c(-c7c(F)cc(S(=O)(=O)[O-])cc7F)c7ccc4[nH]7)C=C6)C=C5)cc3)cc2F)c1
REMARK SMILES IDX 19 1 18 2 17 3 16 4 14 5 15 6 12 8 13 9 11 10 8 11 9 12
REMARK SMILES IDX 91 13 10 14 90 15 92 16 7 17 1 18 2 19 3 20 93 21 4 22 5 23
REMARK SMILES IDX 6 24 20 25 21 26 22 27 23 29 24 30 25 31 89 32 26 33 88 34
REMARK SMILES IDX 27 35 28 36 29 37 82 38 30 39 87 40 81 41 83 42 31 43 86 44
REMARK SMILES IDX 80 45 79 46 32 48 66 49 45 50 65 51 46 52 49 53 64 54 84 55
REMARK SMILES IDX 47 56 48 57 63 59 85 60 50 61 33 62 34 63 43 64 35 65 36 66
REMARK SMILES IDX 42 67 44 68 37 69 38 70 39 71 40 72 41 73 67 74 68 75 77 76
REMARK SMILES IDX 69 77 70 78 76 79 78 80 71 81 72 82 73 83 74 84 75 85 51 86
REMARK SMILES IDX 52 87 61 88 53 89 54 90 60 91 62 92 55 93 56 94 57 95 58 96
REMARK SMILES IDX 59 97
REMARK H PARENT 16 7 21 28 83 47 49 58
REMARK Flexibility Score: inf
ROOT
ATOM      1  C   UNL A   1      32.334  28.350  26.268  1.00  0.00     0.023 C 
ENDROOT
BRANCH   1   2
ATOM      2  C   UNL A   1      32.207  29.199  25.004  1.00  0.00     0.023 C 
BRANCH   2   3
ATOM      3  C   UNL A   1      30.836  29.839  24.787  1.00  0.00     0.116 C 
BRANCH   3   4
ATOM      4  N   UNL A   1      30.571  30.112  23.389  1.00  0.00    -0.356 N 
ATOM      5  C   UNL A   1      29.912  29.396  22.438  1.00  0.00     0.227 C 
ATOM      6  O   UNL A   1      29.895  29.872  21.296  1.00  0.00    -0.274 OA
ATOM      7  H   UNL A   1      30.933  30.970  23.071  1.00  0.00     0.163 HD
BRANCH   5   8
ATOM      8  C   UNL A   1      29.197  28.063  22.714  1.00  0.00     0.105 C 
ATOM      9  C   UNL A   1      27.915  28.205  23.536  1.00  0.00     0.023 C 
BRANCH   8  10
ATOM     10  C   UNL A   1      30.142  26.945  23.127  1.00  0.00    -0.033 A 
ATOM     11  C   UNL A   1      32.076  24.987  23.932  1.00  0.00     0.017 A 
ATOM     12  C   UNL A   1      30.900  25.218  24.667  1.00  0.00     0.012 A 
ATOM     13  C   UNL A   1      32.229  25.740  22.758  1.00  0.00     0.131 A 
ATOM     14  C   UNL A   1      29.938  26.152  24.257  1.00  0.00     0.005 A 
ATOM     15  C   UNL A   1      31.299  26.710  22.371  1.00  0.00     0.044 A 
ATOM     16  F   UNL A   1      33.291  25.550  21.957  1.00  0.00    -0.206 F 
BRANCH  11  17
ATOM     17  C   UNL A   1      33.093  24.022  24.415  1.00  0.00    -0.015 A 
ATOM     18  C   UNL A   1      33.673  20.238  24.574  1.00  0.00     0.044 C 
ATOM     19  C   UNL A   1      33.896  21.717  24.700  1.00  0.00    -0.050 A 
ATOM     20  C   UNL A   1      35.100  22.196  25.224  1.00  0.00     0.006 A 
ATOM     21  C   UNL A   1      32.911  22.631  24.296  1.00  0.00     0.012 A 
ATOM     22  C   UNL A   1      35.322  23.570  25.352  1.00  0.00    -0.050 A 
ATOM     23  C   UNL A   1      36.628  24.073  25.888  1.00  0.00     0.044 C 
ATOM     24  C   UNL A   1      34.312  24.464  24.968  1.00  0.00     0.012 A 
ENDBRANCH  11  17
ENDBRANCH   8  10
ENDBRANCH   5   8
ENDBRANCH   3   4
ENDBRANCH   2   3
ENDBRANCH   1   2
BRANCH   1  25
ATOM     25  C   UNL A   1      33.516  28.687  27.172  1.00  0.00     0.116 C 
BRANCH  25  26
ATOM     26  N   UNL A   1      33.505  30.053  27.679  1.00  0.00    -0.352 N 
ATOM     27  C   UNL A   1      34.534  30.745  28.281  1.00  0.00     0.251 C 
ATOM     28  H   UNL A   1      32.656  30.543  27.579  1.00  0.00     0.163 HD
ATOM     29  O   UNL A   1      34.353  31.874  28.718  1.00  0.00    -0.269 OA
BRANCH  27  30
ATOM     30  C   UNL A   1      35.845  30.079  28.436  1.00  0.00     0.039 A 
ATOM     31  C   UNL A   1      36.733  30.081  27.358  1.00  0.00     0.014 A 
ATOM     32  C   UNL A   1      36.222  29.533  29.665  1.00  0.00     0.014 A 
ATOM     33  C   UNL A   1      38.039  29.622  27.542  1.00  0.00     0.010 A 
ATOM     34  C   UNL A   1      37.541  29.136  29.864  1.00  0.00     0.010 A 
ATOM     35  C   UNL A   1      38.466  29.195  28.810  1.00  0.00    -0.014 A 
BRANCH  35  36
ATOM     36  C   UNL A   1      39.885  28.849  29.075  1.00  0.00     0.031 A 
ATOM     37  C   UNL A   1      40.821  29.882  29.635  1.00  0.00     0.074 A 
ATOM     38  C   UNL A   1      40.349  27.634  28.722  1.00  0.00     0.049 A 
ATOM     39  N   UNL A   1      42.114  29.808  29.818  1.00  0.00    -0.248 NA
ATOM     40  C   UNL A   1      40.232  31.176  30.013  1.00  0.00     0.031 C 
ATOM     41  C   UNL A   1      39.548  26.563  28.121  1.00  0.00     0.029 A 
ATOM     42  N   UNL A   1      41.610  27.097  28.800  1.00  0.00    -0.354 N 
ATOM     43  C   UNL A   1      42.496  31.048  30.312  1.00  0.00     0.074 A 
ATOM     44  C   UNL A   1      41.305  31.869  30.364  1.00  0.00     0.031 C 
ATOM     45  C   UNL A   1      40.332  25.494  27.906  1.00  0.00     0.029 A 
ATOM     46  C   UNL A   1      41.696  25.813  28.314  1.00  0.00     0.049 A 
ATOM     47  H   UNL A   1      42.381  27.586  29.169  1.00  0.00     0.167 HD
ATOM     48  C   UNL A   1      43.725  31.457  30.705  1.00  0.00     0.037 A 
ATOM     49  C   UNL A   1      42.756  24.989  28.200  1.00  0.00     0.037 A 
ATOM     50  C   UNL A   1      44.897  30.623  30.691  1.00  0.00     0.049 A 
ATOM     51  C   UNL A   1      44.109  25.461  28.654  1.00  0.00     0.074 A 
ATOM     52  C   UNL A   1      46.172  30.926  31.137  1.00  0.00     0.029 A 
ATOM     53  N   UNL A   1      44.939  29.322  30.212  1.00  0.00    -0.354 N 
ATOM     54  N   UNL A   1      44.443  26.623  29.164  1.00  0.00    -0.248 NA
ATOM     55  C   UNL A   1      45.228  24.519  28.518  1.00  0.00     0.031 C 
ATOM     56  C   UNL A   1      46.991  29.818  30.901  1.00  0.00     0.029 A 
ATOM     57  C   UNL A   1      46.220  28.813  30.337  1.00  0.00     0.049 A 
ATOM     58  H   UNL A   1      44.170  28.833  29.839  1.00  0.00     0.167 HD
ATOM     59  C   UNL A   1      45.807  26.546  29.420  1.00  0.00     0.074 A 
ATOM     60  C   UNL A   1      46.234  25.221  29.020  1.00  0.00     0.031 C 
ATOM     61  C   UNL A   1      46.628  27.491  29.937  1.00  0.00     0.037 A 
BRANCH  48  62
ATOM     62  C   UNL A   1      43.866  32.866  31.204  1.00  0.00     0.058 A 
ATOM     63  C   UNL A   1      43.673  33.167  32.560  1.00  0.00     0.135 A 
ATOM     64  C   UNL A   1      44.139  33.928  30.327  1.00  0.00     0.135 A 
ATOM     65  F   UNL A   1      43.417  32.187  33.441  1.00  0.00    -0.206 F 
ATOM     66  C   UNL A   1      43.735  34.474  33.030  1.00  0.00     0.059 A 
ATOM     67  C   UNL A   1      44.227  35.241  30.779  1.00  0.00     0.059 A 
ATOM     68  F   UNL A   1      44.354  33.690  29.024  1.00  0.00    -0.206 F 
ATOM     69  C   UNL A   1      44.011  35.506  32.131  1.00  0.00     0.060 A 
BRANCH  69  70
ATOM     70  S   UNL A   1      44.130  37.194  32.760  1.00  0.00     0.124 S 
ATOM     71  O   UNL A   1      42.958  37.275  33.624  1.00  0.00    -0.237 OA
ATOM     72  O   UNL A   1      45.422  37.181  33.437  1.00  0.00    -0.237 OA
ATOM     73  O   UNL A   1      44.078  38.008  31.548  1.00  0.00    -0.744 OA
ENDBRANCH  69  70
ENDBRANCH  48  62
BRANCH  49  74
ATOM     74  C   UNL A   1      42.568  23.621  27.650  1.00  0.00     0.058 A 
ATOM     75  C   UNL A   1      42.383  22.514  28.491  1.00  0.00     0.135 A 
ATOM     76  C   UNL A   1      42.614  23.393  26.267  1.00  0.00     0.135 A 
ATOM     77  F   UNL A   1      42.340  22.679  29.822  1.00  0.00    -0.206 F 
ATOM     78  C   UNL A   1      42.275  21.224  27.982  1.00  0.00     0.059 A 
ATOM     79  C   UNL A   1      42.491  22.115  25.732  1.00  0.00     0.059 A 
ATOM     80  F   UNL A   1      42.778  24.426  25.424  1.00  0.00    -0.206 F 
ATOM     81  C   UNL A   1      42.340  21.034  26.600  1.00  0.00     0.060 A 
BRANCH  81  82
ATOM     82  S   UNL A   1      42.223  19.351  25.956  1.00  0.00     0.124 S 
ATOM     83  O   UNL A   1      42.752  18.576  27.075  1.00  0.00    -0.237 OA
ATOM     84  O   UNL A   1      40.792  19.214  25.708  1.00  0.00    -0.237 OA
ATOM     85  O   UNL A   1      43.064  19.387  24.764  1.00  0.00    -0.744 OA
ENDBRANCH  81  82
ENDBRANCH  49  74
BRANCH  61  86
ATOM     86  C   UNL A   1      48.076  27.137  30.113  1.00  0.00     0.058 A 
ATOM     87  C   UNL A   1      48.539  26.619  31.333  1.00  0.00     0.135 A 
ATOM     88  C   UNL A   1      49.019  27.406  29.110  1.00  0.00     0.135 A 
ATOM     89  F   UNL A   1      47.676  26.347  32.324  1.00  0.00    -0.206 F 
ATOM     90  C   UNL A   1      49.894  26.406  31.563  1.00  0.00     0.059 A 
ATOM     91  C   UNL A   1      50.378  27.183  29.311  1.00  0.00     0.059 A 
ATOM     92  F   UNL A   1      48.621  27.889  27.923  1.00  0.00    -0.206 F 
ATOM     93  C   UNL A   1      50.807  26.701  30.549  1.00  0.00     0.060 A 
BRANCH  93  94
ATOM     94  S   UNL A   1      52.564  26.439  30.867  1.00  0.00     0.124 S 
ATOM     95  O   UNL A   1      53.102  26.344  29.514  1.00  0.00    -0.237 OA
ATOM     96  O   UNL A   1      52.926  27.642  31.612  1.00  0.00    -0.237 OA
ATOM     97  O   UNL A   1      52.587  25.202  31.641  1.00  0.00    -0.744 OA
ENDBRANCH  93  94
ENDBRANCH  61  86
ENDBRANCH  35  36
ENDBRANCH  27  30
ENDBRANCH  25  26
ENDBRANCH   1  25
TORSDOF 16
ENDMDL
MODEL 2
REMARK VINA RESULT:     -11.7      2.787      3.593
REMARK SMILES Cc1cc(C)cc(-c2ccc([C@@H](C)C(=O)NCCCCNC(=O)c3ccc(-c4c5nc(c(-c6c(F)cc(S(=O)(=O)[O-])cc6F)c6ccc([nH]6)c(-c6c(F)cc(S(=O)(=O)[O-])cc6F)c6nc(c(-c7c(F)cc(S(=O)(=O)[O-])cc7F)c7ccc4[nH]7)C=C6)C=C5)cc3)cc2F)c1
REMARK SMILES IDX 19 1 18 2 17 3 16 4 14 5 15 6 12 8 13 9 11 10 8 11 9 12
REMARK SMILES IDX 91 13 10 14 90 15 92 16 7 17 1 18 2 19 3 20 93 21 4 22 5 23
REMARK SMILES IDX 6 24 20 25 21 26 22 27 23 29 24 30 25 31 89 32 26 33 88 34
REMARK SMILES IDX 27 35 28 36 29 37 82 38 30 39 87 40 81 41 83 42 31 43 86 44
REMARK SMILES IDX 80 45 79 46 32 48 66 49 45 50 65 51 46 52 49 53 64 54 84 55
REMARK SMILES IDX 47 56 48 57 63 59 85 60 50 61 33 62 34 63 43 64 35 65 36 66
REMARK SMILES IDX 42 67 44 68 37 69 38 70 39 71 40 72 41 73 67 74 68 75 77 76
REMARK SMILES IDX 69 77 70 78 76 79 78 80 71 81 72 82 73 83 74 84 75 85 51 86
REMARK SMILES IDX 52 87 61 88 53 89 54 90 60 91 62 92 55 93 56 94 57 95 58 96
REMARK SMILES IDX 59 97
REMARK H PARENT 16 7 21 28 83 47 49 58
REMARK Flexibility Score: inf
ROOT
ATOM      1  C   UNL A   1      34.615  28.910  26.949  1.00  0.00     0.023 C 
ENDROOT
BRANCH   1   2
ATOM      2  C   UNL A   1      33.142  29.252  27.169  1.00  0.00     0.023 C 
BRANCH   2   3
ATOM      3  C   UNL A   1      32.441  29.901  25.976  1.00  0.00     0.116 C 
BRANCH   3   4
ATOM      4  N   UNL A   1      31.566  28.979  25.282  1.00  0.00    -0.356 N 
ATOM      5  C   UNL A   1      31.810  28.065  24.303  1.00  0.00     0.227 C 
ATOM      6  O   UNL A   1      30.832  27.448  23.863  1.00  0.00    -0.274 OA
ATOM      7  H   UNL A   1      30.626  29.020  25.571  1.00  0.00     0.163 HD
BRANCH   5   8
ATOM      8  C   UNL A   1      33.211  27.766  23.744  1.00  0.00     0.105 C 
ATOM      9  C   UNL A   1      33.481  28.398  22.377  1.00  0.00     0.023 C 
BRANCH   8  10
ATOM     10  C   UNL A   1      33.630  26.315  23.910  1.00  0.00    -0.033 A 
ATOM     11  C   UNL A   1      34.242  23.547  24.341  1.00  0.00     0.017 A 
ATOM     12  C   UNL A   1      34.009  24.066  23.055  1.00  0.00     0.012 A 
ATOM     13  C   UNL A   1      34.201  24.469  25.397  1.00  0.00     0.131 A 
ATOM     14  C   UNL A   1      33.742  25.425  22.840  1.00  0.00     0.005 A 
ATOM     15  C   UNL A   1      33.883  25.816  25.196  1.00  0.00     0.044 A 
ATOM     16  F   UNL A   1      34.468  24.081  26.655  1.00  0.00    -0.206 F 
BRANCH  11  17
ATOM     17  C   UNL A   1      34.482  22.096  24.539  1.00  0.00    -0.015 A 
ATOM     18  C   UNL A   1      32.529  18.800  24.572  1.00  0.00     0.044 C 
ATOM     19  C   UNL A   1      33.664  19.780  24.619  1.00  0.00    -0.050 A 
ATOM     20  C   UNL A   1      34.973  19.320  24.793  1.00  0.00     0.006 A 
ATOM     21  C   UNL A   1      33.433  21.158  24.487  1.00  0.00     0.012 A 
ATOM     22  C   UNL A   1      36.041  20.219  24.843  1.00  0.00    -0.050 A 
ATOM     23  C   UNL A   1      37.443  19.712  25.001  1.00  0.00     0.044 C 
ATOM     24  C   UNL A   1      35.783  21.593  24.738  1.00  0.00     0.012 A 
ENDBRANCH  11  17
ENDBRANCH   8  10
ENDBRANCH   5   8
ENDBRANCH   3   4
ENDBRANCH   2   3
ENDBRANCH   1   2
BRANCH   1  25
ATOM     25  C   UNL A   1      35.614  29.814  27.666  1.00  0.00     0.116 C 
BRANCH  25  26
ATOM     26  N   UNL A   1      35.371  29.950  29.096  1.00  0.00    -0.352 N 
ATOM     27  C   UNL A   1      36.296  29.979  30.117  1.00  0.00     0.251 C 
ATOM     28  H   UNL A   1      34.428  30.032  29.367  1.00  0.00     0.163 HD
ATOM     29  O   UNL A   1      35.934  30.033  31.284  1.00  0.00    -0.269 OA
BRANCH  27  30
ATOM     30  C   UNL A   1      37.733  29.890  29.778  1.00  0.00     0.039 A 
ATOM     31  C   UNL A   1      38.649  29.614  30.796  1.00  0.00     0.014 A 
ATOM     32  C   UNL A   1      38.157  29.995  28.451  1.00  0.00     0.014 A 
ATOM     33  C   UNL A   1      39.980  29.345  30.469  1.00  0.00     0.010 A 
ATOM     34  C   UNL A   1      39.468  29.665  28.121  1.00  0.00     0.010 A 
ATOM     35  C   UNL A   1      40.386  29.318  29.124  1.00  0.00    -0.014 A 
BRANCH  35  36
ATOM     36  C   UNL A   1      41.751  28.885  28.736  1.00  0.00     0.031 A 
ATOM     37  C   UNL A   1      42.866  29.888  28.655  1.00  0.00     0.074 A 
ATOM     38  C   UNL A   1      41.962  27.606  28.365  1.00  0.00     0.049 A 
ATOM     39  N   UNL A   1      44.089  29.727  28.219  1.00  0.00    -0.248 NA
ATOM     40  C   UNL A   1      42.559  31.258  29.095  1.00  0.00     0.031 C 
ATOM     41  C   UNL A   1      40.946  26.550  28.352  1.00  0.00     0.029 A 
ATOM     42  N   UNL A   1      43.095  26.978  27.912  1.00  0.00    -0.354 N 
ATOM     43  C   UNL A   1      44.690  30.975  28.313  1.00  0.00     0.074 A 
ATOM     44  C   UNL A   1      43.688  31.893  28.811  1.00  0.00     0.031 C 
ATOM     45  C   UNL A   1      41.507  25.403  27.934  1.00  0.00     0.029 A 
ATOM     46  C   UNL A   1      42.909  25.648  27.611  1.00  0.00     0.049 A 
ATOM     47  H   UNL A   1      43.961  27.436  27.812  1.00  0.00     0.167 HD
ATOM     48  C   UNL A   1      45.968  31.319  28.029  1.00  0.00     0.037 A 
ATOM     49  C   UNL A   1      43.767  24.732  27.122  1.00  0.00     0.037 A 
ATOM     50  C   UNL A   1      46.972  30.394  27.576  1.00  0.00     0.049 A 
ATOM     51  C   UNL A   1      45.184  25.135  26.825  1.00  0.00     0.074 A 
ATOM     52  C   UNL A   1      48.313  30.634  27.330  1.00  0.00     0.029 A 
ATOM     53  N   UNL A   1      46.749  29.052  27.304  1.00  0.00    -0.354 N 
ATOM     54  N   UNL A   1      45.749  26.310  26.965  1.00  0.00    -0.248 NA
ATOM     55  C   UNL A   1      46.080  24.094  26.303  1.00  0.00     0.031 C 
ATOM     56  C   UNL A   1      48.894  29.444  26.882  1.00  0.00     0.029 A 
ATOM     57  C   UNL A   1      47.923  28.455  26.879  1.00  0.00     0.049 A 
ATOM     58  H   UNL A   1      45.883  28.593  27.400  1.00  0.00     0.167 HD
ATOM     59  C   UNL A   1      47.068  26.148  26.561  1.00  0.00     0.074 A 
ATOM     60  C   UNL A   1      47.222  24.759  26.181  1.00  0.00     0.031 C 
ATOM     61  C   UNL A   1      48.060  27.070  26.507  1.00  0.00     0.037 A 
BRANCH  48  62
ATOM     62  C   UNL A   1      46.363  32.755  28.219  1.00  0.00     0.058 A 
ATOM     63  C   UNL A   1      46.837  33.208  29.459  1.00  0.00     0.135 A 
ATOM     64  C   UNL A   1      46.221  33.694  27.186  1.00  0.00     0.135 A 
ATOM     65  F   UNL A   1      46.999  32.348  30.477  1.00  0.00    -0.206 F 
ATOM     66  C   UNL A   1      47.148  34.547  29.673  1.00  0.00     0.059 A 
ATOM     67  C   UNL A   1      46.546  35.035  27.371  1.00  0.00     0.059 A 
ATOM     68  F   UNL A   1      45.793  33.307  25.974  1.00  0.00    -0.206 F 
ATOM     69  C   UNL A   1      46.996  35.454  28.623  1.00  0.00     0.060 A 
BRANCH  69  70
ATOM     70  S   UNL A   1      47.441  37.181  28.900  1.00  0.00     0.124 S 
ATOM     71  O   UNL A   1      48.164  37.106  30.164  1.00  0.00    -0.237 OA
ATOM     72  O   UNL A   1      48.245  37.486  27.721  1.00  0.00    -0.237 OA
ATOM     73  O   UNL A   1      46.146  37.856  28.954  1.00  0.00    -0.744 OA
ENDBRANCH  69  70
ENDBRANCH  48  62
BRANCH  49  74
ATOM     74  C   UNL A   1      43.306  23.337  26.905  1.00  0.00     0.058 A 
ATOM     75  C   UNL A   1      43.109  22.456  27.978  1.00  0.00     0.135 A 
ATOM     76  C   UNL A   1      43.098  22.845  25.607  1.00  0.00     0.135 A 
ATOM     77  F   UNL A   1      43.304  22.876  29.238  1.00  0.00    -0.206 F 
ATOM     78  C   UNL A   1      42.745  21.129  27.773  1.00  0.00     0.059 A 
ATOM     79  C   UNL A   1      42.715  21.528  25.377  1.00  0.00     0.059 A 
ATOM     80  F   UNL A   1      43.263  23.657  24.550  1.00  0.00    -0.206 F 
ATOM     81  C   UNL A   1      42.559  20.672  26.467  1.00  0.00     0.060 A 
BRANCH  81  82
ATOM     82  S   UNL A   1      42.110  18.941  26.216  1.00  0.00     0.124 S 
ATOM     83  O   UNL A   1      40.732  19.064  25.752  1.00  0.00    -0.237 OA
ATOM     84  O   UNL A   1      43.081  18.512  25.216  1.00  0.00    -0.237 OA
ATOM     85  O   UNL A   1      42.277  18.354  27.542  1.00  0.00    -0.744 OA
ENDBRANCH  81  82
ENDBRANCH  49  74
BRANCH  61  86
ATOM     86  C   UNL A   1      49.409  26.617  26.029  1.00  0.00     0.058 A 
ATOM     87  C   UNL A   1      50.325  26.041  26.923  1.00  0.00     0.135 A 
ATOM     88  C   UNL A   1      49.828  26.847  24.710  1.00  0.00     0.135 A 
ATOM     89  F   UNL A   1      49.970  25.803  28.196  1.00  0.00    -0.206 F 
ATOM     90  C   UNL A   1      51.624  25.734  26.533  1.00  0.00     0.059 A 
ATOM     91  C   UNL A   1      51.118  26.530  24.293  1.00  0.00     0.059 A 
ATOM     92  F   UNL A   1      48.983  27.383  23.817  1.00  0.00    -0.206 F 
ATOM     93  C   UNL A   1      52.014  25.992  25.218  1.00  0.00     0.060 A 
BRANCH  93  94
ATOM     94  S   UNL A   1      53.709  25.607  24.730  1.00  0.00     0.124 S 
ATOM     95  O   UNL A   1      54.480  26.291  25.763  1.00  0.00    -0.237 OA
ATOM     96  O   UNL A   1      53.723  24.148  24.788  1.00  0.00    -0.237 OA
ATOM     97  O   UNL A   1      53.812  26.174  23.389  1.00  0.00    -0.744 OA
ENDBRANCH  93  94
ENDBRANCH  61  86
ENDBRANCH  35  36
ENDBRANCH  27  30
ENDBRANCH  25  26
ENDBRANCH   1  25
TORSDOF 16
ENDMDL
MODEL 3
REMARK VINA RESULT:     -11.6      2.516      3.499
REMARK SMILES Cc1cc(C)cc(-c2ccc([C@@H](C)C(=O)NCCCCNC(=O)c3ccc(-c4c5nc(c(-c6c(F)cc(S(=O)(=O)[O-])cc6F)c6ccc([nH]6)c(-c6c(F)cc(S(=O)(=O)[O-])cc6F)c6nc(c(-c7c(F)cc(S(=O)(=O)[O-])cc7F)c7ccc4[nH]7)C=C6)C=C5)cc3)cc2F)c1
REMARK SMILES IDX 19 1 18 2 17 3 16 4 14 5 15 6 12 8 13 9 11 10 8 11 9 12
REMARK SMILES IDX 91 13 10 14 90 15 92 16 7 17 1 18 2 19 3 20 93 21 4 22 5 23
REMARK SMILES IDX 6 24 20 25 21 26 22 27 23 29 24 30 25 31 89 32 26 33 88 34
REMARK SMILES IDX 27 35 28 36 29 37 82 38 30 39 87 40 81 41 83 42 31 43 86 44
REMARK SMILES IDX 80 45 79 46 32 48 66 49 45 50 65 51 46 52 49 53 64 54 84 55
REMARK SMILES IDX 47 56 48 57 63 59 85 60 50 61 33 62 34 63 43 64 35 65 36 66
REMARK SMILES IDX 42 67 44 68 37 69 38 70 39 71 40 72 41 73 67 74 68 75 77 76
REMARK SMILES IDX 69 77 70 78 76 79 78 80 71 81 72 82 73 83 74 84 75 85 51 86
REMARK SMILES IDX 52 87 61 88 53 89 54 90 60 91 62 92 55 93 56 94 57 95 58 96
REMARK SMILES IDX 59 97
REMARK H PARENT 16 7 21 28 83 47 49 58
REMARK Flexibility Score: inf
ROOT
ATOM      1  C   UNL A   1      34.089  28.958  27.582  1.00  0.00     0.023 C 
ENDROOT
BRANCH   1   2
ATOM      2  C   UNL A   1      33.569  28.635  26.183  1.00  0.00     0.023 C 
BRANCH   2   3
ATOM      3  C   UNL A   1      32.047  28.633  26.041  1.00  0.00     0.116 C 
BRANCH   3   4
ATOM      4  N   UNL A   1      31.621  28.785  24.665  1.00  0.00    -0.356 N 
ATOM      5  C   UNL A   1      31.170  27.879  23.754  1.00  0.00     0.227 C 
ATOM      6  O   UNL A   1      30.929  28.307  22.618  1.00  0.00    -0.274 OA
ATOM      7  H   UNL A   1      31.667  29.708  24.328  1.00  0.00     0.163 HD
BRANCH   5   8
ATOM      8  C   UNL A   1      30.941  26.392  24.069  1.00  0.00     0.105 C 
ATOM      9  C   UNL A   1      29.789  26.134  25.042  1.00  0.00     0.023 C 
BRANCH   8  10
ATOM     10  C   UNL A   1      32.227  25.624  24.330  1.00  0.00    -0.033 A 
ATOM     11  C   UNL A   1      34.532  23.998  24.844  1.00  0.00     0.017 A 
ATOM     12  C   UNL A   1      34.350  24.666  23.620  1.00  0.00     0.012 A 
ATOM     13  C   UNL A   1      33.542  24.206  25.815  1.00  0.00     0.131 A 
ATOM     14  C   UNL A   1      33.240  25.488  23.379  1.00  0.00     0.005 A 
ATOM     15  C   UNL A   1      32.406  24.982  25.563  1.00  0.00     0.044 A 
ATOM     16  F   UNL A   1      33.655  23.659  27.037  1.00  0.00    -0.206 F 
BRANCH  11  17
ATOM     17  C   UNL A   1      35.697  23.103  25.052  1.00  0.00    -0.015 A 
ATOM     18  C   UNL A   1      39.270  23.248  26.428  1.00  0.00     0.044 C 
ATOM     19  C   UNL A   1      37.988  22.720  25.853  1.00  0.00    -0.050 A 
ATOM     20  C   UNL A   1      37.866  21.357  25.562  1.00  0.00     0.006 A 
ATOM     21  C   UNL A   1      36.904  23.575  25.602  1.00  0.00     0.012 A 
ATOM     22  C   UNL A   1      36.681  20.850  25.022  1.00  0.00    -0.050 A 
ATOM     23  C   UNL A   1      36.551  19.383  24.742  1.00  0.00     0.044 C 
ATOM     24  C   UNL A   1      35.622  21.728  24.754  1.00  0.00     0.012 A 
ENDBRANCH  11  17
ENDBRANCH   8  10
ENDBRANCH   5   8
ENDBRANCH   3   4
ENDBRANCH   2   3
ENDBRANCH   1   2
BRANCH   1  25
ATOM     25  C   UNL A   1      35.168  30.035  27.650  1.00  0.00     0.116 C 
BRANCH  25  26
ATOM     26  N   UNL A   1      35.221  30.743  28.923  1.00  0.00    -0.352 N 
ATOM     27  C   UNL A   1      36.262  30.798  29.824  1.00  0.00     0.251 C 
ATOM     28  H   UNL A   1      34.410  31.246  29.170  1.00  0.00     0.163 HD
ATOM     29  O   UNL A   1      36.133  31.384  30.890  1.00  0.00    -0.269 OA
BRANCH  27  30
ATOM     30  C   UNL A   1      37.519  30.089  29.502  1.00  0.00     0.039 A 
ATOM     31  C   UNL A   1      37.929  30.018  28.168  1.00  0.00     0.014 A 
ATOM     32  C   UNL A   1      38.325  29.575  30.521  1.00  0.00     0.014 A 
ATOM     33  C   UNL A   1      39.198  29.517  27.866  1.00  0.00     0.010 A 
ATOM     34  C   UNL A   1      39.611  29.136  30.223  1.00  0.00     0.010 A 
ATOM     35  C   UNL A   1      40.067  29.122  28.896  1.00  0.00    -0.014 A 
BRANCH  35  36
ATOM     36  C   UNL A   1      41.472  28.733  28.618  1.00  0.00     0.031 A 
ATOM     37  C   UNL A   1      42.558  29.771  28.631  1.00  0.00     0.074 A 
ATOM     38  C   UNL A   1      41.752  27.463  28.263  1.00  0.00     0.049 A 
ATOM     39  N   UNL A   1      43.816  29.650  28.296  1.00  0.00    -0.248 NA
ATOM     40  C   UNL A   1      42.174  31.128  29.047  1.00  0.00     0.031 C 
ATOM     41  C   UNL A   1      40.774  26.376  28.165  1.00  0.00     0.029 A 
ATOM     42  N   UNL A   1      42.937  26.872  27.903  1.00  0.00    -0.354 N 
ATOM     43  C   UNL A   1      44.368  30.915  28.441  1.00  0.00     0.074 A 
ATOM     44  C   UNL A   1      43.301  31.799  28.858  1.00  0.00     0.031 C 
ATOM     45  C   UNL A   1      41.402  25.249  27.792  1.00  0.00     0.029 A 
ATOM     46  C   UNL A   1      42.817  25.539  27.585  1.00  0.00     0.049 A 
ATOM     47  H   UNL A   1      43.794  27.358  27.874  1.00  0.00     0.167 HD
ATOM     48  C   UNL A   1      45.654  31.300  28.262  1.00  0.00     0.037 A 
ATOM     49  C   UNL A   1      43.740  24.652  27.164  1.00  0.00     0.037 A 
ATOM     50  C   UNL A   1      46.720  30.409  27.890  1.00  0.00     0.049 A 
ATOM     51  C   UNL A   1      45.164  25.100  26.984  1.00  0.00     0.074 A 
ATOM     52  C   UNL A   1      48.068  30.691  27.754  1.00  0.00     0.029 A 
ATOM     53  N   UNL A   1      46.561  29.062  27.597  1.00  0.00    -0.354 N 
ATOM     54  N   UNL A   1      45.679  26.292  27.173  1.00  0.00    -0.248 NA
ATOM     55  C   UNL A   1      46.132  24.090  26.535  1.00  0.00     0.031 C 
ATOM     56  C   UNL A   1      48.721  29.522  27.352  1.00  0.00     0.029 A 
ATOM     57  C   UNL A   1      47.784  28.503  27.268  1.00  0.00     0.049 A 
ATOM     58  H   UNL A   1      45.706  28.575  27.622  1.00  0.00     0.167 HD
ATOM     59  C   UNL A   1      47.030  26.172  26.876  1.00  0.00     0.074 A 
ATOM     60  C   UNL A   1      47.258  24.790  26.507  1.00  0.00     0.031 C 
ATOM     61  C   UNL A   1      47.994  27.125  26.906  1.00  0.00     0.037 A 
BRANCH  48  62
ATOM     62  C   UNL A   1      45.988  32.746  28.487  1.00  0.00     0.058 A 
ATOM     63  C   UNL A   1      45.893  33.673  27.438  1.00  0.00     0.135 A 
ATOM     64  C   UNL A   1      46.453  33.204  29.730  1.00  0.00     0.135 A 
ATOM     65  F   UNL A   1      45.446  33.288  26.233  1.00  0.00    -0.206 F 
ATOM     66  C   UNL A   1      46.259  35.004  27.611  1.00  0.00     0.059 A 
ATOM     67  C   UNL A   1      46.804  34.536  29.931  1.00  0.00     0.059 A 
ATOM     68  F   UNL A   1      46.540  32.361  30.771  1.00  0.00    -0.206 F 
ATOM     69  C   UNL A   1      46.716  35.426  28.861  1.00  0.00     0.060 A 
BRANCH  69  70
ATOM     70  S   UNL A   1      47.150  37.164  29.083  1.00  0.00     0.124 S 
ATOM     71  O   UNL A   1      46.043  37.647  29.900  1.00  0.00    -0.237 OA
ATOM     72  O   UNL A   1      48.445  37.076  29.750  1.00  0.00    -0.237 OA
ATOM     73  O   UNL A   1      47.195  37.675  27.716  1.00  0.00    -0.744 OA
ENDBRANCH  69  70
ENDBRANCH  48  62
BRANCH  49  74
ATOM     74  C   UNL A   1      43.343  23.244  26.907  1.00  0.00     0.058 A 
ATOM     75  C   UNL A   1      43.089  22.352  27.959  1.00  0.00     0.135 A 
ATOM     76  C   UNL A   1      43.253  22.754  25.596  1.00  0.00     0.135 A 
ATOM     77  F   UNL A   1      43.171  22.771  29.231  1.00  0.00    -0.206 F 
ATOM     78  C   UNL A   1      42.784  21.016  27.722  1.00  0.00     0.059 A 
ATOM     79  C   UNL A   1      42.933  21.426  25.332  1.00  0.00     0.059 A 
ATOM     80  F   UNL A   1      43.477  23.575  24.558  1.00  0.00    -0.206 F 
ATOM     81  C   UNL A   1      42.717  20.560  26.405  1.00  0.00     0.060 A 
BRANCH  81  82
ATOM     82  S   UNL A   1      42.345  18.817  26.114  1.00  0.00     0.124 S 
ATOM     83  O   UNL A   1      43.317  18.483  25.078  1.00  0.00    -0.237 OA
ATOM     84  O   UNL A   1      42.586  18.227  27.426  1.00  0.00    -0.237 OA
ATOM     85  O   UNL A   1      40.950  18.837  25.684  1.00  0.00    -0.744 OA
ENDBRANCH  81  82
ENDBRANCH  49  74
BRANCH  61  86
ATOM     86  C   UNL A   1      49.391  26.716  26.538  1.00  0.00     0.058 A 
ATOM     87  C   UNL A   1      49.852  26.863  25.220  1.00  0.00     0.135 A 
ATOM     88  C   UNL A   1      50.233  26.085  27.465  1.00  0.00     0.135 A 
ATOM     89  F   UNL A   1      49.082  27.459  24.296  1.00  0.00    -0.206 F 
ATOM     90  C   UNL A   1      51.092  26.373  24.827  1.00  0.00     0.059 A 
ATOM     91  C   UNL A   1      51.486  25.603  27.099  1.00  0.00     0.059 A 
ATOM     92  F   UNL A   1      49.839  25.933  28.739  1.00  0.00    -0.206 F 
ATOM     93  C   UNL A   1      51.898  25.735  25.772  1.00  0.00     0.060 A 
BRANCH  93  94
ATOM     94  S   UNL A   1      53.497  25.086  25.243  1.00  0.00     0.124 S 
ATOM     95  O   UNL A   1      53.606  25.622  23.891  1.00  0.00    -0.237 OA
ATOM     96  O   UNL A   1      54.407  25.664  26.230  1.00  0.00    -0.237 OA
ATOM     97  O   UNL A   1      53.323  23.640  25.335  1.00  0.00    -0.744 OA
ENDBRANCH  93  94
ENDBRANCH  61  86
ENDBRANCH  35  36
ENDBRANCH  27  30
ENDBRANCH  25  26
ENDBRANCH   1  25
TORSDOF 16
ENDMDL
