MODEL 1
REMARK VINA RESULT:     -12.8      0.000      0.000
REMARK SMILES Cc1ccc(C(C)C)c(OCC(=O)Nc2nc(CC(=O)NCCCCNC(=O)c3ccc(-c4c5nc(c(-c6c(F)cc(S(=O)(=O)[O-])cc6F)c6ccc([nH]6)c(-c6c(F)cc(S(=O)(=O)[O-])cc6F)c6nc(c(-c7c(F)cc(S(=O)(=O)[O-])cc7F)c7ccc4[nH]7)C=C6)C=C5)cc3)cs2)c1
REMARK SMILES IDX 22 1 21 2 19 3 20 4 18 6 17 7 15 8 16 9 96 10 95 11 14 12
REMARK SMILES IDX 12 13 13 14 11 16 10 17 9 18 1 19 2 20 3 21 97 22 4 23 5 24
REMARK SMILES IDX 6 25 7 26 8 27 23 28 24 29 25 30 26 31 27 32 28 34 29 35
REMARK SMILES IDX 30 36 94 37 31 38 93 39 32 40 33 41 34 42 87 43 35 44 92 45
REMARK SMILES IDX 86 46 88 47 36 48 91 49 85 50 84 51 37 53 71 54 50 55 70 56
REMARK SMILES IDX 51 57 54 58 69 59 89 60 52 61 53 62 68 64 90 65 55 66 38 67
REMARK SMILES IDX 39 68 48 69 40 70 41 71 47 72 49 73 42 74 43 75 44 76 45 77
REMARK SMILES IDX 46 78 72 79 73 80 82 81 74 82 75 83 81 84 83 85 76 86 77 87
REMARK SMILES IDX 78 88 79 89 80 90 56 91 57 92 66 93 58 94 59 95 65 96 67 97
REMARK SMILES IDX 60 98 61 99 62 100 63 101 64 102
REMARK H PARENT 21 5 14 15 26 33 88 52 54 63
REMARK Flexibility Score: inf
ROOT
ATOM      1  C   UNL A   1      35.685  20.806  25.097  1.00  0.00     0.116 C 
ENDROOT
BRANCH   1   2
ATOM      2  N   UNL A   1      35.030  21.413  26.249  1.00  0.00    -0.356 N 
ATOM      3  C   UNL A   1      33.700  21.510  26.550  1.00  0.00     0.226 C 
ATOM      4  O   UNL A   1      33.375  22.044  27.614  1.00  0.00    -0.275 OA
ATOM      5  H   UNL A   1      35.638  21.813  26.912  1.00  0.00     0.163 HD
BRANCH   3   6
ATOM      6  C   UNL A   1      32.646  20.964  25.605  1.00  0.00     0.157 C 
BRANCH   6   7
ATOM      7  C   UNL A   1      32.063  22.025  24.735  1.00  0.00     0.063 A 
ATOM      8  C   UNL A   1      32.153  23.283  22.934  1.00  0.00     0.189 A 
ATOM      9  N   UNL A   1      32.576  22.167  23.457  1.00  0.00    -0.224 NA
ATOM     10  S   UNL A   1      30.961  24.125  23.815  1.00  0.00    -0.105 S 
ATOM     11  C   UNL A   1      31.082  22.946  25.060  1.00  0.00     0.093 A 
BRANCH   8  12
ATOM     12  N   UNL A   1      32.540  23.880  21.776  1.00  0.00    -0.299 N 
ATOM     13  C   UNL A   1      32.978  25.163  21.640  1.00  0.00     0.264 C 
ATOM     14  O   UNL A   1      33.253  25.557  20.499  1.00  0.00    -0.271 OA
ATOM     15  H   UNL A   1      32.500  23.334  20.958  1.00  0.00     0.172 HD
BRANCH  13  16
ATOM     16  C   UNL A   1      33.256  26.056  22.861  1.00  0.00     0.329 C 
BRANCH  16  17
ATOM     17  O   UNL A   1      32.858  27.411  22.793  1.00  0.00    -0.483 OA
BRANCH  17  18
ATOM     18  C   UNL A   1      32.693  28.112  23.955  1.00  0.00     0.123 A 
ATOM     19  C   UNL A   1      34.585  29.216  27.071  1.00  0.00     0.044 C 
ATOM     20  C   UNL A   1      33.476  28.982  26.091  1.00  0.00    -0.047 A 
ATOM     21  C   UNL A   1      32.242  29.604  26.272  1.00  0.00     0.004 A 
ATOM     22  C   UNL A   1      33.689  28.228  24.934  1.00  0.00     0.050 A 
ATOM     23  C   UNL A   1      31.256  29.525  25.292  1.00  0.00     0.008 A 
ATOM     24  C   UNL A   1      31.466  28.789  24.116  1.00  0.00    -0.003 A 
BRANCH  24  25
ATOM     25  C   UNL A   1      30.397  28.788  23.029  1.00  0.00     0.017 C 
ATOM     26  C   UNL A   1      29.445  27.594  23.144  1.00  0.00     0.012 C 
ATOM     27  C   UNL A   1      29.603  30.099  23.050  1.00  0.00     0.012 C 
ENDBRANCH  24  25
ENDBRANCH  17  18
ENDBRANCH  16  17
ENDBRANCH  13  16
ENDBRANCH   8  12
ENDBRANCH   6   7
ENDBRANCH   3   6
ENDBRANCH   1   2
BRANCH   1  28
ATOM     28  C   UNL A   1      36.802  21.666  24.485  1.00  0.00     0.023 C 
BRANCH  28  29
ATOM     29  C   UNL A   1      38.131  21.700  25.244  1.00  0.00     0.023 C 
BRANCH  29  30
ATOM     30  C   UNL A   1      38.309  22.896  26.160  1.00  0.00     0.116 C 
BRANCH  30  31
ATOM     31  N   UNL A   1      39.410  22.835  27.108  1.00  0.00    -0.352 N 
ATOM     32  C   UNL A   1      40.513  23.670  26.904  1.00  0.00     0.251 C 
ATOM     33  H   UNL A   1      39.379  22.221  27.876  1.00  0.00     0.163 HD
ATOM     34  O   UNL A   1      41.592  23.307  26.475  1.00  0.00    -0.269 OA
BRANCH  32  35
ATOM     35  C   UNL A   1      40.213  25.107  27.120  1.00  0.00     0.039 A 
ATOM     36  C   UNL A   1      40.760  26.094  26.299  1.00  0.00     0.014 A 
ATOM     37  C   UNL A   1      39.549  25.444  28.299  1.00  0.00     0.014 A 
ATOM     38  C   UNL A   1      40.770  27.417  26.749  1.00  0.00     0.010 A 
ATOM     39  C   UNL A   1      39.670  26.719  28.794  1.00  0.00     0.010 A 
ATOM     40  C   UNL A   1      40.305  27.705  28.033  1.00  0.00    -0.014 A 
BRANCH  40  41
ATOM     41  C   UNL A   1      40.462  28.981  28.720  1.00  0.00     0.031 A 
ATOM     42  C   UNL A   1      39.352  29.963  28.723  1.00  0.00     0.074 A 
ATOM     43  C   UNL A   1      41.527  29.159  29.532  1.00  0.00     0.049 A 
ATOM     44  N   UNL A   1      39.469  31.198  29.078  1.00  0.00    -0.248 NA
ATOM     45  C   UNL A   1      37.998  29.619  28.297  1.00  0.00     0.031 C 
ATOM     46  C   UNL A   1      41.662  30.133  30.612  1.00  0.00     0.029 A 
ATOM     47  N   UNL A   1      42.804  28.606  29.403  1.00  0.00    -0.354 N 
ATOM     48  C   UNL A   1      38.203  31.729  29.190  1.00  0.00     0.074 A 
ATOM     49  C   UNL A   1      37.324  30.717  28.651  1.00  0.00     0.031 C 
ATOM     50  C   UNL A   1      42.965  30.308  30.879  1.00  0.00     0.029 A 
ATOM     51  C   UNL A   1      43.709  29.580  29.864  1.00  0.00     0.049 A 
ATOM     52  H   UNL A   1      43.026  27.711  29.058  1.00  0.00     0.167 HD
ATOM     53  C   UNL A   1      38.025  32.913  29.844  1.00  0.00     0.037 A 
ATOM     54  C   UNL A   1      44.613  30.157  29.017  1.00  0.00     0.037 A 
ATOM     55  C   UNL A   1      39.305  33.465  30.282  1.00  0.00     0.049 A 
ATOM     56  C   UNL A   1      44.478  31.651  28.899  1.00  0.00     0.074 A 
ATOM     57  C   UNL A   1      39.977  33.415  31.494  1.00  0.00     0.029 A 
ATOM     58  N   UNL A   1      40.225  33.912  29.341  1.00  0.00    -0.354 N 
ATOM     59  N   UNL A   1      43.380  32.307  29.157  1.00  0.00    -0.248 NA
ATOM     60  C   UNL A   1      45.576  32.528  28.507  1.00  0.00     0.031 C 
ATOM     61  C   UNL A   1      41.321  33.794  31.269  1.00  0.00     0.029 A 
ATOM     62  C   UNL A   1      41.466  34.089  29.923  1.00  0.00     0.049 A 
ATOM     63  H   UNL A   1      40.021  34.079  28.392  1.00  0.00     0.167 HD
ATOM     64  C   UNL A   1      43.594  33.650  28.969  1.00  0.00     0.074 A 
ATOM     65  C   UNL A   1      44.991  33.735  28.584  1.00  0.00     0.031 C 
ATOM     66  C   UNL A   1      42.602  34.573  29.151  1.00  0.00     0.037 A 
BRANCH  53  67
ATOM     67  C   UNL A   1      36.680  33.412  30.336  1.00  0.00     0.058 A 
ATOM     68  C   UNL A   1      35.732  33.951  29.436  1.00  0.00     0.135 A 
ATOM     69  C   UNL A   1      36.280  33.434  31.686  1.00  0.00     0.135 A 
ATOM     70  F   UNL A   1      35.921  33.914  28.111  1.00  0.00    -0.206 F 
ATOM     71  C   UNL A   1      34.550  34.567  29.850  1.00  0.00     0.059 A 
ATOM     72  C   UNL A   1      35.128  34.094  32.133  1.00  0.00     0.059 A 
ATOM     73  F   UNL A   1      36.971  32.772  32.625  1.00  0.00    -0.206 F 
ATOM     74  C   UNL A   1      34.272  34.671  31.205  1.00  0.00     0.060 A 
BRANCH  74  75
ATOM     75  S   UNL A   1      32.791  35.559  31.722  1.00  0.00     0.124 S 
ATOM     76  O   UNL A   1      32.367  34.798  32.893  1.00  0.00    -0.237 OA
ATOM     77  O   UNL A   1      33.314  36.894  31.988  1.00  0.00    -0.237 OA
ATOM     78  O   UNL A   1      31.908  35.450  30.563  1.00  0.00    -0.744 OA
ENDBRANCH  74  75
ENDBRANCH  53  67
BRANCH  54  79
ATOM     79  C   UNL A   1      45.115  29.226  27.966  1.00  0.00     0.058 A 
ATOM     80  C   UNL A   1      46.128  28.339  28.359  1.00  0.00     0.135 A 
ATOM     81  C   UNL A   1      44.312  28.846  26.884  1.00  0.00     0.135 A 
ATOM     82  F   UNL A   1      46.981  28.713  29.321  1.00  0.00    -0.206 F 
ATOM     83  C   UNL A   1      46.184  27.030  27.891  1.00  0.00     0.059 A 
ATOM     84  C   UNL A   1      44.375  27.549  26.366  1.00  0.00     0.059 A 
ATOM     85  F   UNL A   1      43.348  29.663  26.435  1.00  0.00    -0.206 F 
ATOM     86  C   UNL A   1      45.235  26.621  26.959  1.00  0.00     0.060 A 
BRANCH  86  87
ATOM     87  S   UNL A   1      45.035  24.848  26.646  1.00  0.00     0.124 S 
ATOM     88  O   UNL A   1      44.360  24.392  27.856  1.00  0.00    -0.237 OA
ATOM     89  O   UNL A   1      44.224  24.842  25.425  1.00  0.00    -0.237 OA
ATOM     90  O   UNL A   1      46.407  24.385  26.482  1.00  0.00    -0.744 OA
ENDBRANCH  86  87
ENDBRANCH  54  79
BRANCH  66  91
ATOM     91  C   UNL A   1      42.628  36.029  28.729  1.00  0.00     0.058 A 
ATOM     92  C   UNL A   1      43.371  37.030  29.379  1.00  0.00     0.135 A 
ATOM     93  C   UNL A   1      41.994  36.441  27.527  1.00  0.00     0.135 A 
ATOM     94  F   UNL A   1      44.120  36.761  30.456  1.00  0.00    -0.206 F 
ATOM     95  C   UNL A   1      43.428  38.347  28.916  1.00  0.00     0.059 A 
ATOM     96  C   UNL A   1      42.088  37.733  27.015  1.00  0.00     0.059 A 
ATOM     97  F   UNL A   1      41.272  35.589  26.783  1.00  0.00    -0.206 F 
ATOM     98  C   UNL A   1      42.788  38.690  27.731  1.00  0.00     0.060 A 
BRANCH  98  99
ATOM     99  S   UNL A   1      42.941  40.365  27.084  1.00  0.00     0.124 S 
ATOM    100  O   UNL A   1      41.543  40.776  27.007  1.00  0.00    -0.237 OA
ATOM    101  O   UNL A   1      43.739  41.034  28.108  1.00  0.00    -0.237 OA
ATOM    102  O   UNL A   1      43.616  40.167  25.806  1.00  0.00    -0.744 OA
ENDBRANCH  98  99
ENDBRANCH  66  91
ENDBRANCH  40  41
ENDBRANCH  32  35
ENDBRANCH  30  31
ENDBRANCH  29  30
ENDBRANCH  28  29
ENDBRANCH   1  28
TORSDOF 20
ENDMDL
MODEL 2
REMARK VINA RESULT:     -12.2      1.218      2.149
REMARK SMILES Cc1ccc(C(C)C)c(OCC(=O)Nc2nc(CC(=O)NCCCCNC(=O)c3ccc(-c4c5nc(c(-c6c(F)cc(S(=O)(=O)[O-])cc6F)c6ccc([nH]6)c(-c6c(F)cc(S(=O)(=O)[O-])cc6F)c6nc(c(-c7c(F)cc(S(=O)(=O)[O-])cc7F)c7ccc4[nH]7)C=C6)C=C5)cc3)cs2)c1
REMARK SMILES IDX 22 1 21 2 19 3 20 4 18 6 17 7 15 8 16 9 96 10 95 11 14 12
REMARK SMILES IDX 12 13 13 14 11 16 10 17 9 18 1 19 2 20 3 21 97 22 4 23 5 24
REMARK SMILES IDX 6 25 7 26 8 27 23 28 24 29 25 30 26 31 27 32 28 34 29 35
REMARK SMILES IDX 30 36 94 37 31 38 93 39 32 40 33 41 34 42 87 43 35 44 92 45
REMARK SMILES IDX 86 46 88 47 36 48 91 49 85 50 84 51 37 53 71 54 50 55 70 56
REMARK SMILES IDX 51 57 54 58 69 59 89 60 52 61 53 62 68 64 90 65 55 66 38 67
REMARK SMILES IDX 39 68 48 69 40 70 41 71 47 72 49 73 42 74 43 75 44 76 45 77
REMARK SMILES IDX 46 78 72 79 73 80 82 81 74 82 75 83 81 84 83 85 76 86 77 87
REMARK SMILES IDX 78 88 79 89 80 90 56 91 57 92 66 93 58 94 59 95 65 96 67 97
REMARK SMILES IDX 60 98 61 99 62 100 63 101 64 102
REMARK H PARENT 21 5 14 15 26 33 88 52 54 63
REMARK Flexibility Score: inf
ROOT
ATOM      1  C   UNL A   1      37.043  20.606  25.376  1.00  0.00     0.116 C 
ENDROOT
BRANCH   1   2
ATOM      2  N   UNL A   1      36.371  21.676  26.104  1.00  0.00    -0.356 N 
ATOM      3  C   UNL A   1      35.051  21.816  26.432  1.00  0.00     0.226 C 
ATOM      4  O   UNL A   1      34.711  22.802  27.092  1.00  0.00    -0.275 OA
ATOM      5  H   UNL A   1      36.956  22.407  26.406  1.00  0.00     0.163 HD
BRANCH   3   6
ATOM      6  C   UNL A   1      34.028  20.780  26.005  1.00  0.00     0.157 C 
BRANCH   6   7
ATOM      7  C   UNL A   1      33.438  21.085  24.671  1.00  0.00     0.063 A 
ATOM      8  C   UNL A   1      32.821  22.537  23.141  1.00  0.00     0.189 A 
ATOM      9  N   UNL A   1      33.603  22.363  24.168  1.00  0.00    -0.224 NA
ATOM     10  S   UNL A   1      32.007  21.153  22.568  1.00  0.00    -0.105 S 
ATOM     11  C   UNL A   1      32.684  20.249  23.865  1.00  0.00     0.093 A 
BRANCH   8  12
ATOM     12  N   UNL A   1      32.552  23.683  22.460  1.00  0.00    -0.299 N 
ATOM     13  C   UNL A   1      31.839  24.747  22.926  1.00  0.00     0.264 C 
ATOM     14  O   UNL A   1      31.655  25.696  22.153  1.00  0.00    -0.271 OA
ATOM     15  H   UNL A   1      32.905  23.751  21.544  1.00  0.00     0.172 HD
BRANCH  13  16
ATOM     16  C   UNL A   1      31.390  24.839  24.394  1.00  0.00     0.329 C 
BRANCH  16  17
ATOM     17  O   UNL A   1      30.255  25.629  24.690  1.00  0.00    -0.483 OA
BRANCH  17  18
ATOM     18  C   UNL A   1      30.265  26.954  24.352  1.00  0.00     0.123 A 
ATOM     19  C   UNL A   1      28.437  29.499  22.187  1.00  0.00     0.044 C 
ATOM     20  C   UNL A   1      29.443  28.880  23.110  1.00  0.00    -0.047 A 
ATOM     21  C   UNL A   1      30.362  29.685  23.780  1.00  0.00     0.004 A 
ATOM     22  C   UNL A   1      29.409  27.513  23.395  1.00  0.00     0.050 A 
ATOM     23  C   UNL A   1      31.195  29.150  24.759  1.00  0.00     0.008 A 
ATOM     24  C   UNL A   1      31.155  27.782  25.069  1.00  0.00    -0.003 A 
BRANCH  24  25
ATOM     25  C   UNL A   1      32.025  27.242  26.199  1.00  0.00     0.017 C 
ATOM     26  C   UNL A   1      33.520  27.333  25.884  1.00  0.00     0.012 C 
ATOM     27  C   UNL A   1      31.718  27.969  27.513  1.00  0.00     0.012 C 
ENDBRANCH  24  25
ENDBRANCH  17  18
ENDBRANCH  16  17
ENDBRANCH  13  16
ENDBRANCH   8  12
ENDBRANCH   6   7
ENDBRANCH   3   6
ENDBRANCH   1   2
BRANCH   1  28
ATOM     28  C   UNL A   1      38.556  20.817  25.206  1.00  0.00     0.023 C 
BRANCH  28  29
ATOM     29  C   UNL A   1      39.372  20.972  26.492  1.00  0.00     0.023 C 
BRANCH  29  30
ATOM     30  C   UNL A   1      39.861  22.381  26.768  1.00  0.00     0.116 C 
BRANCH  30  31
ATOM     31  N   UNL A   1      39.412  23.419  25.853  1.00  0.00    -0.352 N 
ATOM     32  C   UNL A   1      38.564  24.418  26.340  1.00  0.00     0.251 C 
ATOM     33  H   UNL A   1      39.701  23.419  24.912  1.00  0.00     0.163 HD
ATOM     34  O   UNL A   1      37.369  24.484  26.123  1.00  0.00    -0.269 OA
BRANCH  32  35
ATOM     35  C   UNL A   1      39.225  25.341  27.295  1.00  0.00     0.039 A 
ATOM     36  C   UNL A   1      38.872  25.366  28.644  1.00  0.00     0.014 A 
ATOM     37  C   UNL A   1      40.050  26.327  26.752  1.00  0.00     0.014 A 
ATOM     38  C   UNL A   1      39.227  26.477  29.414  1.00  0.00     0.010 A 
ATOM     39  C   UNL A   1      40.289  27.470  27.474  1.00  0.00     0.010 A 
ATOM     40  C   UNL A   1      39.855  27.561  28.800  1.00  0.00    -0.014 A 
BRANCH  40  41
ATOM     41  C   UNL A   1      40.077  28.865  29.412  1.00  0.00     0.031 A 
ATOM     42  C   UNL A   1      39.025  29.906  29.341  1.00  0.00     0.074 A 
ATOM     43  C   UNL A   1      41.141  29.031  30.228  1.00  0.00     0.049 A 
ATOM     44  N   UNL A   1      39.208  31.152  29.624  1.00  0.00    -0.248 NA
ATOM     45  C   UNL A   1      37.659  29.614  28.916  1.00  0.00     0.031 C 
ATOM     46  C   UNL A   1      41.319  30.060  31.250  1.00  0.00     0.029 A 
ATOM     47  N   UNL A   1      42.385  28.400  30.152  1.00  0.00    -0.354 N 
ATOM     48  C   UNL A   1      37.973  31.759  29.685  1.00  0.00     0.074 A 
ATOM     49  C   UNL A   1      37.044  30.767  29.194  1.00  0.00     0.031 C 
ATOM     50  C   UNL A   1      42.627  30.177  31.525  1.00  0.00     0.029 A 
ATOM     51  C   UNL A   1      43.339  29.348  30.567  1.00  0.00     0.049 A 
ATOM     52  H   UNL A   1      42.560  27.476  29.863  1.00  0.00     0.167 HD
ATOM     53  C   UNL A   1      37.856  32.988  30.265  1.00  0.00     0.037 A 
ATOM     54  C   UNL A   1      44.285  29.821  29.701  1.00  0.00     0.037 A 
ATOM     55  C   UNL A   1      39.160  33.493  30.689  1.00  0.00     0.049 A 
ATOM     56  C   UNL A   1      44.237  31.311  29.492  1.00  0.00     0.074 A 
ATOM     57  C   UNL A   1      39.814  33.478  31.911  1.00  0.00     0.029 A 
ATOM     58  N   UNL A   1      40.114  33.830  29.735  1.00  0.00    -0.354 N 
ATOM     59  N   UNL A   1      43.175  32.042  29.695  1.00  0.00    -0.248 NA
ATOM     60  C   UNL A   1      45.387  32.099  29.065  1.00  0.00     0.031 C 
ATOM     61  C   UNL A   1      41.180  33.767  31.683  1.00  0.00     0.029 A 
ATOM     62  C   UNL A   1      41.356  33.971  30.325  1.00  0.00     0.049 A 
ATOM     63  H   UNL A   1      39.931  33.951  28.776  1.00  0.00     0.167 HD
ATOM     64  C   UNL A   1      43.467  33.357  29.430  1.00  0.00     0.074 A 
ATOM     65  C   UNL A   1      44.871  33.340  29.061  1.00  0.00     0.031 C 
ATOM     66  C   UNL A   1      42.527  34.343  29.542  1.00  0.00     0.037 A 
BRANCH  53  67
ATOM     67  C   UNL A   1      36.535  33.591  30.707  1.00  0.00     0.058 A 
ATOM     68  C   UNL A   1      35.606  34.076  29.758  1.00  0.00     0.135 A 
ATOM     69  C   UNL A   1      36.145  33.766  32.048  1.00  0.00     0.135 A 
ATOM     70  F   UNL A   1      35.784  33.896  28.443  1.00  0.00    -0.206 F 
ATOM     71  C   UNL A   1      34.453  34.780  30.110  1.00  0.00     0.059 A 
ATOM     72  C   UNL A   1      35.025  34.516  32.428  1.00  0.00     0.059 A 
ATOM     73  F   UNL A   1      36.814  33.174  33.048  1.00  0.00    -0.206 F 
ATOM     74  C   UNL A   1      34.188  35.032  31.448  1.00  0.00     0.060 A 
BRANCH  74  75
ATOM     75  S   UNL A   1      32.749  36.029  31.875  1.00  0.00     0.124 S 
ATOM     76  O   UNL A   1      33.306  36.985  32.828  1.00  0.00    -0.237 OA
ATOM     77  O   UNL A   1      32.362  36.576  30.579  1.00  0.00    -0.237 OA
ATOM     78  O   UNL A   1      31.820  35.058  32.448  1.00  0.00    -0.744 OA
ENDBRANCH  74  75
ENDBRANCH  53  67
BRANCH  54  79
ATOM     79  C   UNL A   1      44.744  28.802  28.715  1.00  0.00     0.058 A 
ATOM     80  C   UNL A   1      45.629  27.828  29.200  1.00  0.00     0.135 A 
ATOM     81  C   UNL A   1      43.972  28.468  27.596  1.00  0.00     0.135 A 
ATOM     82  F   UNL A   1      46.459  28.146  30.202  1.00  0.00    -0.206 F 
ATOM     83  C   UNL A   1      45.570  26.503  28.779  1.00  0.00     0.059 A 
ATOM     84  C   UNL A   1      43.924  27.152  27.125  1.00  0.00     0.059 A 
ATOM     85  F   UNL A   1      43.131  29.365  27.061  1.00  0.00    -0.206 F 
ATOM     86  C   UNL A   1      44.640  26.162  27.802  1.00  0.00     0.060 A 
BRANCH  86  87
ATOM     87  S   UNL A   1      44.268  24.410  27.534  1.00  0.00     0.124 S 
ATOM     88  O   UNL A   1      42.816  24.375  27.664  1.00  0.00    -0.237 OA
ATOM     89  O   UNL A   1      44.789  24.188  26.182  1.00  0.00    -0.237 OA
ATOM     90  O   UNL A   1      45.008  23.748  28.601  1.00  0.00    -0.744 OA
ENDBRANCH  86  87
ENDBRANCH  54  79
BRANCH  66  91
ATOM     91  C   UNL A   1      42.641  35.768  29.035  1.00  0.00     0.058 A 
ATOM     92  C   UNL A   1      41.959  36.267  27.911  1.00  0.00     0.135 A 
ATOM     93  C   UNL A   1      43.354  36.742  29.782  1.00  0.00     0.135 A 
ATOM     94  F   UNL A   1      41.148  35.491  27.180  1.00  0.00    -0.206 F 
ATOM     95  C   UNL A   1      42.032  37.605  27.518  1.00  0.00     0.059 A 
ATOM     96  C   UNL A   1      43.389  38.093  29.443  1.00  0.00     0.059 A 
ATOM     97  F   UNL A   1      44.030  36.420  30.895  1.00  0.00    -0.206 F 
ATOM     98  C   UNL A   1      42.745  38.513  28.291  1.00  0.00     0.060 A 
BRANCH  98  99
ATOM     99  S   UNL A   1      42.760  40.257  27.838  1.00  0.00     0.124 S 
ATOM    100  O   UNL A   1      41.338  40.517  27.636  1.00  0.00    -0.237 OA
ATOM    101  O   UNL A   1      43.355  40.890  29.012  1.00  0.00    -0.237 OA
ATOM    102  O   UNL A   1      43.587  40.282  26.637  1.00  0.00    -0.744 OA
ENDBRANCH  98  99
ENDBRANCH  66  91
ENDBRANCH  40  41
ENDBRANCH  32  35
ENDBRANCH  30  31
ENDBRANCH  29  30
ENDBRANCH  28  29
ENDBRANCH   1  28
TORSDOF 20
ENDMDL
MODEL 3
REMARK VINA RESULT:     -12.1      1.739      2.539
REMARK SMILES Cc1ccc(C(C)C)c(OCC(=O)Nc2nc(CC(=O)NCCCCNC(=O)c3ccc(-c4c5nc(c(-c6c(F)cc(S(=O)(=O)[O-])cc6F)c6ccc([nH]6)c(-c6c(F)cc(S(=O)(=O)[O-])cc6F)c6nc(c(-c7c(F)cc(S(=O)(=O)[O-])cc7F)c7ccc4[nH]7)C=C6)C=C5)cc3)cs2)c1
REMARK SMILES IDX 22 1 21 2 19 3 20 4 18 6 17 7 15 8 16 9 96 10 95 11 14 12
REMARK SMILES IDX 12 13 13 14 11 16 10 17 9 18 1 19 2 20 3 21 97 22 4 23 5 24
REMARK SMILES IDX 6 25 7 26 8 27 23 28 24 29 25 30 26 31 27 32 28 34 29 35
REMARK SMILES IDX 30 36 94 37 31 38 93 39 32 40 33 41 34 42 87 43 35 44 92 45
REMARK SMILES IDX 86 46 88 47 36 48 91 49 85 50 84 51 37 53 71 54 50 55 70 56
REMARK SMILES IDX 51 57 54 58 69 59 89 60 52 61 53 62 68 64 90 65 55 66 38 67
REMARK SMILES IDX 39 68 48 69 40 70 41 71 47 72 49 73 42 74 43 75 44 76 45 77
REMARK SMILES IDX 46 78 72 79 73 80 82 81 74 82 75 83 81 84 83 85 76 86 77 87
REMARK SMILES IDX 78 88 79 89 80 90 56 91 57 92 66 93 58 94 59 95 65 96 67 97
REMARK SMILES IDX 60 98 61 99 62 100 63 101 64 102
REMARK H PARENT 21 5 14 15 26 33 88 52 54 63
REMARK Flexibility Score: inf
ROOT
ATOM      1  C   UNL A   1      37.702  20.539  24.690  1.00  0.00     0.116 C 
ENDROOT
BRANCH   1   2
ATOM      2  N   UNL A   1      37.166  21.778  24.140  1.00  0.00    -0.356 N 
ATOM      3  C   UNL A   1      35.867  22.169  23.966  1.00  0.00     0.226 C 
ATOM      4  O   UNL A   1      35.648  23.293  23.507  1.00  0.00    -0.275 OA
ATOM      5  H   UNL A   1      37.841  22.433  23.850  1.00  0.00     0.163 HD
BRANCH   3   6
ATOM      6  C   UNL A   1      34.720  21.249  24.340  1.00  0.00     0.157 C 
BRANCH   6   7
ATOM      7  C   UNL A   1      34.090  21.629  25.637  1.00  0.00     0.063 A 
ATOM      8  C   UNL A   1      32.422  22.510  26.765  1.00  0.00     0.189 A 
ATOM      9  N   UNL A   1      32.747  21.959  25.630  1.00  0.00    -0.224 NA
ATOM     10  S   UNL A   1      33.612  22.480  27.986  1.00  0.00    -0.105 S 
ATOM     11  C   UNL A   1      34.699  21.748  26.874  1.00  0.00     0.093 A 
BRANCH   8  12
ATOM     12  N   UNL A   1      31.259  23.121  27.112  1.00  0.00    -0.299 N 
ATOM     13  C   UNL A   1      30.616  24.090  26.402  1.00  0.00     0.264 C 
ATOM     14  O   UNL A   1      29.582  24.567  26.889  1.00  0.00    -0.271 OA
ATOM     15  H   UNL A   1      30.841  22.838  27.958  1.00  0.00     0.172 HD
BRANCH  13  16
ATOM     16  C   UNL A   1      31.066  24.488  24.987  1.00  0.00     0.329 C 
BRANCH  16  17
ATOM     17  O   UNL A   1      32.244  25.261  24.861  1.00  0.00    -0.483 OA
BRANCH  17  18
ATOM     18  C   UNL A   1      32.226  26.567  25.267  1.00  0.00     0.123 A 
ATOM     19  C   UNL A   1      34.052  29.015  27.543  1.00  0.00     0.044 C 
ATOM     20  C   UNL A   1      33.043  28.435  26.598  1.00  0.00    -0.047 A 
ATOM     21  C   UNL A   1      32.110  29.264  25.979  1.00  0.00     0.004 A 
ATOM     22  C   UNL A   1      33.087  27.084  26.243  1.00  0.00     0.050 A 
ATOM     23  C   UNL A   1      31.272  28.771  24.982  1.00  0.00     0.008 A 
ATOM     24  C   UNL A   1      31.321  27.421  24.602  1.00  0.00    -0.003 A 
BRANCH  24  25
ATOM     25  C   UNL A   1      30.446  26.932  23.454  1.00  0.00     0.017 C 
ATOM     26  C   UNL A   1      28.955  27.169  23.710  1.00  0.00     0.012 C 
ATOM     27  C   UNL A   1      30.866  27.590  22.135  1.00  0.00     0.012 C 
ENDBRANCH  24  25
ENDBRANCH  17  18
ENDBRANCH  16  17
ENDBRANCH  13  16
ENDBRANCH   8  12
ENDBRANCH   6   7
ENDBRANCH   3   6
ENDBRANCH   1   2
BRANCH   1  28
ATOM     28  C   UNL A   1      38.301  20.685  26.097  1.00  0.00     0.023 C 
BRANCH  28  29
ATOM     29  C   UNL A   1      39.793  21.023  26.173  1.00  0.00     0.023 C 
BRANCH  29  30
ATOM     30  C   UNL A   1      40.098  22.465  26.533  1.00  0.00     0.116 C 
BRANCH  30  31
ATOM     31  N   UNL A   1      39.371  23.490  25.801  1.00  0.00    -0.352 N 
ATOM     32  C   UNL A   1      38.459  24.289  26.498  1.00  0.00     0.251 C 
ATOM     33  H   UNL A   1      39.519  23.619  24.836  1.00  0.00     0.163 HD
ATOM     34  O   UNL A   1      37.250  24.175  26.443  1.00  0.00    -0.269 OA
BRANCH  32  35
ATOM     35  C   UNL A   1      39.103  25.222  27.455  1.00  0.00     0.039 A 
ATOM     36  C   UNL A   1      38.690  25.297  28.784  1.00  0.00     0.014 A 
ATOM     37  C   UNL A   1      39.979  26.168  26.923  1.00  0.00     0.014 A 
ATOM     38  C   UNL A   1      39.041  26.421  29.538  1.00  0.00     0.010 A 
ATOM     39  C   UNL A   1      40.217  27.326  27.622  1.00  0.00     0.010 A 
ATOM     40  C   UNL A   1      39.727  27.469  28.923  1.00  0.00    -0.014 A 
BRANCH  40  41
ATOM     41  C   UNL A   1      39.957  28.784  29.507  1.00  0.00     0.031 A 
ATOM     42  C   UNL A   1      38.908  29.827  29.422  1.00  0.00     0.074 A 
ATOM     43  C   UNL A   1      41.028  28.963  30.311  1.00  0.00     0.049 A 
ATOM     44  N   UNL A   1      39.097  31.077  29.678  1.00  0.00    -0.248 NA
ATOM     45  C   UNL A   1      37.538  29.531  29.014  1.00  0.00     0.031 C 
ATOM     46  C   UNL A   1      41.217  30.012  31.311  1.00  0.00     0.029 A 
ATOM     47  N   UNL A   1      42.269  28.327  30.238  1.00  0.00    -0.354 N 
ATOM     48  C   UNL A   1      37.864  31.690  29.736  1.00  0.00     0.074 A 
ATOM     49  C   UNL A   1      36.929  30.692  29.273  1.00  0.00     0.031 C 
ATOM     50  C   UNL A   1      42.527  30.130  31.574  1.00  0.00     0.029 A 
ATOM     51  C   UNL A   1      43.229  29.280  30.627  1.00  0.00     0.049 A 
ATOM     52  H   UNL A   1      42.439  27.396  29.967  1.00  0.00     0.167 HD
ATOM     53  C   UNL A   1      37.756  32.931  30.292  1.00  0.00     0.037 A 
ATOM     54  C   UNL A   1      44.170  29.732  29.744  1.00  0.00     0.037 A 
ATOM     55  C   UNL A   1      39.065  33.440  30.695  1.00  0.00     0.049 A 
ATOM     56  C   UNL A   1      44.125  31.217  29.505  1.00  0.00     0.074 A 
ATOM     57  C   UNL A   1      39.727  33.448  31.913  1.00  0.00     0.029 A 
ATOM     58  N   UNL A   1      40.013  33.754  29.728  1.00  0.00    -0.354 N 
ATOM     59  N   UNL A   1      43.067  31.955  29.701  1.00  0.00    -0.248 NA
ATOM     60  C   UNL A   1      45.275  31.992  29.055  1.00  0.00     0.031 C 
ATOM     61  C   UNL A   1      41.093  33.727  31.669  1.00  0.00     0.029 A 
ATOM     62  C   UNL A   1      41.260  33.903  30.306  1.00  0.00     0.049 A 
ATOM     63  H   UNL A   1      39.823  33.857  28.768  1.00  0.00     0.167 HD
ATOM     64  C   UNL A   1      43.362  33.264  29.407  1.00  0.00     0.074 A 
ATOM     65  C   UNL A   1      44.763  33.235  29.029  1.00  0.00     0.031 C 
ATOM     66  C   UNL A   1      42.426  34.256  29.507  1.00  0.00     0.037 A 
BRANCH  53  67
ATOM     67  C   UNL A   1      36.440  33.548  30.731  1.00  0.00     0.058 A 
ATOM     68  C   UNL A   1      35.544  34.095  29.785  1.00  0.00     0.135 A 
ATOM     69  C   UNL A   1      36.024  33.675  32.070  1.00  0.00     0.135 A 
ATOM     70  F   UNL A   1      35.748  33.968  28.467  1.00  0.00    -0.206 F 
ATOM     71  C   UNL A   1      34.401  34.812  30.142  1.00  0.00     0.059 A 
ATOM     72  C   UNL A   1      34.914  34.435  32.458  1.00  0.00     0.059 A 
ATOM     73  F   UNL A   1      36.656  33.024  33.057  1.00  0.00    -0.206 F 
ATOM     74  C   UNL A   1      34.113  35.013  31.484  1.00  0.00     0.060 A 
BRANCH  74  75
ATOM     75  S   UNL A   1      32.688  36.027  31.923  1.00  0.00     0.124 S 
ATOM     76  O   UNL A   1      33.248  36.929  32.925  1.00  0.00    -0.237 OA
ATOM     77  O   UNL A   1      32.342  36.635  30.643  1.00  0.00    -0.237 OA
ATOM     78  O   UNL A   1      31.725  35.056  32.437  1.00  0.00    -0.744 OA
ENDBRANCH  74  75
ENDBRANCH  53  67
BRANCH  54  79
ATOM     79  C   UNL A   1      44.619  28.691  28.776  1.00  0.00     0.058 A 
ATOM     80  C   UNL A   1      44.007  28.718  27.513  1.00  0.00     0.135 A 
ATOM     81  C   UNL A   1      45.892  28.114  28.861  1.00  0.00     0.135 A 
ATOM     82  F   UNL A   1      42.750  29.166  27.411  1.00  0.00    -0.206 F 
ATOM     83  C   UNL A   1      44.712  28.437  26.347  1.00  0.00     0.059 A 
ATOM     84  C   UNL A   1      46.607  27.783  27.706  1.00  0.00     0.059 A 
ATOM     85  F   UNL A   1      46.517  28.025  30.044  1.00  0.00    -0.206 F 
ATOM     86  C   UNL A   1      46.047  28.060  26.457  1.00  0.00     0.060 A 
BRANCH  86  87
ATOM     87  S   UNL A   1      47.080  28.084  24.970  1.00  0.00     0.124 S 
ATOM     88  O   UNL A   1      46.757  26.807  24.344  1.00  0.00    -0.237 OA
ATOM     89  O   UNL A   1      46.587  29.275  24.273  1.00  0.00    -0.237 OA
ATOM     90  O   UNL A   1      48.431  28.195  25.507  1.00  0.00    -0.744 OA
ENDBRANCH  86  87
ENDBRANCH  54  79
BRANCH  66  91
ATOM     91  C   UNL A   1      42.540  35.669  28.970  1.00  0.00     0.058 A 
ATOM     92  C   UNL A   1      41.815  36.162  27.871  1.00  0.00     0.135 A 
ATOM     93  C   UNL A   1      43.305  36.643  29.665  1.00  0.00     0.135 A 
ATOM     94  F   UNL A   1      40.956  35.389  27.193  1.00  0.00    -0.206 F 
ATOM     95  C   UNL A   1      41.892  37.492  27.451  1.00  0.00     0.059 A 
ATOM     96  C   UNL A   1      43.348  37.986  29.301  1.00  0.00     0.059 A 
ATOM     97  F   UNL A   1      44.028  36.327  30.751  1.00  0.00    -0.206 F 
ATOM     98  C   UNL A   1      42.657  38.400  28.174  1.00  0.00     0.060 A 
BRANCH  98  99
ATOM     99  S   UNL A   1      42.681  40.135  27.690  1.00  0.00     0.124 S 
ATOM    100  O   UNL A   1      41.718  40.711  28.623  1.00  0.00    -0.237 OA
ATOM    101  O   UNL A   1      44.075  40.512  27.911  1.00  0.00    -0.237 OA
ATOM    102  O   UNL A   1      42.265  40.096  26.292  1.00  0.00    -0.744 OA
ENDBRANCH  98  99
ENDBRANCH  66  91
ENDBRANCH  40  41
ENDBRANCH  32  35
ENDBRANCH  30  31
ENDBRANCH  29  30
ENDBRANCH  28  29
ENDBRANCH   1  28
TORSDOF 20
ENDMDL
