MODEL 1
REMARK VINA RESULT:     -11.4      0.000      0.000
REMARK SMILES O=C(NCCCCNC(=O)[C@H]1CCCN(c2ccc(O)nn2)C1)c1ccc(-c2c3nc(c(-c4c(F)cc(S(=O)(=O)[O-])cc4F)c4ccc([nH]4)c(-c4c(F)cc(S(=O)(=O)[O-])cc4F)c4nc(c(-c5c(F)cc(S(=O)(=O)[O-])cc5F)c5ccc2[nH]5)C=C4)C=C3)cc1
REMARK SMILES IDX 5 1 4 2 3 3 1 4 2 5 24 7 25 8 89 9 26 10 88 11 27 12 28 13
REMARK SMILES IDX 29 14 82 15 30 16 87 17 81 18 83 19 31 20 86 21 80 22 79 23
REMARK SMILES IDX 32 25 66 26 45 27 65 28 46 29 49 30 64 31 84 32 47 33 48 34
REMARK SMILES IDX 63 36 85 37 50 38 33 39 34 40 43 41 35 42 36 43 42 44 44 45
REMARK SMILES IDX 37 46 38 47 39 48 40 49 41 50 67 51 68 52 77 53 69 54 70 55
REMARK SMILES IDX 76 56 78 57 71 58 72 59 73 60 74 61 75 62 51 63 52 64 61 65
REMARK SMILES IDX 53 66 54 67 60 68 62 69 55 70 56 71 57 72 58 73 59 74 6 75
REMARK SMILES IDX 7 76 8 77 9 78 10 80 11 81 12 82 23 83 13 84 15 85 14 86
REMARK SMILES IDX 16 87 17 88 22 89 18 90 21 91 19 92 20 93
REMARK H PARENT 3 6 83 24 49 35 8 79 20 94
REMARK Flexibility Score: inf
ROOT
ATOM      1  C   UNL A   1      32.310  27.660  26.942  1.00  0.00     0.023 C 
ENDROOT
BRANCH   1   2
ATOM      2  C   UNL A   1      33.625  28.395  27.193  1.00  0.00     0.116 C 
BRANCH   2   3
ATOM      3  N   UNL A   1      33.457  29.791  27.564  1.00  0.00    -0.352 N 
ATOM      4  O   UNL A   1      34.146  31.769  28.438  1.00  0.00    -0.269 OA
ATOM      5  C   UNL A   1      34.414  30.621  28.104  1.00  0.00     0.251 C 
ATOM      6  H   UNL A   1      32.567  30.184  27.413  1.00  0.00     0.163 HD
BRANCH   5   7
ATOM      7  C   UNL A   1      35.766  30.069  28.316  1.00  0.00     0.039 A 
ATOM      8  C   UNL A   1      36.146  29.620  29.584  1.00  0.00     0.014 A 
ATOM      9  C   UNL A   1      36.680  30.103  27.261  1.00  0.00     0.014 A 
ATOM     10  C   UNL A   1      37.479  29.301  29.823  1.00  0.00     0.010 A 
ATOM     11  C   UNL A   1      38.009  29.748  27.496  1.00  0.00     0.010 A 
ATOM     12  C   UNL A   1      38.423  29.379  28.786  1.00  0.00    -0.014 A 
BRANCH  12  13
ATOM     13  C   UNL A   1      39.846  29.070  29.061  1.00  0.00     0.031 A 
ATOM     14  C   UNL A   1      40.720  30.070  29.766  1.00  0.00     0.074 A 
ATOM     15  C   UNL A   1      40.331  27.866  28.708  1.00  0.00     0.049 A 
ATOM     16  N   UNL A   1      41.988  29.981  30.077  1.00  0.00    -0.248 NA
ATOM     17  C   UNL A   1      40.088  31.332  30.187  1.00  0.00     0.031 C 
ATOM     18  C   UNL A   1      39.561  26.807  28.053  1.00  0.00     0.029 A 
ATOM     19  N   UNL A   1      41.580  27.324  28.863  1.00  0.00    -0.354 N 
ATOM     20  C   UNL A   1      42.305  31.161  30.738  1.00  0.00     0.074 A 
ATOM     21  C   UNL A   1      41.104  31.970  30.754  1.00  0.00     0.031 C 
ATOM     22  C   UNL A   1      40.346  25.731  27.889  1.00  0.00     0.029 A 
ATOM     23  C   UNL A   1      41.684  26.040  28.382  1.00  0.00     0.049 A 
ATOM     24  H   UNL A   1      42.331  27.807  29.278  1.00  0.00     0.167 HD
ATOM     25  C   UNL A   1      43.485  31.527  31.293  1.00  0.00     0.037 A 
ATOM     26  C   UNL A   1      42.744  25.212  28.336  1.00  0.00     0.037 A 
ATOM     27  C   UNL A   1      44.679  30.721  31.261  1.00  0.00     0.049 A 
ATOM     28  C   UNL A   1      44.065  25.686  28.871  1.00  0.00     0.074 A 
ATOM     29  C   UNL A   1      45.934  31.019  31.764  1.00  0.00     0.029 A 
ATOM     30  N   UNL A   1      44.765  29.455  30.701  1.00  0.00    -0.354 N 
ATOM     31  N   UNL A   1      44.356  26.821  29.461  1.00  0.00    -0.248 NA
ATOM     32  C   UNL A   1      45.205  24.772  28.723  1.00  0.00     0.031 C 
ATOM     33  C   UNL A   1      46.785  29.944  31.483  1.00  0.00     0.029 A 
ATOM     34  C   UNL A   1      46.051  28.963  30.837  1.00  0.00     0.049 A 
ATOM     35  H   UNL A   1      44.020  28.977  30.269  1.00  0.00     0.167 HD
ATOM     36  C   UNL A   1      45.709  26.749  29.771  1.00  0.00     0.074 A 
ATOM     37  C   UNL A   1      46.175  25.455  29.315  1.00  0.00     0.031 C 
ATOM     38  C   UNL A   1      46.495  27.672  30.377  1.00  0.00     0.037 A 
BRANCH  25  39
ATOM     39  C   UNL A   1      43.553  32.856  31.992  1.00  0.00     0.058 A 
ATOM     40  C   UNL A   1      43.714  34.048  31.269  1.00  0.00     0.135 A 
ATOM     41  C   UNL A   1      43.376  32.949  33.381  1.00  0.00     0.135 A 
ATOM     42  F   UNL A   1      43.906  34.012  29.941  1.00  0.00    -0.206 F 
ATOM     43  C   UNL A   1      43.698  35.288  31.899  1.00  0.00     0.059 A 
ATOM     44  C   UNL A   1      43.339  34.181  34.031  1.00  0.00     0.059 A 
ATOM     45  F   UNL A   1      43.223  31.839  34.119  1.00  0.00    -0.206 F 
ATOM     46  C   UNL A   1      43.505  35.345  33.281  1.00  0.00     0.060 A 
BRANCH  46  47
ATOM     47  S   UNL A   1      43.456  36.965  34.076  1.00  0.00     0.124 S 
ATOM     48  O   UNL A   1      44.544  36.849  35.041  1.00  0.00    -0.237 OA
ATOM     49  O   UNL A   1      43.697  37.868  32.955  1.00  0.00    -0.237 OA
ATOM     50  O   UNL A   1      42.114  37.024  34.648  1.00  0.00    -0.744 OA
ENDBRANCH  46  47
ENDBRANCH  25  39
BRANCH  26  51
ATOM     51  C   UNL A   1      42.602  23.852  27.757  1.00  0.00     0.058 A 
ATOM     52  C   UNL A   1      42.384  22.742  28.584  1.00  0.00     0.135 A 
ATOM     53  C   UNL A   1      42.684  23.635  26.374  1.00  0.00     0.135 A 
ATOM     54  F   UNL A   1      42.304  22.900  29.914  1.00  0.00    -0.206 F 
ATOM     55  C   UNL A   1      42.270  21.458  28.062  1.00  0.00     0.059 A 
ATOM     56  C   UNL A   1      42.550  22.365  25.825  1.00  0.00     0.059 A 
ATOM     57  F   UNL A   1      42.877  24.670  25.541  1.00  0.00    -0.206 F 
ATOM     58  C   UNL A   1      42.356  21.280  26.680  1.00  0.00     0.060 A 
BRANCH  58  59
ATOM     59  S   UNL A   1      42.178  19.614  26.008  1.00  0.00     0.124 S 
ATOM     60  O   UNL A   1      43.080  19.664  24.862  1.00  0.00    -0.237 OA
ATOM     61  O   UNL A   1      42.613  18.782  27.126  1.00  0.00    -0.237 OA
ATOM     62  O   UNL A   1      40.756  19.531  25.691  1.00  0.00    -0.744 OA
ENDBRANCH  58  59
ENDBRANCH  26  51
BRANCH  38  63
ATOM     63  C   UNL A   1      47.934  27.304  30.598  1.00  0.00     0.058 A 
ATOM     64  C   UNL A   1      48.343  26.612  31.747  1.00  0.00     0.135 A 
ATOM     65  C   UNL A   1      48.906  27.619  29.635  1.00  0.00     0.135 A 
ATOM     66  F   UNL A   1      47.451  26.295  32.700  1.00  0.00    -0.206 F 
ATOM     67  C   UNL A   1      49.674  26.259  31.944  1.00  0.00     0.059 A 
ATOM     68  C   UNL A   1      50.238  27.259  29.803  1.00  0.00     0.059 A 
ATOM     69  F   UNL A   1      48.561  28.275  28.516  1.00  0.00    -0.206 F 
ATOM     70  C   UNL A   1      50.615  26.590  30.967  1.00  0.00     0.060 A 
BRANCH  70  71
ATOM     71  S   UNL A   1      52.335  26.105  31.223  1.00  0.00     0.124 S 
ATOM     72  O   UNL A   1      52.181  24.782  31.819  1.00  0.00    -0.237 OA
ATOM     73  O   UNL A   1      52.873  26.131  29.866  1.00  0.00    -0.237 OA
ATOM     74  O   UNL A   1      52.849  27.140  32.115  1.00  0.00    -0.744 OA
ENDBRANCH  70  71
ENDBRANCH  38  63
ENDBRANCH  12  13
ENDBRANCH   5   7
ENDBRANCH   2   3
ENDBRANCH   1   2
BRANCH   1  75
ATOM     75  C   UNL A   1      32.213  26.941  25.592  1.00  0.00     0.023 C 
BRANCH  75  76
ATOM     76  C   UNL A   1      30.806  26.452  25.249  1.00  0.00     0.116 C 
BRANCH  76  77
ATOM     77  N   UNL A   1      30.330  25.428  26.163  1.00  0.00    -0.356 N 
ATOM     78  C   UNL A   1      30.637  24.125  26.360  1.00  0.00     0.224 C 
ATOM     79  H   UNL A   1      29.628  25.754  26.771  1.00  0.00     0.163 HD
ATOM     80  O   UNL A   1      30.078  23.580  27.321  1.00  0.00    -0.275 OA
BRANCH  78  81
ATOM     81  C   UNL A   1      31.531  23.276  25.462  1.00  0.00     0.098 C 
ATOM     82  C   UNL A   1      31.064  23.367  24.001  1.00  0.00     0.017 C 
ATOM     83  C   UNL A   1      33.032  23.481  25.560  1.00  0.00     0.131 C 
ATOM     84  C   UNL A   1      31.878  22.432  23.101  1.00  0.00     0.022 C 
ATOM     85  N   UNL A   1      33.728  22.529  24.683  1.00  0.00    -0.354 N 
ATOM     86  C   UNL A   1      33.386  22.646  23.263  1.00  0.00     0.118 C 
BRANCH  85  87
ATOM     87  C   UNL A   1      35.091  22.404  24.977  1.00  0.00     0.151 A 
ATOM     88  C   UNL A   1      35.800  23.535  25.383  1.00  0.00     0.054 A 
ATOM     89  N   UNL A   1      35.736  21.221  24.843  1.00  0.00    -0.129 NA
ATOM     90  C   UNL A   1      37.167  23.454  25.611  1.00  0.00     0.074 A 
ATOM     91  N   UNL A   1      37.089  21.132  25.050  1.00  0.00    -0.110 NA
ATOM     92  C   UNL A   1      37.761  22.235  25.415  1.00  0.00     0.231 A 
BRANCH  92  93
ATOM     93  O   UNL A   1      39.102  22.086  25.575  1.00  0.00    -0.492 OA
ATOM     94  H   UNL A   1      39.527  21.309  25.270  1.00  0.00     0.295 HD
ENDBRANCH  92  93
ENDBRANCH  85  87
ENDBRANCH  78  81
ENDBRANCH  76  77
ENDBRANCH  75  76
ENDBRANCH   1  75
TORSDOF 16
ENDMDL
MODEL 2
REMARK VINA RESULT:     -11.4      1.566      2.341
REMARK SMILES O=C(NCCCCNC(=O)[C@H]1CCCN(c2ccc(O)nn2)C1)c1ccc(-c2c3nc(c(-c4c(F)cc(S(=O)(=O)[O-])cc4F)c4ccc([nH]4)c(-c4c(F)cc(S(=O)(=O)[O-])cc4F)c4nc(c(-c5c(F)cc(S(=O)(=O)[O-])cc5F)c5ccc2[nH]5)C=C4)C=C3)cc1
REMARK SMILES IDX 5 1 4 2 3 3 1 4 2 5 24 7 25 8 89 9 26 10 88 11 27 12 28 13
REMARK SMILES IDX 29 14 82 15 30 16 87 17 81 18 83 19 31 20 86 21 80 22 79 23
REMARK SMILES IDX 32 25 66 26 45 27 65 28 46 29 49 30 64 31 84 32 47 33 48 34
REMARK SMILES IDX 63 36 85 37 50 38 33 39 34 40 43 41 35 42 36 43 42 44 44 45
REMARK SMILES IDX 37 46 38 47 39 48 40 49 41 50 67 51 68 52 77 53 69 54 70 55
REMARK SMILES IDX 76 56 78 57 71 58 72 59 73 60 74 61 75 62 51 63 52 64 61 65
REMARK SMILES IDX 53 66 54 67 60 68 62 69 55 70 56 71 57 72 58 73 59 74 6 75
REMARK SMILES IDX 7 76 8 77 9 78 10 80 11 81 12 82 23 83 13 84 15 85 14 86
REMARK SMILES IDX 16 87 17 88 22 89 18 90 21 91 19 92 20 93
REMARK H PARENT 3 6 83 24 49 35 8 79 20 94
REMARK Flexibility Score: inf
ROOT
ATOM      1  C   UNL A   1      32.324  27.675  26.793  1.00  0.00     0.023 C 
ENDROOT
BRANCH   1   2
ATOM      2  C   UNL A   1      33.622  28.364  27.210  1.00  0.00     0.116 C 
BRANCH   2   3
ATOM      3  N   UNL A   1      33.445  29.745  27.630  1.00  0.00    -0.352 N 
ATOM      4  O   UNL A   1      34.130  31.702  28.556  1.00  0.00    -0.269 OA
ATOM      5  C   UNL A   1      34.404  30.568  28.179  1.00  0.00     0.251 C 
ATOM      6  H   UNL A   1      32.548  30.133  27.510  1.00  0.00     0.163 HD
BRANCH   5   7
ATOM      7  C   UNL A   1      35.766  30.026  28.345  1.00  0.00     0.039 A 
ATOM      8  C   UNL A   1      36.192  29.581  29.600  1.00  0.00     0.014 A 
ATOM      9  C   UNL A   1      36.643  30.064  27.260  1.00  0.00     0.014 A 
ATOM     10  C   UNL A   1      37.535  29.272  29.795  1.00  0.00     0.010 A 
ATOM     11  C   UNL A   1      37.982  29.718  27.450  1.00  0.00     0.010 A 
ATOM     12  C   UNL A   1      38.442  29.354  28.726  1.00  0.00    -0.014 A 
BRANCH  12  13
ATOM     13  C   UNL A   1      39.875  29.055  28.953  1.00  0.00     0.031 A 
ATOM     14  C   UNL A   1      40.772  30.071  29.606  1.00  0.00     0.074 A 
ATOM     15  C   UNL A   1      40.352  27.846  28.605  1.00  0.00     0.049 A 
ATOM     16  N   UNL A   1      42.051  29.992  29.870  1.00  0.00    -0.248 NA
ATOM     17  C   UNL A   1      40.151  31.339  30.025  1.00  0.00     0.031 C 
ATOM     18  C   UNL A   1      39.562  26.772  28.000  1.00  0.00     0.029 A 
ATOM     19  N   UNL A   1      41.608  27.311  28.723  1.00  0.00    -0.354 N 
ATOM     20  C   UNL A   1      42.388  31.186  30.496  1.00  0.00     0.074 A 
ATOM     21  C   UNL A   1      41.185  31.991  30.542  1.00  0.00     0.031 C 
ATOM     22  C   UNL A   1      40.344  25.696  27.827  1.00  0.00     0.029 A 
ATOM     23  C   UNL A   1      41.699  26.018  28.264  1.00  0.00     0.049 A 
ATOM     24  H   UNL A   1      42.372  27.804  29.101  1.00  0.00     0.167 HD
ATOM     25  C   UNL A   1      43.586  31.566  30.999  1.00  0.00     0.037 A 
ATOM     26  C   UNL A   1      42.760  25.193  28.194  1.00  0.00     0.037 A 
ATOM     27  C   UNL A   1      44.781  30.763  30.937  1.00  0.00     0.049 A 
ATOM     28  C   UNL A   1      44.098  25.681  28.670  1.00  0.00     0.074 A 
ATOM     29  C   UNL A   1      46.053  31.075  31.387  1.00  0.00     0.029 A 
ATOM     30  N   UNL A   1      44.851  29.488  30.399  1.00  0.00    -0.354 N 
ATOM     31  N   UNL A   1      44.406  26.828  29.227  1.00  0.00    -0.248 NA
ATOM     32  C   UNL A   1      45.235  24.768  28.496  1.00  0.00     0.031 C 
ATOM     33  C   UNL A   1      46.897  29.998  31.095  1.00  0.00     0.029 A 
ATOM     34  C   UNL A   1      46.144  29.002  30.496  1.00  0.00     0.049 A 
ATOM     35  H   UNL A   1      44.093  28.999  30.004  1.00  0.00     0.167 HD
ATOM     36  C   UNL A   1      45.770  26.767  29.487  1.00  0.00     0.074 A 
ATOM     37  C   UNL A   1      46.224  25.466  29.038  1.00  0.00     0.031 C 
ATOM     38  C   UNL A   1      46.575  27.704  30.045  1.00  0.00     0.037 A 
BRANCH  25  39
ATOM     39  C   UNL A   1      43.675  32.909  31.669  1.00  0.00     0.058 A 
ATOM     40  C   UNL A   1      43.494  33.041  33.054  1.00  0.00     0.135 A 
ATOM     41  C   UNL A   1      44.024  34.057  30.940  1.00  0.00     0.135 A 
ATOM     42  F   UNL A   1      43.141  31.977  33.794  1.00  0.00    -0.206 F 
ATOM     43  C   UNL A   1      43.654  34.265  33.695  1.00  0.00     0.059 A 
ATOM     44  C   UNL A   1      44.207  35.289  31.563  1.00  0.00     0.059 A 
ATOM     45  F   UNL A   1      44.205  33.985  29.612  1.00  0.00    -0.206 F 
ATOM     46  C   UNL A   1      44.016  35.384  32.941  1.00  0.00     0.060 A 
BRANCH  46  47
ATOM     47  S   UNL A   1      44.249  36.956  33.796  1.00  0.00     0.124 S 
ATOM     48  O   UNL A   1      43.810  37.907  32.781  1.00  0.00    -0.237 OA
ATOM     49  O   UNL A   1      43.372  36.814  34.954  1.00  0.00    -0.237 OA
ATOM     50  O   UNL A   1      45.678  36.974  34.094  1.00  0.00    -0.744 OA
ENDBRANCH  46  47
ENDBRANCH  25  39
BRANCH  26  51
ATOM     51  C   UNL A   1      42.601  23.821  27.647  1.00  0.00     0.058 A 
ATOM     52  C   UNL A   1      42.421  22.726  28.504  1.00  0.00     0.135 A 
ATOM     53  C   UNL A   1      42.630  23.578  26.266  1.00  0.00     0.135 A 
ATOM     54  F   UNL A   1      42.393  22.910  29.832  1.00  0.00    -0.206 F 
ATOM     55  C   UNL A   1      42.292  21.432  28.011  1.00  0.00     0.059 A 
ATOM     56  C   UNL A   1      42.480  22.297  25.747  1.00  0.00     0.059 A 
ATOM     57  F   UNL A   1      42.785  24.598  25.406  1.00  0.00    -0.206 F 
ATOM     58  C   UNL A   1      42.325  21.228  26.630  1.00  0.00     0.060 A 
BRANCH  58  59
ATOM     59  S   UNL A   1      42.129  19.548  25.997  1.00  0.00     0.124 S 
ATOM     60  O   UNL A   1      40.686  19.480  25.795  1.00  0.00    -0.237 OA
ATOM     61  O   UNL A   1      42.943  19.579  24.786  1.00  0.00    -0.237 OA
ATOM     62  O   UNL A   1      42.656  18.720  27.076  1.00  0.00    -0.744 OA
ENDBRANCH  58  59
ENDBRANCH  26  51
BRANCH  38  63
ATOM     63  C   UNL A   1      48.022  27.345  30.218  1.00  0.00     0.058 A 
ATOM     64  C   UNL A   1      48.979  27.680  29.249  1.00  0.00     0.135 A 
ATOM     65  C   UNL A   1      48.460  26.691  31.381  1.00  0.00     0.135 A 
ATOM     66  F   UNL A   1      48.608  28.299  28.117  1.00  0.00    -0.206 F 
ATOM     67  C   UNL A   1      50.323  27.359  29.417  1.00  0.00     0.059 A 
ATOM     68  C   UNL A   1      49.801  26.379  31.578  1.00  0.00     0.059 A 
ATOM     69  F   UNL A   1      47.582  26.356  32.339  1.00  0.00    -0.206 F 
ATOM     70  C   UNL A   1      50.723  26.707  30.585  1.00  0.00     0.060 A 
BRANCH  70  71
ATOM     71  S   UNL A   1      52.472  26.319  30.802  1.00  0.00     0.124 S 
ATOM     72  O   UNL A   1      52.406  25.118  31.629  1.00  0.00    -0.237 OA
ATOM     73  O   UNL A   1      52.922  26.118  29.428  1.00  0.00    -0.237 OA
ATOM     74  O   UNL A   1      53.004  27.507  31.462  1.00  0.00    -0.744 OA
ENDBRANCH  70  71
ENDBRANCH  38  63
ENDBRANCH  12  13
ENDBRANCH   5   7
ENDBRANCH   2   3
ENDBRANCH   1   2
BRANCH   1  75
ATOM     75  C   UNL A   1      32.325  27.086  25.379  1.00  0.00     0.023 C 
BRANCH  75  76
ATOM     76  C   UNL A   1      31.174  26.117  25.109  1.00  0.00     0.116 C 
BRANCH  76  77
ATOM     77  N   UNL A   1      30.968  25.175  26.195  1.00  0.00    -0.356 N 
ATOM     78  C   UNL A   1      31.535  23.995  26.538  1.00  0.00     0.224 C 
ATOM     79  H   UNL A   1      30.258  25.456  26.817  1.00  0.00     0.163 HD
ATOM     80  O   UNL A   1      31.158  23.510  27.614  1.00  0.00    -0.275 OA
BRANCH  78  81
ATOM     81  C   UNL A   1      32.514  23.197  25.685  1.00  0.00     0.098 C 
ATOM     82  C   UNL A   1      33.910  23.839  25.728  1.00  0.00     0.017 C 
ATOM     83  C   UNL A   1      32.604  21.700  25.923  1.00  0.00     0.131 C 
ATOM     84  C   UNL A   1      34.880  23.118  24.785  1.00  0.00     0.022 C 
ATOM     85  N   UNL A   1      33.537  21.093  24.962  1.00  0.00    -0.354 N 
ATOM     86  C   UNL A   1      34.907  21.607  25.035  1.00  0.00     0.118 C 
BRANCH  85  87
ATOM     87  C   UNL A   1      33.408  19.702  24.873  1.00  0.00     0.151 A 
ATOM     88  C   UNL A   1      34.527  18.941  24.535  1.00  0.00     0.054 A 
ATOM     89  N   UNL A   1      32.217  19.091  25.074  1.00  0.00    -0.129 NA
ATOM     90  C   UNL A   1      34.409  17.568  24.369  1.00  0.00     0.074 A 
ATOM     91  N   UNL A   1      32.085  17.737  24.897  1.00  0.00    -0.110 NA
ATOM     92  C   UNL A   1      33.165  17.022  24.547  1.00  0.00     0.231 A 
BRANCH  92  93
ATOM     93  O   UNL A   1      32.961  15.692  24.360  1.00  0.00    -0.492 OA
ATOM     94  H   UNL A   1      33.338  15.260  23.619  1.00  0.00     0.295 HD
ENDBRANCH  92  93
ENDBRANCH  85  87
ENDBRANCH  78  81
ENDBRANCH  76  77
ENDBRANCH  75  76
ENDBRANCH   1  75
TORSDOF 16
ENDMDL
MODEL 3
REMARK VINA RESULT:     -11.3      4.570     10.314
REMARK SMILES O=C(NCCCCNC(=O)[C@H]1CCCN(c2ccc(O)nn2)C1)c1ccc(-c2c3nc(c(-c4c(F)cc(S(=O)(=O)[O-])cc4F)c4ccc([nH]4)c(-c4c(F)cc(S(=O)(=O)[O-])cc4F)c4nc(c(-c5c(F)cc(S(=O)(=O)[O-])cc5F)c5ccc2[nH]5)C=C4)C=C3)cc1
REMARK SMILES IDX 5 1 4 2 3 3 1 4 2 5 24 7 25 8 89 9 26 10 88 11 27 12 28 13
REMARK SMILES IDX 29 14 82 15 30 16 87 17 81 18 83 19 31 20 86 21 80 22 79 23
REMARK SMILES IDX 32 25 66 26 45 27 65 28 46 29 49 30 64 31 84 32 47 33 48 34
REMARK SMILES IDX 63 36 85 37 50 38 33 39 34 40 43 41 35 42 36 43 42 44 44 45
REMARK SMILES IDX 37 46 38 47 39 48 40 49 41 50 67 51 68 52 77 53 69 54 70 55
REMARK SMILES IDX 76 56 78 57 71 58 72 59 73 60 74 61 75 62 51 63 52 64 61 65
REMARK SMILES IDX 53 66 54 67 60 68 62 69 55 70 56 71 57 72 58 73 59 74 6 75
REMARK SMILES IDX 7 76 8 77 9 78 10 80 11 81 12 82 23 83 13 84 15 85 14 86
REMARK SMILES IDX 16 87 17 88 22 89 18 90 21 91 19 92 20 93
REMARK H PARENT 3 6 83 24 49 35 8 79 20 94
REMARK Flexibility Score: inf
ROOT
ATOM      1  C   UNL A   1      37.471  23.239  25.744  1.00  0.00     0.023 C 
ENDROOT
BRANCH   1   2
ATOM      2  C   UNL A   1      38.440  24.218  26.402  1.00  0.00     0.116 C 
BRANCH   2   3
ATOM      3  N   UNL A   1      39.839  23.945  26.113  1.00  0.00    -0.352 N 
ATOM      4  O   UNL A   1      42.069  24.347  26.249  1.00  0.00    -0.269 OA
ATOM      5  C   UNL A   1      40.931  24.624  26.609  1.00  0.00     0.251 C 
ATOM      6  H   UNL A   1      40.026  23.197  25.501  1.00  0.00     0.163 HD
BRANCH   5   7
ATOM      7  C   UNL A   1      40.685  25.732  27.552  1.00  0.00     0.039 A 
ATOM      8  C   UNL A   1      41.502  26.865  27.527  1.00  0.00     0.014 A 
ATOM      9  C   UNL A   1      39.697  25.579  28.526  1.00  0.00     0.014 A 
ATOM     10  C   UNL A   1      41.400  27.803  28.549  1.00  0.00     0.010 A 
ATOM     11  C   UNL A   1      39.572  26.541  29.530  1.00  0.00     0.010 A 
ATOM     12  C   UNL A   1      40.445  27.640  29.567  1.00  0.00    -0.014 A 
BRANCH  12  13
ATOM     13  C   UNL A   1      40.368  28.627  30.669  1.00  0.00     0.031 A 
ATOM     14  C   UNL A   1      41.335  28.564  31.819  1.00  0.00     0.074 A 
ATOM     15  C   UNL A   1      39.447  29.607  30.602  1.00  0.00     0.049 A 
ATOM     16  N   UNL A   1      41.408  29.331  32.876  1.00  0.00    -0.248 NA
ATOM     17  C   UNL A   1      42.359  27.507  31.773  1.00  0.00     0.031 C 
ATOM     18  C   UNL A   1      38.485  29.785  29.514  1.00  0.00     0.029 A 
ATOM     19  N   UNL A   1      39.180  30.643  31.457  1.00  0.00    -0.354 N 
ATOM     20  C   UNL A   1      42.488  28.863  33.615  1.00  0.00     0.074 A 
ATOM     21  C   UNL A   1      43.022  27.721  32.903  1.00  0.00     0.031 C 
ATOM     22  C   UNL A   1      37.752  30.883  29.752  1.00  0.00     0.029 A 
ATOM     23  C   UNL A   1      38.159  31.458  31.029  1.00  0.00     0.049 A 
ATOM     24  H   UNL A   1      39.671  30.790  32.298  1.00  0.00     0.167 HD
ATOM     25  C   UNL A   1      42.995  29.352  34.771  1.00  0.00     0.037 A 
ATOM     26  C   UNL A   1      37.607  32.539  31.611  1.00  0.00     0.037 A 
ATOM     27  C   UNL A   1      42.449  30.483  35.480  1.00  0.00     0.049 A 
ATOM     28  C   UNL A   1      38.128  32.998  32.942  1.00  0.00     0.074 A 
ATOM     29  C   UNL A   1      42.871  31.034  36.678  1.00  0.00     0.029 A 
ATOM     30  N   UNL A   1      41.369  31.239  35.051  1.00  0.00    -0.354 N 
ATOM     31  N   UNL A   1      39.129  32.522  33.645  1.00  0.00    -0.248 NA
ATOM     32  C   UNL A   1      37.438  34.134  33.567  1.00  0.00     0.031 C 
ATOM     33  C   UNL A   1      42.026  32.106  36.988  1.00  0.00     0.029 A 
ATOM     34  C   UNL A   1      41.103  32.245  35.965  1.00  0.00     0.049 A 
ATOM     35  H   UNL A   1      40.864  31.083  34.220  1.00  0.00     0.167 HD
ATOM     36  C   UNL A   1      39.199  33.312  34.786  1.00  0.00     0.074 A 
ATOM     37  C   UNL A   1      38.149  34.304  34.673  1.00  0.00     0.031 C 
ATOM     38  C   UNL A   1      40.054  33.223  35.834  1.00  0.00     0.037 A 
BRANCH  25  39
ATOM     39  C   UNL A   1      44.208  28.679  35.350  1.00  0.00     0.058 A 
ATOM     40  C   UNL A   1      45.503  29.099  35.009  1.00  0.00     0.135 A 
ATOM     41  C   UNL A   1      44.079  27.665  36.312  1.00  0.00     0.135 A 
ATOM     42  F   UNL A   1      45.681  30.052  34.080  1.00  0.00    -0.206 F 
ATOM     43  C   UNL A   1      46.629  28.536  35.600  1.00  0.00     0.059 A 
ATOM     44  C   UNL A   1      45.192  27.100  36.930  1.00  0.00     0.059 A 
ATOM     45  F   UNL A   1      42.863  27.224  36.671  1.00  0.00    -0.206 F 
ATOM     46  C   UNL A   1      46.463  27.540  36.564  1.00  0.00     0.060 A 
BRANCH  46  47
ATOM     47  S   UNL A   1      47.936  26.844  37.342  1.00  0.00     0.124 S 
ATOM     48  O   UNL A   1      48.977  27.739  36.847  1.00  0.00    -0.237 OA
ATOM     49  O   UNL A   1      47.623  26.961  38.762  1.00  0.00    -0.237 OA
ATOM     50  O   UNL A   1      47.984  25.480  36.824  1.00  0.00    -0.744 OA
ENDBRANCH  46  47
ENDBRANCH  25  39
BRANCH  26  51
ATOM     51  C   UNL A   1      36.496  33.260  30.940  1.00  0.00     0.058 A 
ATOM     52  C   UNL A   1      36.743  34.087  29.836  1.00  0.00     0.135 A 
ATOM     53  C   UNL A   1      35.172  33.139  31.387  1.00  0.00     0.135 A 
ATOM     54  F   UNL A   1      37.995  34.238  29.376  1.00  0.00    -0.206 F 
ATOM     55  C   UNL A   1      35.719  34.787  29.208  1.00  0.00     0.059 A 
ATOM     56  C   UNL A   1      34.126  33.810  30.763  1.00  0.00     0.059 A 
ATOM     57  F   UNL A   1      34.885  32.347  32.432  1.00  0.00    -0.206 F 
ATOM     58  C   UNL A   1      34.413  34.643  29.681  1.00  0.00     0.060 A 
BRANCH  58  59
ATOM     59  S   UNL A   1      33.083  35.532  28.843  1.00  0.00     0.124 S 
ATOM     60  O   UNL A   1      32.454  34.461  28.078  1.00  0.00    -0.237 OA
ATOM     61  O   UNL A   1      32.309  36.056  29.964  1.00  0.00    -0.237 OA
ATOM     62  O   UNL A   1      33.795  36.536  28.059  1.00  0.00    -0.744 OA
ENDBRANCH  58  59
ENDBRANCH  26  51
BRANCH  38  63
ATOM     63  C   UNL A   1      39.900  34.238  36.929  1.00  0.00     0.058 A 
ATOM     64  C   UNL A   1      40.484  35.509  36.835  1.00  0.00     0.135 A 
ATOM     65  C   UNL A   1      39.132  33.947  38.068  1.00  0.00     0.135 A 
ATOM     66  F   UNL A   1      41.234  35.832  35.768  1.00  0.00    -0.206 F 
ATOM     67  C   UNL A   1      40.330  36.454  37.844  1.00  0.00     0.059 A 
ATOM     68  C   UNL A   1      38.949  34.884  39.079  1.00  0.00     0.059 A 
ATOM     69  F   UNL A   1      38.548  32.746  38.200  1.00  0.00    -0.206 F 
ATOM     70  C   UNL A   1      39.561  36.130  38.964  1.00  0.00     0.060 A 
BRANCH  70  71
ATOM     71  S   UNL A   1      39.348  37.374  40.255  1.00  0.00     0.124 S 
ATOM     72  O   UNL A   1      40.728  37.776  40.505  1.00  0.00    -0.237 OA
ATOM     73  O   UNL A   1      38.506  38.369  39.596  1.00  0.00    -0.237 OA
ATOM     74  O   UNL A   1      38.704  36.634  41.335  1.00  0.00    -0.744 OA
ENDBRANCH  70  71
ENDBRANCH  38  63
ENDBRANCH  12  13
ENDBRANCH   5   7
ENDBRANCH   2   3
ENDBRANCH   1   2
BRANCH   1  75
ATOM     75  C   UNL A   1      38.022  21.826  25.527  1.00  0.00     0.023 C 
BRANCH  75  76
ATOM     76  C   UNL A   1      37.016  20.856  24.907  1.00  0.00     0.116 C 
BRANCH  76  77
ATOM     77  N   UNL A   1      35.787  20.755  25.675  1.00  0.00    -0.356 N 
ATOM     78  C   UNL A   1      34.498  21.089  25.438  1.00  0.00     0.224 C 
ATOM     79  H   UNL A   1      35.924  20.357  26.566  1.00  0.00     0.163 HD
ATOM     80  O   UNL A   1      33.686  20.757  26.313  1.00  0.00    -0.275 OA
BRANCH  78  81
ATOM     81  C   UNL A   1      33.993  21.897  24.247  1.00  0.00     0.098 C 
ATOM     82  C   UNL A   1      32.698  21.283  23.693  1.00  0.00     0.017 C 
ATOM     83  C   UNL A   1      33.844  23.398  24.421  1.00  0.00     0.131 C 
ATOM     84  C   UNL A   1      32.238  22.012  22.426  1.00  0.00     0.022 C 
ATOM     85  N   UNL A   1      33.423  24.012  23.154  1.00  0.00    -0.354 N 
ATOM     86  C   UNL A   1      32.141  23.526  22.638  1.00  0.00     0.118 C 
BRANCH  85  87
ATOM     87  C   UNL A   1      33.610  25.400  23.126  1.00  0.00     0.151 A 
ATOM     88  C   UNL A   1      33.615  26.104  24.330  1.00  0.00     0.054 A 
ATOM     89  N   UNL A   1      33.750  26.068  21.957  1.00  0.00    -0.129 NA
ATOM     90  C   UNL A   1      33.725  27.487  24.325  1.00  0.00     0.074 A 
ATOM     91  N   UNL A   1      33.844  27.437  21.939  1.00  0.00    -0.110 NA
ATOM     92  C   UNL A   1      33.822  28.102  23.104  1.00  0.00     0.231 A 
BRANCH  92  93
ATOM     93  O   UNL A   1      33.889  29.456  23.016  1.00  0.00    -0.492 OA
ATOM     94  H   UNL A   1      33.139  29.977  23.225  1.00  0.00     0.295 HD
ENDBRANCH  92  93
ENDBRANCH  85  87
ENDBRANCH  78  81
ENDBRANCH  76  77
ENDBRANCH  75  76
ENDBRANCH   1  75
TORSDOF 16
ENDMDL
