MODEL 1
REMARK VINA RESULT:     -11.4      0.000      0.000
REMARK SMILES Cc1ccc(C[N@H+]2CCC[C@@H](C(=O)NCCCCNC(=O)c3ccc(-c4c5nc(c(-c6c(F)cc(S(=O)(=O)[O-])cc6F)c6ccc([nH]6)c(-c6c(F)cc(S(=O)(=O)[O-])cc6F)c6nc(c(-c7c(F)cc(S(=O)(=O)[O-])cc7F)c7ccc4[nH]7)C=C6)C=C5)cc3)C2)o1
REMARK SMILES IDX 17 1 16 2 15 3 14 4 12 5 13 6 11 8 7 9 8 10 88 11 9 13 10 14
REMARK SMILES IDX 6 15 5 16 1 17 2 18 3 19 89 20 4 21 18 22 19 23 20 24 21 26
REMARK SMILES IDX 22 27 23 28 87 29 24 30 86 31 25 32 26 33 27 34 80 35 28 36
REMARK SMILES IDX 85 37 79 38 81 39 29 40 84 41 78 42 77 43 30 45 64 46 43 47
REMARK SMILES IDX 63 48 44 49 47 50 62 51 82 52 45 53 46 54 61 56 83 57 48 58
REMARK SMILES IDX 31 59 32 60 41 61 33 62 34 63 40 64 42 65 35 66 36 67 37 68
REMARK SMILES IDX 38 69 39 70 65 71 66 72 75 73 67 74 68 75 74 76 76 77 69 78
REMARK SMILES IDX 70 79 71 80 72 81 73 82 49 83 50 84 59 85 51 86 52 87 58 88
REMARK SMILES IDX 60 89 53 90 54 91 55 92 56 93 57 94
REMARK H PARENT 14 7 7 12 19 25 81 44 47 55
REMARK Flexibility Score: inf
ROOT
ATOM      1  C   UNL A   1      37.606  23.018  25.882  1.00  0.00     0.023 C 
ENDROOT
BRANCH   1   2
ATOM      2  C   UNL A   1      37.016  23.138  24.474  1.00  0.00     0.023 C 
BRANCH   2   3
ATOM      3  C   UNL A   1      35.686  22.415  24.281  1.00  0.00     0.116 C 
BRANCH   3   4
ATOM      4  N   UNL A   1      34.970  22.931  23.130  1.00  0.00    -0.356 N 
ATOM      5  C   UNL A   1      34.087  23.961  23.030  1.00  0.00     0.228 C 
ATOM      6  O   UNL A   1      33.540  24.148  21.942  1.00  0.00    -0.275 OA
ATOM      7  H   UNL A   1      35.153  22.460  22.284  1.00  0.00     0.163 HD
BRANCH   5   8
ATOM      8  C   UNL A   1      33.802  24.843  24.233  1.00  0.00     0.133 C 
ATOM      9  N   UNL A   1      33.226  27.165  24.855  1.00  0.00    -0.328 N 
ATOM     10  C   UNL A   1      32.045  26.710  25.602  1.00  0.00     0.262 C 
ATOM     11  C   UNL A   1      33.518  26.260  23.729  1.00  0.00     0.276 C 
ATOM     12  H   UNL A   1      34.013  27.132  25.502  1.00  0.00     0.348 HD
ATOM     13  C   UNL A   1      32.239  25.286  26.135  1.00  0.00     0.062 C 
ATOM     14  C   UNL A   1      32.604  24.309  25.020  1.00  0.00     0.025 C 
BRANCH   9  15
ATOM     15  C   UNL A   1      33.118  28.572  24.412  1.00  0.00     0.338 C 
BRANCH  15  16
ATOM     16  C   UNL A   1      32.828  29.569  25.484  1.00  0.00     0.158 A 
ATOM     17  C   UNL A   1      34.418  31.330  28.141  1.00  0.00     0.087 C 
ATOM     18  C   UNL A   1      33.414  30.827  27.184  1.00  0.00     0.101 A 
ATOM     19  C   UNL A   1      32.121  31.181  26.869  1.00  0.00     0.046 A 
ATOM     20  O   UNL A   1      33.823  29.807  26.385  1.00  0.00    -0.460 OA
ATOM     21  C   UNL A   1      31.740  30.364  25.776  1.00  0.00     0.052 A 
ENDBRANCH  15  16
ENDBRANCH   9  15
ENDBRANCH   5   8
ENDBRANCH   3   4
ENDBRANCH   2   3
ENDBRANCH   1   2
BRANCH   1  22
ATOM     22  C   UNL A   1      38.483  24.186  26.324  1.00  0.00     0.116 C 
BRANCH  22  23
ATOM     23  N   UNL A   1      39.901  23.942  26.108  1.00  0.00    -0.352 N 
ATOM     24  C   UNL A   1      40.981  24.641  26.589  1.00  0.00     0.251 C 
ATOM     25  H   UNL A   1      40.117  23.169  25.539  1.00  0.00     0.163 HD
ATOM     26  O   UNL A   1      42.112  24.369  26.192  1.00  0.00    -0.269 OA
BRANCH  24  27
ATOM     27  C   UNL A   1      40.775  25.740  27.556  1.00  0.00     0.039 A 
ATOM     28  C   UNL A   1      39.756  25.622  28.505  1.00  0.00     0.014 A 
ATOM     29  C   UNL A   1      41.596  26.871  27.542  1.00  0.00     0.014 A 
ATOM     30  C   UNL A   1      39.605  26.606  29.484  1.00  0.00     0.010 A 
ATOM     31  C   UNL A   1      41.487  27.817  28.559  1.00  0.00     0.010 A 
ATOM     32  C   UNL A   1      40.495  27.692  29.543  1.00  0.00    -0.014 A 
BRANCH  32  33
ATOM     33  C   UNL A   1      40.410  28.699  30.632  1.00  0.00     0.031 A 
ATOM     34  C   UNL A   1      41.289  28.576  31.847  1.00  0.00     0.074 A 
ATOM     35  C   UNL A   1      39.491  29.685  30.557  1.00  0.00     0.049 A 
ATOM     36  N   UNL A   1      41.303  29.307  32.933  1.00  0.00    -0.248 NA
ATOM     37  C   UNL A   1      42.262  27.472  31.856  1.00  0.00     0.031 C 
ATOM     38  C   UNL A   1      38.547  29.881  29.455  1.00  0.00     0.029 A 
ATOM     39  N   UNL A   1      39.191  30.699  31.432  1.00  0.00    -0.354 N 
ATOM     40  C   UNL A   1      42.269  28.743  33.757  1.00  0.00     0.074 A 
ATOM     41  C   UNL A   1      42.790  27.583  33.067  1.00  0.00     0.031 C 
ATOM     42  C   UNL A   1      37.786  30.958  29.712  1.00  0.00     0.029 A 
ATOM     43  C   UNL A   1      38.160  31.506  31.011  1.00  0.00     0.049 A 
ATOM     44  H   UNL A   1      39.670  30.837  32.281  1.00  0.00     0.167 HD
ATOM     45  C   UNL A   1      42.698  29.167  34.970  1.00  0.00     0.037 A 
ATOM     46  C   UNL A   1      37.573  32.563  31.608  1.00  0.00     0.037 A 
ATOM     47  C   UNL A   1      42.201  30.343  35.637  1.00  0.00     0.049 A 
ATOM     48  C   UNL A   1      38.077  33.018  32.952  1.00  0.00     0.074 A 
ATOM     49  C   UNL A   1      42.621  30.890  36.836  1.00  0.00     0.029 A 
ATOM     50  N   UNL A   1      41.180  31.152  35.163  1.00  0.00    -0.354 N 
ATOM     51  N   UNL A   1      39.039  32.512  33.687  1.00  0.00    -0.248 NA
ATOM     52  C   UNL A   1      37.421  34.191  33.547  1.00  0.00     0.031 C 
ATOM     53  C   UNL A   1      41.826  32.010  37.108  1.00  0.00     0.029 A 
ATOM     54  C   UNL A   1      40.943  32.185  36.055  1.00  0.00     0.049 A 
ATOM     55  H   UNL A   1      40.694  31.012  34.318  1.00  0.00     0.167 HD
ATOM     56  C   UNL A   1      39.124  33.323  34.813  1.00  0.00     0.074 A 
ATOM     57  C   UNL A   1      38.123  34.357  34.659  1.00  0.00     0.031 C 
ATOM     58  C   UNL A   1      39.955  33.218  35.880  1.00  0.00     0.037 A 
BRANCH  45  59
ATOM     59  C   UNL A   1      43.768  28.365  35.658  1.00  0.00     0.058 A 
ATOM     60  C   UNL A   1      43.452  27.310  36.527  1.00  0.00     0.135 A 
ATOM     61  C   UNL A   1      45.125  28.611  35.393  1.00  0.00     0.135 A 
ATOM     62  F   UNL A   1      42.171  27.042  36.828  1.00  0.00    -0.206 F 
ATOM     63  C   UNL A   1      44.443  26.537  37.123  1.00  0.00     0.059 A 
ATOM     64  C   UNL A   1      46.133  27.833  35.956  1.00  0.00     0.059 A 
ATOM     65  F   UNL A   1      45.483  29.609  34.570  1.00  0.00    -0.206 F 
ATOM     66  C   UNL A   1      45.781  26.803  36.827  1.00  0.00     0.060 A 
BRANCH  66  67
ATOM     67  S   UNL A   1      47.053  25.768  37.583  1.00  0.00     0.124 S 
ATOM     68  O   UNL A   1      48.239  26.173  36.835  1.00  0.00    -0.237 OA
ATOM     69  O   UNL A   1      47.010  26.193  38.980  1.00  0.00    -0.237 OA
ATOM     70  O   UNL A   1      46.583  24.410  37.329  1.00  0.00    -0.744 OA
ENDBRANCH  66  67
ENDBRANCH  45  59
BRANCH  46  71
ATOM     71  C   UNL A   1      36.453  33.276  30.940  1.00  0.00     0.058 A 
ATOM     72  C   UNL A   1      36.684  34.112  29.838  1.00  0.00     0.135 A 
ATOM     73  C   UNL A   1      35.132  33.148  31.397  1.00  0.00     0.135 A 
ATOM     74  F   UNL A   1      37.930  34.271  29.367  1.00  0.00    -0.206 F 
ATOM     75  C   UNL A   1      35.652  34.820  29.230  1.00  0.00     0.059 A 
ATOM     76  C   UNL A   1      34.079  33.824  30.789  1.00  0.00     0.059 A 
ATOM     77  F   UNL A   1      34.854  32.345  32.436  1.00  0.00    -0.206 F 
ATOM     78  C   UNL A   1      34.351  34.671  29.715  1.00  0.00     0.060 A 
BRANCH  78  79
ATOM     79  S   UNL A   1      33.015  35.576  28.906  1.00  0.00     0.124 S 
ATOM     80  O   UNL A   1      32.202  35.981  30.047  1.00  0.00    -0.237 OA
ATOM     81  O   UNL A   1      33.736  36.647  28.224  1.00  0.00    -0.237 OA
ATOM     82  O   UNL A   1      32.418  34.576  28.027  1.00  0.00    -0.744 OA
ENDBRANCH  78  79
ENDBRANCH  46  71
BRANCH  58  83
ATOM     83  C   UNL A   1      39.851  34.274  36.945  1.00  0.00     0.058 A 
ATOM     84  C   UNL A   1      40.486  35.518  36.815  1.00  0.00     0.135 A 
ATOM     85  C   UNL A   1      39.060  34.056  38.084  1.00  0.00     0.135 A 
ATOM     86  F   UNL A   1      41.258  35.776  35.748  1.00  0.00    -0.206 F 
ATOM     87  C   UNL A   1      40.359  36.503  37.789  1.00  0.00     0.059 A 
ATOM     88  C   UNL A   1      38.897  35.035  39.058  1.00  0.00     0.059 A 
ATOM     89  F   UNL A   1      38.423  32.886  38.251  1.00  0.00    -0.206 F 
ATOM     90  C   UNL A   1      39.560  36.253  38.907  1.00  0.00     0.060 A 
BRANCH  90  91
ATOM     91  S   UNL A   1      39.372  37.551  40.147  1.00  0.00     0.124 S 
ATOM     92  O   UNL A   1      38.282  38.340  39.583  1.00  0.00    -0.237 OA
ATOM     93  O   UNL A   1      39.049  36.791  41.350  1.00  0.00    -0.237 OA
ATOM     94  O   UNL A   1      40.679  38.204  40.157  1.00  0.00    -0.744 OA
ENDBRANCH  90  91
ENDBRANCH  58  83
ENDBRANCH  32  33
ENDBRANCH  24  27
ENDBRANCH  22  23
ENDBRANCH   1  22
TORSDOF 16
ENDMDL
MODEL 2
REMARK VINA RESULT:     -11.4      6.714     12.581
REMARK SMILES Cc1ccc(C[N@H+]2CCC[C@@H](C(=O)NCCCCNC(=O)c3ccc(-c4c5nc(c(-c6c(F)cc(S(=O)(=O)[O-])cc6F)c6ccc([nH]6)c(-c6c(F)cc(S(=O)(=O)[O-])cc6F)c6nc(c(-c7c(F)cc(S(=O)(=O)[O-])cc7F)c7ccc4[nH]7)C=C6)C=C5)cc3)C2)o1
REMARK SMILES IDX 17 1 16 2 15 3 14 4 12 5 13 6 11 8 7 9 8 10 88 11 9 13 10 14
REMARK SMILES IDX 6 15 5 16 1 17 2 18 3 19 89 20 4 21 18 22 19 23 20 24 21 26
REMARK SMILES IDX 22 27 23 28 87 29 24 30 86 31 25 32 26 33 27 34 80 35 28 36
REMARK SMILES IDX 85 37 79 38 81 39 29 40 84 41 78 42 77 43 30 45 64 46 43 47
REMARK SMILES IDX 63 48 44 49 47 50 62 51 82 52 45 53 46 54 61 56 83 57 48 58
REMARK SMILES IDX 31 59 32 60 41 61 33 62 34 63 40 64 42 65 35 66 36 67 37 68
REMARK SMILES IDX 38 69 39 70 65 71 66 72 75 73 67 74 68 75 74 76 76 77 69 78
REMARK SMILES IDX 70 79 71 80 72 81 73 82 49 83 50 84 59 85 51 86 52 87 58 88
REMARK SMILES IDX 60 89 53 90 54 91 55 92 56 93 57 94
REMARK H PARENT 14 7 7 12 19 25 81 44 47 55
REMARK Flexibility Score: inf
ROOT
ATOM      1  C   UNL A   1      37.925  34.345  32.633  1.00  0.00     0.023 C 
ENDROOT
BRANCH   1   2
ATOM      2  C   UNL A   1      37.519  33.725  33.973  1.00  0.00     0.023 C 
BRANCH   2   3
ATOM      3  C   UNL A   1      36.266  34.332  34.598  1.00  0.00     0.116 C 
BRANCH   3   4
ATOM      4  N   UNL A   1      35.080  33.583  34.229  1.00  0.00    -0.356 N 
ATOM      5  C   UNL A   1      34.139  33.835  33.280  1.00  0.00     0.228 C 
ATOM      6  O   UNL A   1      33.165  33.083  33.221  1.00  0.00    -0.275 OA
ATOM      7  H   UNL A   1      34.933  32.761  34.750  1.00  0.00     0.163 HD
BRANCH   5   8
ATOM      8  C   UNL A   1      34.306  35.007  32.331  1.00  0.00     0.133 C 
ATOM      9  N   UNL A   1      34.138  35.621  29.941  1.00  0.00    -0.328 N 
ATOM     10  C   UNL A   1      33.205  36.714  30.249  1.00  0.00     0.262 C 
ATOM     11  C   UNL A   1      34.000  34.520  30.912  1.00  0.00     0.276 C 
ATOM     12  H   UNL A   1      35.079  36.004  30.027  1.00  0.00     0.348 HD
ATOM     13  C   UNL A   1      33.434  37.256  31.665  1.00  0.00     0.062 C 
ATOM     14  C   UNL A   1      33.362  36.149  32.714  1.00  0.00     0.025 C 
BRANCH   9  15
ATOM     15  C   UNL A   1      34.018  35.139  28.548  1.00  0.00     0.338 C 
BRANCH  15  16
ATOM     16  C   UNL A   1      34.528  33.760  28.293  1.00  0.00     0.158 A 
ATOM     17  C   UNL A   1      33.416  30.526  27.294  1.00  0.00     0.087 C 
ATOM     18  C   UNL A   1      34.260  31.657  27.724  1.00  0.00     0.101 A 
ATOM     19  C   UNL A   1      35.619  31.856  27.836  1.00  0.00     0.046 A 
ATOM     20  O   UNL A   1      33.595  32.793  28.061  1.00  0.00    -0.460 OA
ATOM     21  C   UNL A   1      35.792  33.213  28.210  1.00  0.00     0.052 A 
ENDBRANCH  15  16
ENDBRANCH   9  15
ENDBRANCH   5   8
ENDBRANCH   3   4
ENDBRANCH   2   3
ENDBRANCH   1   2
BRANCH   1  22
ATOM     22  C   UNL A   1      37.888  33.398  31.437  1.00  0.00     0.116 C 
BRANCH  22  23
ATOM     23  N   UNL A   1      36.888  32.351  31.576  1.00  0.00    -0.352 N 
ATOM     24  C   UNL A   1      36.953  31.036  31.182  1.00  0.00     0.251 C 
ATOM     25  H   UNL A   1      36.048  32.621  32.012  1.00  0.00     0.163 HD
ATOM     26  O   UNL A   1      35.955  30.324  31.261  1.00  0.00    -0.269 OA
BRANCH  24  27
ATOM     27  C   UNL A   1      38.214  30.494  30.635  1.00  0.00     0.039 A 
ATOM     28  C   UNL A   1      38.390  30.463  29.249  1.00  0.00     0.014 A 
ATOM     29  C   UNL A   1      39.228  30.038  31.483  1.00  0.00     0.014 A 
ATOM     30  C   UNL A   1      39.610  30.040  28.716  1.00  0.00     0.010 A 
ATOM     31  C   UNL A   1      40.465  29.681  30.953  1.00  0.00     0.010 A 
ATOM     32  C   UNL A   1      40.671  29.683  29.565  1.00  0.00    -0.014 A 
BRANCH  32  33
ATOM     33  C   UNL A   1      42.005  29.321  29.020  1.00  0.00     0.031 A 
ATOM     34  C   UNL A   1      42.268  27.923  28.528  1.00  0.00     0.074 A 
ATOM     35  C   UNL A   1      42.999  30.233  29.032  1.00  0.00     0.049 A 
ATOM     36  N   UNL A   1      43.386  27.398  28.095  1.00  0.00    -0.248 NA
ATOM     37  C   UNL A   1      41.135  26.985  28.551  1.00  0.00     0.031 C 
ATOM     38  C   UNL A   1      42.882  31.606  29.530  1.00  0.00     0.029 A 
ATOM     39  N   UNL A   1      44.307  30.139  28.627  1.00  0.00    -0.354 N 
ATOM     40  C   UNL A   1      43.095  26.069  27.811  1.00  0.00     0.074 A 
ATOM     41  C   UNL A   1      41.708  25.854  28.161  1.00  0.00     0.031 C 
ATOM     42  C   UNL A   1      44.064  32.229  29.385  1.00  0.00     0.029 A 
ATOM     43  C   UNL A   1      45.030  31.293  28.822  1.00  0.00     0.049 A 
ATOM     44  H   UNL A   1      44.692  29.323  28.234  1.00  0.00     0.167 HD
ATOM     45  C   UNL A   1      43.906  25.120  27.285  1.00  0.00     0.037 A 
ATOM     46  C   UNL A   1      46.329  31.565  28.583  1.00  0.00     0.037 A 
ATOM     47  C   UNL A   1      45.276  25.348  26.904  1.00  0.00     0.049 A 
ATOM     48  C   UNL A   1      47.205  30.493  27.989  1.00  0.00     0.074 A 
ATOM     49  C   UNL A   1      46.157  24.468  26.301  1.00  0.00     0.029 A 
ATOM     50  N   UNL A   1      45.962  26.539  27.086  1.00  0.00    -0.354 N 
ATOM     51  N   UNL A   1      46.894  29.261  27.664  1.00  0.00    -0.248 NA
ATOM     52  C   UNL A   1      48.605  30.850  27.724  1.00  0.00     0.031 C 
ATOM     53  C   UNL A   1      47.389  25.114  26.155  1.00  0.00     0.029 A 
ATOM     54  C   UNL A   1      47.262  26.411  26.623  1.00  0.00     0.049 A 
ATOM     55  H   UNL A   1      45.583  27.354  27.486  1.00  0.00     0.167 HD
ATOM     56  C   UNL A   1      48.051  28.707  27.127  1.00  0.00     0.074 A 
ATOM     57  C   UNL A   1      49.064  29.740  27.162  1.00  0.00     0.031 C 
ATOM     58  C   UNL A   1      48.255  27.454  26.649  1.00  0.00     0.037 A 
BRANCH  45  59
ATOM     59  C   UNL A   1      43.335  23.745  27.075  1.00  0.00     0.058 A 
ATOM     60  C   UNL A   1      42.785  23.358  25.843  1.00  0.00     0.135 A 
ATOM     61  C   UNL A   1      43.399  22.782  28.095  1.00  0.00     0.135 A 
ATOM     62  F   UNL A   1      42.684  24.244  24.839  1.00  0.00    -0.206 F 
ATOM     63  C   UNL A   1      42.303  22.069  25.635  1.00  0.00     0.059 A 
ATOM     64  C   UNL A   1      42.948  21.479  27.901  1.00  0.00     0.059 A 
ATOM     65  F   UNL A   1      43.914  23.099  29.293  1.00  0.00    -0.206 F 
ATOM     66  C   UNL A   1      42.393  21.136  26.668  1.00  0.00     0.060 A 
BRANCH  66  67
ATOM     67  S   UNL A   1      41.793  19.459  26.369  1.00  0.00     0.124 S 
ATOM     68  O   UNL A   1      42.607  19.059  25.226  1.00  0.00    -0.237 OA
ATOM     69  O   UNL A   1      42.098  18.790  27.630  1.00  0.00    -0.237 OA
ATOM     70  O   UNL A   1      40.372  19.650  26.092  1.00  0.00    -0.744 OA
ENDBRANCH  66  67
ENDBRANCH  45  59
BRANCH  46  71
ATOM     71  C   UNL A   1      46.884  32.910  28.891  1.00  0.00     0.058 A 
ATOM     72  C   UNL A   1      47.412  33.200  30.158  1.00  0.00     0.135 A 
ATOM     73  C   UNL A   1      46.885  33.935  27.932  1.00  0.00     0.135 A 
ATOM     74  F   UNL A   1      47.428  32.255  31.110  1.00  0.00    -0.206 F 
ATOM     75  C   UNL A   1      47.893  34.466  30.474  1.00  0.00     0.059 A 
ATOM     76  C   UNL A   1      47.385  35.201  28.216  1.00  0.00     0.059 A 
ATOM     77  F   UNL A   1      46.408  33.703  26.699  1.00  0.00    -0.206 F 
ATOM     78  C   UNL A   1      47.874  35.462  29.496  1.00  0.00     0.060 A 
BRANCH  78  79
ATOM     79  S   UNL A   1      48.521  37.096  29.909  1.00  0.00     0.124 S 
ATOM     80  O   UNL A   1      47.766  37.950  29.000  1.00  0.00    -0.237 OA
ATOM     81  O   UNL A   1      48.184  37.214  31.325  1.00  0.00    -0.237 OA
ATOM     82  O   UNL A   1      49.948  36.973  29.622  1.00  0.00    -0.744 OA
ENDBRANCH  78  79
ENDBRANCH  46  71
BRANCH  58  83
ATOM     83  C   UNL A   1      49.612  27.141  26.083  1.00  0.00     0.058 A 
ATOM     84  C   UNL A   1      50.665  26.694  26.895  1.00  0.00     0.135 A 
ATOM     85  C   UNL A   1      49.843  27.237  24.702  1.00  0.00     0.135 A 
ATOM     86  F   UNL A   1      50.498  26.590  28.223  1.00  0.00    -0.206 F 
ATOM     87  C   UNL A   1      51.908  26.375  26.360  1.00  0.00     0.059 A 
ATOM     88  C   UNL A   1      51.070  26.898  24.141  1.00  0.00     0.059 A 
ATOM     89  F   UNL A   1      48.865  27.650  23.880  1.00  0.00    -0.206 F 
ATOM     90  C   UNL A   1      52.101  26.478  24.981  1.00  0.00     0.060 A 
BRANCH  90  91
ATOM     91  S   UNL A   1      53.708  26.026  24.293  1.00  0.00     0.124 S 
ATOM     92  O   UNL A   1      53.776  24.605  24.617  1.00  0.00    -0.237 OA
ATOM     93  O   UNL A   1      53.545  26.347  22.879  1.00  0.00    -0.237 OA
ATOM     94  O   UNL A   1      54.642  26.881  25.021  1.00  0.00    -0.744 OA
ENDBRANCH  90  91
ENDBRANCH  58  83
ENDBRANCH  32  33
ENDBRANCH  24  27
ENDBRANCH  22  23
ENDBRANCH   1  22
TORSDOF 16
ENDMDL
MODEL 3
REMARK VINA RESULT:     -11.3      2.120      4.332
REMARK SMILES Cc1ccc(C[N@H+]2CCC[C@@H](C(=O)NCCCCNC(=O)c3ccc(-c4c5nc(c(-c6c(F)cc(S(=O)(=O)[O-])cc6F)c6ccc([nH]6)c(-c6c(F)cc(S(=O)(=O)[O-])cc6F)c6nc(c(-c7c(F)cc(S(=O)(=O)[O-])cc7F)c7ccc4[nH]7)C=C6)C=C5)cc3)C2)o1
REMARK SMILES IDX 17 1 16 2 15 3 14 4 12 5 13 6 11 8 7 9 8 10 88 11 9 13 10 14
REMARK SMILES IDX 6 15 5 16 1 17 2 18 3 19 89 20 4 21 18 22 19 23 20 24 21 26
REMARK SMILES IDX 22 27 23 28 87 29 24 30 86 31 25 32 26 33 27 34 80 35 28 36
REMARK SMILES IDX 85 37 79 38 81 39 29 40 84 41 78 42 77 43 30 45 64 46 43 47
REMARK SMILES IDX 63 48 44 49 47 50 62 51 82 52 45 53 46 54 61 56 83 57 48 58
REMARK SMILES IDX 31 59 32 60 41 61 33 62 34 63 40 64 42 65 35 66 36 67 37 68
REMARK SMILES IDX 38 69 39 70 65 71 66 72 75 73 67 74 68 75 74 76 76 77 69 78
REMARK SMILES IDX 70 79 71 80 72 81 73 82 49 83 50 84 59 85 51 86 52 87 58 88
REMARK SMILES IDX 60 89 53 90 54 91 55 92 56 93 57 94
REMARK H PARENT 14 7 7 12 19 25 81 44 47 55
REMARK Flexibility Score: inf
ROOT
ATOM      1  C   UNL A   1      39.662  22.195  26.855  1.00  0.00     0.023 C 
ENDROOT
BRANCH   1   2
ATOM      2  C   UNL A   1      38.548  22.933  26.108  1.00  0.00     0.023 C 
BRANCH   2   3
ATOM      3  C   UNL A   1      37.337  22.071  25.765  1.00  0.00     0.116 C 
BRANCH   3   4
ATOM      4  N   UNL A   1      36.167  22.485  26.515  1.00  0.00    -0.356 N 
ATOM      5  C   UNL A   1      34.870  22.616  26.125  1.00  0.00     0.228 C 
ATOM      6  O   UNL A   1      34.067  23.076  26.938  1.00  0.00    -0.275 OA
ATOM      7  H   UNL A   1      36.339  22.707  27.459  1.00  0.00     0.163 HD
BRANCH   5   8
ATOM      8  C   UNL A   1      34.447  22.198  24.728  1.00  0.00     0.133 C 
ATOM      9  N   UNL A   1      32.972  20.616  23.529  1.00  0.00    -0.328 N 
ATOM     10  C   UNL A   1      32.325  21.715  22.800  1.00  0.00     0.262 C 
ATOM     11  C   UNL A   1      33.429  21.062  24.858  1.00  0.00     0.276 C 
ATOM     12  H   UNL A   1      33.792  20.345  22.986  1.00  0.00     0.348 HD
ATOM     13  C   UNL A   1      33.275  22.907  22.634  1.00  0.00     0.062 C 
ATOM     14  C   UNL A   1      33.830  23.379  23.976  1.00  0.00     0.025 C 
BRANCH   9  15
ATOM     15  C   UNL A   1      32.123  19.409  23.620  1.00  0.00     0.338 C 
BRANCH  15  16
ATOM     16  C   UNL A   1      32.840  18.132  23.910  1.00  0.00     0.158 A 
ATOM     17  C   UNL A   1      32.482  15.101  25.747  1.00  0.00     0.087 C 
ATOM     18  C   UNL A   1      33.010  16.169  24.877  1.00  0.00     0.101 A 
ATOM     19  C   UNL A   1      34.080  16.270  24.017  1.00  0.00     0.046 A 
ATOM     20  O   UNL A   1      32.291  17.322  24.860  1.00  0.00    -0.460 OA
ATOM     21  C   UNL A   1      33.975  17.540  23.397  1.00  0.00     0.052 A 
ENDBRANCH  15  16
ENDBRANCH   9  15
ENDBRANCH   5   8
ENDBRANCH   3   4
ENDBRANCH   2   3
ENDBRANCH   1   2
BRANCH   1  22
ATOM     22  C   UNL A   1      40.877  23.043  27.219  1.00  0.00     0.116 C 
BRANCH  22  23
ATOM     23  N   UNL A   1      41.361  23.845  26.106  1.00  0.00    -0.352 N 
ATOM     24  C   UNL A   1      41.604  25.196  26.055  1.00  0.00     0.251 C 
ATOM     25  H   UNL A   1      41.539  23.352  25.273  1.00  0.00     0.163 HD
ATOM     26  O   UNL A   1      41.885  25.728  24.984  1.00  0.00    -0.269 OA
BRANCH  24  27
ATOM     27  C   UNL A   1      41.493  26.010  27.284  1.00  0.00     0.039 A 
ATOM     28  C   UNL A   1      42.553  26.849  27.636  1.00  0.00     0.014 A 
ATOM     29  C   UNL A   1      40.341  25.963  28.074  1.00  0.00     0.014 A 
ATOM     30  C   UNL A   1      42.430  27.694  28.741  1.00  0.00     0.010 A 
ATOM     31  C   UNL A   1      40.193  26.853  29.135  1.00  0.00     0.010 A 
ATOM     32  C   UNL A   1      41.233  27.731  29.477  1.00  0.00    -0.014 A 
BRANCH  32  33
ATOM     33  C   UNL A   1      41.048  28.689  30.598  1.00  0.00     0.031 A 
ATOM     34  C   UNL A   1      41.888  28.571  31.841  1.00  0.00     0.074 A 
ATOM     35  C   UNL A   1      40.075  29.620  30.523  1.00  0.00     0.049 A 
ATOM     36  N   UNL A   1      41.818  29.259  32.952  1.00  0.00    -0.248 NA
ATOM     37  C   UNL A   1      42.924  27.526  31.848  1.00  0.00     0.031 C 
ATOM     38  C   UNL A   1      39.162  29.802  29.392  1.00  0.00     0.029 A 
ATOM     39  N   UNL A   1      39.683  30.581  31.421  1.00  0.00    -0.354 N 
ATOM     40  C   UNL A   1      42.785  28.722  33.793  1.00  0.00     0.074 A 
ATOM     41  C   UNL A   1      43.400  27.622  33.082  1.00  0.00     0.031 C 
ATOM     42  C   UNL A   1      38.329  30.822  29.658  1.00  0.00     0.029 A 
ATOM     43  C   UNL A   1      38.621  31.342  30.989  1.00  0.00     0.049 A 
ATOM     44  H   UNL A   1      40.121  30.715  32.293  1.00  0.00     0.167 HD
ATOM     45  C   UNL A   1      43.142  29.124  35.036  1.00  0.00     0.037 A 
ATOM     46  C   UNL A   1      37.950  32.338  31.601  1.00  0.00     0.037 A 
ATOM     47  C   UNL A   1      42.552  30.242  35.725  1.00  0.00     0.049 A 
ATOM     48  C   UNL A   1      38.376  32.771  32.979  1.00  0.00     0.074 A 
ATOM     49  C   UNL A   1      42.893  30.767  36.959  1.00  0.00     0.029 A 
ATOM     50  N   UNL A   1      41.502  31.007  35.240  1.00  0.00    -0.354 N 
ATOM     51  N   UNL A   1      39.339  32.295  33.731  1.00  0.00    -0.248 NA
ATOM     52  C   UNL A   1      37.629  33.880  33.589  1.00  0.00     0.031 C 
ATOM     53  C   UNL A   1      42.023  31.826  37.239  1.00  0.00     0.029 A 
ATOM     54  C   UNL A   1      41.170  31.990  36.159  1.00  0.00     0.049 A 
ATOM     55  H   UNL A   1      41.057  30.872  34.373  1.00  0.00     0.167 HD
ATOM     56  C   UNL A   1      39.333  33.065  34.889  1.00  0.00     0.074 A 
ATOM     57  C   UNL A   1      38.278  34.045  34.733  1.00  0.00     0.031 C 
ATOM     58  C   UNL A   1      40.129  32.969  35.983  1.00  0.00     0.037 A 
BRANCH  45  59
ATOM     59  C   UNL A   1      44.233  28.360  35.736  1.00  0.00     0.058 A 
ATOM     60  C   UNL A   1      45.585  28.704  35.582  1.00  0.00     0.135 A 
ATOM     61  C   UNL A   1      43.919  27.317  36.621  1.00  0.00     0.135 A 
ATOM     62  F   UNL A   1      45.942  29.683  34.735  1.00  0.00    -0.206 F 
ATOM     63  C   UNL A   1      46.589  28.029  36.269  1.00  0.00     0.059 A 
ATOM     64  C   UNL A   1      44.904  26.645  37.339  1.00  0.00     0.059 A 
ATOM     65  F   UNL A   1      42.642  26.947  36.804  1.00  0.00    -0.206 F 
ATOM     66  C   UNL A   1      46.239  27.004  37.148  1.00  0.00     0.060 A 
BRANCH  66  67
ATOM     67  S   UNL A   1      47.552  26.162  38.057  1.00  0.00     0.124 S 
ATOM     68  O   UNL A   1      46.848  25.742  39.264  1.00  0.00    -0.237 OA
ATOM     69  O   UNL A   1      47.927  25.090  37.139  1.00  0.00    -0.237 OA
ATOM     70  O   UNL A   1      48.558  27.202  38.245  1.00  0.00    -0.744 OA
ENDBRANCH  66  67
ENDBRANCH  45  59
BRANCH  46  71
ATOM     71  C   UNL A   1      36.814  33.010  30.915  1.00  0.00     0.058 A 
ATOM     72  C   UNL A   1      37.036  34.046  29.996  1.00  0.00     0.135 A 
ATOM     73  C   UNL A   1      35.485  32.639  31.174  1.00  0.00     0.135 A 
ATOM     74  F   UNL A   1      38.288  34.440  29.719  1.00  0.00    -0.206 F 
ATOM     75  C   UNL A   1      35.982  34.713  29.380  1.00  0.00     0.059 A 
ATOM     76  C   UNL A   1      34.415  33.273  30.551  1.00  0.00     0.059 A 
ATOM     77  F   UNL A   1      35.220  31.641  32.031  1.00  0.00    -0.206 F 
ATOM     78  C   UNL A   1      34.673  34.320  29.666  1.00  0.00     0.060 A 
BRANCH  78  79
ATOM     79  S   UNL A   1      33.311  35.176  28.846  1.00  0.00     0.124 S 
ATOM     80  O   UNL A   1      34.024  36.173  28.057  1.00  0.00    -0.237 OA
ATOM     81  O   UNL A   1      32.678  34.097  28.092  1.00  0.00    -0.237 OA
ATOM     82  O   UNL A   1      32.523  35.696  29.960  1.00  0.00    -0.744 OA
ENDBRANCH  78  79
ENDBRANCH  46  71
BRANCH  58  83
ATOM     83  C   UNL A   1      39.923  33.976  37.080  1.00  0.00     0.058 A 
ATOM     84  C   UNL A   1      40.587  35.212  37.083  1.00  0.00     0.135 A 
ATOM     85  C   UNL A   1      39.006  33.720  38.112  1.00  0.00     0.135 A 
ATOM     86  F   UNL A   1      41.476  35.504  36.121  1.00  0.00    -0.206 F 
ATOM     87  C   UNL A   1      40.366  36.152  38.083  1.00  0.00     0.059 A 
ATOM     88  C   UNL A   1      38.750  34.655  39.109  1.00  0.00     0.059 A 
ATOM     89  F   UNL A   1      38.338  32.557  38.151  1.00  0.00    -0.206 F 
ATOM     90  C   UNL A   1      39.444  35.865  39.093  1.00  0.00     0.060 A 
BRANCH  90  91
ATOM     91  S   UNL A   1      39.138  37.108  40.366  1.00  0.00     0.124 S 
ATOM     92  O   UNL A   1      38.512  36.307  41.413  1.00  0.00    -0.237 OA
ATOM     93  O   UNL A   1      40.482  37.594  40.659  1.00  0.00    -0.237 OA
ATOM     94  O   UNL A   1      38.261  38.068  39.702  1.00  0.00    -0.744 OA
ENDBRANCH  90  91
ENDBRANCH  58  83
ENDBRANCH  32  33
ENDBRANCH  24  27
ENDBRANCH  22  23
ENDBRANCH   1  22
TORSDOF 16
ENDMDL
