MODEL 1
REMARK VINA RESULT:     -10.6      0.000      0.000
REMARK SMILES CCN(CCC#N)C(=O)c1ccncc1/C=C/C(=O)NCCCCNC(=O)c1ccc(-c2c3nc(c(-c4c(F)cc(S(=O)(=O)[O-])cc4F)c4ccc([nH]4)c(-c4c(F)cc(S(=O)(=O)[O-])cc4F)c4nc(c(-c5c(F)cc(S(=O)(=O)[O-])cc5F)c5ccc2[nH]5)C=C4)C=C3)cc1
REMARK SMILES IDX 21 1 20 2 18 3 19 4 17 6 16 7 15 8 10 9 11 10 12 11 14 12
REMARK SMILES IDX 13 13 8 14 9 15 3 16 2 17 1 18 4 19 5 20 6 21 7 22 22 23
REMARK SMILES IDX 23 24 24 25 25 26 26 27 27 29 28 30 29 31 93 32 30 33 92 34
REMARK SMILES IDX 31 35 32 36 33 37 86 38 34 39 91 40 85 41 87 42 35 43 90 44
REMARK SMILES IDX 84 45 83 46 36 48 70 49 49 50 69 51 50 52 53 53 68 54 88 55
REMARK SMILES IDX 51 56 52 57 67 59 89 60 54 61 37 62 38 63 47 64 39 65 40 66
REMARK SMILES IDX 46 67 48 68 41 69 42 70 43 71 44 72 45 73 71 74 72 75 81 76
REMARK SMILES IDX 73 77 74 78 80 79 82 80 75 81 76 82 77 83 78 84 79 85 55 86
REMARK SMILES IDX 56 87 65 88 57 89 58 90 64 91 66 92 59 93 60 94 61 95 62 96
REMARK SMILES IDX 63 97
REMARK H PARENT 20 5 25 28 87 47 53 58
REMARK Flexibility Score: inf
ROOT
ATOM      1  C   UNL A   1      39.331  21.385  26.116  1.00  0.00     0.116 C 
ENDROOT
BRANCH   1   2
ATOM      2  N   UNL A   1      38.896  22.754  26.270  1.00  0.00    -0.353 N 
ATOM      3  C   UNL A   1      37.679  23.291  25.968  1.00  0.00     0.244 C 
ATOM      4  O   UNL A   1      37.441  24.475  26.184  1.00  0.00    -0.270 OA
ATOM      5  H   UNL A   1      39.562  23.379  26.637  1.00  0.00     0.163 HD
BRANCH   3   6
ATOM      6  C   UNL A   1      36.702  22.471  25.221  1.00  0.00     0.072 C 
ATOM      7  C   UNL A   1      35.364  22.612  25.223  1.00  0.00     0.016 C 
BRANCH   7   8
ATOM      8  C   UNL A   1      34.585  21.562  24.548  1.00  0.00     0.006 A 
ATOM      9  C   UNL A   1      33.412  21.797  23.790  1.00  0.00     0.050 A 
ATOM     10  C   UNL A   1      32.493  20.752  23.722  1.00  0.00     0.034 A 
ATOM     11  C   UNL A   1      32.871  19.484  24.140  1.00  0.00     0.112 A 
ATOM     12  C   UNL A   1      34.888  20.241  24.892  1.00  0.00     0.119 A 
ATOM     13  N   UNL A   1      34.068  19.192  24.672  1.00  0.00    -0.264 NA
BRANCH   9  14
ATOM     14  C   UNL A   1      33.213  23.094  23.026  1.00  0.00     0.254 C 
ATOM     15  O   UNL A   1      33.582  23.121  21.854  1.00  0.00    -0.269 OA
BRANCH  14  16
ATOM     16  N   UNL A   1      32.532  24.242  23.528  1.00  0.00    -0.338 N 
BRANCH  16  17
ATOM     17  C   UNL A   1      31.652  24.006  24.696  1.00  0.00     0.116 C 
ATOM     18  C   UNL A   1      31.726  25.084  25.772  1.00  0.00     0.027 C 
ENDBRANCH  16  17
BRANCH  16  19
ATOM     19  C   UNL A   1      32.853  25.659  23.269  1.00  0.00     0.135 C 
BRANCH  19  20
ATOM     20  C   UNL A   1      31.987  26.345  22.207  1.00  0.00     0.141 C 
BRANCH  20  21
ATOM     21  C   UNL A   1      32.471  25.968  20.816  1.00  0.00     0.064 C 
ATOM     22  N   UNL A   1      32.873  25.655  19.662  1.00  0.00    -0.198 NA
ENDBRANCH  20  21
ENDBRANCH  19  20
ENDBRANCH  16  19
ENDBRANCH  14  16
ENDBRANCH   9  14
ENDBRANCH   7   8
ENDBRANCH   3   6
ENDBRANCH   1   2
BRANCH   1  23
ATOM     23  C   UNL A   1      40.749  21.119  26.614  1.00  0.00     0.023 C 
BRANCH  23  24
ATOM     24  C   UNL A   1      41.208  22.047  27.737  1.00  0.00     0.023 C 
BRANCH  24  25
ATOM     25  C   UNL A   1      42.309  23.027  27.354  1.00  0.00     0.116 C 
BRANCH  25  26
ATOM     26  N   UNL A   1      42.029  23.798  26.149  1.00  0.00    -0.352 N 
ATOM     27  C   UNL A   1      41.672  25.124  26.068  1.00  0.00     0.251 C 
ATOM     28  H   UNL A   1      42.104  23.313  25.295  1.00  0.00     0.163 HD
ATOM     29  O   UNL A   1      41.380  25.635  24.991  1.00  0.00    -0.269 OA
BRANCH  27  30
ATOM     30  C   UNL A   1      41.597  25.907  27.319  1.00  0.00     0.039 A 
ATOM     31  C   UNL A   1      42.624  26.803  27.623  1.00  0.00     0.014 A 
ATOM     32  C   UNL A   1      40.463  25.825  28.131  1.00  0.00     0.014 A 
ATOM     33  C   UNL A   1      42.476  27.675  28.704  1.00  0.00     0.010 A 
ATOM     34  C   UNL A   1      40.281  26.750  29.152  1.00  0.00     0.010 A 
ATOM     35  C   UNL A   1      41.285  27.683  29.451  1.00  0.00    -0.014 A 
BRANCH  35  36
ATOM     36  C   UNL A   1      41.071  28.646  30.562  1.00  0.00     0.031 A 
ATOM     37  C   UNL A   1      41.901  28.533  31.812  1.00  0.00     0.074 A 
ATOM     38  C   UNL A   1      40.089  29.565  30.479  1.00  0.00     0.049 A 
ATOM     39  N   UNL A   1      41.810  29.209  32.928  1.00  0.00    -0.248 NA
ATOM     40  C   UNL A   1      42.949  27.499  31.821  1.00  0.00     0.031 C 
ATOM     41  C   UNL A   1      39.178  29.736  29.345  1.00  0.00     0.029 A 
ATOM     42  N   UNL A   1      39.682  30.522  31.376  1.00  0.00    -0.354 N 
ATOM     43  C   UNL A   1      42.769  28.668  33.776  1.00  0.00     0.074 A 
ATOM     44  C   UNL A   1      43.391  27.571  33.068  1.00  0.00     0.031 C 
ATOM     45  C   UNL A   1      38.336  30.750  29.604  1.00  0.00     0.029 A 
ATOM     46  C   UNL A   1      38.622  31.281  30.934  1.00  0.00     0.049 A 
ATOM     47  H   UNL A   1      40.109  30.654  32.252  1.00  0.00     0.167 HD
ATOM     48  C   UNL A   1      43.120  29.064  35.022  1.00  0.00     0.037 A 
ATOM     49  C   UNL A   1      37.957  32.287  31.535  1.00  0.00     0.037 A 
ATOM     50  C   UNL A   1      42.527  30.183  35.706  1.00  0.00     0.049 A 
ATOM     51  C   UNL A   1      38.386  32.731  32.908  1.00  0.00     0.074 A 
ATOM     52  C   UNL A   1      42.853  30.705  36.945  1.00  0.00     0.029 A 
ATOM     53  N   UNL A   1      41.490  30.956  35.205  1.00  0.00    -0.354 N 
ATOM     54  N   UNL A   1      39.336  32.247  33.671  1.00  0.00    -0.248 NA
ATOM     55  C   UNL A   1      37.660  33.864  33.498  1.00  0.00     0.031 C 
ATOM     56  C   UNL A   1      41.993  31.777  37.206  1.00  0.00     0.029 A 
ATOM     57  C   UNL A   1      41.158  31.946  36.113  1.00  0.00     0.049 A 
ATOM     58  H   UNL A   1      41.054  30.819  34.333  1.00  0.00     0.167 HD
ATOM     59  C   UNL A   1      39.343  33.035  34.817  1.00  0.00     0.074 A 
ATOM     60  C   UNL A   1      38.307  34.032  34.643  1.00  0.00     0.031 C 
ATOM     61  C   UNL A   1      40.136  32.942  35.913  1.00  0.00     0.037 A 
BRANCH  48  62
ATOM     62  C   UNL A   1      44.208  28.292  35.715  1.00  0.00     0.058 A 
ATOM     63  C   UNL A   1      43.916  27.210  36.562  1.00  0.00     0.135 A 
ATOM     64  C   UNL A   1      45.558  28.622  35.516  1.00  0.00     0.135 A 
ATOM     65  F   UNL A   1      42.642  26.864  36.801  1.00  0.00    -0.206 F 
ATOM     66  C   UNL A   1      44.921  26.504  37.213  1.00  0.00     0.059 A 
ATOM     67  C   UNL A   1      46.582  27.911  36.135  1.00  0.00     0.059 A 
ATOM     68  F   UNL A   1      45.893  29.648  34.718  1.00  0.00    -0.206 F 
ATOM     69  C   UNL A   1      46.253  26.863  36.995  1.00  0.00     0.060 A 
BRANCH  69  70
ATOM     70  S   UNL A   1      47.546  25.934  37.844  1.00  0.00     0.124 S 
ATOM     71  O   UNL A   1      47.415  26.436  39.209  1.00  0.00    -0.237 OA
ATOM     72  O   UNL A   1      47.127  24.552  37.636  1.00  0.00    -0.237 OA
ATOM     73  O   UNL A   1      48.764  26.329  37.144  1.00  0.00    -0.744 OA
ENDBRANCH  69  70
ENDBRANCH  48  62
BRANCH  49  74
ATOM     74  C   UNL A   1      36.840  32.969  30.829  1.00  0.00     0.058 A 
ATOM     75  C   UNL A   1      35.509  32.583  31.049  1.00  0.00     0.135 A 
ATOM     76  C   UNL A   1      37.075  34.019  29.928  1.00  0.00     0.135 A 
ATOM     77  F   UNL A   1      35.234  31.580  31.896  1.00  0.00    -0.206 F 
ATOM     78  C   UNL A   1      34.451  33.199  30.387  1.00  0.00     0.059 A 
ATOM     79  C   UNL A   1      36.032  34.667  29.272  1.00  0.00     0.059 A 
ATOM     80  F   UNL A   1      38.329  34.438  29.697  1.00  0.00    -0.206 F 
ATOM     81  C   UNL A   1      34.724  34.242  29.499  1.00  0.00     0.060 A 
BRANCH  81  82
ATOM     82  S   UNL A   1      33.341  35.064  28.680  1.00  0.00     0.124 S 
ATOM     83  O   UNL A   1      34.032  36.029  27.833  1.00  0.00    -0.237 OA
ATOM     84  O   UNL A   1      32.690  33.956  27.987  1.00  0.00    -0.237 OA
ATOM     85  O   UNL A   1      32.580  35.628  29.792  1.00  0.00    -0.744 OA
ENDBRANCH  81  82
ENDBRANCH  49  74
BRANCH  61  86
ATOM     86  C   UNL A   1      39.949  33.972  36.991  1.00  0.00     0.058 A 
ATOM     87  C   UNL A   1      40.530  35.245  36.906  1.00  0.00     0.135 A 
ATOM     88  C   UNL A   1      39.125  33.698  38.096  1.00  0.00     0.135 A 
ATOM     89  F   UNL A   1      41.329  35.555  35.873  1.00  0.00    -0.206 F 
ATOM     90  C   UNL A   1      40.321  36.206  37.889  1.00  0.00     0.059 A 
ATOM     91  C   UNL A   1      38.881  34.651  39.079  1.00  0.00     0.059 A 
ATOM     92  F   UNL A   1      38.536  32.498  38.218  1.00  0.00    -0.206 F 
ATOM     93  C   UNL A   1      39.493  35.900  38.972  1.00  0.00     0.060 A 
BRANCH  93  94
ATOM     94  S   UNL A   1      39.198  37.166  40.224  1.00  0.00     0.124 S 
ATOM     95  O   UNL A   1      40.559  37.522  40.610  1.00  0.00    -0.237 OA
ATOM     96  O   UNL A   1      38.464  38.183  39.475  1.00  0.00    -0.237 OA
ATOM     97  O   UNL A   1      38.420  36.463  41.240  1.00  0.00    -0.744 OA
ENDBRANCH  93  94
ENDBRANCH  61  86
ENDBRANCH  35  36
ENDBRANCH  27  30
ENDBRANCH  25  26
ENDBRANCH  24  25
ENDBRANCH  23  24
ENDBRANCH   1  23
TORSDOF 21
ENDMDL
MODEL 2
REMARK VINA RESULT:      -9.9      1.692      8.707
REMARK SMILES CCN(CCC#N)C(=O)c1ccncc1/C=C/C(=O)NCCCCNC(=O)c1ccc(-c2c3nc(c(-c4c(F)cc(S(=O)(=O)[O-])cc4F)c4ccc([nH]4)c(-c4c(F)cc(S(=O)(=O)[O-])cc4F)c4nc(c(-c5c(F)cc(S(=O)(=O)[O-])cc5F)c5ccc2[nH]5)C=C4)C=C3)cc1
REMARK SMILES IDX 21 1 20 2 18 3 19 4 17 6 16 7 15 8 10 9 11 10 12 11 14 12
REMARK SMILES IDX 13 13 8 14 9 15 3 16 2 17 1 18 4 19 5 20 6 21 7 22 22 23
REMARK SMILES IDX 23 24 24 25 25 26 26 27 27 29 28 30 29 31 93 32 30 33 92 34
REMARK SMILES IDX 31 35 32 36 33 37 86 38 34 39 91 40 85 41 87 42 35 43 90 44
REMARK SMILES IDX 84 45 83 46 36 48 70 49 49 50 69 51 50 52 53 53 68 54 88 55
REMARK SMILES IDX 51 56 52 57 67 59 89 60 54 61 37 62 38 63 47 64 39 65 40 66
REMARK SMILES IDX 46 67 48 68 41 69 42 70 43 71 44 72 45 73 71 74 72 75 81 76
REMARK SMILES IDX 73 77 74 78 80 79 82 80 75 81 76 82 77 83 78 84 79 85 55 86
REMARK SMILES IDX 56 87 65 88 57 89 58 90 64 91 66 92 59 93 60 94 61 95 62 96
REMARK SMILES IDX 63 97
REMARK H PARENT 20 5 25 28 87 47 53 58
REMARK Flexibility Score: inf
ROOT
ATOM      1  C   UNL A   1      38.390  22.079  26.037  1.00  0.00     0.116 C 
ENDROOT
BRANCH   1   2
ATOM      2  N   UNL A   1      38.095  22.283  24.637  1.00  0.00    -0.353 N 
ATOM      3  C   UNL A   1      36.893  22.573  24.062  1.00  0.00     0.244 C 
ATOM      4  O   UNL A   1      36.799  22.751  22.852  1.00  0.00    -0.270 OA
ATOM      5  H   UNL A   1      38.858  22.202  24.020  1.00  0.00     0.163 HD
BRANCH   3   6
ATOM      6  C   UNL A   1      35.670  22.503  24.890  1.00  0.00     0.072 C 
ATOM      7  C   UNL A   1      35.015  21.390  25.266  1.00  0.00     0.016 C 
BRANCH   7   8
ATOM      8  C   UNL A   1      33.717  21.577  25.933  1.00  0.00     0.006 A 
ATOM      9  C   UNL A   1      32.462  21.513  25.278  1.00  0.00     0.050 A 
ATOM     10  C   UNL A   1      31.427  22.256  25.841  1.00  0.00     0.034 A 
ATOM     11  C   UNL A   1      31.576  22.777  27.118  1.00  0.00     0.112 A 
ATOM     12  C   UNL A   1      33.751  22.095  27.231  1.00  0.00     0.119 A 
ATOM     13  N   UNL A   1      32.696  22.665  27.850  1.00  0.00    -0.264 NA
BRANCH   9  14
ATOM     14  C   UNL A   1      32.247  20.614  24.074  1.00  0.00     0.254 C 
ATOM     15  O   UNL A   1      31.962  21.156  23.008  1.00  0.00    -0.269 OA
BRANCH  14  16
ATOM     16  N   UNL A   1      32.460  19.204  24.058  1.00  0.00    -0.338 N 
BRANCH  16  17
ATOM     17  C   UNL A   1      33.104  18.667  22.838  1.00  0.00     0.116 C 
ATOM     18  C   UNL A   1      32.167  17.891  21.917  1.00  0.00     0.027 C 
ENDBRANCH  16  17
BRANCH  16  19
ATOM     19  C   UNL A   1      32.449  18.283  25.211  1.00  0.00     0.135 C 
BRANCH  19  20
ATOM     20  C   UNL A   1      33.655  17.344  25.313  1.00  0.00     0.141 C 
BRANCH  20  21
ATOM     21  C   UNL A   1      33.192  15.896  25.300  1.00  0.00     0.064 C 
ATOM     22  N   UNL A   1      32.807  14.695  25.289  1.00  0.00    -0.198 NA
ENDBRANCH  20  21
ENDBRANCH  19  20
ENDBRANCH  16  19
ENDBRANCH  14  16
ENDBRANCH   9  14
ENDBRANCH   7   8
ENDBRANCH   3   6
ENDBRANCH   1   2
BRANCH   1  23
ATOM     23  C   UNL A   1      39.838  21.687  26.321  1.00  0.00     0.023 C 
BRANCH  23  24
ATOM     24  C   UNL A   1      40.472  22.422  27.499  1.00  0.00     0.023 C 
BRANCH  24  25
ATOM     25  C   UNL A   1      41.753  23.179  27.173  1.00  0.00     0.116 C 
BRANCH  25  26
ATOM     26  N   UNL A   1      41.639  24.084  26.037  1.00  0.00    -0.352 N 
ATOM     27  C   UNL A   1      41.479  25.451  26.068  1.00  0.00     0.251 C 
ATOM     28  H   UNL A   1      41.680  23.671  25.144  1.00  0.00     0.163 HD
ATOM     29  O   UNL A   1      41.311  26.092  25.036  1.00  0.00    -0.269 OA
BRANCH  27  30
ATOM     30  C   UNL A   1      41.465  26.124  27.385  1.00  0.00     0.039 A 
ATOM     31  C   UNL A   1      42.505  26.995  27.715  1.00  0.00     0.014 A 
ATOM     32  C   UNL A   1      40.371  25.967  28.239  1.00  0.00     0.014 A 
ATOM     33  C   UNL A   1      42.408  27.771  28.872  1.00  0.00     0.010 A 
ATOM     34  C   UNL A   1      40.237  26.801  29.343  1.00  0.00     0.010 A 
ATOM     35  C   UNL A   1      41.254  27.710  29.672  1.00  0.00    -0.014 A 
BRANCH  35  36
ATOM     36  C   UNL A   1      41.094  28.573  30.870  1.00  0.00     0.031 A 
ATOM     37  C   UNL A   1      40.024  29.632  30.884  1.00  0.00     0.074 A 
ATOM     38  C   UNL A   1      41.950  28.459  31.905  1.00  0.00     0.049 A 
ATOM     39  N   UNL A   1      39.779  30.548  31.786  1.00  0.00    -0.248 NA
ATOM     40  C   UNL A   1      39.136  29.692  29.712  1.00  0.00     0.031 C 
ATOM     41  C   UNL A   1      43.064  27.512  31.987  1.00  0.00     0.029 A 
ATOM     42  N   UNL A   1      42.024  29.158  33.085  1.00  0.00    -0.354 N 
ATOM     43  C   UNL A   1      38.728  31.303  31.279  1.00  0.00     0.074 A 
ATOM     44  C   UNL A   1      38.419  30.776  29.968  1.00  0.00     0.031 C 
ATOM     45  C   UNL A   1      43.695  27.674  33.161  1.00  0.00     0.029 A 
ATOM     46  C   UNL A   1      43.055  28.755  33.904  1.00  0.00     0.049 A 
ATOM     47  H   UNL A   1      41.398  29.878  33.324  1.00  0.00     0.167 HD
ATOM     48  C   UNL A   1      38.059  32.325  31.864  1.00  0.00     0.037 A 
ATOM     49  C   UNL A   1      43.439  29.209  35.113  1.00  0.00     0.037 A 
ATOM     50  C   UNL A   1      38.342  32.817  33.186  1.00  0.00     0.049 A 
ATOM     51  C   UNL A   1      42.662  30.327  35.757  1.00  0.00     0.074 A 
ATOM     52  C   UNL A   1      37.684  33.807  33.895  1.00  0.00     0.029 A 
ATOM     53  N   UNL A   1      39.363  32.351  34.001  1.00  0.00    -0.354 N 
ATOM     54  N   UNL A   1      41.632  30.989  35.289  1.00  0.00    -0.248 NA
ATOM     55  C   UNL A   1      43.093  30.751  37.095  1.00  0.00     0.031 C 
ATOM     56  C   UNL A   1      38.326  33.960  35.128  1.00  0.00     0.029 A 
ATOM     57  C   UNL A   1      39.359  33.038  35.203  1.00  0.00     0.049 A 
ATOM     58  H   UNL A   1      39.997  31.637  33.761  1.00  0.00     0.167 HD
ATOM     59  C   UNL A   1      41.271  31.887  36.288  1.00  0.00     0.074 A 
ATOM     60  C   UNL A   1      42.189  31.677  37.388  1.00  0.00     0.031 C 
ATOM     61  C   UNL A   1      40.269  32.801  36.294  1.00  0.00     0.037 A 
BRANCH  48  62
ATOM     62  C   UNL A   1      36.947  32.965  31.081  1.00  0.00     0.058 A 
ATOM     63  C   UNL A   1      37.206  33.778  29.966  1.00  0.00     0.135 A 
ATOM     64  C   UNL A   1      35.606  32.747  31.435  1.00  0.00     0.135 A 
ATOM     65  F   UNL A   1      38.470  34.033  29.594  1.00  0.00    -0.206 F 
ATOM     66  C   UNL A   1      36.177  34.379  29.249  1.00  0.00     0.059 A 
ATOM     67  C   UNL A   1      34.560  33.316  30.715  1.00  0.00     0.059 A 
ATOM     68  F   UNL A   1      35.302  31.980  32.494  1.00  0.00    -0.206 F 
ATOM     69  C   UNL A   1      34.856  34.144  29.633  1.00  0.00     0.060 A 
BRANCH  69  70
ATOM     70  S   UNL A   1      33.532  34.929  28.690  1.00  0.00     0.124 S 
ATOM     71  O   UNL A   1      32.419  34.848  29.630  1.00  0.00    -0.237 OA
ATOM     72  O   UNL A   1      34.066  36.267  28.457  1.00  0.00    -0.237 OA
ATOM     73  O   UNL A   1      33.415  34.089  27.503  1.00  0.00    -0.744 OA
ENDBRANCH  69  70
ENDBRANCH  48  62
BRANCH  49  74
ATOM     74  C   UNL A   1      44.595  28.585  35.811  1.00  0.00     0.058 A 
ATOM     75  C   UNL A   1      45.900  29.058  35.604  1.00  0.00     0.135 A 
ATOM     76  C   UNL A   1      44.421  27.513  36.699  1.00  0.00     0.135 A 
ATOM     77  F   UNL A   1      46.117  30.077  34.760  1.00  0.00    -0.206 F 
ATOM     78  C   UNL A   1      46.995  28.478  36.238  1.00  0.00     0.059 A 
ATOM     79  C   UNL A   1      45.498  26.931  37.362  1.00  0.00     0.059 A 
ATOM     80  F   UNL A   1      43.191  27.036  36.945  1.00  0.00    -0.206 F 
ATOM     81  C   UNL A   1      46.783  27.414  37.116  1.00  0.00     0.060 A 
BRANCH  81  82
ATOM     82  S   UNL A   1      48.206  26.698  37.966  1.00  0.00     0.124 S 
ATOM     83  O   UNL A   1      49.186  27.772  37.856  1.00  0.00    -0.237 OA
ATOM     84  O   UNL A   1      47.675  26.451  39.303  1.00  0.00    -0.237 OA
ATOM     85  O   UNL A   1      48.493  25.497  37.185  1.00  0.00    -0.744 OA
ENDBRANCH  81  82
ENDBRANCH  49  74
BRANCH  61  86
ATOM     86  C   UNL A   1      40.081  33.613  37.545  1.00  0.00     0.058 A 
ATOM     87  C   UNL A   1      39.172  33.232  38.543  1.00  0.00     0.135 A 
ATOM     88  C   UNL A   1      40.868  34.754  37.772  1.00  0.00     0.135 A 
ATOM     89  F   UNL A   1      38.394  32.152  38.372  1.00  0.00    -0.206 F 
ATOM     90  C   UNL A   1      39.032  33.968  39.715  1.00  0.00     0.059 A 
ATOM     91  C   UNL A   1      40.763  35.490  38.947  1.00  0.00     0.059 A 
ATOM     92  F   UNL A   1      41.761  35.153  36.852  1.00  0.00    -0.206 F 
ATOM     93  C   UNL A   1      39.834  35.096  39.908  1.00  0.00     0.060 A 
BRANCH  93  94
ATOM     94  S   UNL A   1      39.671  36.022  41.449  1.00  0.00     0.124 S 
ATOM     95  O   UNL A   1      38.965  35.065  42.294  1.00  0.00    -0.237 OA
ATOM     96  O   UNL A   1      41.063  36.280  41.809  1.00  0.00    -0.237 OA
ATOM     97  O   UNL A   1      38.903  37.201  41.057  1.00  0.00    -0.744 OA
ENDBRANCH  93  94
ENDBRANCH  61  86
ENDBRANCH  35  36
ENDBRANCH  27  30
ENDBRANCH  25  26
ENDBRANCH  24  25
ENDBRANCH  23  24
ENDBRANCH   1  23
TORSDOF 21
ENDMDL
MODEL 3
REMARK VINA RESULT:      -9.6      3.388      5.335
REMARK SMILES CCN(CCC#N)C(=O)c1ccncc1/C=C/C(=O)NCCCCNC(=O)c1ccc(-c2c3nc(c(-c4c(F)cc(S(=O)(=O)[O-])cc4F)c4ccc([nH]4)c(-c4c(F)cc(S(=O)(=O)[O-])cc4F)c4nc(c(-c5c(F)cc(S(=O)(=O)[O-])cc5F)c5ccc2[nH]5)C=C4)C=C3)cc1
REMARK SMILES IDX 21 1 20 2 18 3 19 4 17 6 16 7 15 8 10 9 11 10 12 11 14 12
REMARK SMILES IDX 13 13 8 14 9 15 3 16 2 17 1 18 4 19 5 20 6 21 7 22 22 23
REMARK SMILES IDX 23 24 24 25 25 26 26 27 27 29 28 30 29 31 93 32 30 33 92 34
REMARK SMILES IDX 31 35 32 36 33 37 86 38 34 39 91 40 85 41 87 42 35 43 90 44
REMARK SMILES IDX 84 45 83 46 36 48 70 49 49 50 69 51 50 52 53 53 68 54 88 55
REMARK SMILES IDX 51 56 52 57 67 59 89 60 54 61 37 62 38 63 47 64 39 65 40 66
REMARK SMILES IDX 46 67 48 68 41 69 42 70 43 71 44 72 45 73 71 74 72 75 81 76
REMARK SMILES IDX 73 77 74 78 80 79 82 80 75 81 76 82 77 83 78 84 79 85 55 86
REMARK SMILES IDX 56 87 65 88 57 89 58 90 64 91 66 92 59 93 60 94 61 95 62 96
REMARK SMILES IDX 63 97
REMARK H PARENT 20 5 25 28 87 47 53 58
REMARK Flexibility Score: inf
ROOT
ATOM      1  C   UNL A   1      45.217  25.580  27.992  1.00  0.00     0.116 C 
ENDROOT
BRANCH   1   2
ATOM      2  N   UNL A   1      45.307  24.997  29.312  1.00  0.00    -0.353 N 
ATOM      3  C   UNL A   1      44.462  24.101  29.897  1.00  0.00     0.244 C 
ATOM      4  O   UNL A   1      44.685  23.667  31.023  1.00  0.00    -0.270 OA
ATOM      5  H   UNL A   1      46.075  25.283  29.857  1.00  0.00     0.163 HD
BRANCH   3   6
ATOM      6  C   UNL A   1      43.181  23.786  29.230  1.00  0.00     0.072 C 
ATOM      7  C   UNL A   1      42.690  22.561  28.968  1.00  0.00     0.016 C 
BRANCH   7   8
ATOM      8  C   UNL A   1      41.483  22.496  28.129  1.00  0.00     0.006 A 
ATOM      9  C   UNL A   1      41.412  21.833  26.879  1.00  0.00     0.050 A 
ATOM     10  C   UNL A   1      40.479  22.322  25.967  1.00  0.00     0.034 A 
ATOM     11  C   UNL A   1      39.505  23.212  26.397  1.00  0.00     0.112 A 
ATOM     12  C   UNL A   1      40.433  23.350  28.478  1.00  0.00     0.119 A 
ATOM     13  N   UNL A   1      39.426  23.694  27.648  1.00  0.00    -0.264 NA
BRANCH   9  14
ATOM     14  C   UNL A   1      42.254  20.604  26.588  1.00  0.00     0.254 C 
ATOM     15  O   UNL A   1      41.935  19.556  27.146  1.00  0.00    -0.269 OA
BRANCH  14  16
ATOM     16  N   UNL A   1      43.313  20.546  25.635  1.00  0.00    -0.338 N 
BRANCH  16  17
ATOM     17  C   UNL A   1      44.215  21.719  25.607  1.00  0.00     0.116 C 
ATOM     18  C   UNL A   1      44.576  22.206  24.208  1.00  0.00     0.027 C 
ENDBRANCH  16  17
BRANCH  16  19
ATOM     19  C   UNL A   1      43.827  19.350  24.939  1.00  0.00     0.135 C 
BRANCH  19  20
ATOM     20  C   UNL A   1      44.925  18.580  25.681  1.00  0.00     0.141 C 
BRANCH  20  21
ATOM     21  C   UNL A   1      46.295  19.075  25.242  1.00  0.00     0.064 C 
ATOM     22  N   UNL A   1      47.431  19.484  24.879  1.00  0.00    -0.198 NA
ENDBRANCH  20  21
ENDBRANCH  19  20
ENDBRANCH  16  19
ENDBRANCH  14  16
ENDBRANCH   9  14
ENDBRANCH   7   8
ENDBRANCH   3   6
ENDBRANCH   1   2
BRANCH   1  23
ATOM     23  C   UNL A   1      46.037  24.853  26.929  1.00  0.00     0.023 C 
BRANCH  23  24
ATOM     24  C   UNL A   1      45.878  25.413  25.518  1.00  0.00     0.023 C 
BRANCH  24  25
ATOM     25  C   UNL A   1      44.890  26.565  25.388  1.00  0.00     0.116 C 
BRANCH  25  26
ATOM     26  N   UNL A   1      43.589  26.178  24.856  1.00  0.00    -0.352 N 
ATOM     27  C   UNL A   1      42.357  26.357  25.444  1.00  0.00     0.251 C 
ATOM     28  H   UNL A   1      43.591  25.737  23.975  1.00  0.00     0.163 HD
ATOM     29  O   UNL A   1      41.339  25.908  24.927  1.00  0.00    -0.269 OA
BRANCH  27  30
ATOM     30  C   UNL A   1      42.297  27.062  26.742  1.00  0.00     0.039 A 
ATOM     31  C   UNL A   1      42.793  28.363  26.833  1.00  0.00     0.014 A 
ATOM     32  C   UNL A   1      41.658  26.467  27.833  1.00  0.00     0.014 A 
ATOM     33  C   UNL A   1      42.576  29.099  28.000  1.00  0.00     0.010 A 
ATOM     34  C   UNL A   1      41.369  27.229  28.959  1.00  0.00     0.010 A 
ATOM     35  C   UNL A   1      41.827  28.552  29.056  1.00  0.00    -0.014 A 
BRANCH  35  36
ATOM     36  C   UNL A   1      41.522  29.336  30.280  1.00  0.00     0.031 A 
ATOM     37  C   UNL A   1      42.376  29.158  31.507  1.00  0.00     0.074 A 
ATOM     38  C   UNL A   1      40.442  30.141  30.315  1.00  0.00     0.049 A 
ATOM     39  N   UNL A   1      42.224  29.672  32.700  1.00  0.00    -0.248 NA
ATOM     40  C   UNL A   1      43.532  28.256  31.385  1.00  0.00     0.031 C 
ATOM     41  C   UNL A   1      39.502  30.352  29.211  1.00  0.00     0.029 A 
ATOM     42  N   UNL A   1      39.942  30.925  31.326  1.00  0.00    -0.354 N 
ATOM     43  C   UNL A   1      43.248  29.138  33.473  1.00  0.00     0.074 A 
ATOM     44  C   UNL A   1      43.980  28.218  32.631  1.00  0.00     0.031 C 
ATOM     45  C   UNL A   1      38.557  31.224  29.597  1.00  0.00     0.029 A 
ATOM     46  C   UNL A   1      38.799  31.610  30.983  1.00  0.00     0.049 A 
ATOM     47  H   UNL A   1      40.364  30.991  32.213  1.00  0.00     0.167 HD
ATOM     48  C   UNL A   1      43.569  29.410  34.760  1.00  0.00     0.037 A 
ATOM     49  C   UNL A   1      38.034  32.451  31.707  1.00  0.00     0.037 A 
ATOM     50  C   UNL A   1      42.864  30.359  35.580  1.00  0.00     0.049 A 
ATOM     51  C   UNL A   1      38.428  32.762  33.127  1.00  0.00     0.074 A 
ATOM     52  C   UNL A   1      43.147  30.752  36.877  1.00  0.00     0.029 A 
ATOM     53  N   UNL A   1      41.741  31.067  35.182  1.00  0.00    -0.354 N 
ATOM     54  N   UNL A   1      39.437  32.293  33.822  1.00  0.00    -0.248 NA
ATOM     55  C   UNL A   1      37.588  33.721  33.855  1.00  0.00     0.031 C 
ATOM     56  C   UNL A   1      42.175  31.679  37.272  1.00  0.00     0.029 A 
ATOM     57  C   UNL A   1      41.312  31.891  36.208  1.00  0.00     0.049 A 
ATOM     58  H   UNL A   1      41.312  30.995  34.298  1.00  0.00     0.167 HD
ATOM     59  C   UNL A   1      39.371  32.925  35.060  1.00  0.00     0.074 A 
ATOM     60  C   UNL A   1      38.228  33.814  35.014  1.00  0.00     0.031 C 
ATOM     61  C   UNL A   1      40.183  32.783  36.136  1.00  0.00     0.037 A 
BRANCH  48  62
ATOM     62  C   UNL A   1      44.746  28.683  35.350  1.00  0.00     0.058 A 
ATOM     63  C   UNL A   1      44.592  27.454  36.012  1.00  0.00     0.135 A 
ATOM     64  C   UNL A   1      46.043  29.208  35.235  1.00  0.00     0.135 A 
ATOM     65  F   UNL A   1      43.373  26.915  36.166  1.00  0.00    -0.206 F 
ATOM     66  C   UNL A   1      45.679  26.787  36.569  1.00  0.00     0.059 A 
ATOM     67  C   UNL A   1      47.147  28.544  35.760  1.00  0.00     0.059 A 
ATOM     68  F   UNL A   1      46.245  30.381  34.614  1.00  0.00    -0.206 F 
ATOM     69  C   UNL A   1      46.953  27.342  36.440  1.00  0.00     0.060 A 
BRANCH  69  70
ATOM     70  S   UNL A   1      48.353  26.463  37.165  1.00  0.00     0.124 S 
ATOM     71  O   UNL A   1      49.480  27.137  36.528  1.00  0.00    -0.237 OA
ATOM     72  O   UNL A   1      48.182  26.725  38.590  1.00  0.00    -0.237 OA
ATOM     73  O   UNL A   1      48.135  25.079  36.754  1.00  0.00    -0.744 OA
ENDBRANCH  69  70
ENDBRANCH  48  62
BRANCH  49  74
ATOM     74  C   UNL A   1      36.839  33.087  31.093  1.00  0.00     0.058 A 
ATOM     75  C   UNL A   1      36.977  34.068  30.099  1.00  0.00     0.135 A 
ATOM     76  C   UNL A   1      35.538  32.728  31.479  1.00  0.00     0.135 A 
ATOM     77  F   UNL A   1      38.200  34.449  29.700  1.00  0.00    -0.206 F 
ATOM     78  C   UNL A   1      35.871  34.685  29.523  1.00  0.00     0.059 A 
ATOM     79  C   UNL A   1      34.416  33.314  30.900  1.00  0.00     0.059 A 
ATOM     80  F   UNL A   1      35.352  31.782  32.412  1.00  0.00    -0.206 F 
ATOM     81  C   UNL A   1      34.593  34.300  29.931  1.00  0.00     0.060 A 
BRANCH  81  82
ATOM     82  S   UNL A   1      33.164  35.075  29.145  1.00  0.00     0.124 S 
ATOM     83  O   UNL A   1      32.246  35.210  30.270  1.00  0.00    -0.237 OA
ATOM     84  O   UNL A   1      33.731  36.317  28.629  1.00  0.00    -0.237 OA
ATOM     85  O   UNL A   1      32.776  34.104  28.125  1.00  0.00    -0.744 OA
ENDBRANCH  81  82
ENDBRANCH  49  74
BRANCH  61  86
ATOM     86  C   UNL A   1      39.897  33.640  37.337  1.00  0.00     0.058 A 
ATOM     87  C   UNL A   1      40.442  34.925  37.474  1.00  0.00     0.135 A 
ATOM     88  C   UNL A   1      39.016  33.189  38.334  1.00  0.00     0.135 A 
ATOM     89  F   UNL A   1      41.292  35.401  36.552  1.00  0.00    -0.206 F 
ATOM     90  C   UNL A   1      40.141  35.727  38.570  1.00  0.00     0.059 A 
ATOM     91  C   UNL A   1      38.681  33.983  39.425  1.00  0.00     0.059 A 
ATOM     92  F   UNL A   1      38.460  31.970  38.243  1.00  0.00    -0.206 F 
ATOM     93  C   UNL A   1      39.258  35.247  39.541  1.00  0.00     0.060 A 
BRANCH  93  94
ATOM     94  S   UNL A   1      38.845  36.310  40.941  1.00  0.00     0.124 S 
ATOM     95  O   UNL A   1      40.078  36.265  41.718  1.00  0.00    -0.237 OA
ATOM     96  O   UNL A   1      38.550  37.584  40.291  1.00  0.00    -0.237 OA
ATOM     97  O   UNL A   1      37.696  35.642  41.545  1.00  0.00    -0.744 OA
ENDBRANCH  93  94
ENDBRANCH  61  86
ENDBRANCH  35  36
ENDBRANCH  27  30
ENDBRANCH  25  26
ENDBRANCH  24  25
ENDBRANCH  23  24
ENDBRANCH   1  23
TORSDOF 21
ENDMDL
