MODEL 1
REMARK VINA RESULT:     -12.1      0.000      0.000
REMARK SMILES Cc1cc(Cl)c2c(c1)C=C(C(=O)NCCCCNC(=O)c1ccc(-c3c4nc(c(-c5c(F)cc(S(=O)(=O)[O-])cc5F)c5ccc([nH]5)c(-c5c(F)cc(S(=O)(=O)[O-])cc5F)c5nc(c(-c6c(F)cc(S(=O)(=O)[O-])cc6F)c6ccc3[nH]6)C=C5)C=C4)cc1)[C@@H](C(F)(F)F)O2
REMARK SMILES IDX 16 1 15 2 14 3 13 4 11 5 12 6 10 8 1 9 2 10 3 11 8 12 4 13
REMARK SMILES IDX 7 14 5 15 6 16 9 17 92 18 87 19 88 20 89 21 90 22 91 23
REMARK SMILES IDX 17 24 18 25 19 26 20 28 21 29 22 30 86 31 23 32 85 33 24 34
REMARK SMILES IDX 25 35 26 36 79 37 27 38 84 39 78 40 80 41 28 42 83 43 77 44
REMARK SMILES IDX 76 45 29 47 63 48 42 49 62 50 43 51 46 52 61 53 81 54 44 55
REMARK SMILES IDX 45 56 60 58 82 59 47 60 30 61 31 62 40 63 32 64 33 65 39 66
REMARK SMILES IDX 41 67 34 68 35 69 36 70 37 71 38 72 64 73 65 74 74 75 66 76
REMARK SMILES IDX 67 77 73 78 75 79 68 80 69 81 70 82 71 83 72 84 48 85 49 86
REMARK SMILES IDX 58 87 50 88 51 89 57 90 59 91 52 92 53 93 54 94 55 95 56 96
REMARK H PARENT 13 7 18 27 80 46 46 57
REMARK Flexibility Score: inf
ROOT
ATOM      1  C   UNL A   1      33.973  28.173  25.543  1.00  0.00     0.023 C 
ENDROOT
BRANCH   1   2
ATOM      2  C   UNL A   1      33.170  29.052  24.580  1.00  0.00     0.023 C 
BRANCH   2   3
ATOM      3  C   UNL A   1      32.070  28.310  23.829  1.00  0.00     0.116 C 
BRANCH   3   4
ATOM      4  N   UNL A   1      32.591  27.569  22.695  1.00  0.00    -0.352 N 
ATOM      5  C   UNL A   1      33.119  26.342  22.476  1.00  0.00     0.251 C 
ATOM      6  O   UNL A   1      33.451  26.113  21.308  1.00  0.00    -0.270 OA
ATOM      7  H   UNL A   1      32.549  28.098  21.866  1.00  0.00     0.163 HD
BRANCH   5   8
ATOM      8  C   UNL A   1      33.322  25.289  23.516  1.00  0.00     0.067 C 
ATOM      9  C   UNL A   1      37.277  20.742  24.924  1.00  0.00     0.044 C 
ATOM     10  C   UNL A   1      36.120  21.673  25.136  1.00  0.00    -0.049 A 
ATOM     11  C   UNL A   1      35.285  21.526  26.249  1.00  0.00     0.028 A 
ATOM     12  C   UNL A   1      35.835  22.672  24.195  1.00  0.00     0.015 A 
ATOM     13  C   UNL A   1      34.198  22.383  26.432  1.00  0.00     0.084 A 
ATOM     14  C   UNL A   1      34.742  23.530  24.373  1.00  0.00     0.019 A 
ATOM     15  Cl  UNL A   1      33.209  22.169  27.832  1.00  0.00    -0.080 Cl
ATOM     16  C   UNL A   1      33.921  23.382  25.493  1.00  0.00     0.146 A 
ATOM     17  C   UNL A   1      34.475  24.602  23.422  1.00  0.00     0.025 C 
ATOM     18  O   UNL A   1      32.871  24.227  25.728  1.00  0.00    -0.474 OA
ATOM     19  C   UNL A   1      32.325  24.939  24.584  1.00  0.00     0.314 C 
BRANCH  19  20
ATOM     20  C   UNL A   1      31.114  24.163  24.036  1.00  0.00     0.429 C 
ATOM     21  F   UNL A   1      30.640  23.299  24.968  1.00  0.00    -0.167 F 
ATOM     22  F   UNL A   1      30.082  24.973  23.705  1.00  0.00    -0.167 F 
ATOM     23  F   UNL A   1      31.419  23.442  22.932  1.00  0.00    -0.167 F 
ENDBRANCH  19  20
ENDBRANCH   5   8
ENDBRANCH   3   4
ENDBRANCH   2   3
ENDBRANCH   1   2
BRANCH   1  24
ATOM     24  C   UNL A   1      33.620  28.329  27.022  1.00  0.00     0.116 C 
BRANCH  24  25
ATOM     25  N   UNL A   1      33.456  29.714  27.438  1.00  0.00    -0.352 N 
ATOM     26  C   UNL A   1      34.377  30.537  28.038  1.00  0.00     0.251 C 
ATOM     27  H   UNL A   1      32.571  30.112  27.268  1.00  0.00     0.163 HD
ATOM     28  O   UNL A   1      34.056  31.660  28.413  1.00  0.00    -0.269 OA
BRANCH  26  29
ATOM     29  C   UNL A   1      35.746  30.034  28.257  1.00  0.00     0.039 A 
ATOM     30  C   UNL A   1      36.661  30.091  27.204  1.00  0.00     0.014 A 
ATOM     31  C   UNL A   1      36.130  29.558  29.514  1.00  0.00     0.014 A 
ATOM     32  C   UNL A   1      37.989  29.727  27.431  1.00  0.00     0.010 A 
ATOM     33  C   UNL A   1      37.464  29.253  29.752  1.00  0.00     0.010 A 
ATOM     34  C   UNL A   1      38.404  29.334  28.713  1.00  0.00    -0.014 A 
BRANCH  34  35
ATOM     35  C   UNL A   1      39.817  28.978  28.983  1.00  0.00     0.031 A 
ATOM     36  C   UNL A   1      40.734  29.998  29.598  1.00  0.00     0.074 A 
ATOM     37  C   UNL A   1      40.282  27.766  28.631  1.00  0.00     0.049 A 
ATOM     38  N   UNL A   1      42.015  29.916  29.840  1.00  0.00    -0.248 NA
ATOM     39  C   UNL A   1      40.132  31.291  29.963  1.00  0.00     0.031 C 
ATOM     40  C   UNL A   1      39.493  26.706  27.998  1.00  0.00     0.029 A 
ATOM     41  N   UNL A   1      41.534  27.219  28.751  1.00  0.00    -0.354 N 
ATOM     42  C   UNL A   1      42.376  31.145  30.377  1.00  0.00     0.074 A 
ATOM     43  C   UNL A   1      41.190  31.974  30.376  1.00  0.00     0.031 C 
ATOM     44  C   UNL A   1      40.273  25.628  27.811  1.00  0.00     0.029 A 
ATOM     45  C   UNL A   1      41.622  25.930  28.280  1.00  0.00     0.049 A 
ATOM     46  H   UNL A   1      42.298  27.704  29.139  1.00  0.00     0.167 HD
ATOM     47  C   UNL A   1      43.580  31.537  30.855  1.00  0.00     0.037 A 
ATOM     48  C   UNL A   1      42.674  25.090  28.232  1.00  0.00     0.037 A 
ATOM     49  C   UNL A   1      44.748  30.699  30.882  1.00  0.00     0.049 A 
ATOM     50  C   UNL A   1      44.005  25.554  28.759  1.00  0.00     0.074 A 
ATOM     51  C   UNL A   1      46.004  30.987  31.384  1.00  0.00     0.029 A 
ATOM     52  N   UNL A   1      44.800  29.402  30.390  1.00  0.00    -0.354 N 
ATOM     53  N   UNL A   1      44.323  26.710  29.289  1.00  0.00    -0.248 NA
ATOM     54  C   UNL A   1      45.120  24.600  28.677  1.00  0.00     0.031 C 
ATOM     55  C   UNL A   1      46.825  29.873  31.170  1.00  0.00     0.029 A 
ATOM     56  C   UNL A   1      46.070  28.881  30.564  1.00  0.00     0.049 A 
ATOM     57  H   UNL A   1      44.044  28.925  29.977  1.00  0.00     0.167 HD
ATOM     58  C   UNL A   1      45.672  26.621  29.613  1.00  0.00     0.074 A 
ATOM     59  C   UNL A   1      46.104  25.290  29.236  1.00  0.00     0.031 C 
ATOM     60  C   UNL A   1      46.481  27.557  30.170  1.00  0.00     0.037 A 
BRANCH  47  61
ATOM     61  C   UNL A   1      43.681  32.933  31.401  1.00  0.00     0.058 A 
ATOM     62  C   UNL A   1      43.375  33.217  32.742  1.00  0.00     0.135 A 
ATOM     63  C   UNL A   1      44.094  33.996  30.583  1.00  0.00     0.135 A 
ATOM     64  F   UNL A   1      42.955  32.239  33.561  1.00  0.00    -0.206 F 
ATOM     65  C   UNL A   1      43.448  34.510  33.246  1.00  0.00     0.059 A 
ATOM     66  C   UNL A   1      44.197  35.295  31.074  1.00  0.00     0.059 A 
ATOM     67  F   UNL A   1      44.393  33.780  29.292  1.00  0.00    -0.206 F 
ATOM     68  C   UNL A   1      43.856  35.544  32.403  1.00  0.00     0.060 A 
BRANCH  68  69
ATOM     69  S   UNL A   1      43.940  37.218  33.072  1.00  0.00     0.124 S 
ATOM     70  O   UNL A   1      42.815  37.215  34.003  1.00  0.00    -0.237 OA
ATOM     71  O   UNL A   1      45.265  37.246  33.681  1.00  0.00    -0.237 OA
ATOM     72  O   UNL A   1      43.776  38.063  31.894  1.00  0.00    -0.744 OA
ENDBRANCH  68  69
ENDBRANCH  47  61
BRANCH  48  73
ATOM     73  C   UNL A   1      42.502  23.718  27.693  1.00  0.00     0.058 A 
ATOM     74  C   UNL A   1      42.528  23.484  26.311  1.00  0.00     0.135 A 
ATOM     75  C   UNL A   1      42.336  22.612  28.540  1.00  0.00     0.135 A 
ATOM     76  F   UNL A   1      42.676  24.512  25.461  1.00  0.00    -0.206 F 
ATOM     77  C   UNL A   1      42.394  22.204  25.784  1.00  0.00     0.059 A 
ATOM     78  C   UNL A   1      42.218  21.319  28.039  1.00  0.00     0.059 A 
ATOM     79  F   UNL A   1      42.317  22.782  29.871  1.00  0.00    -0.206 F 
ATOM     80  C   UNL A   1      42.244  21.127  26.658  1.00  0.00     0.060 A 
BRANCH  80  81
ATOM     81  S   UNL A   1      42.137  19.461  25.966  1.00  0.00     0.124 S 
ATOM     82  O   UNL A   1      40.712  19.351  25.683  1.00  0.00    -0.237 OA
ATOM     83  O   UNL A   1      43.015  19.556  24.803  1.00  0.00    -0.237 OA
ATOM     84  O   UNL A   1      42.634  18.617  27.048  1.00  0.00    -0.744 OA
ENDBRANCH  80  81
ENDBRANCH  48  73
BRANCH  60  85
ATOM     85  C   UNL A   1      47.914  27.174  30.400  1.00  0.00     0.058 A 
ATOM     86  C   UNL A   1      48.911  27.496  29.467  1.00  0.00     0.135 A 
ATOM     87  C   UNL A   1      48.301  26.529  31.585  1.00  0.00     0.135 A 
ATOM     88  F   UNL A   1      48.590  28.106  28.316  1.00  0.00    -0.206 F 
ATOM     89  C   UNL A   1      50.245  27.175  29.694  1.00  0.00     0.059 A 
ATOM     90  C   UNL A   1      49.633  26.218  31.842  1.00  0.00     0.059 A 
ATOM     91  F   UNL A   1      47.384  26.209  32.511  1.00  0.00    -0.206 F 
ATOM     92  C   UNL A   1      50.596  26.537  30.885  1.00  0.00     0.060 A 
BRANCH  92  93
ATOM     93  S   UNL A   1      52.336  26.157  31.183  1.00  0.00     0.124 S 
ATOM     94  O   UNL A   1      52.740  27.276  32.027  1.00  0.00    -0.237 OA
ATOM     95  O   UNL A   1      52.265  24.858  31.844  1.00  0.00    -0.237 OA
ATOM     96  O   UNL A   1      52.914  26.141  29.842  1.00  0.00    -0.744 OA
ENDBRANCH  92  93
ENDBRANCH  60  85
ENDBRANCH  34  35
ENDBRANCH  26  29
ENDBRANCH  24  25
ENDBRANCH   1  24
TORSDOF 15
ENDMDL
MODEL 2
REMARK VINA RESULT:     -11.8      1.436      1.953
REMARK SMILES Cc1cc(Cl)c2c(c1)C=C(C(=O)NCCCCNC(=O)c1ccc(-c3c4nc(c(-c5c(F)cc(S(=O)(=O)[O-])cc5F)c5ccc([nH]5)c(-c5c(F)cc(S(=O)(=O)[O-])cc5F)c5nc(c(-c6c(F)cc(S(=O)(=O)[O-])cc6F)c6ccc3[nH]6)C=C5)C=C4)cc1)[C@@H](C(F)(F)F)O2
REMARK SMILES IDX 16 1 15 2 14 3 13 4 11 5 12 6 10 8 1 9 2 10 3 11 8 12 4 13
REMARK SMILES IDX 7 14 5 15 6 16 9 17 92 18 87 19 88 20 89 21 90 22 91 23
REMARK SMILES IDX 17 24 18 25 19 26 20 28 21 29 22 30 86 31 23 32 85 33 24 34
REMARK SMILES IDX 25 35 26 36 79 37 27 38 84 39 78 40 80 41 28 42 83 43 77 44
REMARK SMILES IDX 76 45 29 47 63 48 42 49 62 50 43 51 46 52 61 53 81 54 44 55
REMARK SMILES IDX 45 56 60 58 82 59 47 60 30 61 31 62 40 63 32 64 33 65 39 66
REMARK SMILES IDX 41 67 34 68 35 69 36 70 37 71 38 72 64 73 65 74 74 75 66 76
REMARK SMILES IDX 67 77 73 78 75 79 68 80 69 81 70 82 71 83 72 84 48 85 49 86
REMARK SMILES IDX 58 87 50 88 51 89 57 90 59 91 52 92 53 93 54 94 55 95 56 96
REMARK H PARENT 13 7 18 27 80 46 46 57
REMARK Flexibility Score: inf
ROOT
ATOM      1  C   UNL A   1      32.230  27.546  26.817  1.00  0.00     0.023 C 
ENDROOT
BRANCH   1   2
ATOM      2  C   UNL A   1      31.788  27.626  25.353  1.00  0.00     0.023 C 
BRANCH   2   3
ATOM      3  C   UNL A   1      31.531  26.270  24.704  1.00  0.00     0.116 C 
BRANCH   3   4
ATOM      4  N   UNL A   1      32.109  26.184  23.376  1.00  0.00    -0.352 N 
ATOM      5  C   UNL A   1      32.956  25.357  22.720  1.00  0.00     0.251 C 
ATOM      6  O   UNL A   1      33.195  25.670  21.548  1.00  0.00    -0.270 OA
ATOM      7  H   UNL A   1      31.806  26.922  22.800  1.00  0.00     0.163 HD
BRANCH   5   8
ATOM      8  C   UNL A   1      33.597  24.138  23.298  1.00  0.00     0.067 C 
ATOM      9  C   UNL A   1      32.260  18.216  24.496  1.00  0.00     0.044 C 
ATOM     10  C   UNL A   1      33.130  19.431  24.374  1.00  0.00    -0.049 A 
ATOM     11  C   UNL A   1      34.462  19.398  24.802  1.00  0.00     0.028 A 
ATOM     12  C   UNL A   1      32.604  20.630  23.872  1.00  0.00     0.015 A 
ATOM     13  C   UNL A   1      35.262  20.538  24.704  1.00  0.00     0.084 A 
ATOM     14  C   UNL A   1      33.403  21.776  23.777  1.00  0.00     0.019 A 
ATOM     15  Cl  UNL A   1      36.904  20.437  25.232  1.00  0.00    -0.080 Cl
ATOM     16  C   UNL A   1      34.734  21.730  24.198  1.00  0.00     0.146 A 
ATOM     17  C   UNL A   1      32.872  23.009  23.208  1.00  0.00     0.025 C 
ATOM     18  O   UNL A   1      35.561  22.813  24.081  1.00  0.00    -0.474 OA
ATOM     19  C   UNL A   1      34.931  24.120  23.989  1.00  0.00     0.314 C 
BRANCH  19  20
ATOM     20  C   UNL A   1      34.884  24.758  25.390  1.00  0.00     0.429 C 
ATOM     21  F   UNL A   1      36.002  24.449  26.092  1.00  0.00    -0.167 F 
ATOM     22  F   UNL A   1      34.819  26.109  25.346  1.00  0.00    -0.167 F 
ATOM     23  F   UNL A   1      33.821  24.336  26.114  1.00  0.00    -0.167 F 
ENDBRANCH  19  20
ENDBRANCH   5   8
ENDBRANCH   3   4
ENDBRANCH   2   3
ENDBRANCH   1   2
BRANCH   1  24
ATOM     24  C   UNL A   1      33.548  28.247  27.142  1.00  0.00     0.116 C 
BRANCH  24  25
ATOM     25  N   UNL A   1      33.387  29.644  27.521  1.00  0.00    -0.352 N 
ATOM     26  C   UNL A   1      34.318  30.488  28.075  1.00  0.00     0.251 C 
ATOM     27  H   UNL A   1      32.498  30.033  27.358  1.00  0.00     0.163 HD
ATOM     28  O   UNL A   1      34.001  31.620  28.424  1.00  0.00    -0.269 OA
BRANCH  26  29
ATOM     29  C   UNL A   1      35.694  29.996  28.279  1.00  0.00     0.039 A 
ATOM     30  C   UNL A   1      36.599  30.071  27.219  1.00  0.00     0.014 A 
ATOM     31  C   UNL A   1      36.092  29.514  29.530  1.00  0.00     0.014 A 
ATOM     32  C   UNL A   1      37.932  29.718  27.432  1.00  0.00     0.010 A 
ATOM     33  C   UNL A   1      37.432  29.220  29.755  1.00  0.00     0.010 A 
ATOM     34  C   UNL A   1      38.362  29.319  28.708  1.00  0.00    -0.014 A 
BRANCH  34  35
ATOM     35  C   UNL A   1      39.781  28.974  28.964  1.00  0.00     0.031 A 
ATOM     36  C   UNL A   1      40.698  30.006  29.559  1.00  0.00     0.074 A 
ATOM     37  C   UNL A   1      40.249  27.762  28.616  1.00  0.00     0.049 A 
ATOM     38  N   UNL A   1      41.983  29.933  29.786  1.00  0.00    -0.248 NA
ATOM     39  C   UNL A   1      40.092  31.298  29.920  1.00  0.00     0.031 C 
ATOM     40  C   UNL A   1      39.460  26.692  28.003  1.00  0.00     0.029 A 
ATOM     41  N   UNL A   1      41.506  27.224  28.726  1.00  0.00    -0.354 N 
ATOM     42  C   UNL A   1      42.342  31.170  30.308  1.00  0.00     0.074 A 
ATOM     43  C   UNL A   1      41.150  31.991  30.314  1.00  0.00     0.031 C 
ATOM     44  C   UNL A   1      40.245  25.617  27.816  1.00  0.00     0.029 A 
ATOM     45  C   UNL A   1      41.597  25.932  28.265  1.00  0.00     0.049 A 
ATOM     46  H   UNL A   1      42.271  27.717  29.101  1.00  0.00     0.167 HD
ATOM     47  C   UNL A   1      43.549  31.574  30.768  1.00  0.00     0.037 A 
ATOM     48  C   UNL A   1      42.654  25.099  28.212  1.00  0.00     0.037 A 
ATOM     49  C   UNL A   1      44.722  30.744  30.787  1.00  0.00     0.049 A 
ATOM     50  C   UNL A   1      43.988  25.575  28.718  1.00  0.00     0.074 A 
ATOM     51  C   UNL A   1      45.983  31.044  31.272  1.00  0.00     0.029 A 
ATOM     52  N   UNL A   1      44.777  29.443  30.306  1.00  0.00    -0.354 N 
ATOM     53  N   UNL A   1      44.304  26.739  29.234  1.00  0.00    -0.248 NA
ATOM     54  C   UNL A   1      45.108  24.628  28.631  1.00  0.00     0.031 C 
ATOM     55  C   UNL A   1      46.808  29.934  31.057  1.00  0.00     0.029 A 
ATOM     56  C   UNL A   1      46.053  28.931  30.469  1.00  0.00     0.049 A 
ATOM     57  H   UNL A   1      44.020  28.957  29.907  1.00  0.00     0.167 HD
ATOM     58  C   UNL A   1      45.658  26.661  29.543  1.00  0.00     0.074 A 
ATOM     59  C   UNL A   1      46.095  25.330  29.171  1.00  0.00     0.031 C 
ATOM     60  C   UNL A   1      46.467  27.607  30.081  1.00  0.00     0.037 A 
BRANCH  47  61
ATOM     61  C   UNL A   1      43.647  32.975  31.301  1.00  0.00     0.058 A 
ATOM     62  C   UNL A   1      44.007  34.048  30.471  1.00  0.00     0.135 A 
ATOM     63  C   UNL A   1      43.371  33.252  32.649  1.00  0.00     0.135 A 
ATOM     64  F   UNL A   1      44.301  33.834  29.178  1.00  0.00    -0.206 F 
ATOM     65  C   UNL A   1      44.118  35.344  30.964  1.00  0.00     0.059 A 
ATOM     66  C   UNL A   1      43.453  34.545  33.158  1.00  0.00     0.059 A 
ATOM     67  F   UNL A   1      43.027  32.261  33.487  1.00  0.00    -0.206 F 
ATOM     68  C   UNL A   1      43.842  35.581  32.310  1.00  0.00     0.060 A 
BRANCH  68  69
ATOM     69  S   UNL A   1      43.997  37.268  32.936  1.00  0.00     0.124 S 
ATOM     70  O   UNL A   1      43.848  38.047  31.709  1.00  0.00    -0.237 OA
ATOM     71  O   UNL A   1      42.888  37.355  33.879  1.00  0.00    -0.237 OA
ATOM     72  O   UNL A   1      45.328  37.288  33.533  1.00  0.00    -0.744 OA
ENDBRANCH  68  69
ENDBRANCH  47  61
BRANCH  48  73
ATOM     73  C   UNL A   1      42.484  23.721  27.686  1.00  0.00     0.058 A 
ATOM     74  C   UNL A   1      42.492  23.476  26.306  1.00  0.00     0.135 A 
ATOM     75  C   UNL A   1      42.339  22.621  28.545  1.00  0.00     0.135 A 
ATOM     76  F   UNL A   1      42.619  24.498  25.445  1.00  0.00    -0.206 F 
ATOM     77  C   UNL A   1      42.360  22.190  25.792  1.00  0.00     0.059 A 
ATOM     78  C   UNL A   1      42.224  21.323  28.056  1.00  0.00     0.059 A 
ATOM     79  F   UNL A   1      42.340  22.801  29.875  1.00  0.00    -0.206 F 
ATOM     80  C   UNL A   1      42.231  21.119  26.677  1.00  0.00     0.060 A 
BRANCH  80  81
ATOM     81  S   UNL A   1      42.127  19.447  26.000  1.00  0.00     0.124 S 
ATOM     82  O   UNL A   1      40.693  19.309  25.776  1.00  0.00    -0.237 OA
ATOM     83  O   UNL A   1      42.955  19.550  24.802  1.00  0.00    -0.237 OA
ATOM     84  O   UNL A   1      42.683  18.619  27.066  1.00  0.00    -0.744 OA
ENDBRANCH  80  81
ENDBRANCH  48  73
BRANCH  60  85
ATOM     85  C   UNL A   1      47.906  27.235  30.297  1.00  0.00     0.058 A 
ATOM     86  C   UNL A   1      48.888  27.549  29.346  1.00  0.00     0.135 A 
ATOM     87  C   UNL A   1      48.313  26.611  31.486  1.00  0.00     0.135 A 
ATOM     88  F   UNL A   1      48.547  28.141  28.190  1.00  0.00    -0.206 F 
ATOM     89  C   UNL A   1      50.227  27.239  29.559  1.00  0.00     0.059 A 
ATOM     90  C   UNL A   1      49.650  26.311  31.729  1.00  0.00     0.059 A 
ATOM     91  F   UNL A   1      47.411  26.299  32.430  1.00  0.00    -0.206 F 
ATOM     92  C   UNL A   1      50.598  26.621  30.755  1.00  0.00     0.060 A 
BRANCH  92  93
ATOM     93  S   UNL A   1      52.344  26.256  31.034  1.00  0.00     0.124 S 
ATOM     94  O   UNL A   1      52.267  24.988  31.751  1.00  0.00    -0.237 OA
ATOM     95  O   UNL A   1      52.871  26.184  29.674  1.00  0.00    -0.237 OA
ATOM     96  O   UNL A   1      52.808  27.395  31.820  1.00  0.00    -0.744 OA
ENDBRANCH  92  93
ENDBRANCH  60  85
ENDBRANCH  34  35
ENDBRANCH  26  29
ENDBRANCH  24  25
ENDBRANCH   1  24
TORSDOF 15
ENDMDL
MODEL 3
REMARK VINA RESULT:     -11.7      1.333      2.168
REMARK SMILES Cc1cc(Cl)c2c(c1)C=C(C(=O)NCCCCNC(=O)c1ccc(-c3c4nc(c(-c5c(F)cc(S(=O)(=O)[O-])cc5F)c5ccc([nH]5)c(-c5c(F)cc(S(=O)(=O)[O-])cc5F)c5nc(c(-c6c(F)cc(S(=O)(=O)[O-])cc6F)c6ccc3[nH]6)C=C5)C=C4)cc1)[C@@H](C(F)(F)F)O2
REMARK SMILES IDX 16 1 15 2 14 3 13 4 11 5 12 6 10 8 1 9 2 10 3 11 8 12 4 13
REMARK SMILES IDX 7 14 5 15 6 16 9 17 92 18 87 19 88 20 89 21 90 22 91 23
REMARK SMILES IDX 17 24 18 25 19 26 20 28 21 29 22 30 86 31 23 32 85 33 24 34
REMARK SMILES IDX 25 35 26 36 79 37 27 38 84 39 78 40 80 41 28 42 83 43 77 44
REMARK SMILES IDX 76 45 29 47 63 48 42 49 62 50 43 51 46 52 61 53 81 54 44 55
REMARK SMILES IDX 45 56 60 58 82 59 47 60 30 61 31 62 40 63 32 64 33 65 39 66
REMARK SMILES IDX 41 67 34 68 35 69 36 70 37 71 38 72 64 73 65 74 74 75 66 76
REMARK SMILES IDX 67 77 73 78 75 79 68 80 69 81 70 82 71 83 72 84 48 85 49 86
REMARK SMILES IDX 58 87 50 88 51 89 57 90 59 91 52 92 53 93 54 94 55 95 56 96
REMARK H PARENT 13 7 18 27 80 46 46 57
REMARK Flexibility Score: inf
ROOT
ATOM      1  C   UNL A   1      32.625  27.660  26.292  1.00  0.00     0.023 C 
ENDROOT
BRANCH   1   2
ATOM      2  C   UNL A   1      32.850  26.845  25.016  1.00  0.00     0.023 C 
BRANCH   2   3
ATOM      3  C   UNL A   1      31.706  25.898  24.670  1.00  0.00     0.116 C 
BRANCH   3   4
ATOM      4  N   UNL A   1      31.273  25.127  25.821  1.00  0.00    -0.352 N 
ATOM      5  C   UNL A   1      31.670  24.004  26.463  1.00  0.00     0.251 C 
ATOM      6  O   UNL A   1      30.984  23.685  27.440  1.00  0.00    -0.270 OA
ATOM      7  H   UNL A   1      30.480  25.526  26.247  1.00  0.00     0.163 HD
BRANCH   5   8
ATOM      8  C   UNL A   1      32.839  23.156  26.080  1.00  0.00     0.067 C 
ATOM      9  C   UNL A   1      39.023  23.372  26.051  1.00  0.00     0.044 C 
ATOM     10  C   UNL A   1      37.669  22.746  25.902  1.00  0.00    -0.049 A 
ATOM     11  C   UNL A   1      37.539  21.440  25.413  1.00  0.00     0.028 A 
ATOM     12  C   UNL A   1      36.513  23.478  26.207  1.00  0.00     0.015 A 
ATOM     13  C   UNL A   1      36.275  20.869  25.258  1.00  0.00     0.084 A 
ATOM     14  C   UNL A   1      35.244  22.909  26.048  1.00  0.00     0.019 A 
ATOM     15  Cl  UNL A   1      36.172  19.249  24.666  1.00  0.00    -0.080 Cl
ATOM     16  C   UNL A   1      35.125  21.602  25.569  1.00  0.00     0.146 A 
ATOM     17  C   UNL A   1      34.044  23.652  26.413  1.00  0.00     0.025 C 
ATOM     18  O   UNL A   1      33.907  20.993  25.441  1.00  0.00    -0.474 OA
ATOM     19  C   UNL A   1      32.743  21.857  25.330  1.00  0.00     0.314 C 
BRANCH  19  20
ATOM     20  C   UNL A   1      32.401  22.054  23.841  1.00  0.00     0.429 C 
ATOM     21  F   UNL A   1      32.361  20.860  23.199  1.00  0.00    -0.167 F 
ATOM     22  F   UNL A   1      31.189  22.629  23.657  1.00  0.00    -0.167 F 
ATOM     23  F   UNL A   1      33.306  22.829  23.201  1.00  0.00    -0.167 F 
ENDBRANCH  19  20
ENDBRANCH   5   8
ENDBRANCH   3   4
ENDBRANCH   2   3
ENDBRANCH   1   2
BRANCH   1  24
ATOM     24  C   UNL A   1      33.877  28.300  26.890  1.00  0.00     0.116 C 
BRANCH  24  25
ATOM     25  N   UNL A   1      33.665  29.659  27.369  1.00  0.00    -0.352 N 
ATOM     26  C   UNL A   1      34.543  30.469  28.046  1.00  0.00     0.251 C 
ATOM     27  H   UNL A   1      32.780  30.047  27.183  1.00  0.00     0.163 HD
ATOM     28  O   UNL A   1      34.183  31.565  28.464  1.00  0.00    -0.269 OA
BRANCH  26  29
ATOM     29  C   UNL A   1      35.913  29.984  28.296  1.00  0.00     0.039 A 
ATOM     30  C   UNL A   1      36.868  30.113  27.286  1.00  0.00     0.014 A 
ATOM     31  C   UNL A   1      36.257  29.453  29.543  1.00  0.00     0.014 A 
ATOM     32  C   UNL A   1      38.193  29.765  27.548  1.00  0.00     0.010 A 
ATOM     33  C   UNL A   1      37.588  29.163  29.820  1.00  0.00     0.010 A 
ATOM     34  C   UNL A   1      38.566  29.316  28.826  1.00  0.00    -0.014 A 
BRANCH  34  35
ATOM     35  C   UNL A   1      39.975  28.976  29.136  1.00  0.00     0.031 A 
ATOM     36  C   UNL A   1      40.851  29.992  29.813  1.00  0.00     0.074 A 
ATOM     37  C   UNL A   1      40.474  27.782  28.764  1.00  0.00     0.049 A 
ATOM     38  N   UNL A   1      42.124  29.923  30.099  1.00  0.00    -0.248 NA
ATOM     39  C   UNL A   1      40.214  31.262  30.196  1.00  0.00     0.031 C 
ATOM     40  C   UNL A   1      39.727  26.730  28.071  1.00  0.00     0.029 A 
ATOM     41  N   UNL A   1      41.730  27.253  28.913  1.00  0.00    -0.354 N 
ATOM     42  C   UNL A   1      42.444  31.141  30.686  1.00  0.00     0.074 A 
ATOM     43  C   UNL A   1      41.244  31.950  30.666  1.00  0.00     0.031 C 
ATOM     44  C   UNL A   1      40.532  25.671  27.880  1.00  0.00     0.029 A 
ATOM     45  C   UNL A   1      41.858  25.982  28.406  1.00  0.00     0.049 A 
ATOM     46  H   UNL A   1      42.471  27.739  29.342  1.00  0.00     0.167 HD
ATOM     47  C   UNL A   1      43.622  31.538  31.218  1.00  0.00     0.037 A 
ATOM     48  C   UNL A   1      42.925  25.161  28.371  1.00  0.00     0.037 A 
ATOM     49  C   UNL A   1      44.804  30.720  31.261  1.00  0.00     0.049 A 
ATOM     50  C   UNL A   1      44.228  25.630  28.959  1.00  0.00     0.074 A 
ATOM     51  C   UNL A   1      46.036  31.013  31.817  1.00  0.00     0.029 A 
ATOM     52  N   UNL A   1      44.896  29.440  30.733  1.00  0.00    -0.354 N 
ATOM     53  N   UNL A   1      44.507  26.775  29.535  1.00  0.00    -0.248 NA
ATOM     54  C   UNL A   1      45.362  24.698  28.888  1.00  0.00     0.031 C 
ATOM     55  C   UNL A   1      46.883  29.920  31.599  1.00  0.00     0.029 A 
ATOM     56  C   UNL A   1      46.169  28.934  30.936  1.00  0.00     0.049 A 
ATOM     57  H   UNL A   1      44.164  28.963  30.279  1.00  0.00     0.167 HD
ATOM     58  C   UNL A   1      45.845  26.699  29.904  1.00  0.00     0.074 A 
ATOM     59  C   UNL A   1      46.314  25.387  29.502  1.00  0.00     0.031 C 
ATOM     60  C   UNL A   1      46.616  27.630  30.518  1.00  0.00     0.037 A 
BRANCH  47  61
ATOM     61  C   UNL A   1      43.679  32.918  31.809  1.00  0.00     0.058 A 
ATOM     62  C   UNL A   1      43.390  33.145  33.164  1.00  0.00     0.135 A 
ATOM     63  C   UNL A   1      44.032  34.024  31.020  1.00  0.00     0.135 A 
ATOM     64  F   UNL A   1      43.027  32.124  33.958  1.00  0.00    -0.206 F 
ATOM     65  C   UNL A   1      43.422  34.423  33.711  1.00  0.00     0.059 A 
ATOM     66  C   UNL A   1      44.093  35.309  31.553  1.00  0.00     0.059 A 
ATOM     67  F   UNL A   1      44.312  33.864  29.717  1.00  0.00    -0.206 F 
ATOM     68  C   UNL A   1      43.771  35.499  32.896  1.00  0.00     0.060 A 
BRANCH  68  69
ATOM     69  S   UNL A   1      43.801  37.153  33.620  1.00  0.00     0.124 S 
ATOM     70  O   UNL A   1      43.950  37.988  32.431  1.00  0.00    -0.237 OA
ATOM     71  O   UNL A   1      42.506  37.226  34.287  1.00  0.00    -0.237 OA
ATOM     72  O   UNL A   1      44.960  37.113  34.507  1.00  0.00    -0.744 OA
ENDBRANCH  68  69
ENDBRANCH  47  61
BRANCH  48  73
ATOM     73  C   UNL A   1      42.797  23.803  27.784  1.00  0.00     0.058 A 
ATOM     74  C   UNL A   1      42.551  22.692  28.602  1.00  0.00     0.135 A 
ATOM     75  C   UNL A   1      42.889  23.590  26.400  1.00  0.00     0.135 A 
ATOM     76  F   UNL A   1      42.464  22.845  29.933  1.00  0.00    -0.206 F 
ATOM     77  C   UNL A   1      42.402  21.414  28.072  1.00  0.00     0.059 A 
ATOM     78  C   UNL A   1      42.725  22.325  25.844  1.00  0.00     0.059 A 
ATOM     79  F   UNL A   1      43.110  24.624  25.574  1.00  0.00    -0.206 F 
ATOM     80  C   UNL A   1      42.487  21.243  26.690  1.00  0.00     0.060 A 
BRANCH  80  81
ATOM     81  S   UNL A   1      42.226  19.590  26.007  1.00  0.00     0.124 S 
ATOM     82  O   UNL A   1      40.787  19.590  25.777  1.00  0.00    -0.237 OA
ATOM     83  O   UNL A   1      43.065  19.617  24.812  1.00  0.00    -0.237 OA
ATOM     84  O   UNL A   1      42.696  18.710  27.072  1.00  0.00    -0.744 OA
ENDBRANCH  80  81
ENDBRANCH  48  73
BRANCH  60  85
ATOM     85  C   UNL A   1      48.047  27.265  30.788  1.00  0.00     0.058 A 
ATOM     86  C   UNL A   1      48.420  26.614  31.973  1.00  0.00     0.135 A 
ATOM     87  C   UNL A   1      49.043  27.518  29.832  1.00  0.00     0.135 A 
ATOM     88  F   UNL A   1      47.504  26.356  32.921  1.00  0.00    -0.206 F 
ATOM     89  C   UNL A   1      49.739  26.241  32.211  1.00  0.00     0.059 A 
ATOM     90  C   UNL A   1      50.364  27.134  30.039  1.00  0.00     0.059 A 
ATOM     91  F   UNL A   1      48.734  28.129  28.678  1.00  0.00    -0.206 F 
ATOM     92  C   UNL A   1      50.703  26.504  31.237  1.00  0.00     0.060 A 
BRANCH  92  93
ATOM     93  S   UNL A   1      52.405  25.984  31.543  1.00  0.00     0.124 S 
ATOM     94  O   UNL A   1      52.211  24.631  32.052  1.00  0.00    -0.237 OA
ATOM     95  O   UNL A   1      53.006  26.082  30.216  1.00  0.00    -0.237 OA
ATOM     96  O   UNL A   1      52.888  26.959  32.516  1.00  0.00    -0.744 OA
ENDBRANCH  92  93
ENDBRANCH  60  85
ENDBRANCH  34  35
ENDBRANCH  26  29
ENDBRANCH  24  25
ENDBRANCH   1  24
TORSDOF 15
ENDMDL
