MODEL 1
REMARK VINA RESULT:     -11.4      0.000      0.000
REMARK SMILES COc1cc(/C=N/NC(=O)c2cc(Cl)ccc2O)ccc1OCC(=O)NCCCCNC(=O)c1ccc(-c2c3nc(c(-c4c(F)cc(S(=O)(=O)[O-])cc4F)c4ccc([nH]4)c(-c4c(F)cc(S(=O)(=O)[O-])cc4F)c4nc(c(-c5c(F)cc(S(=O)(=O)[O-])cc5F)c5ccc2[nH]5)C=C4)C=C3)cc1
REMARK SMILES IDX 27 1 26 2 24 3 25 4 23 6 22 7 21 8 3 9 4 10 5 11 20 12 19 13
REMARK SMILES IDX 2 14 1 15 6 16 7 17 8 18 9 19 10 21 11 22 12 23 17 24 13 25
REMARK SMILES IDX 16 26 14 27 15 28 18 29 28 31 29 32 30 33 31 34 32 35 33 37
REMARK SMILES IDX 34 38 35 39 99 40 36 41 98 42 37 43 38 44 39 45 92 46 40 47
REMARK SMILES IDX 97 48 91 49 93 50 41 51 96 52 90 53 89 54 42 56 76 57 55 58
REMARK SMILES IDX 75 59 56 60 59 61 74 62 94 63 57 64 58 65 73 67 95 68 60 69
REMARK SMILES IDX 43 70 44 71 53 72 45 73 46 74 52 75 54 76 47 77 48 78 49 79
REMARK SMILES IDX 50 80 51 81 77 82 78 83 87 84 79 85 80 86 86 87 88 88 81 89
REMARK SMILES IDX 82 90 83 91 84 92 85 93 61 94 62 95 71 96 63 97 64 98 70 99
REMARK SMILES IDX 72 100 65 101 66 102 67 103 68 104 69 105
REMARK H PARENT 26 5 8 20 18 30 31 36 93 55 59 66
REMARK Flexibility Score: inf
ROOT
ATOM      1  C   UNL A   1      31.068  29.421  24.868  1.00  0.00     0.116 C 
ENDROOT
BRANCH   1   2
ATOM      2  N   UNL A   1      30.594  30.048  23.651  1.00  0.00    -0.353 N 
ATOM      3  C   UNL A   1      30.086  29.453  22.532  1.00  0.00     0.257 C 
ATOM      4  O   UNL A   1      29.527  30.171  21.700  1.00  0.00    -0.271 OA
ATOM      5  H   UNL A   1      30.644  31.030  23.628  1.00  0.00     0.163 HD
BRANCH   3   6
ATOM      6  C   UNL A   1      30.154  27.927  22.374  1.00  0.00     0.329 C 
BRANCH   6   7
ATOM      7  O   UNL A   1      31.420  27.334  22.136  1.00  0.00    -0.480 OA
BRANCH   7   8
ATOM      8  C   UNL A   1      31.596  26.001  22.389  1.00  0.00     0.161 A 
ATOM      9  C   UNL A   1      30.884  25.186  23.279  1.00  0.00     0.161 A 
ATOM     10  C   UNL A   1      31.253  23.843  23.442  1.00  0.00     0.060 A 
ATOM     11  C   UNL A   1      32.295  23.306  22.682  1.00  0.00    -0.002 A 
ATOM     12  C   UNL A   1      32.659  25.448  21.659  1.00  0.00     0.051 A 
ATOM     13  C   UNL A   1      32.994  24.100  21.779  1.00  0.00     0.014 A 
BRANCH   9  14
ATOM     14  O   UNL A   1      29.915  25.728  24.080  1.00  0.00    -0.493 OA
ATOM     15  C   UNL A   1      30.252  25.700  25.470  1.00  0.00     0.278 C 
ENDBRANCH   9  14
BRANCH  11  16
ATOM     16  C   UNL A   1      32.757  21.922  22.892  1.00  0.00     0.141 C 
ATOM     17  N   UNL A   1      32.031  21.074  23.555  1.00  0.00    -0.180 NA
BRANCH  17  18
ATOM     18  N   UNL A   1      32.590  19.863  23.843  1.00  0.00    -0.243 N 
ATOM     19  C   UNL A   1      33.705  19.573  24.612  1.00  0.00     0.275 C 
ATOM     20  H   UNL A   1      32.136  19.084  23.447  1.00  0.00     0.194 HD
ATOM     21  O   UNL A   1      34.092  18.410  24.733  1.00  0.00    -0.267 OA
BRANCH  19  22
ATOM     22  C   UNL A   1      34.448  20.646  25.315  1.00  0.00     0.084 A 
ATOM     23  C   UNL A   1      35.827  20.721  25.073  1.00  0.00     0.038 A 
ATOM     24  C   UNL A   1      33.855  21.550  26.205  1.00  0.00     0.128 A 
ATOM     25  C   UNL A   1      36.582  21.728  25.671  1.00  0.00     0.042 A 
ATOM     26  C   UNL A   1      34.617  22.556  26.798  1.00  0.00     0.048 A 
ATOM     27  Cl  UNL A   1      38.268  21.837  25.351  1.00  0.00    -0.084 Cl
ATOM     28  C   UNL A   1      35.981  22.655  26.521  1.00  0.00     0.024 A 
BRANCH  24  29
ATOM     29  O   UNL A   1      32.530  21.524  26.542  1.00  0.00    -0.507 OA
ATOM     30  H   UNL A   1      32.208  22.085  27.221  1.00  0.00     0.293 HD
ENDBRANCH  24  29
ENDBRANCH  19  22
ENDBRANCH  17  18
ENDBRANCH  11  16
ENDBRANCH   7   8
ENDBRANCH   6   7
ENDBRANCH   3   6
ENDBRANCH   1   2
BRANCH   1  31
ATOM     31  C   UNL A   1      32.585  29.248  24.900  1.00  0.00     0.023 C 
BRANCH  31  32
ATOM     32  C   UNL A   1      33.106  28.080  25.738  1.00  0.00     0.023 C 
BRANCH  32  33
ATOM     33  C   UNL A   1      33.349  28.375  27.213  1.00  0.00     0.116 C 
BRANCH  33  34
ATOM     34  N   UNL A   1      33.253  29.787  27.540  1.00  0.00    -0.352 N 
ATOM     35  C   UNL A   1      34.201  30.627  28.081  1.00  0.00     0.251 C 
ATOM     36  H   UNL A   1      32.383  30.205  27.346  1.00  0.00     0.163 HD
ATOM     37  O   UNL A   1      33.899  31.771  28.380  1.00  0.00    -0.269 OA
BRANCH  35  38
ATOM     38  C   UNL A   1      35.570  30.123  28.334  1.00  0.00     0.039 A 
ATOM     39  C   UNL A   1      36.483  30.110  27.277  1.00  0.00     0.014 A 
ATOM     40  C   UNL A   1      35.957  29.687  29.604  1.00  0.00     0.014 A 
ATOM     41  C   UNL A   1      37.808  29.731  27.511  1.00  0.00     0.010 A 
ATOM     42  C   UNL A   1      37.293  29.378  29.850  1.00  0.00     0.010 A 
ATOM     43  C   UNL A   1      38.233  29.401  28.808  1.00  0.00    -0.014 A 
BRANCH  43  44
ATOM     44  C   UNL A   1      39.657  29.089  29.099  1.00  0.00     0.031 A 
ATOM     45  C   UNL A   1      40.562  30.154  29.661  1.00  0.00     0.074 A 
ATOM     46  C   UNL A   1      40.153  27.875  28.785  1.00  0.00     0.049 A 
ATOM     47  N   UNL A   1      41.850  30.109  29.880  1.00  0.00    -0.248 NA
ATOM     48  C   UNL A   1      39.942  31.447  29.993  1.00  0.00     0.031 C 
ATOM     49  C   UNL A   1      39.390  26.776  28.190  1.00  0.00     0.029 A 
ATOM     50  N   UNL A   1      41.424  27.367  28.902  1.00  0.00    -0.354 N 
ATOM     51  C   UNL A   1      42.199  31.370  30.352  1.00  0.00     0.074 A 
ATOM     52  C   UNL A   1      40.994  32.170  30.353  1.00  0.00     0.031 C 
ATOM     53  C   UNL A   1      40.204  25.724  28.001  1.00  0.00     0.029 A 
ATOM     54  C   UNL A   1      41.554  26.084  28.423  1.00  0.00     0.049 A 
ATOM     55  H   UNL A   1      42.172  27.874  29.292  1.00  0.00     0.167 HD
ATOM     56  C   UNL A   1      43.410  31.812  30.766  1.00  0.00     0.037 A 
ATOM     57  C   UNL A   1      42.640  25.292  28.319  1.00  0.00     0.037 A 
ATOM     58  C   UNL A   1      44.596  30.996  30.806  1.00  0.00     0.049 A 
ATOM     59  C   UNL A   1      43.972  25.805  28.802  1.00  0.00     0.074 A 
ATOM     60  C   UNL A   1      45.852  31.333  31.283  1.00  0.00     0.029 A 
ATOM     61  N   UNL A   1      44.677  29.688  30.355  1.00  0.00    -0.354 N 
ATOM     62  N   UNL A   1      44.266  26.976  29.315  1.00  0.00    -0.248 NA
ATOM     63  C   UNL A   1      45.118  24.892  28.698  1.00  0.00     0.031 C 
ATOM     64  C   UNL A   1      46.702  30.242  31.079  1.00  0.00     0.029 A 
ATOM     65  C   UNL A   1      45.965  29.210  30.524  1.00  0.00     0.049 A 
ATOM     66  H   UNL A   1      43.928  29.175  29.971  1.00  0.00     0.167 HD
ATOM     67  C   UNL A   1      45.620  26.926  29.624  1.00  0.00     0.074 A 
ATOM     68  C   UNL A   1      46.087  25.607  29.250  1.00  0.00     0.031 C 
ATOM     69  C   UNL A   1      46.409  27.886  30.168  1.00  0.00     0.037 A 
BRANCH  56  70
ATOM     70  C   UNL A   1      43.524  33.239  31.226  1.00  0.00     0.058 A 
ATOM     71  C   UNL A   1      43.344  33.596  32.570  1.00  0.00     0.135 A 
ATOM     72  C   UNL A   1      43.900  34.248  30.324  1.00  0.00     0.135 A 
ATOM     73  F   UNL A   1      42.967  32.674  33.470  1.00  0.00    -0.206 F 
ATOM     74  C   UNL A   1      43.524  34.904  33.005  1.00  0.00     0.059 A 
ATOM     75  C   UNL A   1      44.111  35.558  30.741  1.00  0.00     0.059 A 
ATOM     76  F   UNL A   1      44.083  33.960  29.025  1.00  0.00    -0.206 F 
ATOM     77  C   UNL A   1      43.915  35.878  32.083  1.00  0.00     0.060 A 
BRANCH  77  78
ATOM     78  S   UNL A   1      44.188  37.562  32.674  1.00  0.00     0.124 S 
ATOM     79  O   UNL A   1      43.875  38.343  31.480  1.00  0.00    -0.237 OA
ATOM     80  O   UNL A   1      43.231  37.667  33.769  1.00  0.00    -0.237 OA
ATOM     81  O   UNL A   1      45.593  37.560  33.069  1.00  0.00    -0.744 OA
ENDBRANCH  77  78
ENDBRANCH  56  70
BRANCH  57  82
ATOM     82  C   UNL A   1      42.524  23.929  27.732  1.00  0.00     0.058 A 
ATOM     83  C   UNL A   1      42.401  22.796  28.550  1.00  0.00     0.135 A 
ATOM     84  C   UNL A   1      42.561  23.730  26.343  1.00  0.00     0.135 A 
ATOM     85  F   UNL A   1      42.367  22.933  29.885  1.00  0.00    -0.206 F 
ATOM     86  C   UNL A   1      42.355  21.512  28.016  1.00  0.00     0.059 A 
ATOM     87  C   UNL A   1      42.486  22.458  25.783  1.00  0.00     0.059 A 
ATOM     88  F   UNL A   1      42.657  24.782  25.515  1.00  0.00    -0.206 F 
ATOM     89  C   UNL A   1      42.402  21.354  26.630  1.00  0.00     0.060 A 
BRANCH  89  90
ATOM     90  S   UNL A   1      42.327  19.685  25.942  1.00  0.00     0.124 S 
ATOM     91  O   UNL A   1      40.949  19.628  25.467  1.00  0.00    -0.237 OA
ATOM     92  O   UNL A   1      43.357  19.730  24.910  1.00  0.00    -0.237 OA
ATOM     93  O   UNL A   1      42.636  18.838  27.090  1.00  0.00    -0.744 OA
ENDBRANCH  89  90
ENDBRANCH  57  82
BRANCH  69  94
ATOM     94  C   UNL A   1      47.845  27.537  30.441  1.00  0.00     0.058 A 
ATOM     95  C   UNL A   1      48.875  27.908  29.563  1.00  0.00     0.135 A 
ATOM     96  C   UNL A   1      48.200  26.883  31.632  1.00  0.00     0.135 A 
ATOM     97  F   UNL A   1      48.588  28.529  28.408  1.00  0.00    -0.206 F 
ATOM     98  C   UNL A   1      50.207  27.627  29.849  1.00  0.00     0.059 A 
ATOM     99  C   UNL A   1      49.527  26.617  31.951  1.00  0.00     0.059 A 
ATOM    100  F   UNL A   1      47.252  26.517  32.511  1.00  0.00    -0.206 F 
ATOM    101  C   UNL A   1      50.524  26.985  31.048  1.00  0.00     0.060 A 
BRANCH 101 102
ATOM    102  S   UNL A   1      52.260  26.667  31.429  1.00  0.00     0.124 S 
ATOM    103  O   UNL A   1      52.158  25.984  32.714  1.00  0.00    -0.237 OA
ATOM    104  O   UNL A   1      52.680  25.838  30.303  1.00  0.00    -0.237 OA
ATOM    105  O   UNL A   1      52.849  28.001  31.472  1.00  0.00    -0.744 OA
ENDBRANCH 101 102
ENDBRANCH  69  94
ENDBRANCH  43  44
ENDBRANCH  35  38
ENDBRANCH  33  34
ENDBRANCH  32  33
ENDBRANCH  31  32
ENDBRANCH   1  31
TORSDOF 21
ENDMDL
MODEL 2
REMARK VINA RESULT:     -11.1      2.840      3.778
REMARK SMILES COc1cc(/C=N/NC(=O)c2cc(Cl)ccc2O)ccc1OCC(=O)NCCCCNC(=O)c1ccc(-c2c3nc(c(-c4c(F)cc(S(=O)(=O)[O-])cc4F)c4ccc([nH]4)c(-c4c(F)cc(S(=O)(=O)[O-])cc4F)c4nc(c(-c5c(F)cc(S(=O)(=O)[O-])cc5F)c5ccc2[nH]5)C=C4)C=C3)cc1
REMARK SMILES IDX 27 1 26 2 24 3 25 4 23 6 22 7 21 8 3 9 4 10 5 11 20 12 19 13
REMARK SMILES IDX 2 14 1 15 6 16 7 17 8 18 9 19 10 21 11 22 12 23 17 24 13 25
REMARK SMILES IDX 16 26 14 27 15 28 18 29 28 31 29 32 30 33 31 34 32 35 33 37
REMARK SMILES IDX 34 38 35 39 99 40 36 41 98 42 37 43 38 44 39 45 92 46 40 47
REMARK SMILES IDX 97 48 91 49 93 50 41 51 96 52 90 53 89 54 42 56 76 57 55 58
REMARK SMILES IDX 75 59 56 60 59 61 74 62 94 63 57 64 58 65 73 67 95 68 60 69
REMARK SMILES IDX 43 70 44 71 53 72 45 73 46 74 52 75 54 76 47 77 48 78 49 79
REMARK SMILES IDX 50 80 51 81 77 82 78 83 87 84 79 85 80 86 86 87 88 88 81 89
REMARK SMILES IDX 82 90 83 91 84 92 85 93 61 94 62 95 71 96 63 97 64 98 70 99
REMARK SMILES IDX 72 100 65 101 66 102 67 103 68 104 69 105
REMARK H PARENT 26 5 8 20 18 30 31 36 93 55 59 66
REMARK Flexibility Score: inf
ROOT
ATOM      1  C   UNL A   1      32.873  29.373  25.279  1.00  0.00     0.116 C 
ENDROOT
BRANCH   1   2
ATOM      2  N   UNL A   1      31.810  30.134  24.656  1.00  0.00    -0.353 N 
ATOM      3  C   UNL A   1      30.591  29.695  24.225  1.00  0.00     0.257 C 
ATOM      4  O   UNL A   1      29.743  30.540  23.933  1.00  0.00    -0.271 OA
ATOM      5  H   UNL A   1      31.990  31.092  24.525  1.00  0.00     0.163 HD
BRANCH   3   6
ATOM      6  C   UNL A   1      30.286  28.190  24.188  1.00  0.00     0.329 C 
BRANCH   6   7
ATOM      7  O   UNL A   1      30.618  27.468  23.014  1.00  0.00    -0.480 OA
BRANCH   7   8
ATOM      8  C   UNL A   1      31.692  26.621  23.026  1.00  0.00     0.161 A 
ATOM      9  C   UNL A   1      32.320  26.001  21.938  1.00  0.00     0.161 A 
ATOM     10  C   UNL A   1      33.383  25.113  22.158  1.00  0.00     0.060 A 
ATOM     11  C   UNL A   1      33.847  24.886  23.456  1.00  0.00    -0.002 A 
ATOM     12  C   UNL A   1      32.156  26.354  24.323  1.00  0.00     0.051 A 
ATOM     13  C   UNL A   1      33.246  25.514  24.543  1.00  0.00     0.014 A 
BRANCH   9  14
ATOM     14  O   UNL A   1      31.817  26.161  20.674  1.00  0.00    -0.493 OA
ATOM     15  C   UNL A   1      32.476  25.349  19.698  1.00  0.00     0.278 C 
ENDBRANCH   9  14
BRANCH  11  16
ATOM     16  C   UNL A   1      34.907  23.897  23.725  1.00  0.00     0.141 C 
ATOM     17  N   UNL A   1      35.794  24.112  24.648  1.00  0.00    -0.180 NA
BRANCH  17  18
ATOM     18  N   UNL A   1      36.833  23.231  24.734  1.00  0.00    -0.243 N 
ATOM     19  C   UNL A   1      36.822  21.899  25.117  1.00  0.00     0.275 C 
ATOM     20  H   UNL A   1      37.715  23.593  24.490  1.00  0.00     0.194 HD
ATOM     21  O   UNL A   1      37.874  21.261  25.174  1.00  0.00    -0.267 OA
BRANCH  19  22
ATOM     22  C   UNL A   1      35.554  21.211  25.453  1.00  0.00     0.084 A 
ATOM     23  C   UNL A   1      35.187  20.130  24.637  1.00  0.00     0.038 A 
ATOM     24  C   UNL A   1      34.713  21.596  26.504  1.00  0.00     0.128 A 
ATOM     25  C   UNL A   1      34.025  19.414  24.916  1.00  0.00     0.042 A 
ATOM     26  C   UNL A   1      33.553  20.872  26.779  1.00  0.00     0.048 A 
ATOM     27  Cl  UNL A   1      33.591  18.071  23.933  1.00  0.00    -0.084 Cl
ATOM     28  C   UNL A   1      33.214  19.771  25.993  1.00  0.00     0.024 A 
BRANCH  24  29
ATOM     29  O   UNL A   1      34.960  22.664  27.321  1.00  0.00    -0.507 OA
ATOM     30  H   UNL A   1      34.541  23.486  27.156  1.00  0.00     0.293 HD
ENDBRANCH  24  29
ENDBRANCH  19  22
ENDBRANCH  17  18
ENDBRANCH  11  16
ENDBRANCH   7   8
ENDBRANCH   6   7
ENDBRANCH   3   6
ENDBRANCH   1   2
BRANCH   1  31
ATOM     31  C   UNL A   1      33.240  29.886  26.670  1.00  0.00     0.023 C 
BRANCH  31  32
ATOM     32  C   UNL A   1      34.587  29.417  27.221  1.00  0.00     0.023 C 
BRANCH  32  33
ATOM     33  C   UNL A   1      35.456  30.493  27.860  1.00  0.00     0.116 C 
BRANCH  33  34
ATOM     34  N   UNL A   1      35.321  30.555  29.306  1.00  0.00    -0.352 N 
ATOM     35  C   UNL A   1      36.273  30.370  30.283  1.00  0.00     0.251 C 
ATOM     36  H   UNL A   1      34.415  30.759  29.634  1.00  0.00     0.163 HD
ATOM     37  O   UNL A   1      35.944  30.363  31.458  1.00  0.00    -0.269 OA
BRANCH  35  38
ATOM     38  C   UNL A   1      37.684  30.140  29.898  1.00  0.00     0.039 A 
ATOM     39  C   UNL A   1      38.636  29.989  30.908  1.00  0.00     0.014 A 
ATOM     40  C   UNL A   1      38.064  30.054  28.556  1.00  0.00     0.014 A 
ATOM     41  C   UNL A   1      39.957  29.675  30.575  1.00  0.00     0.010 A 
ATOM     42  C   UNL A   1      39.362  29.671  28.228  1.00  0.00     0.010 A 
ATOM     43  C   UNL A   1      40.321  29.473  29.234  1.00  0.00    -0.014 A 
BRANCH  43  44
ATOM     44  C   UNL A   1      41.695  29.044  28.861  1.00  0.00     0.031 A 
ATOM     45  C   UNL A   1      42.805  30.058  28.779  1.00  0.00     0.074 A 
ATOM     46  C   UNL A   1      41.924  27.759  28.521  1.00  0.00     0.049 A 
ATOM     47  N   UNL A   1      44.037  29.900  28.371  1.00  0.00    -0.248 NA
ATOM     48  C   UNL A   1      42.479  31.436  29.183  1.00  0.00     0.031 C 
ATOM     49  C   UNL A   1      40.920  26.692  28.511  1.00  0.00     0.029 A 
ATOM     50  N   UNL A   1      43.072  27.134  28.095  1.00  0.00    -0.354 N 
ATOM     51  C   UNL A   1      44.626  31.157  28.446  1.00  0.00     0.074 A 
ATOM     52  C   UNL A   1      43.606  32.076  28.903  1.00  0.00     0.031 C 
ATOM     53  C   UNL A   1      41.496  25.548  28.109  1.00  0.00     0.029 A 
ATOM     54  C   UNL A   1      42.898  25.803  27.793  1.00  0.00     0.049 A 
ATOM     55  H   UNL A   1      43.937  27.596  28.014  1.00  0.00     0.167 HD
ATOM     56  C   UNL A   1      45.905  31.509  28.177  1.00  0.00     0.037 A 
ATOM     57  C   UNL A   1      43.764  24.895  27.300  1.00  0.00     0.037 A 
ATOM     58  C   UNL A   1      46.927  30.581  27.767  1.00  0.00     0.049 A 
ATOM     59  C   UNL A   1      45.186  25.312  27.025  1.00  0.00     0.074 A 
ATOM     60  C   UNL A   1      48.272  30.829  27.547  1.00  0.00     0.029 A 
ATOM     61  N   UNL A   1      46.723  29.233  27.515  1.00  0.00    -0.354 N 
ATOM     62  N   UNL A   1      45.742  26.490  27.173  1.00  0.00    -0.248 NA
ATOM     63  C   UNL A   1      46.099  24.277  26.521  1.00  0.00     0.031 C 
ATOM     64  C   UNL A   1      48.871  29.641  27.119  1.00  0.00     0.029 A 
ATOM     65  C   UNL A   1      47.911  28.641  27.122  1.00  0.00     0.049 A 
ATOM     66  H   UNL A   1      45.860  28.767  27.603  1.00  0.00     0.167 HD
ATOM     67  C   UNL A   1      47.075  26.328  26.814  1.00  0.00     0.074 A 
ATOM     68  C   UNL A   1      47.246  24.937  26.449  1.00  0.00     0.031 C 
ATOM     69  C   UNL A   1      48.070  27.250  26.785  1.00  0.00     0.037 A 
BRANCH  56  70
ATOM     70  C   UNL A   1      46.290  32.954  28.329  1.00  0.00     0.058 A 
ATOM     71  C   UNL A   1      46.170  33.863  27.267  1.00  0.00     0.135 A 
ATOM     72  C   UNL A   1      46.705  33.453  29.575  1.00  0.00     0.135 A 
ATOM     73  F   UNL A   1      45.795  33.436  26.050  1.00  0.00    -0.206 F 
ATOM     74  C   UNL A   1      46.455  35.214  27.431  1.00  0.00     0.059 A 
ATOM     75  C   UNL A   1      46.971  34.804  29.768  1.00  0.00     0.059 A 
ATOM     76  F   UNL A   1      46.839  32.625  30.623  1.00  0.00    -0.206 F 
ATOM     77  C   UNL A   1      46.849  35.677  28.688  1.00  0.00     0.060 A 
BRANCH  77  78
ATOM     78  S   UNL A   1      47.171  37.441  28.893  1.00  0.00     0.124 S 
ATOM     79  O   UNL A   1      45.817  37.987  28.877  1.00  0.00    -0.237 OA
ATOM     80  O   UNL A   1      47.856  37.485  30.180  1.00  0.00    -0.237 OA
ATOM     81  O   UNL A   1      47.995  37.774  27.735  1.00  0.00    -0.744 OA
ENDBRANCH  77  78
ENDBRANCH  56  70
BRANCH  57  82
ATOM     82  C   UNL A   1      43.320  23.501  27.030  1.00  0.00     0.058 A 
ATOM     83  C   UNL A   1      43.145  22.580  28.075  1.00  0.00     0.135 A 
ATOM     84  C   UNL A   1      43.087  23.053  25.720  1.00  0.00     0.135 A 
ATOM     85  F   UNL A   1      43.360  22.959  29.344  1.00  0.00    -0.206 F 
ATOM     86  C   UNL A   1      42.790  21.258  27.830  1.00  0.00     0.059 A 
ATOM     87  C   UNL A   1      42.703  21.743  25.452  1.00  0.00     0.059 A 
ATOM     88  F   UNL A   1      43.220  23.899  24.686  1.00  0.00    -0.206 F 
ATOM     89  C   UNL A   1      42.575  20.848  26.513  1.00  0.00     0.060 A 
BRANCH  89  90
ATOM     90  S   UNL A   1      42.101  19.133  26.203  1.00  0.00     0.124 S 
ATOM     91  O   UNL A   1      42.368  18.518  27.499  1.00  0.00    -0.237 OA
ATOM     92  O   UNL A   1      40.696  19.263  25.835  1.00  0.00    -0.237 OA
ATOM     93  O   UNL A   1      42.991  18.731  25.118  1.00  0.00    -0.744 OA
ENDBRANCH  89  90
ENDBRANCH  57  82
BRANCH  69  94
ATOM     94  C   UNL A   1      49.444  26.781  26.397  1.00  0.00     0.058 A 
ATOM     95  C   UNL A   1      50.268  26.083  27.294  1.00  0.00     0.135 A 
ATOM     96  C   UNL A   1      49.914  26.975  25.088  1.00  0.00     0.135 A 
ATOM     97  F   UNL A   1      49.868  25.878  28.559  1.00  0.00    -0.206 F 
ATOM     98  C   UNL A   1      51.518  25.608  26.910  1.00  0.00     0.059 A 
ATOM     99  C   UNL A   1      51.148  26.484  24.675  1.00  0.00     0.059 A 
ATOM    100  F   UNL A   1      49.160  27.627  24.189  1.00  0.00    -0.206 F 
ATOM    101  C   UNL A   1      51.947  25.809  25.597  1.00  0.00     0.060 A 
BRANCH 101 102
ATOM    102  S   UNL A   1      53.551  25.147  25.098  1.00  0.00     0.124 S 
ATOM    103  O   UNL A   1      53.618  25.561  23.701  1.00  0.00    -0.237 OA
ATOM    104  O   UNL A   1      54.468  25.832  26.006  1.00  0.00    -0.237 OA
ATOM    105  O   UNL A   1      53.412  23.712  25.323  1.00  0.00    -0.744 OA
ENDBRANCH 101 102
ENDBRANCH  69  94
ENDBRANCH  43  44
ENDBRANCH  35  38
ENDBRANCH  33  34
ENDBRANCH  32  33
ENDBRANCH  31  32
ENDBRANCH   1  31
TORSDOF 21
ENDMDL
MODEL 3
REMARK VINA RESULT:     -10.9      2.704      4.982
REMARK SMILES COc1cc(/C=N/NC(=O)c2cc(Cl)ccc2O)ccc1OCC(=O)NCCCCNC(=O)c1ccc(-c2c3nc(c(-c4c(F)cc(S(=O)(=O)[O-])cc4F)c4ccc([nH]4)c(-c4c(F)cc(S(=O)(=O)[O-])cc4F)c4nc(c(-c5c(F)cc(S(=O)(=O)[O-])cc5F)c5ccc2[nH]5)C=C4)C=C3)cc1
REMARK SMILES IDX 27 1 26 2 24 3 25 4 23 6 22 7 21 8 3 9 4 10 5 11 20 12 19 13
REMARK SMILES IDX 2 14 1 15 6 16 7 17 8 18 9 19 10 21 11 22 12 23 17 24 13 25
REMARK SMILES IDX 16 26 14 27 15 28 18 29 28 31 29 32 30 33 31 34 32 35 33 37
REMARK SMILES IDX 34 38 35 39 99 40 36 41 98 42 37 43 38 44 39 45 92 46 40 47
REMARK SMILES IDX 97 48 91 49 93 50 41 51 96 52 90 53 89 54 42 56 76 57 55 58
REMARK SMILES IDX 75 59 56 60 59 61 74 62 94 63 57 64 58 65 73 67 95 68 60 69
REMARK SMILES IDX 43 70 44 71 53 72 45 73 46 74 52 75 54 76 47 77 48 78 49 79
REMARK SMILES IDX 50 80 51 81 77 82 78 83 87 84 79 85 80 86 86 87 88 88 81 89
REMARK SMILES IDX 82 90 83 91 84 92 85 93 61 94 62 95 71 96 63 97 64 98 70 99
REMARK SMILES IDX 72 100 65 101 66 102 67 103 68 104 69 105
REMARK H PARENT 26 5 8 20 18 30 31 36 93 55 59 66
REMARK Flexibility Score: inf
ROOT
ATOM      1  C   UNL A   1      35.005  24.457  25.759  1.00  0.00     0.116 C 
ENDROOT
BRANCH   1   2
ATOM      2  N   UNL A   1      35.561  23.273  25.137  1.00  0.00    -0.353 N 
ATOM      3  C   UNL A   1      35.344  21.964  25.457  1.00  0.00     0.257 C 
ATOM      4  O   UNL A   1      35.729  21.104  24.663  1.00  0.00    -0.271 OA
ATOM      5  H   UNL A   1      36.177  23.433  24.387  1.00  0.00     0.163 HD
BRANCH   3   6
ATOM      6  C   UNL A   1      34.572  21.603  26.735  1.00  0.00     0.329 C 
BRANCH   6   7
ATOM      7  O   UNL A   1      33.188  21.315  26.624  1.00  0.00    -0.480 OA
BRANCH   7   8
ATOM      8  C   UNL A   1      32.338  22.275  26.146  1.00  0.00     0.161 A 
ATOM      9  C   UNL A   1      31.810  22.400  24.854  1.00  0.00     0.161 A 
ATOM     10  C   UNL A   1      30.991  23.494  24.538  1.00  0.00     0.060 A 
ATOM     11  C   UNL A   1      30.662  24.429  25.522  1.00  0.00    -0.002 A 
ATOM     12  C   UNL A   1      32.018  23.243  27.110  1.00  0.00     0.051 A 
ATOM     13  C   UNL A   1      31.162  24.303  26.814  1.00  0.00     0.014 A 
BRANCH   9  14
ATOM     14  O   UNL A   1      32.194  21.529  23.869  1.00  0.00    -0.493 OA
ATOM     15  C   UNL A   1      32.583  22.183  22.659  1.00  0.00     0.278 C 
ENDBRANCH   9  14
BRANCH  11  16
ATOM     16  C   UNL A   1      29.873  25.631  25.198  1.00  0.00     0.141 C 
ATOM     17  N   UNL A   1      29.175  25.691  24.105  1.00  0.00    -0.180 NA
BRANCH  17  18
ATOM     18  N   UNL A   1      28.598  26.888  23.795  1.00  0.00    -0.243 N 
ATOM     19  C   UNL A   1      29.181  28.035  23.282  1.00  0.00     0.275 C 
ATOM     20  H   UNL A   1      27.629  26.945  23.961  1.00  0.00     0.194 HD
ATOM     21  O   UNL A   1      28.505  29.047  23.099  1.00  0.00    -0.267 OA
BRANCH  19  22
ATOM     22  C   UNL A   1      30.620  28.068  22.930  1.00  0.00     0.084 A 
ATOM     23  C   UNL A   1      31.105  27.005  22.154  1.00  0.00     0.038 A 
ATOM     24  C   UNL A   1      31.501  29.074  23.345  1.00  0.00     0.128 A 
ATOM     25  C   UNL A   1      32.440  26.989  21.756  1.00  0.00     0.042 A 
ATOM     26  C   UNL A   1      32.836  29.053  22.940  1.00  0.00     0.048 A 
ATOM     27  Cl  UNL A   1      33.026  25.699  20.781  1.00  0.00    -0.084 Cl
ATOM     28  C   UNL A   1      33.304  28.016  22.132  1.00  0.00     0.024 A 
BRANCH  24  29
ATOM     29  O   UNL A   1      31.134  30.123  24.142  1.00  0.00    -0.507 OA
ATOM     30  H   UNL A   1      31.363  30.999  23.899  1.00  0.00     0.293 HD
ENDBRANCH  24  29
ENDBRANCH  19  22
ENDBRANCH  17  18
ENDBRANCH  11  16
ENDBRANCH   7   8
ENDBRANCH   6   7
ENDBRANCH   3   6
ENDBRANCH   1   2
BRANCH   1  31
ATOM     31  C   UNL A   1      34.257  25.354  24.777  1.00  0.00     0.023 C 
BRANCH  31  32
ATOM     32  C   UNL A   1      33.557  26.571  25.383  1.00  0.00     0.023 C 
BRANCH  32  33
ATOM     33  C   UNL A   1      34.432  27.495  26.220  1.00  0.00     0.116 C 
BRANCH  33  34
ATOM     34  N   UNL A   1      33.879  28.830  26.369  1.00  0.00    -0.352 N 
ATOM     35  C   UNL A   1      34.347  29.894  27.108  1.00  0.00     0.251 C 
ATOM     36  H   UNL A   1      33.048  28.999  25.868  1.00  0.00     0.163 HD
ATOM     37  O   UNL A   1      33.683  30.915  27.190  1.00  0.00    -0.269 OA
BRANCH  35  38
ATOM     38  C   UNL A   1      35.632  29.775  27.833  1.00  0.00     0.039 A 
ATOM     39  C   UNL A   1      35.610  29.390  29.175  1.00  0.00     0.014 A 
ATOM     40  C   UNL A   1      36.850  30.021  27.192  1.00  0.00     0.014 A 
ATOM     41  C   UNL A   1      36.812  29.177  29.855  1.00  0.00     0.010 A 
ATOM     42  C   UNL A   1      38.045  29.740  27.849  1.00  0.00     0.010 A 
ATOM     43  C   UNL A   1      38.039  29.311  29.185  1.00  0.00    -0.014 A 
BRANCH  43  44
ATOM     44  C   UNL A   1      39.327  28.995  29.858  1.00  0.00     0.031 A 
ATOM     45  C   UNL A   1      39.790  29.828  31.025  1.00  0.00     0.074 A 
ATOM     46  C   UNL A   1      40.113  28.014  29.371  1.00  0.00     0.049 A 
ATOM     47  N   UNL A   1      40.925  29.779  31.672  1.00  0.00    -0.248 NA
ATOM     48  C   UNL A   1      38.868  30.869  31.508  1.00  0.00     0.031 C 
ATOM     49  C   UNL A   1      39.799  27.170  28.216  1.00  0.00     0.029 A 
ATOM     50  N   UNL A   1      41.351  27.572  29.773  1.00  0.00    -0.354 N 
ATOM     51  C   UNL A   1      40.864  30.794  32.622  1.00  0.00     0.074 A 
ATOM     52  C   UNL A   1      39.597  31.466  32.441  1.00  0.00     0.031 C 
ATOM     53  C   UNL A   1      40.810  26.312  28.008  1.00  0.00     0.029 A 
ATOM     54  C   UNL A   1      41.863  26.567  28.986  1.00  0.00     0.049 A 
ATOM     55  H   UNL A   1      41.827  27.942  30.551  1.00  0.00     0.167 HD
ATOM     56  C   UNL A   1      41.774  31.120  33.569  1.00  0.00     0.037 A 
ATOM     57  C   UNL A   1      43.051  25.933  29.035  1.00  0.00     0.037 A 
ATOM     58  C   UNL A   1      43.015  30.418  33.773  1.00  0.00     0.049 A 
ATOM     59  C   UNL A   1      44.038  26.308  30.110  1.00  0.00     0.074 A 
ATOM     60  C   UNL A   1      43.966  30.625  34.757  1.00  0.00     0.029 A 
ATOM     61  N   UNL A   1      43.477  29.375  32.984  1.00  0.00    -0.354 N 
ATOM     62  N   UNL A   1      43.931  27.221  31.045  1.00  0.00    -0.248 NA
ATOM     63  C   UNL A   1      45.306  25.565  30.141  1.00  0.00     0.031 C 
ATOM     64  C   UNL A   1      45.023  29.739  34.536  1.00  0.00     0.029 A 
ATOM     65  C   UNL A   1      44.708  28.944  33.446  1.00  0.00     0.049 A 
ATOM     66  H   UNL A   1      42.999  28.999  32.209  1.00  0.00     0.167 HD
ATOM     67  C   UNL A   1      45.099  27.138  31.794  1.00  0.00     0.074 A 
ATOM     68  C   UNL A   1      45.897  26.080  31.210  1.00  0.00     0.031 C 
ATOM     69  C   UNL A   1      45.479  27.873  32.868  1.00  0.00     0.037 A 
BRANCH  56  70
ATOM     70  C   UNL A   1      41.469  32.281  34.475  1.00  0.00     0.058 A 
ATOM     71  C   UNL A   1      41.638  33.608  34.054  1.00  0.00     0.135 A 
ATOM     72  C   UNL A   1      40.921  32.062  35.750  1.00  0.00     0.135 A 
ATOM     73  F   UNL A   1      42.174  33.873  32.852  1.00  0.00    -0.206 F 
ATOM     74  C   UNL A   1      41.284  34.679  34.867  1.00  0.00     0.059 A 
ATOM     75  C   UNL A   1      40.537  33.117  36.570  1.00  0.00     0.059 A 
ATOM     76  F   UNL A   1      40.741  30.810  36.203  1.00  0.00    -0.206 F 
ATOM     77  C   UNL A   1      40.727  34.423  36.123  1.00  0.00     0.060 A 
BRANCH  77  78
ATOM     78  S   UNL A   1      40.231  35.825  37.145  1.00  0.00     0.124 S 
ATOM     79  O   UNL A   1      41.464  36.100  37.879  1.00  0.00    -0.237 OA
ATOM     80  O   UNL A   1      39.852  36.820  36.148  1.00  0.00    -0.237 OA
ATOM     81  O   UNL A   1      39.133  35.291  37.945  1.00  0.00    -0.744 OA
ENDBRANCH  77  78
ENDBRANCH  56  70
BRANCH  57  82
ATOM     82  C   UNL A   1      43.385  24.880  28.038  1.00  0.00     0.058 A 
ATOM     83  C   UNL A   1      43.110  23.528  28.293  1.00  0.00     0.135 A 
ATOM     84  C   UNL A   1      44.008  25.201  26.822  1.00  0.00     0.135 A 
ATOM     85  F   UNL A   1      42.519  23.169  29.444  1.00  0.00    -0.206 F 
ATOM     86  C   UNL A   1      43.472  22.528  27.397  1.00  0.00     0.059 A 
ATOM     87  C   UNL A   1      44.354  24.221  25.896  1.00  0.00     0.059 A 
ATOM     88  F   UNL A   1      44.275  26.481  26.519  1.00  0.00    -0.206 F 
ATOM     89  C   UNL A   1      44.098  22.885  26.201  1.00  0.00     0.060 A 
BRANCH  89  90
ATOM     90  S   UNL A   1      44.554  21.583  25.035  1.00  0.00     0.124 S 
ATOM     91  O   UNL A   1      45.887  21.225  25.505  1.00  0.00    -0.237 OA
ATOM     92  O   UNL A   1      43.509  20.589  25.260  1.00  0.00    -0.237 OA
ATOM     93  O   UNL A   1      44.498  22.259  23.742  1.00  0.00    -0.744 OA
ENDBRANCH  89  90
ENDBRANCH  57  82
BRANCH  69  94
ATOM     94  C   UNL A   1      46.790  27.531  33.519  1.00  0.00     0.058 A 
ATOM     95  C   UNL A   1      46.885  26.555  34.522  1.00  0.00     0.135 A 
ATOM     96  C   UNL A   1      47.977  28.142  33.083  1.00  0.00     0.135 A 
ATOM     97  F   UNL A   1      45.779  25.946  34.979  1.00  0.00    -0.206 F 
ATOM     98  C   UNL A   1      48.110  26.208  35.083  1.00  0.00     0.059 A 
ATOM     99  C   UNL A   1      49.215  27.791  33.610  1.00  0.00     0.059 A 
ATOM    100  F   UNL A   1      47.942  29.075  32.117  1.00  0.00    -0.206 F 
ATOM    101  C   UNL A   1      49.270  26.828  34.617  1.00  0.00     0.060 A 
BRANCH 101 102
ATOM    102  S   UNL A   1      50.859  26.336  35.320  1.00  0.00     0.124 S 
ATOM    103  O   UNL A   1      50.854  27.057  36.588  1.00  0.00    -0.237 OA
ATOM    104  O   UNL A   1      50.722  24.885  35.415  1.00  0.00    -0.237 OA
ATOM    105  O   UNL A   1      51.828  26.804  34.334  1.00  0.00    -0.744 OA
ENDBRANCH 101 102
ENDBRANCH  69  94
ENDBRANCH  43  44
ENDBRANCH  35  38
ENDBRANCH  33  34
ENDBRANCH  32  33
ENDBRANCH  31  32
ENDBRANCH   1  31
TORSDOF 21
ENDMDL
