MODEL 1
REMARK VINA RESULT:     -11.9      0.000      0.000
REMARK SMILES O=C(NCCCCNC(=O)[C@H]1C[C@@H]2N=CN=C2C[NH2+]1)c1ccc(-c2c3nc(c(-c4c(F)cc(S(=O)(=O)[O-])cc4F)c4ccc([nH]4)c(-c4c(F)cc(S(=O)(=O)[O-])cc4F)c4nc(c(-c5c(F)cc(S(=O)(=O)[O-])cc5F)c5ccc2[nH]5)C=C4)C=C3)cc1
REMARK SMILES IDX 4 1 3 2 1 3 2 4 20 6 21 7 85 8 22 9 84 10 23 11 24 12 25 13
REMARK SMILES IDX 78 14 26 15 83 16 77 17 79 18 27 19 82 20 76 21 75 22 28 24
REMARK SMILES IDX 62 25 41 26 61 27 42 28 45 29 60 30 80 31 43 32 44 33 59 35
REMARK SMILES IDX 81 36 46 37 29 38 30 39 39 40 31 41 32 42 38 43 40 44 33 45
REMARK SMILES IDX 34 46 35 47 36 48 37 49 63 50 64 51 73 52 65 53 66 54 72 55
REMARK SMILES IDX 74 56 67 57 68 58 69 59 70 60 71 61 47 62 48 63 57 64 49 65
REMARK SMILES IDX 50 66 56 67 58 68 51 69 52 70 53 71 54 72 55 73 5 74 6 75
REMARK SMILES IDX 7 76 8 77 9 78 10 80 11 81 12 82 19 83 13 84 18 85 14 88
REMARK SMILES IDX 17 89 15 90 16 91
REMARK H PARENT 3 5 79 23 45 34 8 79 19 86 19 87
REMARK Flexibility Score: inf
ROOT
ATOM      1  C   UNL A   1      34.292  33.895  28.663  1.00  0.00     0.116 C 
ENDROOT
BRANCH   1   2
ATOM      2  N   UNL A   1      33.911  32.650  28.029  1.00  0.00    -0.352 N 
ATOM      3  O   UNL A   1      33.659  30.515  27.557  1.00  0.00    -0.269 OA
ATOM      4  C   UNL A   1      34.431  31.385  27.975  1.00  0.00     0.251 C 
ATOM      5  H   UNL A   1      33.076  32.734  27.512  1.00  0.00     0.163 HD
BRANCH   4   6
ATOM      6  C   UNL A   1      35.836  31.001  28.285  1.00  0.00     0.039 A 
ATOM      7  C   UNL A   1      36.835  31.838  28.781  1.00  0.00     0.014 A 
ATOM      8  C   UNL A   1      36.162  29.655  28.020  1.00  0.00     0.014 A 
ATOM      9  C   UNL A   1      38.143  31.362  28.928  1.00  0.00     0.010 A 
ATOM     10  C   UNL A   1      37.460  29.178  28.163  1.00  0.00     0.010 A 
ATOM     11  C   UNL A   1      38.463  30.043  28.582  1.00  0.00    -0.014 A 
BRANCH  11  12
ATOM     12  C   UNL A   1      39.817  29.543  28.845  1.00  0.00     0.031 A 
ATOM     13  C   UNL A   1      40.165  29.463  30.297  1.00  0.00     0.074 A 
ATOM     14  C   UNL A   1      40.622  29.017  27.893  1.00  0.00     0.049 A 
ATOM     15  N   UNL A   1      41.119  30.063  30.932  1.00  0.00    -0.248 NA
ATOM     16  C   UNL A   1      39.254  28.710  31.178  1.00  0.00     0.031 C 
ATOM     17  C   UNL A   1      40.298  28.756  26.487  1.00  0.00     0.029 A 
ATOM     18  N   UNL A   1      41.885  28.510  28.003  1.00  0.00    -0.354 N 
ATOM     19  C   UNL A   1      41.061  29.596  32.246  1.00  0.00     0.074 A 
ATOM     20  C   UNL A   1      39.806  28.903  32.375  1.00  0.00     0.031 C 
ATOM     21  C   UNL A   1      41.238  27.943  25.951  1.00  0.00     0.029 A 
ATOM     22  C   UNL A   1      42.296  27.728  26.923  1.00  0.00     0.049 A 
ATOM     23  H   UNL A   1      42.461  28.682  28.783  1.00  0.00     0.167 HD
ATOM     24  C   UNL A   1      42.146  29.620  33.070  1.00  0.00     0.037 A 
ATOM     25  C   UNL A   1      43.392  26.922  26.856  1.00  0.00     0.037 A 
ATOM     26  C   UNL A   1      43.142  30.546  32.602  1.00  0.00     0.049 A 
ATOM     27  C   UNL A   1      44.329  27.365  27.921  1.00  0.00     0.074 A 
ATOM     28  C   UNL A   1      43.162  31.906  32.360  1.00  0.00     0.029 A 
ATOM     29  N   UNL A   1      44.238  30.038  31.950  1.00  0.00    -0.354 N 
ATOM     30  N   UNL A   1      44.937  28.519  27.921  1.00  0.00    -0.248 NA
ATOM     31  C   UNL A   1      44.223  26.713  29.216  1.00  0.00     0.031 C 
ATOM     32  C   UNL A   1      43.946  32.056  31.180  1.00  0.00     0.029 A 
ATOM     33  C   UNL A   1      44.419  30.794  30.819  1.00  0.00     0.049 A 
ATOM     34  H   UNL A   1      44.790  29.276  32.239  1.00  0.00     0.167 HD
ATOM     35  C   UNL A   1      44.896  28.937  29.242  1.00  0.00     0.074 A 
ATOM     36  C   UNL A   1      44.505  27.752  30.005  1.00  0.00     0.031 C 
ATOM     37  C   UNL A   1      44.911  30.264  29.568  1.00  0.00     0.037 A 
BRANCH  24  38
ATOM     38  C   UNL A   1      42.446  28.558  34.103  1.00  0.00     0.058 A 
ATOM     39  C   UNL A   1      42.445  28.889  35.474  1.00  0.00     0.135 A 
ATOM     40  C   UNL A   1      43.004  27.300  33.784  1.00  0.00     0.135 A 
ATOM     41  F   UNL A   1      41.961  30.070  35.892  1.00  0.00    -0.206 F 
ATOM     42  C   UNL A   1      43.002  28.054  36.447  1.00  0.00     0.059 A 
ATOM     43  C   UNL A   1      43.516  26.431  34.742  1.00  0.00     0.059 A 
ATOM     44  F   UNL A   1      43.168  26.893  32.519  1.00  0.00    -0.206 F 
ATOM     45  C   UNL A   1      43.544  26.830  36.067  1.00  0.00     0.060 A 
BRANCH  45  46
ATOM     46  S   UNL A   1      44.332  25.788  37.307  1.00  0.00     0.124 S 
ATOM     47  O   UNL A   1      45.736  26.121  37.122  1.00  0.00    -0.237 OA
ATOM     48  O   UNL A   1      43.714  26.262  38.538  1.00  0.00    -0.237 OA
ATOM     49  O   UNL A   1      43.943  24.435  36.900  1.00  0.00    -0.744 OA
ENDBRANCH  45  46
ENDBRANCH  24  38
BRANCH  25  50
ATOM     50  C   UNL A   1      43.527  25.586  26.201  1.00  0.00     0.058 A 
ATOM     51  C   UNL A   1      44.567  25.307  25.291  1.00  0.00     0.135 A 
ATOM     52  C   UNL A   1      42.820  24.466  26.681  1.00  0.00     0.135 A 
ATOM     53  F   UNL A   1      45.317  26.306  24.798  1.00  0.00    -0.206 F 
ATOM     54  C   UNL A   1      44.913  23.999  24.919  1.00  0.00     0.059 A 
ATOM     55  C   UNL A   1      43.140  23.156  26.320  1.00  0.00     0.059 A 
ATOM     56  F   UNL A   1      41.850  24.604  27.597  1.00  0.00    -0.206 F 
ATOM     57  C   UNL A   1      44.205  22.926  25.458  1.00  0.00     0.060 A 
BRANCH  57  58
ATOM     58  S   UNL A   1      44.750  21.231  25.128  1.00  0.00     0.124 S 
ATOM     59  O   UNL A   1      46.116  21.247  25.638  1.00  0.00    -0.237 OA
ATOM     60  O   UNL A   1      43.792  20.442  25.894  1.00  0.00    -0.237 OA
ATOM     61  O   UNL A   1      44.628  21.113  23.676  1.00  0.00    -0.744 OA
ENDBRANCH  57  58
ENDBRANCH  25  50
BRANCH  37  62
ATOM     62  C   UNL A   1      45.252  31.265  28.494  1.00  0.00     0.058 A 
ATOM     63  C   UNL A   1      44.355  31.729  27.513  1.00  0.00     0.135 A 
ATOM     64  C   UNL A   1      46.504  31.896  28.562  1.00  0.00     0.135 A 
ATOM     65  F   UNL A   1      43.103  31.255  27.443  1.00  0.00    -0.206 F 
ATOM     66  C   UNL A   1      44.703  32.745  26.620  1.00  0.00     0.059 A 
ATOM     67  C   UNL A   1      46.859  32.932  27.704  1.00  0.00     0.059 A 
ATOM     68  F   UNL A   1      47.384  31.541  29.513  1.00  0.00    -0.206 F 
ATOM     69  C   UNL A   1      45.957  33.344  26.726  1.00  0.00     0.060 A 
BRANCH  69  70
ATOM     70  S   UNL A   1      46.381  34.710  25.623  1.00  0.00     0.124 S 
ATOM     71  O   UNL A   1      46.049  35.876  26.434  1.00  0.00    -0.237 OA
ATOM     72  O   UNL A   1      47.805  34.490  25.379  1.00  0.00    -0.237 OA
ATOM     73  O   UNL A   1      45.520  34.491  24.462  1.00  0.00    -0.744 OA
ENDBRANCH  69  70
ENDBRANCH  37  62
ENDBRANCH  11  12
ENDBRANCH   4   6
ENDBRANCH   1   2
BRANCH   1  74
ATOM     74  C   UNL A   1      33.189  34.950  28.736  1.00  0.00     0.023 C 
BRANCH  74  75
ATOM     75  C   UNL A   1      33.429  36.117  29.708  1.00  0.00     0.023 C 
BRANCH  75  76
ATOM     76  C   UNL A   1      32.777  36.008  31.097  1.00  0.00     0.116 C 
BRANCH  76  77
ATOM     77  N   UNL A   1      33.032  34.739  31.759  1.00  0.00    -0.351 N 
ATOM     78  C   UNL A   1      33.845  34.370  32.786  1.00  0.00     0.278 C 
ATOM     79  H   UNL A   1      32.508  33.993  31.389  1.00  0.00     0.163 HD
ATOM     80  O   UNL A   1      33.505  33.331  33.373  1.00  0.00    -0.268 OA
BRANCH  78  81
ATOM     81  C   UNL A   1      35.143  35.106  33.251  1.00  0.00     0.275 C 
ATOM     82  C   UNL A   1      35.844  34.288  34.377  1.00  0.00     0.109 C 
ATOM     83  N   UNL A   1      36.177  35.345  32.230  1.00  0.00    -0.331 N 
ATOM     84  C   UNL A   1      36.125  32.916  33.802  1.00  0.00     0.164 C 
ATOM     85  C   UNL A   1      36.744  34.153  31.596  1.00  0.00     0.316 C 
ATOM     86  H   UNL A   1      36.940  35.856  32.673  1.00  0.00     0.347 HD
ATOM     87  H   UNL A   1      35.708  35.857  31.482  1.00  0.00     0.347 HD
ATOM     88  N   UNL A   1      36.936  31.981  34.608  1.00  0.00    -0.264 NA
ATOM     89  C   UNL A   1      36.973  33.058  32.589  1.00  0.00     0.098 C 
ATOM     90  C   UNL A   1      37.757  31.485  33.725  1.00  0.00     0.216 C 
ATOM     91  N   UNL A   1      37.849  32.114  32.506  1.00  0.00    -0.238 NA
ENDBRANCH  78  81
ENDBRANCH  76  77
ENDBRANCH  75  76
ENDBRANCH  74  75
ENDBRANCH   1  74
TORSDOF 14
ENDMDL
MODEL 2
REMARK VINA RESULT:     -11.5      4.151     10.948
REMARK SMILES O=C(NCCCCNC(=O)[C@H]1C[C@@H]2N=CN=C2C[NH2+]1)c1ccc(-c2c3nc(c(-c4c(F)cc(S(=O)(=O)[O-])cc4F)c4ccc([nH]4)c(-c4c(F)cc(S(=O)(=O)[O-])cc4F)c4nc(c(-c5c(F)cc(S(=O)(=O)[O-])cc5F)c5ccc2[nH]5)C=C4)C=C3)cc1
REMARK SMILES IDX 4 1 3 2 1 3 2 4 20 6 21 7 85 8 22 9 84 10 23 11 24 12 25 13
REMARK SMILES IDX 78 14 26 15 83 16 77 17 79 18 27 19 82 20 76 21 75 22 28 24
REMARK SMILES IDX 62 25 41 26 61 27 42 28 45 29 60 30 80 31 43 32 44 33 59 35
REMARK SMILES IDX 81 36 46 37 29 38 30 39 39 40 31 41 32 42 38 43 40 44 33 45
REMARK SMILES IDX 34 46 35 47 36 48 37 49 63 50 64 51 73 52 65 53 66 54 72 55
REMARK SMILES IDX 74 56 67 57 68 58 69 59 70 60 71 61 47 62 48 63 57 64 49 65
REMARK SMILES IDX 50 66 56 67 58 68 51 69 52 70 53 71 54 72 55 73 5 74 6 75
REMARK SMILES IDX 7 76 8 77 9 78 10 80 11 81 12 82 19 83 13 84 18 85 14 88
REMARK SMILES IDX 17 89 15 90 16 91
REMARK H PARENT 3 5 79 23 45 34 8 79 19 86 19 87
REMARK Flexibility Score: inf
ROOT
ATOM      1  C   UNL A   1      37.305  22.383  25.390  1.00  0.00     0.116 C 
ENDROOT
BRANCH   1   2
ATOM      2  N   UNL A   1      38.694  21.981  25.468  1.00  0.00    -0.352 N 
ATOM      3  O   UNL A   1      40.741  21.596  26.181  1.00  0.00    -0.269 OA
ATOM      4  C   UNL A   1      39.784  22.377  26.196  1.00  0.00     0.251 C 
ATOM      5  H   UNL A   1      38.906  21.245  24.848  1.00  0.00     0.163 HD
BRANCH   4   6
ATOM      6  C   UNL A   1      39.937  23.675  26.909  1.00  0.00     0.039 A 
ATOM      7  C   UNL A   1      39.061  24.760  26.856  1.00  0.00     0.014 A 
ATOM      8  C   UNL A   1      41.103  23.796  27.692  1.00  0.00     0.014 A 
ATOM      9  C   UNL A   1      39.387  25.960  27.499  1.00  0.00     0.010 A 
ATOM     10  C   UNL A   1      41.432  24.986  28.331  1.00  0.00     0.010 A 
ATOM     11  C   UNL A   1      40.590  26.085  28.204  1.00  0.00    -0.014 A 
BRANCH  11  12
ATOM     12  C   UNL A   1      40.856  27.318  28.954  1.00  0.00     0.031 A 
ATOM     13  C   UNL A   1      41.991  28.127  28.411  1.00  0.00     0.074 A 
ATOM     14  C   UNL A   1      40.046  27.794  29.927  1.00  0.00     0.049 A 
ATOM     15  N   UNL A   1      43.089  28.472  29.002  1.00  0.00    -0.248 NA
ATOM     16  C   UNL A   1      41.947  28.497  26.985  1.00  0.00     0.031 C 
ATOM     17  C   UNL A   1      38.747  27.266  30.353  1.00  0.00     0.029 A 
ATOM     18  N   UNL A   1      40.168  28.923  30.687  1.00  0.00    -0.354 N 
ATOM     19  C   UNL A   1      43.776  29.281  28.094  1.00  0.00     0.074 A 
ATOM     20  C   UNL A   1      43.111  29.126  26.828  1.00  0.00     0.031 C 
ATOM     21  C   UNL A   1      38.112  28.187  31.115  1.00  0.00     0.029 A 
ATOM     22  C   UNL A   1      39.000  29.315  31.341  1.00  0.00     0.049 A 
ATOM     23  H   UNL A   1      41.014  29.421  30.767  1.00  0.00     0.167 HD
ATOM     24  C   UNL A   1      44.705  30.192  28.499  1.00  0.00     0.037 A 
ATOM     25  C   UNL A   1      38.764  30.499  31.971  1.00  0.00     0.037 A 
ATOM     26  C   UNL A   1      45.185  29.901  29.823  1.00  0.00     0.049 A 
ATOM     27  C   UNL A   1      40.085  31.112  32.264  1.00  0.00     0.074 A 
ATOM     28  C   UNL A   1      45.830  28.827  30.405  1.00  0.00     0.029 A 
ATOM     29  N   UNL A   1      44.691  30.645  30.866  1.00  0.00    -0.354 N 
ATOM     30  N   UNL A   1      40.948  30.614  33.106  1.00  0.00    -0.248 NA
ATOM     31  C   UNL A   1      40.633  32.022  31.272  1.00  0.00     0.031 C 
ATOM     32  C   UNL A   1      45.252  28.711  31.702  1.00  0.00     0.029 A 
ATOM     33  C   UNL A   1      44.349  29.764  31.861  1.00  0.00     0.049 A 
ATOM     34  H   UNL A   1      44.599  31.624  30.894  1.00  0.00     0.167 HD
ATOM     35  C   UNL A   1      42.179  30.789  32.493  1.00  0.00     0.074 A 
ATOM     36  C   UNL A   1      41.928  31.724  31.397  1.00  0.00     0.031 C 
ATOM     37  C   UNL A   1      43.227  29.952  32.751  1.00  0.00     0.037 A 
BRANCH  24  38
ATOM     38  C   UNL A   1      44.920  31.532  27.834  1.00  0.00     0.058 A 
ATOM     39  C   UNL A   1      46.154  31.821  27.214  1.00  0.00     0.135 A 
ATOM     40  C   UNL A   1      44.062  32.639  28.020  1.00  0.00     0.135 A 
ATOM     41  F   UNL A   1      47.058  30.850  27.007  1.00  0.00    -0.206 F 
ATOM     42  C   UNL A   1      46.527  33.119  26.856  1.00  0.00     0.059 A 
ATOM     43  C   UNL A   1      44.391  33.931  27.623  1.00  0.00     0.059 A 
ATOM     44  F   UNL A   1      42.903  32.539  28.685  1.00  0.00    -0.206 F 
ATOM     45  C   UNL A   1      45.639  34.169  27.075  1.00  0.00     0.060 A 
BRANCH  45  46
ATOM     46  S   UNL A   1      46.148  35.852  26.686  1.00  0.00     0.124 S 
ATOM     47  O   UNL A   1      46.686  35.695  25.344  1.00  0.00    -0.237 OA
ATOM     48  O   UNL A   1      44.891  36.582  26.795  1.00  0.00    -0.237 OA
ATOM     49  O   UNL A   1      47.131  36.154  27.731  1.00  0.00    -0.744 OA
ENDBRANCH  45  46
ENDBRANCH  24  38
BRANCH  25  50
ATOM     50  C   UNL A   1      37.504  31.301  32.004  1.00  0.00     0.058 A 
ATOM     51  C   UNL A   1      36.929  31.731  33.218  1.00  0.00     0.135 A 
ATOM     52  C   UNL A   1      37.004  31.918  30.840  1.00  0.00     0.135 A 
ATOM     53  F   UNL A   1      37.357  31.223  34.384  1.00  0.00    -0.206 F 
ATOM     54  C   UNL A   1      35.956  32.741  33.275  1.00  0.00     0.059 A 
ATOM     55  C   UNL A   1      36.031  32.918  30.870  1.00  0.00     0.059 A 
ATOM     56  F   UNL A   1      37.517  31.632  29.635  1.00  0.00    -0.206 F 
ATOM     57  C   UNL A   1      35.528  33.344  32.093  1.00  0.00     0.060 A 
BRANCH  57  58
ATOM     58  S   UNL A   1      34.407  34.765  32.163  1.00  0.00     0.124 S 
ATOM     59  O   UNL A   1      33.251  34.206  32.854  1.00  0.00    -0.237 OA
ATOM     60  O   UNL A   1      35.189  35.740  32.916  1.00  0.00    -0.237 OA
ATOM     61  O   UNL A   1      34.194  35.097  30.756  1.00  0.00    -0.744 OA
ENDBRANCH  57  58
ENDBRANCH  25  50
BRANCH  37  62
ATOM     62  C   UNL A   1      43.120  29.005  33.919  1.00  0.00     0.058 A 
ATOM     63  C   UNL A   1      43.360  29.353  35.262  1.00  0.00     0.135 A 
ATOM     64  C   UNL A   1      42.601  27.724  33.676  1.00  0.00     0.135 A 
ATOM     65  F   UNL A   1      43.758  30.589  35.594  1.00  0.00    -0.206 F 
ATOM     66  C   UNL A   1      43.128  28.456  36.307  1.00  0.00     0.059 A 
ATOM     67  C   UNL A   1      42.332  26.826  34.704  1.00  0.00     0.059 A 
ATOM     68  F   UNL A   1      42.294  27.350  32.423  1.00  0.00    -0.206 F 
ATOM     69  C   UNL A   1      42.610  27.194  36.018  1.00  0.00     0.060 A 
BRANCH  69  70
ATOM     70  S   UNL A   1      42.238  26.060  37.374  1.00  0.00     0.124 S 
ATOM     71  O   UNL A   1      42.509  24.760  36.771  1.00  0.00    -0.237 OA
ATOM     72  O   UNL A   1      43.175  26.488  38.411  1.00  0.00    -0.237 OA
ATOM     73  O   UNL A   1      40.832  26.331  37.670  1.00  0.00    -0.744 OA
ENDBRANCH  69  70
ENDBRANCH  37  62
ENDBRANCH  11  12
ENDBRANCH   4   6
ENDBRANCH   1   2
BRANCH   1  74
ATOM     74  C   UNL A   1      36.648  22.182  24.025  1.00  0.00     0.023 C 
BRANCH  74  75
ATOM     75  C   UNL A   1      35.782  23.344  23.511  1.00  0.00     0.023 C 
BRANCH  75  76
ATOM     76  C   UNL A   1      34.262  23.117  23.484  1.00  0.00     0.116 C 
BRANCH  76  77
ATOM     77  N   UNL A   1      33.583  23.857  22.433  1.00  0.00    -0.351 N 
ATOM     78  C   UNL A   1      33.466  25.184  22.151  1.00  0.00     0.278 C 
ATOM     79  H   UNL A   1      33.110  23.279  21.791  1.00  0.00     0.163 HD
ATOM     80  O   UNL A   1      33.195  25.444  20.969  1.00  0.00    -0.268 OA
BRANCH  78  81
ATOM     81  C   UNL A   1      33.614  26.362  23.166  1.00  0.00     0.275 C 
ATOM     82  C   UNL A   1      32.807  27.599  22.667  1.00  0.00     0.109 C 
ATOM     83  N   UNL A   1      33.154  26.118  24.544  1.00  0.00    -0.331 N 
ATOM     84  C   UNL A   1      31.373  27.142  22.506  1.00  0.00     0.164 C 
ATOM     85  C   UNL A   1      31.736  25.789  24.701  1.00  0.00     0.316 C 
ATOM     86  H   UNL A   1      33.342  26.959  25.089  1.00  0.00     0.347 HD
ATOM     87  H   UNL A   1      33.663  25.292  24.859  1.00  0.00     0.347 HD
ATOM     88  N   UNL A   1      30.352  28.162  22.196  1.00  0.00    -0.264 NA
ATOM     89  C   UNL A   1      30.874  26.625  23.808  1.00  0.00     0.098 C 
ATOM     90  C   UNL A   1      29.376  27.840  22.998  1.00  0.00     0.216 C 
ATOM     91  N   UNL A   1      29.642  26.947  24.010  1.00  0.00    -0.238 NA
ENDBRANCH  78  81
ENDBRANCH  76  77
ENDBRANCH  75  76
ENDBRANCH  74  75
ENDBRANCH   1  74
TORSDOF 14
ENDMDL
MODEL 3
REMARK VINA RESULT:     -11.5      3.120      5.285
REMARK SMILES O=C(NCCCCNC(=O)[C@H]1C[C@@H]2N=CN=C2C[NH2+]1)c1ccc(-c2c3nc(c(-c4c(F)cc(S(=O)(=O)[O-])cc4F)c4ccc([nH]4)c(-c4c(F)cc(S(=O)(=O)[O-])cc4F)c4nc(c(-c5c(F)cc(S(=O)(=O)[O-])cc5F)c5ccc2[nH]5)C=C4)C=C3)cc1
REMARK SMILES IDX 4 1 3 2 1 3 2 4 20 6 21 7 85 8 22 9 84 10 23 11 24 12 25 13
REMARK SMILES IDX 78 14 26 15 83 16 77 17 79 18 27 19 82 20 76 21 75 22 28 24
REMARK SMILES IDX 62 25 41 26 61 27 42 28 45 29 60 30 80 31 43 32 44 33 59 35
REMARK SMILES IDX 81 36 46 37 29 38 30 39 39 40 31 41 32 42 38 43 40 44 33 45
REMARK SMILES IDX 34 46 35 47 36 48 37 49 63 50 64 51 73 52 65 53 66 54 72 55
REMARK SMILES IDX 74 56 67 57 68 58 69 59 70 60 71 61 47 62 48 63 57 64 49 65
REMARK SMILES IDX 50 66 56 67 58 68 51 69 52 70 53 71 54 72 55 73 5 74 6 75
REMARK SMILES IDX 7 76 8 77 9 78 10 80 11 81 12 82 19 83 13 84 18 85 14 88
REMARK SMILES IDX 17 89 15 90 16 91
REMARK H PARENT 3 5 79 23 45 34 8 79 19 86 19 87
REMARK Flexibility Score: inf
ROOT
ATOM      1  C   UNL A   1      33.438  29.807  26.925  1.00  0.00     0.116 C 
ENDROOT
BRANCH   1   2
ATOM      2  N   UNL A   1      33.683  30.890  27.855  1.00  0.00    -0.352 N 
ATOM      3  O   UNL A   1      34.615  32.548  28.964  1.00  0.00    -0.269 OA
ATOM      4  C   UNL A   1      34.791  31.444  28.437  1.00  0.00     0.251 C 
ATOM      5  H   UNL A   1      32.851  31.335  28.137  1.00  0.00     0.163 HD
BRANCH   4   6
ATOM      6  C   UNL A   1      36.130  30.803  28.558  1.00  0.00     0.039 A 
ATOM      7  C   UNL A   1      36.438  29.467  28.298  1.00  0.00     0.014 A 
ATOM      8  C   UNL A   1      37.163  31.653  29.004  1.00  0.00     0.014 A 
ATOM      9  C   UNL A   1      37.723  28.978  28.557  1.00  0.00     0.010 A 
ATOM     10  C   UNL A   1      38.442  31.171  29.264  1.00  0.00     0.010 A 
ATOM     11  C   UNL A   1      38.714  29.821  29.076  1.00  0.00    -0.014 A 
BRANCH  11  12
ATOM     12  C   UNL A   1      40.079  29.307  29.238  1.00  0.00     0.031 A 
ATOM     13  C   UNL A   1      40.511  29.169  30.664  1.00  0.00     0.074 A 
ATOM     14  C   UNL A   1      40.822  28.816  28.221  1.00  0.00     0.049 A 
ATOM     15  N   UNL A   1      41.505  29.741  31.263  1.00  0.00    -0.248 NA
ATOM     16  C   UNL A   1      39.649  28.385  31.568  1.00  0.00     0.031 C 
ATOM     17  C   UNL A   1      40.415  28.611  26.828  1.00  0.00     0.029 A 
ATOM     18  N   UNL A   1      42.088  28.301  28.236  1.00  0.00    -0.354 N 
ATOM     19  C   UNL A   1      41.521  29.224  32.560  1.00  0.00     0.074 A 
ATOM     20  C   UNL A   1      40.273  28.530  32.736  1.00  0.00     0.031 C 
ATOM     21  C   UNL A   1      41.317  27.816  26.206  1.00  0.00     0.029 A 
ATOM     22  C   UNL A   1      42.430  27.560  27.105  1.00  0.00     0.049 A 
ATOM     23  H   UNL A   1      42.709  28.441  28.987  1.00  0.00     0.167 HD
ATOM     24  C   UNL A   1      42.653  29.213  33.319  1.00  0.00     0.037 A 
ATOM     25  C   UNL A   1      43.515  26.753  26.942  1.00  0.00     0.037 A 
ATOM     26  C   UNL A   1      43.624  30.153  32.828  1.00  0.00     0.049 A 
ATOM     27  C   UNL A   1      44.516  27.153  27.966  1.00  0.00     0.074 A 
ATOM     28  C   UNL A   1      43.638  31.522  32.638  1.00  0.00     0.029 A 
ATOM     29  N   UNL A   1      44.678  29.668  32.093  1.00  0.00    -0.354 N 
ATOM     30  N   UNL A   1      45.129  28.304  27.974  1.00  0.00    -0.248 NA
ATOM     31  C   UNL A   1      44.483  26.451  29.239  1.00  0.00     0.031 C 
ATOM     32  C   UNL A   1      44.352  31.715  31.420  1.00  0.00     0.029 A 
ATOM     33  C   UNL A   1      44.795  30.466  30.983  1.00  0.00     0.049 A 
ATOM     34  H   UNL A   1      45.242  28.893  32.319  1.00  0.00     0.167 HD
ATOM     35  C   UNL A   1      45.169  28.671  29.311  1.00  0.00     0.074 A 
ATOM     36  C   UNL A   1      44.817  27.458  30.048  1.00  0.00     0.031 C 
ATOM     37  C   UNL A   1      45.209  29.983  29.686  1.00  0.00     0.037 A 
BRANCH  24  38
ATOM     38  C   UNL A   1      43.009  28.111  34.290  1.00  0.00     0.058 A 
ATOM     39  C   UNL A   1      43.208  28.411  35.654  1.00  0.00     0.135 A 
ATOM     40  C   UNL A   1      43.430  26.824  33.885  1.00  0.00     0.135 A 
ATOM     41  F   UNL A   1      42.866  29.613  36.145  1.00  0.00    -0.206 F 
ATOM     42  C   UNL A   1      43.825  27.520  36.535  1.00  0.00     0.059 A 
ATOM     43  C   UNL A   1      43.999  25.902  34.757  1.00  0.00     0.059 A 
ATOM     44  F   UNL A   1      43.400  26.434  32.604  1.00  0.00    -0.206 F 
ATOM     45  C   UNL A   1      44.226  26.270  36.072  1.00  0.00     0.060 A 
BRANCH  45  46
ATOM     46  S   UNL A   1      45.091  25.150  37.186  1.00  0.00     0.124 S 
ATOM     47  O   UNL A   1      44.480  25.476  38.465  1.00  0.00    -0.237 OA
ATOM     48  O   UNL A   1      44.757  23.847  36.625  1.00  0.00    -0.237 OA
ATOM     49  O   UNL A   1      46.494  25.547  37.034  1.00  0.00    -0.744 OA
ENDBRANCH  45  46
ENDBRANCH  24  38
BRANCH  25  50
ATOM     50  C   UNL A   1      43.604  25.444  26.229  1.00  0.00     0.058 A 
ATOM     51  C   UNL A   1      44.607  25.186  25.272  1.00  0.00     0.135 A 
ATOM     52  C   UNL A   1      42.896  24.317  26.689  1.00  0.00     0.135 A 
ATOM     53  F   UNL A   1      45.356  26.193  24.793  1.00  0.00    -0.206 F 
ATOM     54  C   UNL A   1      44.917  23.889  24.836  1.00  0.00     0.059 A 
ATOM     55  C   UNL A   1      43.180  23.018  26.263  1.00  0.00     0.059 A 
ATOM     56  F   UNL A   1      41.960  24.432  27.643  1.00  0.00    -0.206 F 
ATOM     57  C   UNL A   1      44.210  22.807  25.355  1.00  0.00     0.060 A 
BRANCH  57  58
ATOM     58  S   UNL A   1      44.714  21.118  24.937  1.00  0.00     0.124 S 
ATOM     59  O   UNL A   1      44.595  21.116  23.484  1.00  0.00    -0.237 OA
ATOM     60  O   UNL A   1      46.073  21.061  25.465  1.00  0.00    -0.237 OA
ATOM     61  O   UNL A   1      43.740  20.290  25.644  1.00  0.00    -0.744 OA
ENDBRANCH  57  58
ENDBRANCH  25  50
BRANCH  37  62
ATOM     62  C   UNL A   1      45.492  31.025  28.633  1.00  0.00     0.058 A 
ATOM     63  C   UNL A   1      44.524  31.590  27.781  1.00  0.00     0.135 A 
ATOM     64  C   UNL A   1      46.779  31.583  28.594  1.00  0.00     0.135 A 
ATOM     65  F   UNL A   1      43.246  31.188  27.825  1.00  0.00    -0.206 F 
ATOM     66  C   UNL A   1      44.833  32.636  26.908  1.00  0.00     0.059 A 
ATOM     67  C   UNL A   1      47.100  32.647  27.756  1.00  0.00     0.059 A 
ATOM     68  F   UNL A   1      47.733  31.130  29.424  1.00  0.00    -0.206 F 
ATOM     69  C   UNL A   1      46.125  33.160  26.906  1.00  0.00     0.060 A 
BRANCH  69  70
ATOM     70  S   UNL A   1      46.507  34.562  25.833  1.00  0.00     0.124 S 
ATOM     71  O   UNL A   1      45.531  34.405  24.760  1.00  0.00    -0.237 OA
ATOM     72  O   UNL A   1      46.299  35.705  26.719  1.00  0.00    -0.237 OA
ATOM     73  O   UNL A   1      47.898  34.330  25.450  1.00  0.00    -0.744 OA
ENDBRANCH  69  70
ENDBRANCH  37  62
ENDBRANCH  11  12
ENDBRANCH   4   6
ENDBRANCH   1   2
BRANCH   1  74
ATOM     74  C   UNL A   1      31.967  29.464  26.701  1.00  0.00     0.023 C 
BRANCH  74  75
ATOM     75  C   UNL A   1      31.461  28.174  27.368  1.00  0.00     0.023 C 
BRANCH  75  76
ATOM     76  C   UNL A   1      31.468  26.900  26.507  1.00  0.00     0.116 C 
BRANCH  76  77
ATOM     77  N   UNL A   1      30.775  27.052  25.239  1.00  0.00    -0.351 N 
ATOM     78  C   UNL A   1      31.191  27.063  23.943  1.00  0.00     0.278 C 
ATOM     79  H   UNL A   1      29.802  27.171  25.337  1.00  0.00     0.163 HD
ATOM     80  O   UNL A   1      30.315  26.780  23.112  1.00  0.00    -0.268 OA
BRANCH  78  81
ATOM     81  C   UNL A   1      32.625  27.418  23.434  1.00  0.00     0.275 C 
ATOM     82  C   UNL A   1      33.676  26.492  24.118  1.00  0.00     0.109 C 
ATOM     83  N   UNL A   1      32.870  27.298  21.987  1.00  0.00    -0.331 N 
ATOM     84  C   UNL A   1      33.275  25.070  23.788  1.00  0.00     0.164 C 
ATOM     85  C   UNL A   1      32.693  25.963  21.413  1.00  0.00     0.316 C 
ATOM     86  H   UNL A   1      33.830  27.590  21.808  1.00  0.00     0.347 HD
ATOM     87  H   UNL A   1      32.163  27.884  21.542  1.00  0.00     0.347 HD
ATOM     88  N   UNL A   1      34.197  23.984  24.178  1.00  0.00    -0.264 NA
ATOM     89  C   UNL A   1      33.241  24.900  22.312  1.00  0.00     0.098 C 
ATOM     90  C   UNL A   1      34.210  23.228  23.115  1.00  0.00     0.216 C 
ATOM     91  N   UNL A   1      33.682  23.742  21.954  1.00  0.00    -0.238 NA
ENDBRANCH  78  81
ENDBRANCH  76  77
ENDBRANCH  75  76
ENDBRANCH  74  75
ENDBRANCH   1  74
TORSDOF 14
ENDMDL
