MODEL 1
REMARK VINA RESULT:     -12.2      0.000      0.000
REMARK SMILES C[C@H](C(=O)NCCCCNC(=O)c1ccc(-c2c3nc(c(-c4c(F)cc(S(=O)(=O)[O-])cc4F)c4ccc([nH]4)c(-c4c(F)cc(S(=O)(=O)[O-])cc4F)c4nc(c(-c5c(F)cc(S(=O)(=O)[O-])cc5F)c5ccc2[nH]5)C=C4)C=C3)cc1)[C@H](C)[NH+]1CCN(c2ccccc2Cl)CC1
REMARK SMILES IDX 7 1 6 2 5 3 3 4 4 5 2 7 1 8 79 9 80 10 81 11 82 12 93 13
REMARK SMILES IDX 83 15 92 16 84 17 85 18 86 19 90 20 87 21 89 22 91 23 88 24
REMARK SMILES IDX 8 25 9 26 10 27 11 28 12 30 13 31 14 32 78 33 15 34 77 35
REMARK SMILES IDX 16 36 17 37 18 38 71 39 19 40 76 41 70 42 72 43 20 44 75 45
REMARK SMILES IDX 69 46 68 47 21 49 55 50 34 51 54 52 35 53 38 54 53 55 73 56
REMARK SMILES IDX 36 57 37 58 52 60 74 61 39 62 22 63 23 64 32 65 24 66 25 67
REMARK SMILES IDX 31 68 33 69 26 70 27 71 28 72 29 73 30 74 56 75 57 76 66 77
REMARK SMILES IDX 58 78 59 79 65 80 67 81 60 82 61 83 62 84 63 85 64 86 40 87
REMARK SMILES IDX 41 88 50 89 42 90 43 91 49 92 51 93 44 94 45 95 46 96 47 97
REMARK SMILES IDX 48 98
REMARK H PARENT 5 6 81 14 10 29 72 48 38 59
REMARK Flexibility Score: inf
ROOT
ATOM      1  C   UNL A   1      35.916  22.734  26.270  1.00  0.00     0.023 C 
ENDROOT
BRANCH   1   2
ATOM      2  C   UNL A   1      35.113  21.536  25.743  1.00  0.00     0.116 C 
BRANCH   2   3
ATOM      3  N   UNL A   1      33.655  21.659  25.779  1.00  0.00    -0.356 N 
ATOM      4  C   UNL A   1      32.681  21.762  24.816  1.00  0.00     0.228 C 
ATOM      5  O   UNL A   1      31.515  21.662  25.227  1.00  0.00    -0.275 OA
ATOM      6  H   UNL A   1      33.292  21.672  26.694  1.00  0.00     0.163 HD
BRANCH   4   7
ATOM      7  C   UNL A   1      32.904  21.990  23.294  1.00  0.00     0.133 C 
ATOM      8  C   UNL A   1      32.028  21.059  22.457  1.00  0.00     0.024 C 
BRANCH   7   9
ATOM      9  C   UNL A   1      33.197  23.417  22.574  1.00  0.00     0.193 C 
ATOM     10  C   UNL A   1      34.488  24.047  23.142  1.00  0.00     0.076 C 
BRANCH   9  11
ATOM     11  N   UNL A   1      32.207  24.426  22.105  1.00  0.00    -0.329 N 
ATOM     12  C   UNL A   1      31.235  24.843  23.102  1.00  0.00     0.284 C 
ATOM     13  C   UNL A   1      32.626  25.658  21.374  1.00  0.00     0.284 C 
ATOM     14  H   UNL A   1      31.817  23.815  21.387  1.00  0.00     0.348 HD
ATOM     15  C   UNL A   1      31.882  25.848  24.044  1.00  0.00     0.178 C 
ATOM     16  C   UNL A   1      33.093  26.912  22.206  1.00  0.00     0.178 C 
ATOM     17  N   UNL A   1      32.249  27.108  23.396  1.00  0.00    -0.359 N 
BRANCH  17  18
ATOM     18  C   UNL A   1      32.635  27.961  24.475  1.00  0.00     0.056 A 
ATOM     19  C   UNL A   1      33.642  27.541  25.371  1.00  0.00     0.027 A 
ATOM     20  C   UNL A   1      31.728  28.948  24.928  1.00  0.00     0.064 A 
ATOM     21  C   UNL A   1      33.632  27.959  26.707  1.00  0.00     0.002 A 
ATOM     22  C   UNL A   1      31.747  29.389  26.255  1.00  0.00     0.023 A 
ATOM     23  Cl  UNL A   1      30.446  29.513  23.909  1.00  0.00    -0.082 Cl
ATOM     24  C   UNL A   1      32.669  28.860  27.155  1.00  0.00     0.002 A 
ENDBRANCH  17  18
ENDBRANCH   9  11
ENDBRANCH   7   9
ENDBRANCH   4   7
ENDBRANCH   2   3
ENDBRANCH   1   2
BRANCH   1  25
ATOM     25  C   UNL A   1      37.244  23.083  25.571  1.00  0.00     0.023 C 
BRANCH  25  26
ATOM     26  C   UNL A   1      38.196  24.081  26.244  1.00  0.00     0.116 C 
BRANCH  26  27
ATOM     27  N   UNL A   1      39.608  23.739  26.163  1.00  0.00    -0.352 N 
ATOM     28  C   UNL A   1      40.710  24.328  26.760  1.00  0.00     0.251 C 
ATOM     29  H   UNL A   1      39.813  22.964  25.591  1.00  0.00     0.163 HD
ATOM     30  O   UNL A   1      41.824  23.896  26.545  1.00  0.00    -0.269 OA
BRANCH  28  31
ATOM     31  C   UNL A   1      40.538  25.526  27.621  1.00  0.00     0.039 A 
ATOM     32  C   UNL A   1      39.524  25.516  28.584  1.00  0.00     0.014 A 
ATOM     33  C   UNL A   1      41.358  26.648  27.485  1.00  0.00     0.014 A 
ATOM     34  C   UNL A   1      39.410  26.578  29.488  1.00  0.00     0.010 A 
ATOM     35  C   UNL A   1      41.277  27.682  28.421  1.00  0.00     0.010 A 
ATOM     36  C   UNL A   1      40.323  27.645  29.452  1.00  0.00    -0.014 A 
BRANCH  36  37
ATOM     37  C   UNL A   1      40.335  28.690  30.515  1.00  0.00     0.031 A 
ATOM     38  C   UNL A   1      41.222  28.551  31.721  1.00  0.00     0.074 A 
ATOM     39  C   UNL A   1      39.468  29.722  30.443  1.00  0.00     0.049 A 
ATOM     40  N   UNL A   1      41.282  29.301  32.793  1.00  0.00    -0.248 NA
ATOM     41  C   UNL A   1      42.145  27.408  31.734  1.00  0.00     0.031 C 
ATOM     42  C   UNL A   1      38.518  29.951  29.352  1.00  0.00     0.029 A 
ATOM     43  N   UNL A   1      39.223  30.756  31.315  1.00  0.00    -0.354 N 
ATOM     44  C   UNL A   1      42.230  28.709  33.619  1.00  0.00     0.074 A 
ATOM     45  C   UNL A   1      42.690  27.516  32.937  1.00  0.00     0.031 C 
ATOM     46  C   UNL A   1      37.795  31.049  29.621  1.00  0.00     0.029 A 
ATOM     47  C   UNL A   1      38.196  31.582  30.920  1.00  0.00     0.049 A 
ATOM     48  H   UNL A   1      39.735  30.894  32.145  1.00  0.00     0.167 HD
ATOM     49  C   UNL A   1      42.683  29.123  34.827  1.00  0.00     0.037 A 
ATOM     50  C   UNL A   1      37.621  32.634  31.536  1.00  0.00     0.037 A 
ATOM     51  C   UNL A   1      42.235  30.319  35.495  1.00  0.00     0.049 A 
ATOM     52  C   UNL A   1      38.139  33.084  32.875  1.00  0.00     0.074 A 
ATOM     53  C   UNL A   1      42.690  30.861  36.685  1.00  0.00     0.029 A 
ATOM     54  N   UNL A   1      41.221  31.151  35.041  1.00  0.00    -0.354 N 
ATOM     55  N   UNL A   1      39.093  32.556  33.605  1.00  0.00    -0.248 NA
ATOM     56  C   UNL A   1      37.512  34.271  33.474  1.00  0.00     0.031 C 
ATOM     57  C   UNL A   1      41.916  31.989  36.977  1.00  0.00     0.029 A 
ATOM     58  C   UNL A   1      41.017  32.184  35.941  1.00  0.00     0.049 A 
ATOM     59  H   UNL A   1      40.721  31.025  34.203  1.00  0.00     0.167 HD
ATOM     60  C   UNL A   1      39.197  33.359  34.736  1.00  0.00     0.074 A 
ATOM     61  C   UNL A   1      38.212  34.411  34.593  1.00  0.00     0.031 C 
ATOM     62  C   UNL A   1      40.039  33.236  35.790  1.00  0.00     0.037 A 
BRANCH  49  63
ATOM     63  C   UNL A   1      43.707  28.262  35.517  1.00  0.00     0.058 A 
ATOM     64  C   UNL A   1      43.341  27.266  36.435  1.00  0.00     0.135 A 
ATOM     65  C   UNL A   1      45.076  28.431  35.249  1.00  0.00     0.135 A 
ATOM     66  F   UNL A   1      42.048  27.064  36.734  1.00  0.00    -0.206 F 
ATOM     67  C   UNL A   1      44.295  26.503  37.102  1.00  0.00     0.059 A 
ATOM     68  C   UNL A   1      46.046  27.659  35.881  1.00  0.00     0.059 A 
ATOM     69  F   UNL A   1      45.484  29.362  34.373  1.00  0.00    -0.206 F 
ATOM     70  C   UNL A   1      45.646  26.713  36.824  1.00  0.00     0.060 A 
BRANCH  70  71
ATOM     71  S   UNL A   1      46.875  25.742  37.723  1.00  0.00     0.124 S 
ATOM     72  O   UNL A   1      46.281  25.687  39.056  1.00  0.00    -0.237 OA
ATOM     73  O   UNL A   1      46.883  24.485  36.982  1.00  0.00    -0.237 OA
ATOM     74  O   UNL A   1      48.090  26.541  37.609  1.00  0.00    -0.744 OA
ENDBRANCH  70  71
ENDBRANCH  49  63
BRANCH  50  75
ATOM     75  C   UNL A   1      36.482  33.332  30.879  1.00  0.00     0.058 A 
ATOM     76  C   UNL A   1      35.175  33.212  31.370  1.00  0.00     0.135 A 
ATOM     77  C   UNL A   1      36.692  34.180  29.780  1.00  0.00     0.135 A 
ATOM     78  F   UNL A   1      34.922  32.406  32.412  1.00  0.00    -0.206 F 
ATOM     79  C   UNL A   1      34.115  33.909  30.799  1.00  0.00     0.059 A 
ATOM     80  C   UNL A   1      35.653  34.906  29.206  1.00  0.00     0.059 A 
ATOM     81  F   UNL A   1      37.928  34.342  29.281  1.00  0.00    -0.206 F 
ATOM     82  C   UNL A   1      34.366  34.762  29.723  1.00  0.00     0.060 A 
BRANCH  82  83
ATOM     83  S   UNL A   1      33.000  35.736  29.051  1.00  0.00     0.124 S 
ATOM     84  O   UNL A   1      32.360  34.770  28.166  1.00  0.00    -0.237 OA
ATOM     85  O   UNL A   1      32.257  36.092  30.255  1.00  0.00    -0.237 OA
ATOM     86  O   UNL A   1      33.676  36.849  28.389  1.00  0.00    -0.744 OA
ENDBRANCH  82  83
ENDBRANCH  50  75
BRANCH  62  87
ATOM     87  C   UNL A   1      39.971  34.277  36.874  1.00  0.00     0.058 A 
ATOM     88  C   UNL A   1      40.664  35.492  36.777  1.00  0.00     0.135 A 
ATOM     89  C   UNL A   1      39.118  34.095  37.975  1.00  0.00     0.135 A 
ATOM     90  F   UNL A   1      41.501  35.714  35.750  1.00  0.00    -0.206 F 
ATOM     91  C   UNL A   1      40.514  36.493  37.735  1.00  0.00     0.059 A 
ATOM     92  C   UNL A   1      38.934  35.090  38.931  1.00  0.00     0.059 A 
ATOM     93  F   UNL A   1      38.426  32.952  38.113  1.00  0.00    -0.206 F 
ATOM     94  C   UNL A   1      39.638  36.285  38.803  1.00  0.00     0.060 A 
BRANCH  94  95
ATOM     95  S   UNL A   1      39.395  37.621  39.994  1.00  0.00     0.124 S 
ATOM     96  O   UNL A   1      39.083  36.877  41.211  1.00  0.00    -0.237 OA
ATOM     97  O   UNL A   1      40.689  38.294  39.978  1.00  0.00    -0.237 OA
ATOM     98  O   UNL A   1      38.289  38.386  39.426  1.00  0.00    -0.744 OA
ENDBRANCH  94  95
ENDBRANCH  62  87
ENDBRANCH  36  37
ENDBRANCH  28  31
ENDBRANCH  26  27
ENDBRANCH  25  26
ENDBRANCH   1  25
TORSDOF 17
ENDMDL
MODEL 2
REMARK VINA RESULT:     -12.0      5.118     10.668
REMARK SMILES C[C@H](C(=O)NCCCCNC(=O)c1ccc(-c2c3nc(c(-c4c(F)cc(S(=O)(=O)[O-])cc4F)c4ccc([nH]4)c(-c4c(F)cc(S(=O)(=O)[O-])cc4F)c4nc(c(-c5c(F)cc(S(=O)(=O)[O-])cc5F)c5ccc2[nH]5)C=C4)C=C3)cc1)[C@H](C)[NH+]1CCN(c2ccccc2Cl)CC1
REMARK SMILES IDX 7 1 6 2 5 3 3 4 4 5 2 7 1 8 79 9 80 10 81 11 82 12 93 13
REMARK SMILES IDX 83 15 92 16 84 17 85 18 86 19 90 20 87 21 89 22 91 23 88 24
REMARK SMILES IDX 8 25 9 26 10 27 11 28 12 30 13 31 14 32 78 33 15 34 77 35
REMARK SMILES IDX 16 36 17 37 18 38 71 39 19 40 76 41 70 42 72 43 20 44 75 45
REMARK SMILES IDX 69 46 68 47 21 49 55 50 34 51 54 52 35 53 38 54 53 55 73 56
REMARK SMILES IDX 36 57 37 58 52 60 74 61 39 62 22 63 23 64 32 65 24 66 25 67
REMARK SMILES IDX 31 68 33 69 26 70 27 71 28 72 29 73 30 74 56 75 57 76 66 77
REMARK SMILES IDX 58 78 59 79 65 80 67 81 60 82 61 83 62 84 63 85 64 86 40 87
REMARK SMILES IDX 41 88 50 89 42 90 43 91 49 92 51 93 44 94 45 95 46 96 47 97
REMARK SMILES IDX 48 98
REMARK H PARENT 5 6 81 14 10 29 72 48 38 59
REMARK Flexibility Score: inf
ROOT
ATOM      1  C   UNL A   1      31.941  29.995  25.367  1.00  0.00     0.023 C 
ENDROOT
BRANCH   1   2
ATOM      2  C   UNL A   1      30.948  29.629  24.254  1.00  0.00     0.116 C 
BRANCH   2   3
ATOM      3  N   UNL A   1      31.255  28.432  23.471  1.00  0.00    -0.356 N 
ATOM      4  C   UNL A   1      30.789  27.140  23.478  1.00  0.00     0.228 C 
ATOM      5  O   UNL A   1      31.161  26.437  22.526  1.00  0.00    -0.275 OA
ATOM      6  H   UNL A   1      31.949  28.586  22.790  1.00  0.00     0.163 HD
BRANCH   4   7
ATOM      7  C   UNL A   1      29.862  26.496  24.546  1.00  0.00     0.133 C 
ATOM      8  C   UNL A   1      28.445  26.297  24.009  1.00  0.00     0.024 C 
BRANCH   7   9
ATOM      9  C   UNL A   1      30.298  25.376  25.640  1.00  0.00     0.193 C 
ATOM     10  C   UNL A   1      31.462  25.902  26.508  1.00  0.00     0.076 C 
BRANCH   9  11
ATOM     11  N   UNL A   1      30.305  23.895  25.481  1.00  0.00    -0.329 N 
ATOM     12  C   UNL A   1      31.033  23.405  24.323  1.00  0.00     0.284 C 
ATOM     13  C   UNL A   1      30.640  22.984  26.615  1.00  0.00     0.284 C 
ATOM     14  H   UNL A   1      29.292  23.829  25.383  1.00  0.00     0.348 HD
ATOM     15  C   UNL A   1      32.524  23.426  24.621  1.00  0.00     0.178 C 
ATOM     16  C   UNL A   1      32.155  22.679  26.920  1.00  0.00     0.178 C 
ATOM     17  N   UNL A   1      32.925  22.495  25.679  1.00  0.00    -0.359 N 
BRANCH  17  18
ATOM     18  C   UNL A   1      34.352  22.523  25.653  1.00  0.00     0.056 A 
ATOM     19  C   UNL A   1      35.030  23.750  25.824  1.00  0.00     0.027 A 
ATOM     20  C   UNL A   1      35.047  21.479  24.997  1.00  0.00     0.064 A 
ATOM     21  C   UNL A   1      36.271  23.975  25.215  1.00  0.00     0.002 A 
ATOM     22  C   UNL A   1      36.304  21.700  24.423  1.00  0.00     0.023 A 
ATOM     23  Cl  UNL A   1      34.294  19.944  24.722  1.00  0.00    -0.082 Cl
ATOM     24  C   UNL A   1      36.893  22.960  24.493  1.00  0.00     0.002 A 
ENDBRANCH  17  18
ENDBRANCH   9  11
ENDBRANCH   7   9
ENDBRANCH   4   7
ENDBRANCH   2   3
ENDBRANCH   1   2
BRANCH   1  25
ATOM     25  C   UNL A   1      33.083  29.008  25.675  1.00  0.00     0.023 C 
BRANCH  25  26
ATOM     26  C   UNL A   1      33.677  28.981  27.090  1.00  0.00     0.116 C 
BRANCH  26  27
ATOM     27  N   UNL A   1      33.647  30.254  27.796  1.00  0.00    -0.352 N 
ATOM     28  C   UNL A   1      34.635  30.902  28.518  1.00  0.00     0.251 C 
ATOM     29  H   UNL A   1      32.787  30.730  27.753  1.00  0.00     0.163 HD
ATOM     30  O   UNL A   1      34.399  31.965  29.056  1.00  0.00    -0.269 OA
BRANCH  28  31
ATOM     31  C   UNL A   1      35.970  30.273  28.686  1.00  0.00     0.039 A 
ATOM     32  C   UNL A   1      36.832  30.233  27.585  1.00  0.00     0.014 A 
ATOM     33  C   UNL A   1      36.372  29.725  29.904  1.00  0.00     0.014 A 
ATOM     34  C   UNL A   1      38.137  29.754  27.738  1.00  0.00     0.010 A 
ATOM     35  C   UNL A   1      37.692  29.297  30.069  1.00  0.00     0.010 A 
ATOM     36  C   UNL A   1      38.599  29.335  28.997  1.00  0.00    -0.014 A 
BRANCH  36  37
ATOM     37  C   UNL A   1      40.033  28.997  29.222  1.00  0.00     0.031 A 
ATOM     38  C   UNL A   1      41.006  30.043  29.693  1.00  0.00     0.074 A 
ATOM     39  C   UNL A   1      40.484  27.765  28.904  1.00  0.00     0.049 A 
ATOM     40  N   UNL A   1      42.305  29.958  29.835  1.00  0.00    -0.248 NA
ATOM     41  C   UNL A   1      40.448  31.361  30.026  1.00  0.00     0.031 C 
ATOM     42  C   UNL A   1      39.657  26.671  28.391  1.00  0.00     0.029 A 
ATOM     43  N   UNL A   1      41.751  27.232  28.938  1.00  0.00    -0.354 N 
ATOM     44  C   UNL A   1      42.725  31.216  30.250  1.00  0.00     0.074 A 
ATOM     45  C   UNL A   1      41.544  32.054  30.300  1.00  0.00     0.031 C 
ATOM     46  C   UNL A   1      40.435  25.603  28.156  1.00  0.00     0.029 A 
ATOM     47  C   UNL A   1      41.823  25.944  28.460  1.00  0.00     0.049 A 
ATOM     48  H   UNL A   1      42.534  27.726  29.274  1.00  0.00     0.167 HD
ATOM     49  C   UNL A   1      43.975  31.633  30.570  1.00  0.00     0.037 A 
ATOM     50  C   UNL A   1      42.880  25.131  28.265  1.00  0.00     0.037 A 
ATOM     51  C   UNL A   1      45.144  30.792  30.536  1.00  0.00     0.049 A 
ATOM     52  C   UNL A   1      44.260  25.608  28.629  1.00  0.00     0.074 A 
ATOM     53  C   UNL A   1      46.438  31.104  30.914  1.00  0.00     0.029 A 
ATOM     54  N   UNL A   1      45.166  29.480  30.085  1.00  0.00    -0.354 N 
ATOM     55  N   UNL A   1      44.627  26.778  29.096  1.00  0.00    -0.248 NA
ATOM     56  C   UNL A   1      45.368  24.660  28.447  1.00  0.00     0.031 C 
ATOM     57  C   UNL A   1      47.253  29.999  30.643  1.00  0.00     0.029 A 
ATOM     58  C   UNL A   1      46.457  28.978  30.149  1.00  0.00     0.049 A 
ATOM     59  H   UNL A   1      44.381  28.979  29.766  1.00  0.00     0.167 HD
ATOM     60  C   UNL A   1      46.002  26.698  29.288  1.00  0.00     0.074 A 
ATOM     61  C   UNL A   1      46.402  25.365  28.889  1.00  0.00     0.031 C 
ATOM     62  C   UNL A   1      46.850  27.645  29.758  1.00  0.00     0.037 A 
BRANCH  49  63
ATOM     63  C   UNL A   1      44.144  33.075  30.968  1.00  0.00     0.058 A 
ATOM     64  C   UNL A   1      44.432  34.075  30.026  1.00  0.00     0.135 A 
ATOM     65  C   UNL A   1      44.008  33.463  32.311  1.00  0.00     0.135 A 
ATOM     66  F   UNL A   1      44.579  33.761  28.729  1.00  0.00    -0.206 F 
ATOM     67  C   UNL A   1      44.631  35.399  30.407  1.00  0.00     0.059 A 
ATOM     68  C   UNL A   1      44.172  34.786  32.711  1.00  0.00     0.059 A 
ATOM     69  F   UNL A   1      43.723  32.551  33.254  1.00  0.00    -0.206 F 
ATOM     70  C   UNL A   1      44.508  35.743  31.754  1.00  0.00     0.060 A 
BRANCH  70  71
ATOM     71  S   UNL A   1      44.804  37.457  32.239  1.00  0.00     0.124 S 
ATOM     72  O   UNL A   1      44.693  38.144  30.956  1.00  0.00    -0.237 OA
ATOM     73  O   UNL A   1      43.721  37.706  33.185  1.00  0.00    -0.237 OA
ATOM     74  O   UNL A   1      46.143  37.420  32.818  1.00  0.00    -0.744 OA
ENDBRANCH  70  71
ENDBRANCH  49  63
BRANCH  50  75
ATOM     75  C   UNL A   1      42.663  23.775  27.690  1.00  0.00     0.058 A 
ATOM     76  C   UNL A   1      42.641  23.568  26.304  1.00  0.00     0.135 A 
ATOM     77  C   UNL A   1      42.529  22.652  28.521  1.00  0.00     0.135 A 
ATOM     78  F   UNL A   1      42.755  24.612  25.469  1.00  0.00    -0.206 F 
ATOM     79  C   UNL A   1      42.500  22.295  25.760  1.00  0.00     0.059 A 
ATOM     80  C   UNL A   1      42.410  21.367  28.001  1.00  0.00     0.059 A 
ATOM     81  F   UNL A   1      42.559  22.794  29.856  1.00  0.00    -0.206 F 
ATOM     82  C   UNL A   1      42.396  21.200  26.617  1.00  0.00     0.060 A 
BRANCH  82  83
ATOM     83  S   UNL A   1      42.308  19.543  25.901  1.00  0.00     0.124 S 
ATOM     84  O   UNL A   1      40.951  19.524  25.369  1.00  0.00    -0.237 OA
ATOM     85  O   UNL A   1      43.382  19.580  24.913  1.00  0.00    -0.237 OA
ATOM     86  O   UNL A   1      42.551  18.669  27.046  1.00  0.00    -0.744 OA
ENDBRANCH  82  83
ENDBRANCH  50  75
BRANCH  62  87
ATOM     87  C   UNL A   1      48.302  27.281  29.906  1.00  0.00     0.058 A 
ATOM     88  C   UNL A   1      49.210  27.413  28.845  1.00  0.00     0.135 A 
ATOM     89  C   UNL A   1      48.809  26.892  31.157  1.00  0.00     0.135 A 
ATOM     90  F   UNL A   1      48.777  27.772  27.625  1.00  0.00    -0.206 F 
ATOM     91  C   UNL A   1      50.571  27.173  29.019  1.00  0.00     0.059 A 
ATOM     92  C   UNL A   1      50.167  26.670  31.360  1.00  0.00     0.059 A 
ATOM     93  F   UNL A   1      47.983  26.756  32.208  1.00  0.00    -0.206 F 
ATOM     94  C   UNL A   1      51.041  26.811  30.283  1.00  0.00     0.060 A 
BRANCH  94  95
ATOM     95  S   UNL A   1      52.817  26.579  30.513  1.00  0.00     0.124 S 
ATOM     96  O   UNL A   1      52.850  25.434  31.418  1.00  0.00    -0.237 OA
ATOM     97  O   UNL A   1      53.277  26.323  29.151  1.00  0.00    -0.237 OA
ATOM     98  O   UNL A   1      53.255  27.846  31.088  1.00  0.00    -0.744 OA
ENDBRANCH  94  95
ENDBRANCH  62  87
ENDBRANCH  36  37
ENDBRANCH  28  31
ENDBRANCH  26  27
ENDBRANCH  25  26
ENDBRANCH   1  25
TORSDOF 17
ENDMDL
MODEL 3
REMARK VINA RESULT:     -11.9      4.801     10.610
REMARK SMILES C[C@H](C(=O)NCCCCNC(=O)c1ccc(-c2c3nc(c(-c4c(F)cc(S(=O)(=O)[O-])cc4F)c4ccc([nH]4)c(-c4c(F)cc(S(=O)(=O)[O-])cc4F)c4nc(c(-c5c(F)cc(S(=O)(=O)[O-])cc5F)c5ccc2[nH]5)C=C4)C=C3)cc1)[C@H](C)[NH+]1CCN(c2ccccc2Cl)CC1
REMARK SMILES IDX 7 1 6 2 5 3 3 4 4 5 2 7 1 8 79 9 80 10 81 11 82 12 93 13
REMARK SMILES IDX 83 15 92 16 84 17 85 18 86 19 90 20 87 21 89 22 91 23 88 24
REMARK SMILES IDX 8 25 9 26 10 27 11 28 12 30 13 31 14 32 78 33 15 34 77 35
REMARK SMILES IDX 16 36 17 37 18 38 71 39 19 40 76 41 70 42 72 43 20 44 75 45
REMARK SMILES IDX 69 46 68 47 21 49 55 50 34 51 54 52 35 53 38 54 53 55 73 56
REMARK SMILES IDX 36 57 37 58 52 60 74 61 39 62 22 63 23 64 32 65 24 66 25 67
REMARK SMILES IDX 31 68 33 69 26 70 27 71 28 72 29 73 30 74 56 75 57 76 66 77
REMARK SMILES IDX 58 78 59 79 65 80 67 81 60 82 61 83 62 84 63 85 64 86 40 87
REMARK SMILES IDX 41 88 50 89 42 90 43 91 49 92 51 93 44 94 45 95 46 96 47 97
REMARK SMILES IDX 48 98
REMARK H PARENT 5 6 81 14 10 29 72 48 38 59
REMARK Flexibility Score: inf
ROOT
ATOM      1  C   UNL A   1      33.627  28.795  24.824  1.00  0.00     0.023 C 
ENDROOT
BRANCH   1   2
ATOM      2  C   UNL A   1      32.773  28.153  23.721  1.00  0.00     0.116 C 
BRANCH   2   3
ATOM      3  N   UNL A   1      33.323  26.958  23.079  1.00  0.00    -0.356 N 
ATOM      4  C   UNL A   1      32.939  25.641  23.025  1.00  0.00     0.228 C 
ATOM      5  O   UNL A   1      33.565  24.939  22.216  1.00  0.00    -0.275 OA
ATOM      6  H   UNL A   1      34.149  27.138  22.576  1.00  0.00     0.163 HD
BRANCH   4   7
ATOM      7  C   UNL A   1      31.820  24.967  23.867  1.00  0.00     0.133 C 
ATOM      8  C   UNL A   1      31.094  23.886  23.068  1.00  0.00     0.024 C 
BRANCH   7   9
ATOM      9  C   UNL A   1      31.879  24.657  25.462  1.00  0.00     0.193 C 
ATOM     10  C   UNL A   1      31.075  25.719  26.242  1.00  0.00     0.076 C 
BRANCH   9  11
ATOM     11  N   UNL A   1      33.012  24.086  26.242  1.00  0.00    -0.329 N 
ATOM     12  C   UNL A   1      32.721  22.836  26.922  1.00  0.00     0.284 C 
ATOM     13  C   UNL A   1      34.378  23.948  25.658  1.00  0.00     0.284 C 
ATOM     14  H   UNL A   1      33.076  24.887  26.871  1.00  0.00     0.348 HD
ATOM     15  C   UNL A   1      32.776  21.694  25.919  1.00  0.00     0.178 C 
ATOM     16  C   UNL A   1      34.705  22.678  24.784  1.00  0.00     0.178 C 
ATOM     17  N   UNL A   1      34.111  21.463  25.364  1.00  0.00    -0.359 N 
BRANCH  17  18
ATOM     18  C   UNL A   1      33.983  20.247  24.626  1.00  0.00     0.056 A 
ATOM     19  C   UNL A   1      32.698  19.746  24.325  1.00  0.00     0.027 A 
ATOM     20  C   UNL A   1      35.059  19.328  24.623  1.00  0.00     0.064 A 
ATOM     21  C   UNL A   1      32.476  18.368  24.202  1.00  0.00     0.002 A 
ATOM     22  C   UNL A   1      34.835  17.957  24.463  1.00  0.00     0.023 A 
ATOM     23  Cl  UNL A   1      36.670  19.843  25.001  1.00  0.00    -0.082 Cl
ATOM     24  C   UNL A   1      33.539  17.474  24.298  1.00  0.00     0.002 A 
ENDBRANCH  17  18
ENDBRANCH   9  11
ENDBRANCH   7   9
ENDBRANCH   4   7
ENDBRANCH   2   3
ENDBRANCH   1   2
BRANCH   1  25
ATOM     25  C   UNL A   1      33.851  27.999  26.125  1.00  0.00     0.023 C 
BRANCH  25  26
ATOM     26  C   UNL A   1      33.216  28.512  27.425  1.00  0.00     0.116 C 
BRANCH  26  27
ATOM     27  N   UNL A   1      33.286  29.952  27.620  1.00  0.00    -0.352 N 
ATOM     28  C   UNL A   1      34.352  30.757  27.987  1.00  0.00     0.251 C 
ATOM     29  H   UNL A   1      32.441  30.432  27.465  1.00  0.00     0.163 HD
ATOM     30  O   UNL A   1      34.196  31.954  28.115  1.00  0.00    -0.269 OA
BRANCH  28  31
ATOM     31  C   UNL A   1      35.676  30.151  28.280  1.00  0.00     0.039 A 
ATOM     32  C   UNL A   1      36.621  30.081  27.251  1.00  0.00     0.014 A 
ATOM     33  C   UNL A   1      35.988  29.654  29.546  1.00  0.00     0.014 A 
ATOM     34  C   UNL A   1      37.915  29.624  27.522  1.00  0.00     0.010 A 
ATOM     35  C   UNL A   1      37.296  29.249  29.828  1.00  0.00     0.010 A 
ATOM     36  C   UNL A   1      38.282  29.258  28.828  1.00  0.00    -0.014 A 
BRANCH  36  37
ATOM     37  C   UNL A   1      39.698  28.948  29.175  1.00  0.00     0.031 A 
ATOM     38  C   UNL A   1      40.594  29.999  29.770  1.00  0.00     0.074 A 
ATOM     39  C   UNL A   1      40.209  27.739  28.861  1.00  0.00     0.049 A 
ATOM     40  N   UNL A   1      41.876  29.940  30.029  1.00  0.00    -0.248 NA
ATOM     41  C   UNL A   1      39.973  31.291  30.091  1.00  0.00     0.031 C 
ATOM     42  C   UNL A   1      39.464  26.644  28.237  1.00  0.00     0.029 A 
ATOM     43  N   UNL A   1      41.482  27.235  28.996  1.00  0.00    -0.354 N 
ATOM     44  C   UNL A   1      42.222  31.193  30.523  1.00  0.00     0.074 A 
ATOM     45  C   UNL A   1      41.019  32.000  30.489  1.00  0.00     0.031 C 
ATOM     46  C   UNL A   1      40.289  25.603  28.041  1.00  0.00     0.029 A 
ATOM     47  C   UNL A   1      41.632  25.966  28.486  1.00  0.00     0.049 A 
ATOM     48  H   UNL A   1      42.217  27.735  29.420  1.00  0.00     0.167 HD
ATOM     49  C   UNL A   1      43.424  31.628  30.972  1.00  0.00     0.037 A 
ATOM     50  C   UNL A   1      42.725  25.187  28.363  1.00  0.00     0.037 A 
ATOM     51  C   UNL A   1      44.615  30.817  31.020  1.00  0.00     0.049 A 
ATOM     52  C   UNL A   1      44.052  25.683  28.871  1.00  0.00     0.074 A 
ATOM     53  C   UNL A   1      45.859  31.146  31.528  1.00  0.00     0.029 A 
ATOM     54  N   UNL A   1      44.714  29.522  30.530  1.00  0.00    -0.354 N 
ATOM     55  N   UNL A   1      44.342  26.844  29.408  1.00  0.00    -0.248 NA
ATOM     56  C   UNL A   1      45.197  24.769  28.763  1.00  0.00     0.031 C 
ATOM     57  C   UNL A   1      46.725  30.071  31.298  1.00  0.00     0.029 A 
ATOM     58  C   UNL A   1      46.006  29.050  30.698  1.00  0.00     0.049 A 
ATOM     59  H   UNL A   1      43.976  29.014  30.124  1.00  0.00     0.167 HD
ATOM     60  C   UNL A   1      45.695  26.791  29.725  1.00  0.00     0.074 A 
ATOM     61  C   UNL A   1      46.166  25.482  29.322  1.00  0.00     0.031 C 
ATOM     62  C   UNL A   1      46.470  27.741  30.303  1.00  0.00     0.037 A 
BRANCH  49  63
ATOM     63  C   UNL A   1      43.517  33.058  31.431  1.00  0.00     0.058 A 
ATOM     64  C   UNL A   1      43.882  34.095  30.557  1.00  0.00     0.135 A 
ATOM     65  C   UNL A   1      43.229  33.399  32.763  1.00  0.00     0.135 A 
ATOM     66  F   UNL A   1      44.175  33.828  29.275  1.00  0.00    -0.206 F 
ATOM     67  C   UNL A   1      44.009  35.410  30.999  1.00  0.00     0.059 A 
ATOM     68  C   UNL A   1      43.319  34.711  33.219  1.00  0.00     0.059 A 
ATOM     69  F   UNL A   1      42.865  32.451  33.640  1.00  0.00    -0.206 F 
ATOM     70  C   UNL A   1      43.733  35.705  32.334  1.00  0.00     0.060 A 
BRANCH  70  71
ATOM     71  S   UNL A   1      43.936  37.407  32.901  1.00  0.00     0.124 S 
ATOM     72  O   UNL A   1      43.819  38.146  31.648  1.00  0.00    -0.237 OA
ATOM     73  O   UNL A   1      42.823  37.561  33.833  1.00  0.00    -0.237 OA
ATOM     74  O   UNL A   1      45.263  37.407  33.509  1.00  0.00    -0.744 OA
ENDBRANCH  70  71
ENDBRANCH  49  63
BRANCH  50  75
ATOM     75  C   UNL A   1      42.599  23.847  27.727  1.00  0.00     0.058 A 
ATOM     76  C   UNL A   1      42.726  23.686  26.341  1.00  0.00     0.135 A 
ATOM     77  C   UNL A   1      42.404  22.694  28.504  1.00  0.00     0.135 A 
ATOM     78  F   UNL A   1      42.903  24.759  25.555  1.00  0.00    -0.206 F 
ATOM     79  C   UNL A   1      42.670  22.429  25.745  1.00  0.00     0.059 A 
ATOM     80  C   UNL A   1      42.369  21.425  27.934  1.00  0.00     0.059 A 
ATOM     81  F   UNL A   1      42.292  22.792  29.838  1.00  0.00    -0.206 F 
ATOM     82  C   UNL A   1      42.502  21.304  26.552  1.00  0.00     0.060 A 
BRANCH  82  83
ATOM     83  S   UNL A   1      42.526  19.670  25.779  1.00  0.00     0.124 S 
ATOM     84  O   UNL A   1      43.445  19.886  24.668  1.00  0.00    -0.237 OA
ATOM     85  O   UNL A   1      43.018  18.826  26.863  1.00  0.00    -0.237 OA
ATOM     86  O   UNL A   1      41.129  19.453  25.411  1.00  0.00    -0.744 OA
ENDBRANCH  82  83
ENDBRANCH  50  75
BRANCH  62  87
ATOM     87  C   UNL A   1      47.911  27.407  30.575  1.00  0.00     0.058 A 
ATOM     88  C   UNL A   1      48.314  26.780  31.763  1.00  0.00     0.135 A 
ATOM     89  C   UNL A   1      48.885  27.626  29.586  1.00  0.00     0.135 A 
ATOM     90  F   UNL A   1      47.425  26.557  32.745  1.00  0.00    -0.206 F 
ATOM     91  C   UNL A   1      49.633  26.382  31.963  1.00  0.00     0.059 A 
ATOM     92  C   UNL A   1      50.204  27.214  29.755  1.00  0.00     0.059 A 
ATOM     93  F   UNL A   1      48.551  28.217  28.428  1.00  0.00    -0.206 F 
ATOM     94  C   UNL A   1      50.569  26.594  30.948  1.00  0.00     0.060 A 
BRANCH  94  95
ATOM     95  S   UNL A   1      52.258  26.002  31.190  1.00  0.00     0.124 S 
ATOM     96  O   UNL A   1      52.815  27.041  32.050  1.00  0.00    -0.237 OA
ATOM     97  O   UNL A   1      52.046  24.703  31.821  1.00  0.00    -0.237 OA
ATOM     98  O   UNL A   1      52.798  25.953  29.835  1.00  0.00    -0.744 OA
ENDBRANCH  94  95
ENDBRANCH  62  87
ENDBRANCH  36  37
ENDBRANCH  28  31
ENDBRANCH  26  27
ENDBRANCH  25  26
ENDBRANCH   1  25
TORSDOF 17
ENDMDL
