MODEL 1
REMARK VINA RESULT:     -12.6      0.000      0.000
REMARK SMILES C=C[C@@H]1[C@@H](O)C[C@H]2[C@]3(CC[C@]4(C)[C@@H]([C@H](C)CCC=C(C)C)CC[C@]24C)C[C@]13CCC(=O)NCCCCNC(=O)c1ccc(-c2c3nc(c(-c4c(F)cc(S(=O)(=O)[O-])cc4F)c4ccc([nH]4)c(-c4c(F)cc(S(=O)(=O)[O-])cc4F)c4nc(c(-c5c(F)cc(S(=O)(=O)[O-])cc5F)c5ccc2[nH]5)C=C4)C=C3)cc1
REMARK SMILES IDX 33 1 32 2 30 3 31 4 29 6 28 7 27 8 3 9 4 10 6 11 8 12 26 13
REMARK SMILES IDX 7 14 9 15 24 16 10 17 11 18 23 19 25 20 13 21 12 22 22 23
REMARK SMILES IDX 2 24 1 25 5 26 14 28 15 29 16 30 17 31 18 32 19 33 20 34
REMARK SMILES IDX 21 35 34 36 35 37 36 38 37 39 38 40 39 42 40 43 41 44 105 45
REMARK SMILES IDX 42 46 104 47 43 48 44 49 45 50 98 51 46 52 103 53 97 54
REMARK SMILES IDX 99 55 47 56 102 57 96 58 95 59 48 61 82 62 61 63 81 64 62 65
REMARK SMILES IDX 65 66 80 67 100 68 63 69 64 70 79 72 101 73 66 74 49 75
REMARK SMILES IDX 50 76 59 77 51 78 52 79 58 80 60 81 53 82 54 83 55 84 56 85
REMARK SMILES IDX 57 86 83 87 84 88 93 89 85 90 86 91 92 92 94 93 87 94 88 95
REMARK SMILES IDX 89 96 90 97 91 98 67 99 68 100 77 101 69 102 70 103 76 104
REMARK SMILES IDX 78 105 71 106 72 107 73 108 74 109 75 110
REMARK H PARENT 32 5 5 27 37 41 99 60 65 71
REMARK Flexibility Score: inf
ROOT
ATOM      1  C   UNL A   1      34.182  32.036  27.781  1.00  0.00     0.116 C 
ENDROOT
BRANCH   1   2
ATOM      2  N   UNL A   1      32.833  31.914  27.249  1.00  0.00    -0.356 N 
ATOM      3  C   UNL A   1      32.207  30.888  26.612  1.00  0.00     0.220 C 
ATOM      4  O   UNL A   1      31.113  31.110  26.089  1.00  0.00    -0.275 OA
ATOM      5  H   UNL A   1      32.275  32.715  27.372  1.00  0.00     0.163 HD
BRANCH   3   6
ATOM      6  C   UNL A   1      32.797  29.492  26.595  1.00  0.00     0.100 C 
BRANCH   6   7
ATOM      7  C   UNL A   1      33.382  29.085  25.238  1.00  0.00     0.018 C 
BRANCH   7   8
ATOM      8  C   UNL A   1      32.558  28.067  24.435  1.00  0.00    -0.014 C 
ATOM      9  C   UNL A   1      32.120  28.575  23.030  1.00  0.00     0.047 C 
ATOM     10  C   UNL A   1      32.279  27.509  21.917  1.00  0.00     0.122 C 
ATOM     11  C   UNL A   1      31.807  26.120  22.339  1.00  0.00     0.037 C 
ATOM     12  C   UNL A   1      32.813  26.534  24.655  1.00  0.00    -0.019 C 
ATOM     13  C   UNL A   1      31.592  27.191  25.190  1.00  0.00     0.016 C 
ATOM     14  C   UNL A   1      32.665  25.554  23.484  1.00  0.00     0.005 C 
ATOM     15  C   UNL A   1      33.755  26.025  25.731  1.00  0.00     0.008 C 
ATOM     16  C   UNL A   1      32.237  24.095  23.976  1.00  0.00    -0.023 C 
ATOM     17  C   UNL A   1      33.275  24.679  26.266  1.00  0.00     0.008 C 
ATOM     18  C   UNL A   1      33.145  23.593  25.187  1.00  0.00    -0.024 C 
ATOM     19  C   UNL A   1      32.588  23.043  22.877  1.00  0.00     0.008 C 
ATOM     20  C   UNL A   1      30.725  24.033  24.293  1.00  0.00     0.012 C 
ATOM     21  C   UNL A   1      34.473  23.308  24.423  1.00  0.00    -0.002 C 
ATOM     22  C   UNL A   1      32.534  22.324  25.842  1.00  0.00     0.012 C 
ATOM     23  C   UNL A   1      33.996  22.507  23.201  1.00  0.00     0.005 C 
BRANCH   9  24
ATOM     24  C   UNL A   1      30.772  29.290  23.002  1.00  0.00    -0.028 C 
ATOM     25  C   UNL A   1      30.111  29.814  21.961  1.00  0.00     0.004 C 
ENDBRANCH   9  24
BRANCH  10  26
ATOM     26  O   UNL A   1      33.645  27.429  21.482  1.00  0.00    -0.392 OA
ATOM     27  H   UNL A   1      33.893  28.258  21.043  1.00  0.00     0.210 HD
ENDBRANCH  10  26
BRANCH  21  28
ATOM     28  C   UNL A   1      35.815  22.809  25.038  1.00  0.00    -0.010 C 
ATOM     29  C   UNL A   1      37.023  23.745  25.008  1.00  0.00     0.008 C 
BRANCH  28  30
ATOM     30  C   UNL A   1      36.223  21.461  24.356  1.00  0.00     0.008 C 
BRANCH  30  31
ATOM     31  C   UNL A   1      35.854  20.198  25.141  1.00  0.00     0.027 C 
BRANCH  31  32
ATOM     32  C   UNL A   1      34.439  19.775  24.843  1.00  0.00    -0.028 C 
ATOM     33  C   UNL A   1      34.026  18.540  24.499  1.00  0.00    -0.080 C 
ATOM     34  C   UNL A   1      32.592  18.282  24.128  1.00  0.00     0.039 C 
ATOM     35  C   UNL A   1      34.942  17.351  24.403  1.00  0.00     0.039 C 
ENDBRANCH  31  32
ENDBRANCH  30  31
ENDBRANCH  28  30
ENDBRANCH  21  28
ENDBRANCH   7   8
ENDBRANCH   6   7
ENDBRANCH   3   6
ENDBRANCH   1   2
BRANCH   1  36
ATOM     36  C   UNL A   1      34.271  33.256  28.696  1.00  0.00     0.023 C 
BRANCH  36  37
ATOM     37  C   UNL A   1      34.809  33.032  30.091  1.00  0.00     0.023 C 
BRANCH  37  38
ATOM     38  C   UNL A   1      35.971  32.058  30.139  1.00  0.00     0.116 C 
BRANCH  38  39
ATOM     39  N   UNL A   1      35.849  30.984  31.130  1.00  0.00    -0.352 N 
ATOM     40  C   UNL A   1      36.853  30.174  31.626  1.00  0.00     0.251 C 
ATOM     41  H   UNL A   1      34.945  30.821  31.484  1.00  0.00     0.163 HD
ATOM     42  O   UNL A   1      36.616  29.301  32.455  1.00  0.00    -0.269 OA
BRANCH  40  43
ATOM     43  C   UNL A   1      38.212  30.349  31.072  1.00  0.00     0.039 A 
ATOM     44  C   UNL A   1      39.307  30.328  31.937  1.00  0.00     0.014 A 
ATOM     45  C   UNL A   1      38.390  30.276  29.691  1.00  0.00     0.014 A 
ATOM     46  C   UNL A   1      40.579  30.084  31.415  1.00  0.00     0.010 A 
ATOM     47  C   UNL A   1      39.626  29.887  29.199  1.00  0.00     0.010 A 
ATOM     48  C   UNL A   1      40.735  29.776  30.053  1.00  0.00    -0.014 A 
BRANCH  48  49
ATOM     49  C   UNL A   1      42.035  29.317  29.492  1.00  0.00     0.031 A 
ATOM     50  C   UNL A   1      43.170  30.297  29.351  1.00  0.00     0.074 A 
ATOM     51  C   UNL A   1      42.158  28.069  28.994  1.00  0.00     0.049 A 
ATOM     52  N   UNL A   1      44.330  30.142  28.767  1.00  0.00    -0.248 NA
ATOM     53  C   UNL A   1      42.942  31.653  29.877  1.00  0.00     0.031 C 
ATOM     54  C   UNL A   1      41.100  27.056  28.953  1.00  0.00     0.029 A 
ATOM     55  N   UNL A   1      43.230  27.442  28.407  1.00  0.00    -0.354 N 
ATOM     56  C   UNL A   1      44.938  31.391  28.807  1.00  0.00     0.074 A 
ATOM     57  C   UNL A   1      43.991  32.306  29.404  1.00  0.00     0.031 C 
ATOM     58  C   UNL A   1      41.585  25.927  28.409  1.00  0.00     0.029 A 
ATOM     59  C   UNL A   1      42.979  26.142  28.034  1.00  0.00     0.049 A 
ATOM     60  H   UNL A   1      44.099  27.883  28.267  1.00  0.00     0.167 HD
ATOM     61  C   UNL A   1      46.189  31.740  28.422  1.00  0.00     0.037 A 
ATOM     62  C   UNL A   1      43.782  25.224  27.463  1.00  0.00     0.037 A 
ATOM     63  C   UNL A   1      47.156  30.808  27.915  1.00  0.00     0.049 A 
ATOM     64  C   UNL A   1      45.210  25.591  27.167  1.00  0.00     0.074 A 
ATOM     65  C   UNL A   1      48.485  31.026  27.604  1.00  0.00     0.029 A 
ATOM     66  N   UNL A   1      46.897  29.468  27.661  1.00  0.00    -0.354 N 
ATOM     67  N   UNL A   1      45.803  26.753  27.302  1.00  0.00    -0.248 NA
ATOM     68  C   UNL A   1      46.084  24.523  26.661  1.00  0.00     0.031 C 
ATOM     69  C   UNL A   1      49.028  29.819  27.148  1.00  0.00     0.029 A 
ATOM     70  C   UNL A   1      48.042  28.845  27.199  1.00  0.00     0.049 A 
ATOM     71  H   UNL A   1      46.026  29.027  27.791  1.00  0.00     0.167 HD
ATOM     72  C   UNL A   1      47.123  26.554  26.911  1.00  0.00     0.074 A 
ATOM     73  C   UNL A   1      47.244  25.155  26.550  1.00  0.00     0.031 C 
ATOM     74  C   UNL A   1      48.141  27.449  26.854  1.00  0.00     0.037 A 
BRANCH  61  75
ATOM     75  C   UNL A   1      46.566  33.188  28.569  1.00  0.00     0.058 A 
ATOM     76  C   UNL A   1      46.409  34.101  27.513  1.00  0.00     0.135 A 
ATOM     77  C   UNL A   1      47.140  33.659  29.760  1.00  0.00     0.135 A 
ATOM     78  F   UNL A   1      45.882  33.698  26.344  1.00  0.00    -0.206 F 
ATOM     79  C   UNL A   1      46.868  35.410  27.607  1.00  0.00     0.059 A 
ATOM     80  C   UNL A   1      47.577  34.975  29.888  1.00  0.00     0.059 A 
ATOM     81  F   UNL A   1      47.311  32.831  30.803  1.00  0.00    -0.206 F 
ATOM     82  C   UNL A   1      47.464  35.833  28.795  1.00  0.00     0.060 A 
BRANCH  82  83
ATOM     83  S   UNL A   1      48.108  37.516  28.889  1.00  0.00     0.124 S 
ATOM     84  O   UNL A   1      49.272  37.330  29.750  1.00  0.00    -0.237 OA
ATOM     85  O   UNL A   1      48.398  37.824  27.492  1.00  0.00    -0.237 OA
ATOM     86  O   UNL A   1      47.003  38.268  29.475  1.00  0.00    -0.744 OA
ENDBRANCH  82  83
ENDBRANCH  61  75
BRANCH  62  87
ATOM     87  C   UNL A   1      43.266  23.855  27.196  1.00  0.00     0.058 A 
ATOM     88  C   UNL A   1      43.037  23.416  25.883  1.00  0.00     0.135 A 
ATOM     89  C   UNL A   1      43.041  22.943  28.239  1.00  0.00     0.135 A 
ATOM     90  F   UNL A   1      43.232  24.254  24.854  1.00  0.00    -0.206 F 
ATOM     91  C   UNL A   1      42.601  22.123  25.611  1.00  0.00     0.059 A 
ATOM     92  C   UNL A   1      42.622  21.638  27.990  1.00  0.00     0.059 A 
ATOM     93  F   UNL A   1      43.263  23.309  29.511  1.00  0.00    -0.206 F 
ATOM     94  C   UNL A   1      42.403  21.239  26.672  1.00  0.00     0.060 A 
BRANCH  94  95
ATOM     95  S   UNL A   1      41.922  19.536  26.303  1.00  0.00     0.124 S 
ATOM     96  O   UNL A   1      40.472  19.654  26.208  1.00  0.00    -0.237 OA
ATOM     97  O   UNL A   1      42.625  19.282  25.050  1.00  0.00    -0.237 OA
ATOM     98  O   UNL A   1      42.422  18.791  27.455  1.00  0.00    -0.744 OA
ENDBRANCH  94  95
ENDBRANCH  62  87
BRANCH  74  99
ATOM     99  C   UNL A   1      49.479  26.941  26.405  1.00  0.00     0.058 A 
ATOM    100  C   UNL A   1      50.385  26.369  27.309  1.00  0.00     0.135 A 
ATOM    101  C   UNL A   1      49.827  26.965  25.045  1.00  0.00     0.135 A 
ATOM    102  F   UNL A   1      50.097  26.328  28.620  1.00  0.00    -0.206 F 
ATOM    103  C   UNL A   1      51.602  25.849  26.883  1.00  0.00     0.059 A 
ATOM    104  C   UNL A   1      51.031  26.432  24.594  1.00  0.00     0.059 A 
ATOM    105  F   UNL A   1      48.987  27.493  24.141  1.00  0.00    -0.206 F 
ATOM    106  C   UNL A   1      51.915  25.884  25.522  1.00  0.00     0.060 A 
BRANCH 106 107
ATOM    107  S   UNL A   1      53.477  25.168  24.972  1.00  0.00     0.124 S 
ATOM    108  O   UNL A   1      53.537  25.622  23.587  1.00  0.00    -0.237 OA
ATOM    109  O   UNL A   1      54.443  25.777  25.883  1.00  0.00    -0.237 OA
ATOM    110  O   UNL A   1      53.274  23.733  25.156  1.00  0.00    -0.744 OA
ENDBRANCH 106 107
ENDBRANCH  74  99
ENDBRANCH  48  49
ENDBRANCH  40  43
ENDBRANCH  38  39
ENDBRANCH  37  38
ENDBRANCH  36  37
ENDBRANCH   1  36
TORSDOF 22
ENDMDL
MODEL 2
REMARK VINA RESULT:     -12.5      5.845      8.381
REMARK SMILES C=C[C@@H]1[C@@H](O)C[C@H]2[C@]3(CC[C@]4(C)[C@@H]([C@H](C)CCC=C(C)C)CC[C@]24C)C[C@]13CCC(=O)NCCCCNC(=O)c1ccc(-c2c3nc(c(-c4c(F)cc(S(=O)(=O)[O-])cc4F)c4ccc([nH]4)c(-c4c(F)cc(S(=O)(=O)[O-])cc4F)c4nc(c(-c5c(F)cc(S(=O)(=O)[O-])cc5F)c5ccc2[nH]5)C=C4)C=C3)cc1
REMARK SMILES IDX 33 1 32 2 30 3 31 4 29 6 28 7 27 8 3 9 4 10 6 11 8 12 26 13
REMARK SMILES IDX 7 14 9 15 24 16 10 17 11 18 23 19 25 20 13 21 12 22 22 23
REMARK SMILES IDX 2 24 1 25 5 26 14 28 15 29 16 30 17 31 18 32 19 33 20 34
REMARK SMILES IDX 21 35 34 36 35 37 36 38 37 39 38 40 39 42 40 43 41 44 105 45
REMARK SMILES IDX 42 46 104 47 43 48 44 49 45 50 98 51 46 52 103 53 97 54
REMARK SMILES IDX 99 55 47 56 102 57 96 58 95 59 48 61 82 62 61 63 81 64 62 65
REMARK SMILES IDX 65 66 80 67 100 68 63 69 64 70 79 72 101 73 66 74 49 75
REMARK SMILES IDX 50 76 59 77 51 78 52 79 58 80 60 81 53 82 54 83 55 84 56 85
REMARK SMILES IDX 57 86 83 87 84 88 93 89 85 90 86 91 92 92 94 93 87 94 88 95
REMARK SMILES IDX 89 96 90 97 91 98 67 99 68 100 77 101 69 102 70 103 76 104
REMARK SMILES IDX 78 105 71 106 72 107 73 108 74 109 75 110
REMARK H PARENT 32 5 5 27 37 41 99 60 65 71
REMARK Flexibility Score: inf
ROOT
ATOM      1  C   UNL A   1      35.443  31.003  28.537  1.00  0.00     0.116 C 
ENDROOT
BRANCH   1   2
ATOM      2  N   UNL A   1      34.055  31.018  28.102  1.00  0.00    -0.356 N 
ATOM      3  C   UNL A   1      33.353  30.167  27.306  1.00  0.00     0.220 C 
ATOM      4  O   UNL A   1      32.229  30.512  26.934  1.00  0.00    -0.275 OA
ATOM      5  H   UNL A   1      33.531  31.778  28.443  1.00  0.00     0.163 HD
BRANCH   3   6
ATOM      6  C   UNL A   1      33.900  28.803  26.932  1.00  0.00     0.100 C 
BRANCH   6   7
ATOM      7  C   UNL A   1      33.921  28.538  25.423  1.00  0.00     0.018 C 
BRANCH   7   8
ATOM      8  C   UNL A   1      32.792  27.643  24.888  1.00  0.00    -0.014 C 
ATOM      9  C   UNL A   1      31.955  28.294  23.748  1.00  0.00     0.047 C 
ATOM     10  C   UNL A   1      31.640  27.318  22.586  1.00  0.00     0.122 C 
ATOM     11  C   UNL A   1      31.220  25.929  23.060  1.00  0.00     0.037 C 
ATOM     12  C   UNL A   1      32.973  26.085  24.918  1.00  0.00    -0.019 C 
ATOM     13  C   UNL A   1      32.062  26.766  25.873  1.00  0.00     0.016 C 
ATOM     14  C   UNL A   1      32.359  25.218  23.810  1.00  0.00     0.005 C 
ATOM     15  C   UNL A   1      34.174  25.430  25.578  1.00  0.00     0.008 C 
ATOM     16  C   UNL A   1      31.997  23.751  24.331  1.00  0.00    -0.023 C 
ATOM     17  C   UNL A   1      33.787  24.075  26.163  1.00  0.00     0.008 C 
ATOM     18  C   UNL A   1      33.212  23.094  25.130  1.00  0.00    -0.024 C 
ATOM     19  C   UNL A   1      31.870  22.776  23.117  1.00  0.00     0.008 C 
ATOM     20  C   UNL A   1      30.678  23.754  25.138  1.00  0.00     0.012 C 
ATOM     21  C   UNL A   1      34.179  22.795  23.944  1.00  0.00    -0.002 C 
ATOM     22  C   UNL A   1      32.748  21.814  25.877  1.00  0.00     0.012 C 
ATOM     23  C   UNL A   1      33.254  22.131  22.912  1.00  0.00     0.005 C 
BRANCH   9  24
ATOM     24  C   UNL A   1      30.740  29.088  24.222  1.00  0.00    -0.028 C 
ATOM     25  C   UNL A   1      29.852  29.788  23.504  1.00  0.00     0.004 C 
ENDBRANCH   9  24
BRANCH  10  26
ATOM     26  O   UNL A   1      32.771  27.193  21.709  1.00  0.00    -0.392 OA
ATOM     27  H   UNL A   1      32.875  28.010  21.198  1.00  0.00     0.210 HD
ENDBRANCH  10  26
BRANCH  21  28
ATOM     28  C   UNL A   1      35.601  22.166  24.037  1.00  0.00    -0.010 C 
ATOM     29  C   UNL A   1      35.804  20.953  24.944  1.00  0.00     0.008 C 
BRANCH  28  30
ATOM     30  C   UNL A   1      36.625  23.271  24.460  1.00  0.00     0.008 C 
BRANCH  30  31
ATOM     31  C   UNL A   1      37.627  22.850  25.540  1.00  0.00     0.027 C 
BRANCH  31  32
ATOM     32  C   UNL A   1      37.929  23.997  26.469  1.00  0.00    -0.028 C 
ATOM     33  C   UNL A   1      39.063  24.183  27.171  1.00  0.00    -0.080 C 
ATOM     34  C   UNL A   1      39.190  25.323  28.144  1.00  0.00     0.039 C 
ATOM     35  C   UNL A   1      40.253  23.267  27.093  1.00  0.00     0.039 C 
ENDBRANCH  31  32
ENDBRANCH  30  31
ENDBRANCH  28  30
ENDBRANCH  21  28
ENDBRANCH   7   8
ENDBRANCH   6   7
ENDBRANCH   3   6
ENDBRANCH   1   2
BRANCH   1  36
ATOM     36  C   UNL A   1      36.075  32.374  28.303  1.00  0.00     0.023 C 
BRANCH  36  37
ATOM     37  C   UNL A   1      35.168  33.470  27.789  1.00  0.00     0.023 C 
BRANCH  37  38
ATOM     38  C   UNL A   1      35.155  34.704  28.671  1.00  0.00     0.116 C 
BRANCH  38  39
ATOM     39  N   UNL A   1      33.843  35.076  29.209  1.00  0.00    -0.352 N 
ATOM     40  C   UNL A   1      33.408  34.980  30.518  1.00  0.00     0.251 C 
ATOM     41  H   UNL A   1      33.194  35.435  28.562  1.00  0.00     0.163 HD
ATOM     42  O   UNL A   1      32.275  35.323  30.840  1.00  0.00    -0.269 OA
BRANCH  40  43
ATOM     43  C   UNL A   1      34.334  34.387  31.506  1.00  0.00     0.039 A 
ATOM     44  C   UNL A   1      34.381  33.000  31.646  1.00  0.00     0.014 A 
ATOM     45  C   UNL A   1      35.309  35.198  32.084  1.00  0.00     0.014 A 
ATOM     46  C   UNL A   1      35.498  32.417  32.249  1.00  0.00     0.010 A 
ATOM     47  C   UNL A   1      36.477  34.610  32.544  1.00  0.00     0.010 A 
ATOM     48  C   UNL A   1      36.593  33.213  32.625  1.00  0.00    -0.014 A 
BRANCH  48  49
ATOM     49  C   UNL A   1      37.877  32.621  33.086  1.00  0.00     0.031 A 
ATOM     50  C   UNL A   1      38.360  32.894  34.487  1.00  0.00     0.074 A 
ATOM     51  C   UNL A   1      38.667  31.950  32.221  1.00  0.00     0.049 A 
ATOM     52  N   UNL A   1      39.505  32.593  35.041  1.00  0.00    -0.248 NA
ATOM     53  C   UNL A   1      37.462  33.672  35.356  1.00  0.00     0.031 C 
ATOM     54  C   UNL A   1      38.378  31.718  30.803  1.00  0.00     0.029 A 
ATOM     55  N   UNL A   1      39.890  31.353  32.406  1.00  0.00    -0.354 N 
ATOM     56  C   UNL A   1      39.483  33.191  36.295  1.00  0.00     0.074 A 
ATOM     57  C   UNL A   1      38.246  33.933  36.389  1.00  0.00     0.031 C 
ATOM     58  C   UNL A   1      39.374  30.998  30.259  1.00  0.00     0.029 A 
ATOM     59  C   UNL A   1      40.387  30.742  31.278  1.00  0.00     0.049 A 
ATOM     60  H   UNL A   1      40.367  31.360  33.267  1.00  0.00     0.167 HD
ATOM     61  C   UNL A   1      40.389  33.099  37.298  1.00  0.00     0.037 A 
ATOM     62  C   UNL A   1      41.525  30.047  31.088  1.00  0.00     0.037 A 
ATOM     63  C   UNL A   1      41.571  32.287  37.231  1.00  0.00     0.049 A 
ATOM     64  C   UNL A   1      42.454  29.840  32.251  1.00  0.00     0.074 A 
ATOM     65  C   UNL A   1      42.496  32.025  38.225  1.00  0.00     0.029 A 
ATOM     66  N   UNL A   1      41.980  31.586  36.105  1.00  0.00    -0.354 N 
ATOM     67  N   UNL A   1      42.371  30.332  33.465  1.00  0.00    -0.248 NA
ATOM     68  C   UNL A   1      43.619  28.972  32.031  1.00  0.00     0.031 C 
ATOM     69  C   UNL A   1      43.475  31.177  37.694  1.00  0.00     0.029 A 
ATOM     70  C   UNL A   1      43.143  30.891  36.378  1.00  0.00     0.049 A 
ATOM     71  H   UNL A   1      41.510  31.584  35.240  1.00  0.00     0.167 HD
ATOM     72  C   UNL A   1      43.464  29.823  34.157  1.00  0.00     0.074 A 
ATOM     73  C   UNL A   1      44.184  28.971  33.231  1.00  0.00     0.031 C 
ATOM     74  C   UNL A   1      43.838  30.042  35.442  1.00  0.00     0.037 A 
BRANCH  61  75
ATOM     75  C   UNL A   1      40.102  33.882  38.548  1.00  0.00     0.058 A 
ATOM     76  C   UNL A   1      40.732  35.111  38.809  1.00  0.00     0.135 A 
ATOM     77  C   UNL A   1      39.226  33.377  39.522  1.00  0.00     0.135 A 
ATOM     78  F   UNL A   1      41.594  35.630  37.919  1.00  0.00    -0.206 F 
ATOM     79  C   UNL A   1      40.559  35.776  40.017  1.00  0.00     0.059 A 
ATOM     80  C   UNL A   1      39.013  34.044  40.725  1.00  0.00     0.059 A 
ATOM     81  F   UNL A   1      38.594  32.210  39.324  1.00  0.00    -0.206 F 
ATOM     82  C   UNL A   1      39.708  35.227  40.975  1.00  0.00     0.060 A 
BRANCH  82  83
ATOM     83  S   UNL A   1      39.532  36.067  42.562  1.00  0.00     0.124 S 
ATOM     84  O   UNL A   1      39.580  37.468  42.153  1.00  0.00    -0.237 OA
ATOM     85  O   UNL A   1      38.235  35.590  43.033  1.00  0.00    -0.237 OA
ATOM     86  O   UNL A   1      40.683  35.593  43.324  1.00  0.00    -0.744 OA
ENDBRANCH  82  83
ENDBRANCH  61  75
BRANCH  62  87
ATOM     87  C   UNL A   1      41.809  29.446  29.757  1.00  0.00     0.058 A 
ATOM     88  C   UNL A   1      41.326  28.171  29.426  1.00  0.00     0.135 A 
ATOM     89  C   UNL A   1      42.523  30.150  28.775  1.00  0.00     0.135 A 
ATOM     90  F   UNL A   1      40.644  27.457  30.335  1.00  0.00    -0.206 F 
ATOM     91  C   UNL A   1      41.539  27.612  28.170  1.00  0.00     0.059 A 
ATOM     92  C   UNL A   1      42.734  29.619  27.505  1.00  0.00     0.059 A 
ATOM     93  F   UNL A   1      42.991  31.379  29.036  1.00  0.00    -0.206 F 
ATOM     94  C   UNL A   1      42.239  28.348  27.213  1.00  0.00     0.060 A 
BRANCH  94  95
ATOM     95  S   UNL A   1      42.436  27.651  25.557  1.00  0.00     0.124 S 
ATOM     96  O   UNL A   1      42.169  28.811  24.715  1.00  0.00    -0.237 OA
ATOM     97  O   UNL A   1      43.819  27.185  25.581  1.00  0.00    -0.237 OA
ATOM     98  O   UNL A   1      41.428  26.595  25.517  1.00  0.00    -0.744 OA
ENDBRANCH  94  95
ENDBRANCH  62  87
BRANCH  74  99
ATOM     99  C   UNL A   1      45.069  29.337  35.931  1.00  0.00     0.058 A 
ATOM    100  C   UNL A   1      45.002  28.052  36.489  1.00  0.00     0.135 A 
ATOM    101  C   UNL A   1      46.334  29.925  35.774  1.00  0.00     0.135 A 
ATOM    102  F   UNL A   1      43.814  27.451  36.661  1.00  0.00    -0.206 F 
ATOM    103  C   UNL A   1      46.149  27.377  36.890  1.00  0.00     0.059 A 
ATOM    104  C   UNL A   1      47.496  29.260  36.150  1.00  0.00     0.059 A 
ATOM    105  F   UNL A   1      46.448  31.149  35.235  1.00  0.00    -0.206 F 
ATOM    106  C   UNL A   1      47.393  27.989  36.716  1.00  0.00     0.060 A 
BRANCH 106 107
ATOM    107  S   UNL A   1      48.880  27.088  37.199  1.00  0.00     0.124 S 
ATOM    108  O   UNL A   1      49.873  28.156  37.228  1.00  0.00    -0.237 OA
ATOM    109  O   UNL A   1      48.505  26.534  38.497  1.00  0.00    -0.237 OA
ATOM    110  O   UNL A   1      49.041  26.106  36.130  1.00  0.00    -0.744 OA
ENDBRANCH 106 107
ENDBRANCH  74  99
ENDBRANCH  48  49
ENDBRANCH  40  43
ENDBRANCH  38  39
ENDBRANCH  37  38
ENDBRANCH  36  37
ENDBRANCH   1  36
TORSDOF 22
ENDMDL
MODEL 3
REMARK VINA RESULT:     -11.5      1.171      7.715
REMARK SMILES C=C[C@@H]1[C@@H](O)C[C@H]2[C@]3(CC[C@]4(C)[C@@H]([C@H](C)CCC=C(C)C)CC[C@]24C)C[C@]13CCC(=O)NCCCCNC(=O)c1ccc(-c2c3nc(c(-c4c(F)cc(S(=O)(=O)[O-])cc4F)c4ccc([nH]4)c(-c4c(F)cc(S(=O)(=O)[O-])cc4F)c4nc(c(-c5c(F)cc(S(=O)(=O)[O-])cc5F)c5ccc2[nH]5)C=C4)C=C3)cc1
REMARK SMILES IDX 33 1 32 2 30 3 31 4 29 6 28 7 27 8 3 9 4 10 6 11 8 12 26 13
REMARK SMILES IDX 7 14 9 15 24 16 10 17 11 18 23 19 25 20 13 21 12 22 22 23
REMARK SMILES IDX 2 24 1 25 5 26 14 28 15 29 16 30 17 31 18 32 19 33 20 34
REMARK SMILES IDX 21 35 34 36 35 37 36 38 37 39 38 40 39 42 40 43 41 44 105 45
REMARK SMILES IDX 42 46 104 47 43 48 44 49 45 50 98 51 46 52 103 53 97 54
REMARK SMILES IDX 99 55 47 56 102 57 96 58 95 59 48 61 82 62 61 63 81 64 62 65
REMARK SMILES IDX 65 66 80 67 100 68 63 69 64 70 79 72 101 73 66 74 49 75
REMARK SMILES IDX 50 76 59 77 51 78 52 79 58 80 60 81 53 82 54 83 55 84 56 85
REMARK SMILES IDX 57 86 83 87 84 88 93 89 85 90 86 91 92 92 94 93 87 94 88 95
REMARK SMILES IDX 89 96 90 97 91 98 67 99 68 100 77 101 69 102 70 103 76 104
REMARK SMILES IDX 78 105 71 106 72 107 73 108 74 109 75 110
REMARK H PARENT 32 5 5 27 37 41 99 60 65 71
REMARK Flexibility Score: inf
ROOT
ATOM      1  C   UNL A   1      34.652  31.647  28.053  1.00  0.00     0.116 C 
ENDROOT
BRANCH   1   2
ATOM      2  N   UNL A   1      33.277  31.596  27.580  1.00  0.00    -0.356 N 
ATOM      3  C   UNL A   1      32.588  30.626  26.920  1.00  0.00     0.220 C 
ATOM      4  O   UNL A   1      31.479  30.911  26.462  1.00  0.00    -0.275 OA
ATOM      5  H   UNL A   1      32.752  32.407  27.771  1.00  0.00     0.163 HD
BRANCH   3   6
ATOM      6  C   UNL A   1      33.129  29.216  26.801  1.00  0.00     0.100 C 
BRANCH   6   7
ATOM      7  C   UNL A   1      33.626  28.861  25.396  1.00  0.00     0.018 C 
BRANCH   7   8
ATOM      8  C   UNL A   1      32.722  27.918  24.587  1.00  0.00    -0.014 C 
ATOM      9  C   UNL A   1      32.255  28.505  23.223  1.00  0.00     0.047 C 
ATOM     10  C   UNL A   1      32.316  27.480  22.062  1.00  0.00     0.122 C 
ATOM     11  C   UNL A   1      31.794  26.098  22.447  1.00  0.00     0.037 C 
ATOM     12  C   UNL A   1      32.910  26.367  24.734  1.00  0.00    -0.019 C 
ATOM     13  C   UNL A   1      31.745  27.057  25.346  1.00  0.00     0.016 C 
ATOM     14  C   UNL A   1      32.668  25.445  23.531  1.00  0.00     0.005 C 
ATOM     15  C   UNL A   1      33.868  25.768  25.749  1.00  0.00     0.008 C 
ATOM     16  C   UNL A   1      32.189  23.988  23.982  1.00  0.00    -0.023 C 
ATOM     17  C   UNL A   1      33.344  24.425  26.249  1.00  0.00     0.008 C 
ATOM     18  C   UNL A   1      33.119  23.393  25.133  1.00  0.00    -0.024 C 
ATOM     19  C   UNL A   1      32.444  22.968  22.827  1.00  0.00     0.008 C 
ATOM     20  C   UNL A   1      30.689  23.985  24.359  1.00  0.00     0.012 C 
ATOM     21  C   UNL A   1      34.400  23.079  24.303  1.00  0.00    -0.002 C 
ATOM     22  C   UNL A   1      32.473  22.128  25.761  1.00  0.00     0.012 C 
ATOM     23  C   UNL A   1      33.836  22.353  23.071  1.00  0.00     0.005 C 
BRANCH   9  24
ATOM     24  C   UNL A   1      30.942  29.283  23.280  1.00  0.00    -0.028 C 
ATOM     25  C   UNL A   1      29.685  28.823  23.327  1.00  0.00     0.004 C 
ENDBRANCH   9  24
BRANCH  10  26
ATOM     26  O   UNL A   1      33.659  27.355  21.568  1.00  0.00    -0.392 OA
ATOM     27  H   UNL A   1      34.272  27.779  22.188  1.00  0.00     0.210 HD
ENDBRANCH  10  26
BRANCH  21  28
ATOM     28  C   UNL A   1      35.739  22.491  24.841  1.00  0.00    -0.010 C 
ATOM     29  C   UNL A   1      36.849  22.172  23.840  1.00  0.00     0.008 C 
BRANCH  28  30
ATOM     30  C   UNL A   1      35.437  21.196  25.667  1.00  0.00     0.008 C 
BRANCH  30  31
ATOM     31  C   UNL A   1      35.653  19.880  24.913  1.00  0.00     0.027 C 
BRANCH  31  32
ATOM     32  C   UNL A   1      34.334  19.244  24.556  1.00  0.00    -0.028 C 
ATOM     33  C   UNL A   1      34.078  17.925  24.467  1.00  0.00    -0.080 C 
ATOM     34  C   UNL A   1      32.738  17.430  23.998  1.00  0.00     0.039 C 
ATOM     35  C   UNL A   1      35.093  16.855  24.764  1.00  0.00     0.039 C 
ENDBRANCH  31  32
ENDBRANCH  30  31
ENDBRANCH  28  30
ENDBRANCH  21  28
ENDBRANCH   7   8
ENDBRANCH   6   7
ENDBRANCH   3   6
ENDBRANCH   1   2
BRANCH   1  36
ATOM     36  C   UNL A   1      34.753  32.579  29.258  1.00  0.00     0.023 C 
BRANCH  36  37
ATOM     37  C   UNL A   1      36.013  32.494  30.090  1.00  0.00     0.023 C 
BRANCH  37  38
ATOM     38  C   UNL A   1      36.094  31.236  30.933  1.00  0.00     0.116 C 
BRANCH  38  39
ATOM     39  N   UNL A   1      36.680  31.411  32.266  1.00  0.00    -0.352 N 
ATOM     40  C   UNL A   1      37.966  31.108  32.670  1.00  0.00     0.251 C 
ATOM     41  H   UNL A   1      36.086  31.789  32.954  1.00  0.00     0.163 HD
ATOM     42  O   UNL A   1      38.333  31.299  33.825  1.00  0.00    -0.269 OA
BRANCH  40  43
ATOM     43  C   UNL A   1      38.867  30.482  31.679  1.00  0.00     0.039 A 
ATOM     44  C   UNL A   1      39.355  31.252  30.623  1.00  0.00     0.014 A 
ATOM     45  C   UNL A   1      39.406  29.228  31.959  1.00  0.00     0.014 A 
ATOM     46  C   UNL A   1      40.490  30.818  29.935  1.00  0.00     0.010 A 
ATOM     47  C   UNL A   1      40.614  28.878  31.377  1.00  0.00     0.010 A 
ATOM     48  C   UNL A   1      41.179  29.671  30.364  1.00  0.00    -0.014 A 
BRANCH  48  49
ATOM     49  C   UNL A   1      42.496  29.282  29.793  1.00  0.00     0.031 A 
ATOM     50  C   UNL A   1      42.644  27.947  29.110  1.00  0.00     0.074 A 
ATOM     51  C   UNL A   1      43.581  30.058  29.995  1.00  0.00     0.049 A 
ATOM     52  N   UNL A   1      43.725  27.359  28.668  1.00  0.00    -0.248 NA
ATOM     53  C   UNL A   1      41.423  27.137  28.969  1.00  0.00     0.031 C 
ATOM     54  C   UNL A   1      43.605  31.317  30.745  1.00  0.00     0.029 A 
ATOM     55  N   UNL A   1      44.885  29.892  29.598  1.00  0.00    -0.354 N 
ATOM     56  C   UNL A   1      43.321  26.096  28.253  1.00  0.00     0.074 A 
ATOM     57  C   UNL A   1      41.914  25.977  28.565  1.00  0.00     0.031 C 
ATOM     58  C   UNL A   1      44.848  31.825  30.722  1.00  0.00     0.029 A 
ATOM     59  C   UNL A   1      45.719  30.918  29.982  1.00  0.00     0.049 A 
ATOM     60  H   UNL A   1      45.196  29.112  29.085  1.00  0.00     0.167 HD
ATOM     61  C   UNL A   1      44.041  25.134  27.629  1.00  0.00     0.037 A 
ATOM     62  C   UNL A   1      47.033  31.109  29.756  1.00  0.00     0.037 A 
ATOM     63  C   UNL A   1      45.415  25.294  27.241  1.00  0.00     0.049 A 
ATOM     64  C   UNL A   1      47.787  30.093  28.943  1.00  0.00     0.074 A 
ATOM     65  C   UNL A   1      46.209  24.436  26.503  1.00  0.00     0.029 A 
ATOM     66  N   UNL A   1      46.194  26.401  27.546  1.00  0.00    -0.354 N 
ATOM     67  N   UNL A   1      47.366  28.944  28.471  1.00  0.00    -0.248 NA
ATOM     68  C   UNL A   1      49.186  30.403  28.616  1.00  0.00     0.031 C 
ATOM     69  C   UNL A   1      47.475  25.018  26.374  1.00  0.00     0.029 A 
ATOM     70  C   UNL A   1      47.459  26.250  27.011  1.00  0.00     0.049 A 
ATOM     71  H   UNL A   1      45.889  27.179  28.067  1.00  0.00     0.167 HD
ATOM     72  C   UNL A   1      48.442  28.401  27.778  1.00  0.00     0.074 A 
ATOM     73  C   UNL A   1      49.528  29.355  27.880  1.00  0.00     0.031 C 
ATOM     74  C   UNL A   1      48.523  27.218  27.119  1.00  0.00     0.037 A 
BRANCH  61  75
ATOM     75  C   UNL A   1      43.331  23.847  27.316  1.00  0.00     0.058 A 
ATOM     76  C   UNL A   1      42.809  23.586  26.037  1.00  0.00     0.135 A 
ATOM     77  C   UNL A   1      43.124  22.884  28.315  1.00  0.00     0.135 A 
ATOM     78  F   UNL A   1      42.962  24.482  25.049  1.00  0.00    -0.206 F 
ATOM     79  C   UNL A   1      42.049  22.451  25.779  1.00  0.00     0.059 A 
ATOM     80  C   UNL A   1      42.394  21.724  28.070  1.00  0.00     0.059 A 
ATOM     81  F   UNL A   1      43.605  23.080  29.554  1.00  0.00    -0.206 F 
ATOM     82  C   UNL A   1      41.836  21.533  26.807  1.00  0.00     0.060 A 
BRANCH  82  83
ATOM     83  S   UNL A   1      40.801  20.090  26.479  1.00  0.00     0.124 S 
ATOM     84  O   UNL A   1      39.566  20.721  26.022  1.00  0.00    -0.237 OA
ATOM     85  O   UNL A   1      41.563  19.379  25.457  1.00  0.00    -0.237 OA
ATOM     86  O   UNL A   1      40.728  19.426  27.776  1.00  0.00    -0.744 OA
ENDBRANCH  82  83
ENDBRANCH  61  75
BRANCH  62  87
ATOM     87  C   UNL A   1      47.696  32.343  30.256  1.00  0.00     0.058 A 
ATOM     88  C   UNL A   1      48.370  32.349  31.486  1.00  0.00     0.135 A 
ATOM     89  C   UNL A   1      47.713  33.522  29.495  1.00  0.00     0.135 A 
ATOM     90  F   UNL A   1      48.376  31.248  32.252  1.00  0.00    -0.206 F 
ATOM     91  C   UNL A   1      49.037  33.480  31.947  1.00  0.00     0.059 A 
ATOM     92  C   UNL A   1      48.389  34.660  29.927  1.00  0.00     0.059 A 
ATOM     93  F   UNL A   1      47.098  33.562  28.303  1.00  0.00    -0.206 F 
ATOM     94  C   UNL A   1      49.047  34.630  31.156  1.00  0.00     0.060 A 
BRANCH  94  95
ATOM     95  S   UNL A   1      49.989  36.064  31.723  1.00  0.00     0.124 S 
ATOM     96  O   UNL A   1      51.193  35.435  32.253  1.00  0.00    -0.237 OA
ATOM     97  O   UNL A   1      50.158  36.827  30.490  1.00  0.00    -0.237 OA
ATOM     98  O   UNL A   1      49.106  36.675  32.712  1.00  0.00    -0.744 OA
ENDBRANCH  94  95
ENDBRANCH  62  87
BRANCH  74  99
ATOM     99  C   UNL A   1      49.821  26.896  26.440  1.00  0.00     0.058 A 
ATOM    100  C   UNL A   1      50.860  26.245  27.121  1.00  0.00     0.135 A 
ATOM    101  C   UNL A   1      50.000  27.180  25.077  1.00  0.00     0.135 A 
ATOM    102  F   UNL A   1      50.736  25.956  28.426  1.00  0.00    -0.206 F 
ATOM    103  C   UNL A   1      52.042  25.897  26.476  1.00  0.00     0.059 A 
ATOM    104  C   UNL A   1      51.166  26.824  24.407  1.00  0.00     0.059 A 
ATOM    105  F   UNL A   1      49.030  27.793  24.381  1.00  0.00    -0.206 F 
ATOM    106  C   UNL A   1      52.185  26.190  25.118  1.00  0.00     0.060 A 
BRANCH 106 107
ATOM    107  S   UNL A   1      53.704  25.697  24.278  1.00  0.00     0.124 S 
ATOM    108  O   UNL A   1      53.798  24.288  24.646  1.00  0.00    -0.237 OA
ATOM    109  O   UNL A   1      53.393  25.967  22.878  1.00  0.00    -0.237 OA
ATOM    110  O   UNL A   1      54.715  26.571  24.868  1.00  0.00    -0.744 OA
ENDBRANCH 106 107
ENDBRANCH  74  99
ENDBRANCH  48  49
ENDBRANCH  40  43
ENDBRANCH  38  39
ENDBRANCH  37  38
ENDBRANCH  36  37
ENDBRANCH   1  36
TORSDOF 22
ENDMDL
