MODEL 1
REMARK VINA RESULT:     -12.9      0.000      0.000
REMARK SMILES COc1ccc(NC2=[NH+]C(=O)/C(=C\c3ccccc3C(=O)NCCCCNC(=O)c3ccc(-c4c5nc(c(-c6c(F)cc(S(=O)(=O)[O-])cc6F)c6ccc([nH]6)c(-c6c(F)cc(S(=O)(=O)[O-])cc6F)c6nc(c(-c7c(F)cc(S(=O)(=O)[O-])cc7F)c7ccc4[nH]7)C=C6)C=C5)cc3)S2)cc1
REMARK SMILES IDX 24 1 23 2 22 3 20 4 21 5 19 7 14 8 15 9 16 10 18 11 17 12
REMARK SMILES IDX 13 13 7 14 8 15 9 17 96 18 10 19 12 21 11 22 6 23 3 24 4 25
REMARK SMILES IDX 98 26 5 27 97 28 2 29 1 30 25 31 26 32 27 33 28 34 29 36
REMARK SMILES IDX 30 37 31 38 95 39 32 40 94 41 33 42 34 43 35 44 88 45 36 46
REMARK SMILES IDX 93 47 87 48 89 49 37 50 92 51 86 52 85 53 38 55 72 56 51 57
REMARK SMILES IDX 71 58 52 59 55 60 70 61 90 62 53 63 54 64 69 66 91 67 56 68
REMARK SMILES IDX 39 69 40 70 49 71 41 72 42 73 48 74 50 75 43 76 44 77 45 78
REMARK SMILES IDX 46 79 47 80 73 81 74 82 83 83 75 84 76 85 82 86 84 87 77 88
REMARK SMILES IDX 78 89 79 90 80 91 81 92 57 93 58 94 67 95 59 96 60 97 66 98
REMARK SMILES IDX 68 99 61 100 62 101 63 102 64 103 65 104
REMARK H PARENT 22 6 7 16 9 20 27 35 89 54 55 65
REMARK Flexibility Score: inf
ROOT
ATOM      1  C   UNL A   1      32.014  30.078  26.859  1.00  0.00     0.023 C 
ENDROOT
BRANCH   1   2
ATOM      2  C   UNL A   1      33.330  29.410  26.467  1.00  0.00     0.116 C 
BRANCH   2   3
ATOM      3  N   UNL A   1      33.671  29.484  25.062  1.00  0.00    -0.352 N 
ATOM      4  C   UNL A   1      33.153  28.812  23.973  1.00  0.00     0.251 C 
ATOM      5  O   UNL A   1      33.667  29.036  22.876  1.00  0.00    -0.269 OA
ATOM      6  H   UNL A   1      34.393  30.119  24.847  1.00  0.00     0.163 HD
BRANCH   4   7
ATOM      7  C   UNL A   1      32.085  27.765  24.070  1.00  0.00     0.047 A 
ATOM      8  C   UNL A   1      32.224  26.447  24.560  1.00  0.00    -0.011 A 
ATOM      9  C   UNL A   1      31.128  25.566  24.453  1.00  0.00     0.009 A 
ATOM     10  C   UNL A   1      29.887  26.002  23.984  1.00  0.00     0.001 A 
ATOM     11  C   UNL A   1      30.808  28.201  23.660  1.00  0.00     0.014 A 
ATOM     12  C   UNL A   1      29.717  27.332  23.624  1.00  0.00     0.001 A 
BRANCH   8  13
ATOM     13  C   UNL A   1      33.421  25.875  25.200  1.00  0.00     0.032 C 
ATOM     14  N   UNL A   1      35.671  21.522  24.899  1.00  0.00    -0.235 N 
ATOM     15  C   UNL A   1      35.186  22.721  24.475  1.00  0.00     0.322 C 
ATOM     16  H   UNL A   1      36.607  21.493  25.206  1.00  0.00     0.313 HD
ATOM     17  N   UNL A   1      34.509  22.976  23.404  1.00  0.00    -0.199 N 
ATOM     18  S   UNL A   1      35.438  24.089  25.556  1.00  0.00     0.006 SA
ATOM     19  C   UNL A   1      34.095  24.284  23.338  1.00  0.00     0.346 C 
ATOM     20  H   UNL A   1      34.311  22.305  22.712  1.00  0.00     0.316 HD
ATOM     21  C   UNL A   1      34.218  24.935  24.673  1.00  0.00     0.110 C 
ATOM     22  O   UNL A   1      33.704  24.864  22.335  1.00  0.00    -0.240 OA
BRANCH  14  23
ATOM     23  C   UNL A   1      34.940  20.318  24.933  1.00  0.00     0.125 A 
ATOM     24  C   UNL A   1      33.352  18.001  24.768  1.00  0.00     0.119 A 
ATOM     25  C   UNL A   1      34.708  17.936  24.473  1.00  0.00     0.051 A 
ATOM     26  C   UNL A   1      32.809  19.183  25.263  1.00  0.00     0.051 A 
ATOM     27  C   UNL A   1      35.501  19.082  24.582  1.00  0.00     0.055 A 
ATOM     28  C   UNL A   1      33.595  20.341  25.325  1.00  0.00     0.055 A 
BRANCH  24  29
ATOM     29  O   UNL A   1      32.622  16.855  24.617  1.00  0.00    -0.497 OA
ATOM     30  C   UNL A   1      33.277  15.716  25.181  1.00  0.00     0.278 C 
ENDBRANCH  24  29
ENDBRANCH  14  23
ENDBRANCH   8  13
ENDBRANCH   4   7
ENDBRANCH   2   3
ENDBRANCH   1   2
BRANCH   1  31
ATOM     31  C   UNL A   1      31.911  31.595  26.656  1.00  0.00     0.023 C 
BRANCH  31  32
ATOM     32  C   UNL A   1      32.970  32.485  27.315  1.00  0.00     0.116 C 
BRANCH  32  33
ATOM     33  N   UNL A   1      32.531  33.830  27.653  1.00  0.00    -0.352 N 
ATOM     34  C   UNL A   1      33.037  34.726  28.577  1.00  0.00     0.251 C 
ATOM     35  H   UNL A   1      31.751  34.154  27.146  1.00  0.00     0.163 HD
ATOM     36  O   UNL A   1      32.516  35.833  28.687  1.00  0.00    -0.269 OA
BRANCH  34  37
ATOM     37  C   UNL A   1      34.176  34.367  29.461  1.00  0.00     0.039 A 
ATOM     38  C   UNL A   1      33.928  33.989  30.786  1.00  0.00     0.014 A 
ATOM     39  C   UNL A   1      35.492  34.407  29.012  1.00  0.00     0.014 A 
ATOM     40  C   UNL A   1      34.976  33.536  31.608  1.00  0.00     0.010 A 
ATOM     41  C   UNL A   1      36.519  33.902  29.815  1.00  0.00     0.010 A 
ATOM     42  C   UNL A   1      36.283  33.414  31.108  1.00  0.00    -0.014 A 
BRANCH  42  43
ATOM     43  C   UNL A   1      37.373  32.685  31.846  1.00  0.00     0.031 A 
ATOM     44  C   UNL A   1      37.946  33.193  33.155  1.00  0.00     0.074 A 
ATOM     45  C   UNL A   1      38.006  31.649  31.246  1.00  0.00     0.049 A 
ATOM     46  N   UNL A   1      38.971  32.745  33.841  1.00  0.00    -0.248 NA
ATOM     47  C   UNL A   1      37.330  34.395  33.736  1.00  0.00     0.031 C 
ATOM     48  C   UNL A   1      37.704  31.123  29.913  1.00  0.00     0.029 A 
ATOM     49  N   UNL A   1      39.071  30.881  31.662  1.00  0.00    -0.354 N 
ATOM     50  C   UNL A   1      39.132  33.615  34.916  1.00  0.00     0.074 A 
ATOM     51  C   UNL A   1      38.155  34.668  34.738  1.00  0.00     0.031 C 
ATOM     52  C   UNL A   1      38.551  30.123  29.626  1.00  0.00     0.029 A 
ATOM     53  C   UNL A   1      39.474  29.940  30.741  1.00  0.00     0.049 A 
ATOM     54  H   UNL A   1      39.506  30.995  32.539  1.00  0.00     0.167 HD
ATOM     55  C   UNL A   1      39.974  33.530  35.980  1.00  0.00     0.037 A 
ATOM     56  C   UNL A   1      40.463  29.025  30.775  1.00  0.00     0.037 A 
ATOM     57  C   UNL A   1      40.901  32.448  36.209  1.00  0.00     0.049 A 
ATOM     58  C   UNL A   1      41.321  28.880  32.000  1.00  0.00     0.074 A 
ATOM     59  C   UNL A   1      41.668  32.196  37.336  1.00  0.00     0.029 A 
ATOM     60  N   UNL A   1      41.191  31.440  35.305  1.00  0.00    -0.354 N 
ATOM     61  N   UNL A   1      41.346  29.624  33.079  1.00  0.00    -0.248 NA
ATOM     62  C   UNL A   1      42.260  27.750  32.026  1.00  0.00     0.031 C 
ATOM     63  C   UNL A   1      42.441  31.052  37.104  1.00  0.00     0.029 A 
ATOM     64  C   UNL A   1      42.123  30.566  35.848  1.00  0.00     0.049 A 
ATOM     65  H   UNL A   1      40.794  31.354  34.408  1.00  0.00     0.167 HD
ATOM     66  C   UNL A   1      42.262  29.016  33.933  1.00  0.00     0.074 A 
ATOM     67  C   UNL A   1      42.774  27.852  33.243  1.00  0.00     0.031 C 
ATOM     68  C   UNL A   1      42.625  29.389  35.185  1.00  0.00     0.037 A 
BRANCH  55  69
ATOM     69  C   UNL A   1      39.886  34.603  37.037  1.00  0.00     0.058 A 
ATOM     70  C   UNL A   1      40.686  35.758  36.973  1.00  0.00     0.135 A 
ATOM     71  C   UNL A   1      38.948  34.522  38.080  1.00  0.00     0.135 A 
ATOM     72  F   UNL A   1      41.598  35.895  35.997  1.00  0.00    -0.206 F 
ATOM     73  C   UNL A   1      40.593  36.765  37.926  1.00  0.00     0.059 A 
ATOM     74  C   UNL A   1      38.812  35.537  39.025  1.00  0.00     0.059 A 
ATOM     75  F   UNL A   1      38.142  33.453  38.184  1.00  0.00    -0.206 F 
ATOM     76  C   UNL A   1      39.653  36.646  38.949  1.00  0.00     0.060 A 
BRANCH  76  77
ATOM     77  S   UNL A   1      39.543  37.971  40.171  1.00  0.00     0.124 S 
ATOM     78  O   UNL A   1      39.389  37.210  41.407  1.00  0.00    -0.237 OA
ATOM     79  O   UNL A   1      40.822  38.656  40.005  1.00  0.00    -0.237 OA
ATOM     80  O   UNL A   1      38.370  38.728  39.747  1.00  0.00    -0.744 OA
ENDBRANCH  76  77
ENDBRANCH  55  69
BRANCH  56  81
ATOM     81  C   UNL A   1      40.651  28.104  29.623  1.00  0.00     0.058 A 
ATOM     82  C   UNL A   1      39.839  26.969  29.475  1.00  0.00     0.135 A 
ATOM     83  C   UNL A   1      41.633  28.341  28.651  1.00  0.00     0.135 A 
ATOM     84  F   UNL A   1      38.891  26.703  30.386  1.00  0.00    -0.206 F 
ATOM     85  C   UNL A   1      40.009  26.087  28.416  1.00  0.00     0.059 A 
ATOM     86  C   UNL A   1      41.808  27.484  27.569  1.00  0.00     0.059 A 
ATOM     87  F   UNL A   1      42.417  29.427  28.738  1.00  0.00    -0.206 F 
ATOM     88  C   UNL A   1      40.996  26.353  27.466  1.00  0.00     0.060 A 
BRANCH  88  89
ATOM     89  S   UNL A   1      41.171  25.222  26.070  1.00  0.00     0.124 S 
ATOM     90  O   UNL A   1      39.803  24.748  25.903  1.00  0.00    -0.237 OA
ATOM     91  O   UNL A   1      41.674  26.106  25.023  1.00  0.00    -0.237 OA
ATOM     92  O   UNL A   1      42.128  24.234  26.557  1.00  0.00    -0.744 OA
ENDBRANCH  88  89
ENDBRANCH  56  81
BRANCH  68  93
ATOM     93  C   UNL A   1      43.561  28.483  35.940  1.00  0.00     0.058 A 
ATOM     94  C   UNL A   1      44.952  28.672  35.942  1.00  0.00     0.135 A 
ATOM     95  C   UNL A   1      43.049  27.409  36.689  1.00  0.00     0.135 A 
ATOM     96  F   UNL A   1      45.498  29.677  35.238  1.00  0.00    -0.206 F 
ATOM     97  C   UNL A   1      45.804  27.810  36.628  1.00  0.00     0.059 A 
ATOM     98  C   UNL A   1      43.879  26.552  37.404  1.00  0.00     0.059 A 
ATOM     99  F   UNL A   1      41.726  27.186  36.732  1.00  0.00    -0.206 F 
ATOM    100  C   UNL A   1      45.258  26.749  37.354  1.00  0.00     0.060 A 
BRANCH 100 101
ATOM    101  S   UNL A   1      46.369  25.639  38.245  1.00  0.00     0.124 S 
ATOM    102  O   UNL A   1      46.556  24.567  37.272  1.00  0.00    -0.237 OA
ATOM    103  O   UNL A   1      47.533  26.486  38.486  1.00  0.00    -0.237 OA
ATOM    104  O   UNL A   1      45.607  25.279  39.437  1.00  0.00    -0.744 OA
ENDBRANCH 100 101
ENDBRANCH  68  93
ENDBRANCH  42  43
ENDBRANCH  34  37
ENDBRANCH  32  33
ENDBRANCH  31  32
ENDBRANCH   1  31
TORSDOF 17
ENDMDL
MODEL 2
REMARK VINA RESULT:     -12.5      5.892      8.135
REMARK SMILES COc1ccc(NC2=[NH+]C(=O)/C(=C\c3ccccc3C(=O)NCCCCNC(=O)c3ccc(-c4c5nc(c(-c6c(F)cc(S(=O)(=O)[O-])cc6F)c6ccc([nH]6)c(-c6c(F)cc(S(=O)(=O)[O-])cc6F)c6nc(c(-c7c(F)cc(S(=O)(=O)[O-])cc7F)c7ccc4[nH]7)C=C6)C=C5)cc3)S2)cc1
REMARK SMILES IDX 24 1 23 2 22 3 20 4 21 5 19 7 14 8 15 9 16 10 18 11 17 12
REMARK SMILES IDX 13 13 7 14 8 15 9 17 96 18 10 19 12 21 11 22 6 23 3 24 4 25
REMARK SMILES IDX 98 26 5 27 97 28 2 29 1 30 25 31 26 32 27 33 28 34 29 36
REMARK SMILES IDX 30 37 31 38 95 39 32 40 94 41 33 42 34 43 35 44 88 45 36 46
REMARK SMILES IDX 93 47 87 48 89 49 37 50 92 51 86 52 85 53 38 55 72 56 51 57
REMARK SMILES IDX 71 58 52 59 55 60 70 61 90 62 53 63 54 64 69 66 91 67 56 68
REMARK SMILES IDX 39 69 40 70 49 71 41 72 42 73 48 74 50 75 43 76 44 77 45 78
REMARK SMILES IDX 46 79 47 80 73 81 74 82 83 83 75 84 76 85 82 86 84 87 77 88
REMARK SMILES IDX 78 89 79 90 80 91 81 92 57 93 58 94 67 95 59 96 60 97 66 98
REMARK SMILES IDX 68 99 61 100 62 101 63 102 64 103 65 104
REMARK H PARENT 22 6 7 16 9 20 27 35 89 54 55 65
REMARK Flexibility Score: inf
ROOT
ATOM      1  C   UNL A   1      33.142  30.691  27.109  1.00  0.00     0.023 C 
ENDROOT
BRANCH   1   2
ATOM      2  C   UNL A   1      33.699  29.333  26.686  1.00  0.00     0.116 C 
BRANCH   2   3
ATOM      3  N   UNL A   1      34.147  29.246  25.312  1.00  0.00    -0.352 N 
ATOM      4  C   UNL A   1      33.668  28.501  24.254  1.00  0.00     0.251 C 
ATOM      5  O   UNL A   1      34.276  28.584  23.186  1.00  0.00    -0.269 OA
ATOM      6  H   UNL A   1      34.923  29.813  25.097  1.00  0.00     0.163 HD
BRANCH   4   7
ATOM      7  C   UNL A   1      32.529  27.533  24.364  1.00  0.00     0.047 A 
ATOM      8  C   UNL A   1      32.572  26.219  24.883  1.00  0.00    -0.011 A 
ATOM      9  C   UNL A   1      31.417  25.416  24.785  1.00  0.00     0.009 A 
ATOM     10  C   UNL A   1      30.214  25.927  24.295  1.00  0.00     0.001 A 
ATOM     11  C   UNL A   1      31.289  28.048  23.933  1.00  0.00     0.014 A 
ATOM     12  C   UNL A   1      30.140  27.256  23.905  1.00  0.00     0.001 A 
BRANCH   8  13
ATOM     13  C   UNL A   1      33.720  25.580  25.546  1.00  0.00     0.032 C 
ATOM     14  N   UNL A   1      35.926  21.222  25.048  1.00  0.00    -0.235 N 
ATOM     15  C   UNL A   1      35.482  22.458  24.688  1.00  0.00     0.322 C 
ATOM     16  H   UNL A   1      36.841  21.153  25.405  1.00  0.00     0.313 HD
ATOM     17  N   UNL A   1      34.873  22.804  23.603  1.00  0.00    -0.199 N 
ATOM     18  S   UNL A   1      35.689  23.737  25.882  1.00  0.00     0.006 SA
ATOM     19  C   UNL A   1      34.482  24.121  23.611  1.00  0.00     0.346 C 
ATOM     20  H   UNL A   1      34.708  22.191  22.851  1.00  0.00     0.316 HD
ATOM     21  C   UNL A   1      34.534  24.667  24.996  1.00  0.00     0.110 C 
ATOM     22  O   UNL A   1      34.158  24.781  22.634  1.00  0.00    -0.240 OA
BRANCH  14  23
ATOM     23  C   UNL A   1      35.177  20.032  24.948  1.00  0.00     0.125 A 
ATOM     24  C   UNL A   1      33.581  17.756  24.509  1.00  0.00     0.119 A 
ATOM     25  C   UNL A   1      34.959  17.678  24.354  1.00  0.00     0.051 A 
ATOM     26  C   UNL A   1      33.007  18.925  25.000  1.00  0.00     0.051 A 
ATOM     27  C   UNL A   1      35.753  18.802  24.599  1.00  0.00     0.055 A 
ATOM     28  C   UNL A   1      33.799  20.063  25.199  1.00  0.00     0.055 A 
BRANCH  24  29
ATOM     29  O   UNL A   1      32.855  16.633  24.229  1.00  0.00    -0.497 OA
ATOM     30  C   UNL A   1      32.821  15.719  25.328  1.00  0.00     0.278 C 
ENDBRANCH  24  29
ENDBRANCH  14  23
ENDBRANCH   8  13
ENDBRANCH   4   7
ENDBRANCH   2   3
ENDBRANCH   1   2
BRANCH   1  31
ATOM     31  C   UNL A   1      34.089  31.631  27.865  1.00  0.00     0.023 C 
BRANCH  31  32
ATOM     32  C   UNL A   1      35.304  31.017  28.570  1.00  0.00     0.116 C 
BRANCH  32  33
ATOM     33  N   UNL A   1      35.478  31.404  29.962  1.00  0.00    -0.352 N 
ATOM     34  C   UNL A   1      36.557  31.223  30.808  1.00  0.00     0.251 C 
ATOM     35  H   UNL A   1      34.708  31.866  30.366  1.00  0.00     0.163 HD
ATOM     36  O   UNL A   1      36.496  31.652  31.957  1.00  0.00    -0.269 OA
BRANCH  34  37
ATOM     37  C   UNL A   1      37.774  30.493  30.366  1.00  0.00     0.039 A 
ATOM     38  C   UNL A   1      38.003  30.299  28.999  1.00  0.00     0.014 A 
ATOM     39  C   UNL A   1      38.692  29.984  31.279  1.00  0.00     0.014 A 
ATOM     40  C   UNL A   1      39.202  29.712  28.553  1.00  0.00     0.010 A 
ATOM     41  C   UNL A   1      39.904  29.454  30.826  1.00  0.00     0.010 A 
ATOM     42  C   UNL A   1      40.209  29.347  29.462  1.00  0.00    -0.014 A 
BRANCH  42  43
ATOM     43  C   UNL A   1      41.602  28.978  29.031  1.00  0.00     0.031 A 
ATOM     44  C   UNL A   1      42.688  30.016  28.822  1.00  0.00     0.074 A 
ATOM     45  C   UNL A   1      41.861  27.712  28.627  1.00  0.00     0.049 A 
ATOM     46  N   UNL A   1      43.896  29.865  28.331  1.00  0.00    -0.248 NA
ATOM     47  C   UNL A   1      42.355  31.411  29.147  1.00  0.00     0.031 C 
ATOM     48  C   UNL A   1      40.893  26.612  28.598  1.00  0.00     0.029 A 
ATOM     49  N   UNL A   1      43.008  27.145  28.116  1.00  0.00    -0.354 N 
ATOM     50  C   UNL A   1      44.455  31.139  28.272  1.00  0.00     0.074 A 
ATOM     51  C   UNL A   1      43.419  32.059  28.693  1.00  0.00     0.031 C 
ATOM     52  C   UNL A   1      41.483  25.512  28.107  1.00  0.00     0.029 A 
ATOM     53  C   UNL A   1      42.868  25.822  27.765  1.00  0.00     0.049 A 
ATOM     54  H   UNL A   1      43.852  27.643  28.011  1.00  0.00     0.167 HD
ATOM     55  C   UNL A   1      45.721  31.514  27.949  1.00  0.00     0.037 A 
ATOM     56  C   UNL A   1      43.741  24.942  27.235  1.00  0.00     0.037 A 
ATOM     57  C   UNL A   1      46.784  30.603  27.600  1.00  0.00     0.049 A 
ATOM     58  C   UNL A   1      45.164  25.349  26.975  1.00  0.00     0.074 A 
ATOM     59  C   UNL A   1      48.131  30.879  27.422  1.00  0.00     0.029 A 
ATOM     60  N   UNL A   1      46.630  29.245  27.376  1.00  0.00    -0.354 N 
ATOM     61  N   UNL A   1      45.712  26.534  27.079  1.00  0.00    -0.248 NA
ATOM     62  C   UNL A   1      46.095  24.289  26.561  1.00  0.00     0.031 C 
ATOM     63  C   UNL A   1      48.786  29.695  27.064  1.00  0.00     0.029 A 
ATOM     64  C   UNL A   1      47.855  28.672  27.063  1.00  0.00     0.049 A 
ATOM     65  H   UNL A   1      45.777  28.756  27.431  1.00  0.00     0.167 HD
ATOM     66  C   UNL A   1      47.063  26.350  26.799  1.00  0.00     0.074 A 
ATOM     67  C   UNL A   1      47.246  24.944  26.512  1.00  0.00     0.031 C 
ATOM     68  C   UNL A   1      48.060  27.269  26.799  1.00  0.00     0.037 A 
BRANCH  55  69
ATOM     69  C   UNL A   1      46.065  32.982  28.029  1.00  0.00     0.058 A 
ATOM     70  C   UNL A   1      45.864  33.839  26.933  1.00  0.00     0.135 A 
ATOM     71  C   UNL A   1      46.525  33.556  29.226  1.00  0.00     0.135 A 
ATOM     72  F   UNL A   1      45.421  33.350  25.764  1.00  0.00    -0.206 F 
ATOM     73  C   UNL A   1      46.150  35.197  27.005  1.00  0.00     0.059 A 
ATOM     74  C   UNL A   1      46.783  34.922  29.332  1.00  0.00     0.059 A 
ATOM     75  F   UNL A   1      46.718  32.793  30.313  1.00  0.00    -0.206 F 
ATOM     76  C   UNL A   1      46.610  35.730  28.209  1.00  0.00     0.060 A 
BRANCH  76  77
ATOM     77  S   UNL A   1      46.967  37.498  28.283  1.00  0.00     0.124 S 
ATOM     78  O   UNL A   1      48.337  37.494  28.787  1.00  0.00    -0.237 OA
ATOM     79  O   UNL A   1      46.807  37.908  26.890  1.00  0.00    -0.237 OA
ATOM     80  O   UNL A   1      45.958  38.011  29.204  1.00  0.00    -0.744 OA
ENDBRANCH  76  77
ENDBRANCH  55  69
BRANCH  56  81
ATOM     81  C   UNL A   1      43.310  23.542  26.982  1.00  0.00     0.058 A 
ATOM     82  C   UNL A   1      43.046  23.101  25.676  1.00  0.00     0.135 A 
ATOM     83  C   UNL A   1      43.161  22.622  28.029  1.00  0.00     0.135 A 
ATOM     84  F   UNL A   1      43.170  23.951  24.646  1.00  0.00    -0.206 F 
ATOM     85  C   UNL A   1      42.625  21.803  25.418  1.00  0.00     0.059 A 
ATOM     86  C   UNL A   1      42.762  21.309  27.794  1.00  0.00     0.059 A 
ATOM     87  F   UNL A   1      43.426  22.991  29.291  1.00  0.00    -0.206 F 
ATOM     88  C   UNL A   1      42.488  20.912  26.484  1.00  0.00     0.060 A 
BRANCH  88  89
ATOM     89  S   UNL A   1      41.987  19.215  26.126  1.00  0.00     0.124 S 
ATOM     90  O   UNL A   1      42.377  18.529  27.352  1.00  0.00    -0.237 OA
ATOM     91  O   UNL A   1      40.552  19.362  25.904  1.00  0.00    -0.237 OA
ATOM     92  O   UNL A   1      42.766  18.879  24.939  1.00  0.00    -0.744 OA
ENDBRANCH  88  89
ENDBRANCH  56  81
BRANCH  68  93
ATOM     93  C   UNL A   1      49.464  26.779  26.568  1.00  0.00     0.058 A 
ATOM     94  C   UNL A   1      50.096  26.868  25.318  1.00  0.00     0.135 A 
ATOM     95  C   UNL A   1      50.196  26.219  27.629  1.00  0.00     0.135 A 
ATOM     96  F   UNL A   1      49.442  27.387  24.266  1.00  0.00    -0.206 F 
ATOM     97  C   UNL A   1      51.388  26.388  25.119  1.00  0.00     0.059 A 
ATOM     98  C   UNL A   1      51.498  25.758  27.459  1.00  0.00     0.059 A 
ATOM     99  F   UNL A   1      49.647  26.117  28.850  1.00  0.00    -0.206 F 
ATOM    100  C   UNL A   1      52.080  25.830  26.195  1.00  0.00     0.060 A 
BRANCH 100 101
ATOM    101  S   UNL A   1      53.757  25.214  25.929  1.00  0.00     0.124 S 
ATOM    102  O   UNL A   1      54.208  26.058  24.826  1.00  0.00    -0.237 OA
ATOM    103  O   UNL A   1      54.392  25.466  27.219  1.00  0.00    -0.237 OA
ATOM    104  O   UNL A   1      53.555  23.807  25.601  1.00  0.00    -0.744 OA
ENDBRANCH 100 101
ENDBRANCH  68  93
ENDBRANCH  42  43
ENDBRANCH  34  37
ENDBRANCH  32  33
ENDBRANCH  31  32
ENDBRANCH   1  31
TORSDOF 17
ENDMDL
MODEL 3
REMARK VINA RESULT:     -12.1      6.040     10.782
REMARK SMILES COc1ccc(NC2=[NH+]C(=O)/C(=C\c3ccccc3C(=O)NCCCCNC(=O)c3ccc(-c4c5nc(c(-c6c(F)cc(S(=O)(=O)[O-])cc6F)c6ccc([nH]6)c(-c6c(F)cc(S(=O)(=O)[O-])cc6F)c6nc(c(-c7c(F)cc(S(=O)(=O)[O-])cc7F)c7ccc4[nH]7)C=C6)C=C5)cc3)S2)cc1
REMARK SMILES IDX 24 1 23 2 22 3 20 4 21 5 19 7 14 8 15 9 16 10 18 11 17 12
REMARK SMILES IDX 13 13 7 14 8 15 9 17 96 18 10 19 12 21 11 22 6 23 3 24 4 25
REMARK SMILES IDX 98 26 5 27 97 28 2 29 1 30 25 31 26 32 27 33 28 34 29 36
REMARK SMILES IDX 30 37 31 38 95 39 32 40 94 41 33 42 34 43 35 44 88 45 36 46
REMARK SMILES IDX 93 47 87 48 89 49 37 50 92 51 86 52 85 53 38 55 72 56 51 57
REMARK SMILES IDX 71 58 52 59 55 60 70 61 90 62 53 63 54 64 69 66 91 67 56 68
REMARK SMILES IDX 39 69 40 70 49 71 41 72 42 73 48 74 50 75 43 76 44 77 45 78
REMARK SMILES IDX 46 79 47 80 73 81 74 82 83 83 75 84 76 85 82 86 84 87 77 88
REMARK SMILES IDX 78 89 79 90 80 91 81 92 57 93 58 94 67 95 59 96 60 97 66 98
REMARK SMILES IDX 68 99 61 100 62 101 63 102 64 103 65 104
REMARK H PARENT 22 6 7 16 9 20 27 35 89 54 55 65
REMARK Flexibility Score: inf
ROOT
ATOM      1  C   UNL A   1      33.328  30.248  26.203  1.00  0.00     0.023 C 
ENDROOT
BRANCH   1   2
ATOM      2  C   UNL A   1      34.115  29.026  25.733  1.00  0.00     0.116 C 
BRANCH   2   3
ATOM      3  N   UNL A   1      34.266  28.897  24.300  1.00  0.00    -0.352 N 
ATOM      4  C   UNL A   1      33.513  28.204  23.373  1.00  0.00     0.251 C 
ATOM      5  O   UNL A   1      33.898  28.229  22.203  1.00  0.00    -0.269 OA
ATOM      6  H   UNL A   1      35.033  29.386  23.922  1.00  0.00     0.163 HD
BRANCH   4   7
ATOM      7  C   UNL A   1      32.332  27.353  23.727  1.00  0.00     0.047 A 
ATOM      8  C   UNL A   1      32.337  26.154  24.475  1.00  0.00    -0.011 A 
ATOM      9  C   UNL A   1      31.135  25.427  24.597  1.00  0.00     0.009 A 
ATOM     10  C   UNL A   1      29.930  25.924  24.096  1.00  0.00     0.001 A 
ATOM     11  C   UNL A   1      31.095  27.867  23.286  1.00  0.00     0.014 A 
ATOM     12  C   UNL A   1      29.903  27.164  23.474  1.00  0.00     0.001 A 
BRANCH   8  13
ATOM     13  C   UNL A   1      33.492  25.566  25.174  1.00  0.00     0.032 C 
ATOM     14  N   UNL A   1      35.725  21.199  24.948  1.00  0.00    -0.235 N 
ATOM     15  C   UNL A   1      35.272  22.407  24.511  1.00  0.00     0.322 C 
ATOM     16  H   UNL A   1      36.642  21.160  25.305  1.00  0.00     0.313 HD
ATOM     17  N   UNL A   1      34.657  22.678  23.408  1.00  0.00    -0.199 N 
ATOM     18  S   UNL A   1      35.474  23.761  25.619  1.00  0.00     0.006 SA
ATOM     19  C   UNL A   1      34.256  23.990  23.333  1.00  0.00     0.346 C 
ATOM     20  H   UNL A   1      34.492  22.017  22.698  1.00  0.00     0.316 HD
ATOM     21  C   UNL A   1      34.310  24.625  24.680  1.00  0.00     0.110 C 
ATOM     22  O   UNL A   1      33.925  24.584  22.318  1.00  0.00    -0.240 OA
BRANCH  14  23
ATOM     23  C   UNL A   1      34.984  20.001  24.928  1.00  0.00     0.125 A 
ATOM     24  C   UNL A   1      33.393  17.697  24.649  1.00  0.00     0.119 A 
ATOM     25  C   UNL A   1      34.764  17.623  24.439  1.00  0.00     0.051 A 
ATOM     26  C   UNL A   1      32.829  18.880  25.116  1.00  0.00     0.051 A 
ATOM     27  C   UNL A   1      35.557  18.762  24.605  1.00  0.00     0.055 A 
ATOM     28  C   UNL A   1      33.617  20.031  25.235  1.00  0.00     0.055 A 
BRANCH  24  29
ATOM     29  O   UNL A   1      32.666  16.557  24.445  1.00  0.00    -0.497 OA
ATOM     30  C   UNL A   1      33.171  15.449  25.194  1.00  0.00     0.278 C 
ENDBRANCH  24  29
ENDBRANCH  14  23
ENDBRANCH   8  13
ENDBRANCH   4   7
ENDBRANCH   2   3
ENDBRANCH   1   2
BRANCH   1  31
ATOM     31  C   UNL A   1      33.676  30.817  27.583  1.00  0.00     0.023 C 
BRANCH  31  32
ATOM     32  C   UNL A   1      35.131  30.719  28.058  1.00  0.00     0.116 C 
BRANCH  32  33
ATOM     33  N   UNL A   1      35.347  31.005  29.468  1.00  0.00    -0.352 N 
ATOM     34  C   UNL A   1      36.458  30.784  30.261  1.00  0.00     0.251 C 
ATOM     35  H   UNL A   1      34.583  31.420  29.931  1.00  0.00     0.163 HD
ATOM     36  O   UNL A   1      36.430  31.125  31.441  1.00  0.00    -0.269 OA
BRANCH  34  37
ATOM     37  C   UNL A   1      37.671  30.114  29.726  1.00  0.00     0.039 A 
ATOM     38  C   UNL A   1      37.953  30.189  28.356  1.00  0.00     0.014 A 
ATOM     39  C   UNL A   1      38.535  29.400  30.549  1.00  0.00     0.014 A 
ATOM     40  C   UNL A   1      39.153  29.662  27.844  1.00  0.00     0.010 A 
ATOM     41  C   UNL A   1      39.750  28.929  30.043  1.00  0.00     0.010 A 
ATOM     42  C   UNL A   1      40.109  29.086  28.697  1.00  0.00    -0.014 A 
BRANCH  42  43
ATOM     43  C   UNL A   1      41.508  28.761  28.250  1.00  0.00     0.031 A 
ATOM     44  C   UNL A   1      41.931  27.355  27.870  1.00  0.00     0.074 A 
ATOM     45  C   UNL A   1      42.480  29.696  28.366  1.00  0.00     0.049 A 
ATOM     46  N   UNL A   1      43.128  26.897  27.588  1.00  0.00    -0.248 NA
ATOM     47  C   UNL A   1      40.889  26.318  27.867  1.00  0.00     0.031 C 
ATOM     48  C   UNL A   1      42.294  31.059  28.872  1.00  0.00     0.029 A 
ATOM     49  N   UNL A   1      43.832  29.628  28.112  1.00  0.00    -0.354 N 
ATOM     50  C   UNL A   1      42.986  25.525  27.394  1.00  0.00     0.074 A 
ATOM     51  C   UNL A   1      41.601  25.214  27.680  1.00  0.00     0.031 C 
ATOM     52  C   UNL A   1      43.476  31.694  28.885  1.00  0.00     0.029 A 
ATOM     53  C   UNL A   1      44.514  30.787  28.406  1.00  0.00     0.049 A 
ATOM     54  H   UNL A   1      44.271  28.823  27.753  1.00  0.00     0.167 HD
ATOM     55  C   UNL A   1      43.899  24.612  26.971  1.00  0.00     0.037 A 
ATOM     56  C   UNL A   1      45.820  31.105  28.303  1.00  0.00     0.037 A 
ATOM     57  C   UNL A   1      45.262  24.919  26.611  1.00  0.00     0.049 A 
ATOM     58  C   UNL A   1      46.800  30.113  27.741  1.00  0.00     0.074 A 
ATOM     59  C   UNL A   1      46.203  24.092  26.017  1.00  0.00     0.029 A 
ATOM     60  N   UNL A   1      45.884  26.141  26.805  1.00  0.00    -0.354 N 
ATOM     61  N   UNL A   1      46.604  28.859  27.414  1.00  0.00    -0.248 NA
ATOM     62  C   UNL A   1      48.169  30.592  27.501  1.00  0.00     0.031 C 
ATOM     63  C   UNL A   1      47.400  24.804  25.877  1.00  0.00     0.029 A 
ATOM     64  C   UNL A   1      47.192  26.090  26.344  1.00  0.00     0.049 A 
ATOM     65  H   UNL A   1      45.460  26.932  27.212  1.00  0.00     0.167 HD
ATOM     66  C   UNL A   1      47.810  28.418  26.876  1.00  0.00     0.074 A 
ATOM     67  C   UNL A   1      48.729  29.534  26.931  1.00  0.00     0.031 C 
ATOM     68  C   UNL A   1      48.113  27.199  26.368  1.00  0.00     0.037 A 
BRANCH  55  69
ATOM     69  C   UNL A   1      43.441  23.184  26.794  1.00  0.00     0.058 A 
ATOM     70  C   UNL A   1      43.247  22.633  25.515  1.00  0.00     0.135 A 
ATOM     71  C   UNL A   1      43.265  22.335  27.900  1.00  0.00     0.135 A 
ATOM     72  F   UNL A   1      43.404  23.393  24.420  1.00  0.00    -0.206 F 
ATOM     73  C   UNL A   1      42.853  21.311  25.341  1.00  0.00     0.059 A 
ATOM     74  C   UNL A   1      42.906  20.997  27.747  1.00  0.00     0.059 A 
ATOM     75  F   UNL A   1      43.454  22.798  29.146  1.00  0.00    -0.206 F 
ATOM     76  C   UNL A   1      42.684  20.501  26.463  1.00  0.00     0.060 A 
BRANCH  76  77
ATOM     77  S   UNL A   1      42.180  18.785  26.213  1.00  0.00     0.124 S 
ATOM     78  O   UNL A   1      40.786  18.951  25.813  1.00  0.00    -0.237 OA
ATOM     79  O   UNL A   1      43.091  18.342  25.162  1.00  0.00    -0.237 OA
ATOM     80  O   UNL A   1      42.391  18.174  27.520  1.00  0.00    -0.744 OA
ENDBRANCH  76  77
ENDBRANCH  55  69
BRANCH  56  81
ATOM     81  C   UNL A   1      46.276  32.470  28.676  1.00  0.00     0.058 A 
ATOM     82  C   UNL A   1      46.741  32.738  29.972  1.00  0.00     0.135 A 
ATOM     83  C   UNL A   1      46.262  33.523  27.751  1.00  0.00     0.135 A 
ATOM     84  F   UNL A   1      46.766  31.760  30.890  1.00  0.00    -0.206 F 
ATOM     85  C   UNL A   1      47.156  34.010  30.347  1.00  0.00     0.059 A 
ATOM     86  C   UNL A   1      46.692  34.801  28.096  1.00  0.00     0.059 A 
ATOM     87  F   UNL A   1      45.847  33.308  26.493  1.00  0.00    -0.206 F 
ATOM     88  C   UNL A   1      47.129  35.036  29.401  1.00  0.00     0.060 A 
BRANCH  88  89
ATOM     89  S   UNL A   1      47.716  36.671  29.891  1.00  0.00     0.124 S 
ATOM     90  O   UNL A   1      46.467  37.419  29.972  1.00  0.00    -0.237 OA
ATOM     91  O   UNL A   1      48.377  36.389  31.162  1.00  0.00    -0.237 OA
ATOM     92  O   UNL A   1      48.609  37.048  28.800  1.00  0.00    -0.744 OA
ENDBRANCH  88  89
ENDBRANCH  56  81
BRANCH  68  93
ATOM     93  C   UNL A   1      49.471  27.019  25.742  1.00  0.00     0.058 A 
ATOM     94  C   UNL A   1      50.593  26.618  26.483  1.00  0.00     0.135 A 
ATOM     95  C   UNL A   1      49.644  27.242  24.365  1.00  0.00     0.135 A 
ATOM     96  F   UNL A   1      50.488  26.399  27.804  1.00  0.00    -0.206 F 
ATOM     97  C   UNL A   1      51.846  26.480  25.890  1.00  0.00     0.059 A 
ATOM     98  C   UNL A   1      50.880  27.083  23.747  1.00  0.00     0.059 A 
ATOM     99  F   UNL A   1      48.604  27.617  23.604  1.00  0.00    -0.206 F 
ATOM    100  C   UNL A   1      51.981  26.719  24.521  1.00  0.00     0.060 A 
BRANCH 100 101
ATOM    101  S   UNL A   1      53.608  26.531  23.759  1.00  0.00     0.124 S 
ATOM    102  O   UNL A   1      54.204  25.492  24.593  1.00  0.00    -0.237 OA
ATOM    103  O   UNL A   1      53.272  26.134  22.396  1.00  0.00    -0.237 OA
ATOM    104  O   UNL A   1      54.200  27.859  23.890  1.00  0.00    -0.744 OA
ENDBRANCH 100 101
ENDBRANCH  68  93
ENDBRANCH  42  43
ENDBRANCH  34  37
ENDBRANCH  32  33
ENDBRANCH  31  32
ENDBRANCH   1  31
TORSDOF 17
ENDMDL
