MODEL 1
REMARK VINA RESULT:     -12.0      0.000      0.000
REMARK SMILES CCn1ccc([C@@H](C)NC(=O)c2cnn([C@H](C)C(=O)NCCCCNC(=O)c3ccc(-c4c5nc(c(-c6c(F)cc(S(=O)(=O)[O-])cc6F)c6ccc([nH]6)c(-c6c(F)cc(S(=O)(=O)[O-])cc6F)c6nc(c(-c7c(F)cc(S(=O)(=O)[O-])cc7F)c7ccc4[nH]7)C=C6)C=C5)cc3)c2)n1
REMARK SMILES IDX 21 1 20 2 18 3 19 4 16 6 17 7 15 8 12 9 13 10 94 11 14 12
REMARK SMILES IDX 10 13 9 14 11 16 7 17 8 18 6 19 3 20 4 21 95 22 5 23 2 24
REMARK SMILES IDX 1 25 22 26 23 27 24 28 25 29 26 30 27 32 28 33 29 34 93 35
REMARK SMILES IDX 30 36 92 37 31 38 32 39 33 40 86 41 34 42 91 43 85 44 87 45
REMARK SMILES IDX 35 46 90 47 84 48 83 49 36 51 70 52 49 53 69 54 50 55 53 56
REMARK SMILES IDX 68 57 88 58 51 59 52 60 67 62 89 63 54 64 37 65 38 66 47 67
REMARK SMILES IDX 39 68 40 69 46 70 48 71 41 72 42 73 43 74 44 75 45 76 71 77
REMARK SMILES IDX 72 78 81 79 73 80 74 81 80 82 82 83 75 84 76 85 77 86 78 87
REMARK SMILES IDX 79 88 55 89 56 90 65 91 57 92 58 93 64 94 66 95 59 96 60 97
REMARK SMILES IDX 61 98 62 99 63 100
REMARK H PARENT 20 5 9 15 25 31 87 50 53 61
REMARK Flexibility Score: inf
ROOT
ATOM      1  C   UNL A   1      36.629  23.773  25.753  1.00  0.00     0.116 C 
ENDROOT
BRANCH   1   2
ATOM      2  N   UNL A   1      35.763  22.890  26.505  1.00  0.00    -0.354 N 
ATOM      3  C   UNL A   1      34.457  22.540  26.301  1.00  0.00     0.244 C 
ATOM      4  O   UNL A   1      33.947  21.807  27.155  1.00  0.00    -0.273 OA
ATOM      5  H   UNL A   1      36.183  22.472  27.292  1.00  0.00     0.163 HD
BRANCH   3   6
ATOM      6  C   UNL A   1      33.611  23.110  25.161  1.00  0.00     0.193 C 
ATOM      7  C   UNL A   1      33.037  22.003  24.272  1.00  0.00     0.044 C 
BRANCH   6   8
ATOM      8  N   UNL A   1      32.669  24.125  25.624  1.00  0.00    -0.260 N 
ATOM      9  C   UNL A   1      31.747  26.020  26.267  1.00  0.00     0.077 A 
ATOM     10  C   UNL A   1      30.800  25.114  25.751  1.00  0.00     0.149 A 
ATOM     11  C   UNL A   1      32.926  25.306  26.258  1.00  0.00     0.123 A 
ATOM     12  N   UNL A   1      31.347  23.940  25.426  1.00  0.00    -0.180 NA
BRANCH   9  13
ATOM     13  C   UNL A   1      31.629  27.394  26.685  1.00  0.00     0.254 C 
ATOM     14  N   UNL A   1      31.739  28.385  25.754  1.00  0.00    -0.344 N 
ATOM     15  H   UNL A   1      31.799  29.303  26.106  1.00  0.00     0.164 HD
ATOM     16  O   UNL A   1      31.376  27.693  27.850  1.00  0.00    -0.269 OA
BRANCH  14  17
ATOM     17  C   UNL A   1      31.778  28.258  24.303  1.00  0.00     0.130 C 
ATOM     18  C   UNL A   1      32.978  29.020  23.755  1.00  0.00     0.038 C 
BRANCH  17  19
ATOM     19  C   UNL A   1      30.465  28.754  23.747  1.00  0.00     0.084 A 
ATOM     20  N   UNL A   1      28.892  30.115  23.316  1.00  0.00    -0.273 N 
ATOM     21  C   UNL A   1      28.512  28.953  22.711  1.00  0.00     0.109 A 
ATOM     22  N   UNL A   1      30.075  30.023  23.947  1.00  0.00    -0.176 NA
ATOM     23  C   UNL A   1      29.507  28.044  22.978  1.00  0.00     0.047 A 
BRANCH  20  24
ATOM     24  C   UNL A   1      28.190  31.384  23.289  1.00  0.00     0.141 C 
ATOM     25  C   UNL A   1      28.865  32.420  22.406  1.00  0.00     0.029 C 
ENDBRANCH  20  24
ENDBRANCH  17  19
ENDBRANCH  14  17
ENDBRANCH   9  13
ENDBRANCH   6   8
ENDBRANCH   3   6
ENDBRANCH   1   2
BRANCH   1  26
ATOM     26  C   UNL A   1      38.088  23.728  26.211  1.00  0.00     0.023 C 
BRANCH  26  27
ATOM     27  C   UNL A   1      38.796  22.375  26.104  1.00  0.00     0.023 C 
BRANCH  27  28
ATOM     28  C   UNL A   1      40.039  22.252  26.971  1.00  0.00     0.116 C 
BRANCH  28  29
ATOM     29  N   UNL A   1      41.259  21.919  26.225  1.00  0.00    -0.352 N 
ATOM     30  C   UNL A   1      42.198  22.806  25.697  1.00  0.00     0.251 C 
ATOM     31  H   UNL A   1      41.436  20.961  26.082  1.00  0.00     0.163 HD
ATOM     32  O   UNL A   1      42.974  22.476  24.825  1.00  0.00    -0.269 OA
BRANCH  30  33
ATOM     33  C   UNL A   1      42.222  24.166  26.270  1.00  0.00     0.039 A 
ATOM     34  C   UNL A   1      41.461  25.233  25.781  1.00  0.00     0.014 A 
ATOM     35  C   UNL A   1      42.979  24.296  27.422  1.00  0.00     0.014 A 
ATOM     36  C   UNL A   1      41.415  26.416  26.524  1.00  0.00     0.010 A 
ATOM     37  C   UNL A   1      42.700  25.323  28.267  1.00  0.00     0.010 A 
ATOM     38  C   UNL A   1      42.037  26.443  27.776  1.00  0.00    -0.014 A 
BRANCH  38  39
ATOM     39  C   UNL A   1      42.030  27.595  28.672  1.00  0.00     0.031 A 
ATOM     40  C   UNL A   1      43.149  28.566  28.485  1.00  0.00     0.074 A 
ATOM     41  C   UNL A   1      40.876  27.899  29.316  1.00  0.00     0.049 A 
ATOM     42  N   UNL A   1      44.001  28.995  29.359  1.00  0.00    -0.248 NA
ATOM     43  C   UNL A   1      43.430  29.039  27.116  1.00  0.00     0.031 C 
ATOM     44  C   UNL A   1      39.591  27.170  29.278  1.00  0.00     0.029 A 
ATOM     45  N   UNL A   1      40.538  29.027  29.990  1.00  0.00    -0.354 N 
ATOM     46  C   UNL A   1      44.766  29.964  28.707  1.00  0.00     0.074 A 
ATOM     47  C   UNL A   1      44.512  29.797  27.302  1.00  0.00     0.031 C 
ATOM     48  C   UNL A   1      38.586  27.991  29.646  1.00  0.00     0.029 A 
ATOM     49  C   UNL A   1      39.164  29.222  30.138  1.00  0.00     0.049 A 
ATOM     50  H   UNL A   1      41.206  29.656  30.346  1.00  0.00     0.167 HD
ATOM     51  C   UNL A   1      45.353  30.994  29.382  1.00  0.00     0.037 A 
ATOM     52  C   UNL A   1      38.556  30.347  30.590  1.00  0.00     0.037 A 
ATOM     53  C   UNL A   1      45.394  30.734  30.799  1.00  0.00     0.049 A 
ATOM     54  C   UNL A   1      39.601  31.118  31.319  1.00  0.00     0.074 A 
ATOM     55  C   UNL A   1      45.959  29.750  31.586  1.00  0.00     0.029 A 
ATOM     56  N   UNL A   1      44.450  31.342  31.591  1.00  0.00    -0.354 N 
ATOM     57  N   UNL A   1      40.199  30.682  32.399  1.00  0.00    -0.248 NA
ATOM     58  C   UNL A   1      40.331  32.126  30.567  1.00  0.00     0.031 C 
ATOM     59  C   UNL A   1      44.985  29.485  32.595  1.00  0.00     0.029 A 
ATOM     60  C   UNL A   1      43.924  30.375  32.410  1.00  0.00     0.049 A 
ATOM     61  H   UNL A   1      44.198  32.294  31.575  1.00  0.00     0.167 HD
ATOM     62  C   UNL A   1      41.531  31.048  32.247  1.00  0.00     0.074 A 
ATOM     63  C   UNL A   1      41.537  31.988  31.126  1.00  0.00     0.031 C 
ATOM     64  C   UNL A   1      42.540  30.338  32.839  1.00  0.00     0.037 A 
BRANCH  51  65
ATOM     65  C   UNL A   1      45.560  32.382  28.815  1.00  0.00     0.058 A 
ATOM     66  C   UNL A   1      46.844  32.967  28.863  1.00  0.00     0.135 A 
ATOM     67  C   UNL A   1      44.507  33.264  28.484  1.00  0.00     0.135 A 
ATOM     68  F   UNL A   1      47.921  32.226  29.169  1.00  0.00    -0.206 F 
ATOM     69  C   UNL A   1      47.050  34.336  28.675  1.00  0.00     0.059 A 
ATOM     70  C   UNL A   1      44.698  34.619  28.238  1.00  0.00     0.059 A 
ATOM     71  F   UNL A   1      43.225  32.879  28.483  1.00  0.00    -0.206 F 
ATOM     72  C   UNL A   1      45.966  35.156  28.382  1.00  0.00     0.060 A 
BRANCH  72  73
ATOM     73  S   UNL A   1      46.204  36.938  28.270  1.00  0.00     0.124 S 
ATOM     74  O   UNL A   1      45.397  37.265  27.099  1.00  0.00    -0.237 OA
ATOM     75  O   UNL A   1      45.685  37.395  29.554  1.00  0.00    -0.237 OA
ATOM     76  O   UNL A   1      47.648  37.075  28.100  1.00  0.00    -0.744 OA
ENDBRANCH  72  73
ENDBRANCH  51  65
BRANCH  52  77
ATOM     77  C   UNL A   1      37.289  30.945  30.087  1.00  0.00     0.058 A 
ATOM     78  C   UNL A   1      36.338  31.495  30.961  1.00  0.00     0.135 A 
ATOM     79  C   UNL A   1      37.102  31.224  28.715  1.00  0.00     0.135 A 
ATOM     80  F   UNL A   1      36.450  31.303  32.284  1.00  0.00    -0.206 F 
ATOM     81  C   UNL A   1      35.284  32.301  30.509  1.00  0.00     0.059 A 
ATOM     82  C   UNL A   1      36.057  32.016  28.239  1.00  0.00     0.059 A 
ATOM     83  F   UNL A   1      37.987  30.800  27.798  1.00  0.00    -0.206 F 
ATOM     84  C   UNL A   1      35.161  32.570  29.145  1.00  0.00     0.060 A 
BRANCH  84  85
ATOM     85  S   UNL A   1      33.896  33.734  28.578  1.00  0.00     0.124 S 
ATOM     86  O   UNL A   1      34.680  34.658  27.765  1.00  0.00    -0.237 OA
ATOM     87  O   UNL A   1      32.982  32.863  27.847  1.00  0.00    -0.237 OA
ATOM     88  O   UNL A   1      33.363  34.291  29.817  1.00  0.00    -0.744 OA
ENDBRANCH  84  85
ENDBRANCH  52  77
BRANCH  64  89
ATOM     89  C   UNL A   1      42.179  29.266  33.843  1.00  0.00     0.058 A 
ATOM     90  C   UNL A   1      42.033  27.902  33.526  1.00  0.00     0.135 A 
ATOM     91  C   UNL A   1      42.172  29.598  35.205  1.00  0.00     0.135 A 
ATOM     92  F   UNL A   1      42.132  27.477  32.263  1.00  0.00    -0.206 F 
ATOM     93  C   UNL A   1      41.857  26.922  34.506  1.00  0.00     0.059 A 
ATOM     94  C   UNL A   1      42.027  28.634  36.203  1.00  0.00     0.059 A 
ATOM     95  F   UNL A   1      42.374  30.870  35.584  1.00  0.00    -0.206 F 
ATOM     96  C   UNL A   1      41.861  27.297  35.846  1.00  0.00     0.060 A 
BRANCH  96  97
ATOM     97  S   UNL A   1      41.725  26.021  37.116  1.00  0.00     0.124 S 
ATOM     98  O   UNL A   1      41.956  24.800  36.352  1.00  0.00    -0.237 OA
ATOM     99  O   UNL A   1      42.783  26.390  38.054  1.00  0.00    -0.237 OA
ATOM    100  O   UNL A   1      40.367  26.189  37.627  1.00  0.00    -0.744 OA
ENDBRANCH  96  97
ENDBRANCH  64  89
ENDBRANCH  38  39
ENDBRANCH  30  33
ENDBRANCH  28  29
ENDBRANCH  27  28
ENDBRANCH  26  27
ENDBRANCH   1  26
TORSDOF 19
ENDMDL
MODEL 2
REMARK VINA RESULT:     -11.6      1.446      2.048
REMARK SMILES CCn1ccc([C@@H](C)NC(=O)c2cnn([C@H](C)C(=O)NCCCCNC(=O)c3ccc(-c4c5nc(c(-c6c(F)cc(S(=O)(=O)[O-])cc6F)c6ccc([nH]6)c(-c6c(F)cc(S(=O)(=O)[O-])cc6F)c6nc(c(-c7c(F)cc(S(=O)(=O)[O-])cc7F)c7ccc4[nH]7)C=C6)C=C5)cc3)c2)n1
REMARK SMILES IDX 21 1 20 2 18 3 19 4 16 6 17 7 15 8 12 9 13 10 94 11 14 12
REMARK SMILES IDX 10 13 9 14 11 16 7 17 8 18 6 19 3 20 4 21 95 22 5 23 2 24
REMARK SMILES IDX 1 25 22 26 23 27 24 28 25 29 26 30 27 32 28 33 29 34 93 35
REMARK SMILES IDX 30 36 92 37 31 38 32 39 33 40 86 41 34 42 91 43 85 44 87 45
REMARK SMILES IDX 35 46 90 47 84 48 83 49 36 51 70 52 49 53 69 54 50 55 53 56
REMARK SMILES IDX 68 57 88 58 51 59 52 60 67 62 89 63 54 64 37 65 38 66 47 67
REMARK SMILES IDX 39 68 40 69 46 70 48 71 41 72 42 73 43 74 44 75 45 76 71 77
REMARK SMILES IDX 72 78 81 79 73 80 74 81 80 82 82 83 75 84 76 85 77 86 78 87
REMARK SMILES IDX 79 88 55 89 56 90 65 91 57 92 58 93 64 94 66 95 59 96 60 97
REMARK SMILES IDX 61 98 62 99 63 100
REMARK H PARENT 20 5 9 15 25 31 87 50 53 61
REMARK Flexibility Score: inf
ROOT
ATOM      1  C   UNL A   1      36.715  20.466  24.751  1.00  0.00     0.116 C 
ENDROOT
BRANCH   1   2
ATOM      2  N   UNL A   1      35.669  20.614  25.741  1.00  0.00    -0.354 N 
ATOM      3  C   UNL A   1      34.341  20.903  25.593  1.00  0.00     0.244 C 
ATOM      4  O   UNL A   1      33.689  21.036  26.635  1.00  0.00    -0.273 OA
ATOM      5  H   UNL A   1      35.961  20.488  26.672  1.00  0.00     0.163 HD
BRANCH   3   6
ATOM      6  C   UNL A   1      33.695  21.178  24.234  1.00  0.00     0.193 C 
ATOM      7  C   UNL A   1      32.285  20.586  24.144  1.00  0.00     0.044 C 
BRANCH   6   8
ATOM      8  N   UNL A   1      33.841  22.572  23.823  1.00  0.00    -0.260 N 
ATOM      9  C   UNL A   1      33.496  24.573  22.967  1.00  0.00     0.077 A 
ATOM     10  C   UNL A   1      34.411  24.601  24.037  1.00  0.00     0.149 A 
ATOM     11  C   UNL A   1      33.228  23.232  22.798  1.00  0.00     0.123 A 
ATOM     12  N   UNL A   1      34.674  23.380  24.511  1.00  0.00    -0.180 NA
BRANCH   9  13
ATOM     13  C   UNL A   1      32.889  25.630  22.199  1.00  0.00     0.254 C 
ATOM     14  N   UNL A   1      31.696  26.151  22.610  1.00  0.00    -0.344 N 
ATOM     15  H   UNL A   1      31.252  26.761  21.979  1.00  0.00     0.164 HD
ATOM     16  O   UNL A   1      33.444  26.112  21.214  1.00  0.00    -0.269 OA
BRANCH  14  17
ATOM     17  C   UNL A   1      30.997  25.918  23.867  1.00  0.00     0.130 C 
ATOM     18  C   UNL A   1      29.503  26.135  23.670  1.00  0.00     0.038 C 
BRANCH  17  19
ATOM     19  C   UNL A   1      31.589  26.830  24.915  1.00  0.00     0.084 A 
ATOM     20  N   UNL A   1      32.376  28.610  25.767  1.00  0.00    -0.273 N 
ATOM     21  C   UNL A   1      32.384  27.709  26.791  1.00  0.00     0.109 A 
ATOM     22  N   UNL A   1      31.894  28.103  24.619  1.00  0.00    -0.176 NA
ATOM     23  C   UNL A   1      31.887  26.539  26.272  1.00  0.00     0.047 A 
BRANCH  20  24
ATOM     24  C   UNL A   1      32.772  30.003  25.825  1.00  0.00     0.141 C 
ATOM     25  C   UNL A   1      31.748  30.886  26.519  1.00  0.00     0.029 C 
ENDBRANCH  20  24
ENDBRANCH  17  19
ENDBRANCH  14  17
ENDBRANCH   9  13
ENDBRANCH   6   8
ENDBRANCH   3   6
ENDBRANCH   1   2
BRANCH   1  26
ATOM     26  C   UNL A   1      38.050  21.077  25.182  1.00  0.00     0.023 C 
BRANCH  26  27
ATOM     27  C   UNL A   1      38.003  22.509  25.721  1.00  0.00     0.023 C 
BRANCH  27  28
ATOM     28  C   UNL A   1      39.203  22.896  26.568  1.00  0.00     0.116 C 
BRANCH  28  29
ATOM     29  N   UNL A   1      40.477  22.340  26.093  1.00  0.00    -0.352 N 
ATOM     30  C   UNL A   1      41.644  23.039  25.784  1.00  0.00     0.251 C 
ATOM     31  H   UNL A   1      40.511  21.362  25.981  1.00  0.00     0.163 HD
ATOM     32  O   UNL A   1      42.517  22.558  25.092  1.00  0.00    -0.269 OA
BRANCH  30  33
ATOM     33  C   UNL A   1      41.782  24.389  26.363  1.00  0.00     0.039 A 
ATOM     34  C   UNL A   1      41.191  25.536  25.820  1.00  0.00     0.014 A 
ATOM     35  C   UNL A   1      42.456  24.436  27.571  1.00  0.00     0.014 A 
ATOM     36  C   UNL A   1      41.226  26.719  26.561  1.00  0.00     0.010 A 
ATOM     37  C   UNL A   1      42.234  25.493  28.396  1.00  0.00     0.010 A 
ATOM     38  C   UNL A   1      41.746  26.680  27.859  1.00  0.00    -0.014 A 
BRANCH  38  39
ATOM     39  C   UNL A   1      41.804  27.829  28.756  1.00  0.00     0.031 A 
ATOM     40  C   UNL A   1      42.951  28.762  28.540  1.00  0.00     0.074 A 
ATOM     41  C   UNL A   1      40.680  28.172  29.432  1.00  0.00     0.049 A 
ATOM     42  N   UNL A   1      43.841  29.160  29.390  1.00  0.00    -0.248 NA
ATOM     43  C   UNL A   1      43.209  29.229  27.163  1.00  0.00     0.031 C 
ATOM     44  C   UNL A   1      39.370  27.488  29.429  1.00  0.00     0.029 A 
ATOM     45  N   UNL A   1      40.399  29.310  30.118  1.00  0.00    -0.354 N 
ATOM     46  C   UNL A   1      44.619  30.103  28.718  1.00  0.00     0.074 A 
ATOM     47  C   UNL A   1      44.321  29.949  27.320  1.00  0.00     0.031 C 
ATOM     48  C   UNL A   1      38.404  28.341  29.826  1.00  0.00     0.029 A 
ATOM     49  C   UNL A   1      39.038  29.551  30.304  1.00  0.00     0.049 A 
ATOM     50  H   UNL A   1      41.098  29.914  30.455  1.00  0.00     0.167 HD
ATOM     51  C   UNL A   1      45.260  31.111  29.377  1.00  0.00     0.037 A 
ATOM     52  C   UNL A   1      38.482  30.695  30.774  1.00  0.00     0.037 A 
ATOM     53  C   UNL A   1      45.332  30.846  30.792  1.00  0.00     0.049 A 
ATOM     54  C   UNL A   1      39.572  31.428  31.475  1.00  0.00     0.074 A 
ATOM     55  C   UNL A   1      45.884  29.842  31.562  1.00  0.00     0.029 A 
ATOM     56  N   UNL A   1      44.432  31.485  31.612  1.00  0.00    -0.354 N 
ATOM     57  N   UNL A   1      40.185  30.969  32.537  1.00  0.00    -0.248 NA
ATOM     58  C   UNL A   1      40.316  32.412  30.704  1.00  0.00     0.031 C 
ATOM     59  C   UNL A   1      44.930  29.608  32.597  1.00  0.00     0.029 A 
ATOM     60  C   UNL A   1      43.895  30.534  32.444  1.00  0.00     0.049 A 
ATOM     61  H   UNL A   1      44.213  32.445  31.604  1.00  0.00     0.167 HD
ATOM     62  C   UNL A   1      41.524  31.289  32.348  1.00  0.00     0.074 A 
ATOM     63  C   UNL A   1      41.531  32.231  31.229  1.00  0.00     0.031 C 
ATOM     64  C   UNL A   1      42.524  30.544  32.911  1.00  0.00     0.037 A 
BRANCH  51  65
ATOM     65  C   UNL A   1      45.500  32.493  28.807  1.00  0.00     0.058 A 
ATOM     66  C   UNL A   1      46.805  33.027  28.806  1.00  0.00     0.135 A 
ATOM     67  C   UNL A   1      44.469  33.416  28.520  1.00  0.00     0.135 A 
ATOM     68  F   UNL A   1      47.864  32.244  29.068  1.00  0.00    -0.206 F 
ATOM     69  C   UNL A   1      47.057  34.387  28.614  1.00  0.00     0.059 A 
ATOM     70  C   UNL A   1      44.704  34.764  28.270  1.00  0.00     0.059 A 
ATOM     71  F   UNL A   1      43.174  33.081  28.568  1.00  0.00    -0.206 F 
ATOM     72  C   UNL A   1      45.996  35.250  28.366  1.00  0.00     0.060 A 
BRANCH  72  73
ATOM     73  S   UNL A   1      46.299  37.022  28.250  1.00  0.00     0.124 S 
ATOM     74  O   UNL A   1      46.822  37.138  26.893  1.00  0.00    -0.237 OA
ATOM     75  O   UNL A   1      44.966  37.573  28.471  1.00  0.00    -0.237 OA
ATOM     76  O   UNL A   1      47.260  37.271  29.321  1.00  0.00    -0.744 OA
ENDBRANCH  72  73
ENDBRANCH  51  65
BRANCH  52  77
ATOM     77  C   UNL A   1      37.222  31.337  30.307  1.00  0.00     0.058 A 
ATOM     78  C   UNL A   1      36.292  31.874  31.211  1.00  0.00     0.135 A 
ATOM     79  C   UNL A   1      37.027  31.670  28.948  1.00  0.00     0.135 A 
ATOM     80  F   UNL A   1      36.414  31.632  32.525  1.00  0.00    -0.206 F 
ATOM     81  C   UNL A   1      35.251  32.718  30.800  1.00  0.00     0.059 A 
ATOM     82  C   UNL A   1      35.994  32.501  28.513  1.00  0.00     0.059 A 
ATOM     83  F   UNL A   1      37.893  31.262  28.007  1.00  0.00    -0.206 F 
ATOM     84  C   UNL A   1      35.120  33.040  29.449  1.00  0.00     0.060 A 
BRANCH  84  85
ATOM     85  S   UNL A   1      33.874  34.249  28.938  1.00  0.00     0.124 S 
ATOM     86  O   UNL A   1      33.084  33.482  27.980  1.00  0.00    -0.237 OA
ATOM     87  O   UNL A   1      33.212  34.563  30.200  1.00  0.00    -0.237 OA
ATOM     88  O   UNL A   1      34.665  35.335  28.366  1.00  0.00    -0.744 OA
ENDBRANCH  84  85
ENDBRANCH  52  77
BRANCH  64  89
ATOM     89  C   UNL A   1      42.154  29.482  33.924  1.00  0.00     0.058 A 
ATOM     90  C   UNL A   1      41.866  28.144  33.597  1.00  0.00     0.135 A 
ATOM     91  C   UNL A   1      42.286  29.781  35.286  1.00  0.00     0.135 A 
ATOM     92  F   UNL A   1      41.825  27.742  32.323  1.00  0.00    -0.206 F 
ATOM     93  C   UNL A   1      41.686  27.159  34.571  1.00  0.00     0.059 A 
ATOM     94  C   UNL A   1      42.141  28.810  36.277  1.00  0.00     0.059 A 
ATOM     95  F   UNL A   1      42.628  31.022  35.669  1.00  0.00    -0.206 F 
ATOM     96  C   UNL A   1      41.831  27.501  35.912  1.00  0.00     0.060 A 
BRANCH  96  97
ATOM     97  S   UNL A   1      41.689  26.210  37.168  1.00  0.00     0.124 S 
ATOM     98  O   UNL A   1      41.793  24.992  36.371  1.00  0.00    -0.237 OA
ATOM     99  O   UNL A   1      42.823  26.491  38.044  1.00  0.00    -0.237 OA
ATOM    100  O   UNL A   1      40.378  26.455  37.764  1.00  0.00    -0.744 OA
ENDBRANCH  96  97
ENDBRANCH  64  89
ENDBRANCH  38  39
ENDBRANCH  30  33
ENDBRANCH  28  29
ENDBRANCH  27  28
ENDBRANCH  26  27
ENDBRANCH   1  26
TORSDOF 19
ENDMDL
MODEL 3
REMARK VINA RESULT:     -11.4      2.853      9.186
REMARK SMILES CCn1ccc([C@@H](C)NC(=O)c2cnn([C@H](C)C(=O)NCCCCNC(=O)c3ccc(-c4c5nc(c(-c6c(F)cc(S(=O)(=O)[O-])cc6F)c6ccc([nH]6)c(-c6c(F)cc(S(=O)(=O)[O-])cc6F)c6nc(c(-c7c(F)cc(S(=O)(=O)[O-])cc7F)c7ccc4[nH]7)C=C6)C=C5)cc3)c2)n1
REMARK SMILES IDX 21 1 20 2 18 3 19 4 16 6 17 7 15 8 12 9 13 10 94 11 14 12
REMARK SMILES IDX 10 13 9 14 11 16 7 17 8 18 6 19 3 20 4 21 95 22 5 23 2 24
REMARK SMILES IDX 1 25 22 26 23 27 24 28 25 29 26 30 27 32 28 33 29 34 93 35
REMARK SMILES IDX 30 36 92 37 31 38 32 39 33 40 86 41 34 42 91 43 85 44 87 45
REMARK SMILES IDX 35 46 90 47 84 48 83 49 36 51 70 52 49 53 69 54 50 55 53 56
REMARK SMILES IDX 68 57 88 58 51 59 52 60 67 62 89 63 54 64 37 65 38 66 47 67
REMARK SMILES IDX 39 68 40 69 46 70 48 71 41 72 42 73 43 74 44 75 45 76 71 77
REMARK SMILES IDX 72 78 81 79 73 80 74 81 80 82 82 83 75 84 76 85 77 86 78 87
REMARK SMILES IDX 79 88 55 89 56 90 65 91 57 92 58 93 64 94 66 95 59 96 60 97
REMARK SMILES IDX 61 98 62 99 63 100
REMARK H PARENT 20 5 9 15 25 31 87 50 53 61
REMARK Flexibility Score: inf
ROOT
ATOM      1  C   UNL A   1      34.588  30.560  27.538  1.00  0.00     0.116 C 
ENDROOT
BRANCH   1   2
ATOM      2  N   UNL A   1      33.424  30.823  26.718  1.00  0.00    -0.354 N 
ATOM      3  C   UNL A   1      32.434  29.984  26.285  1.00  0.00     0.244 C 
ATOM      4  O   UNL A   1      31.589  30.479  25.530  1.00  0.00    -0.273 OA
ATOM      5  H   UNL A   1      33.329  31.758  26.423  1.00  0.00     0.163 HD
BRANCH   3   6
ATOM      6  C   UNL A   1      32.418  28.487  26.594  1.00  0.00     0.193 C 
ATOM      7  C   UNL A   1      31.427  28.149  27.712  1.00  0.00     0.044 C 
BRANCH   6   8
ATOM      8  N   UNL A   1      32.334  27.673  25.385  1.00  0.00    -0.260 N 
ATOM      9  C   UNL A   1      32.813  26.365  23.677  1.00  0.00     0.077 A 
ATOM     10  C   UNL A   1      31.454  26.292  24.039  1.00  0.00     0.149 A 
ATOM     11  C   UNL A   1      33.324  27.340  24.506  1.00  0.00     0.123 A 
ATOM     12  N   UNL A   1      31.148  27.136  25.029  1.00  0.00    -0.180 NA
BRANCH   9  13
ATOM     13  C   UNL A   1      33.591  25.617  22.721  1.00  0.00     0.254 C 
ATOM     14  N   UNL A   1      34.252  24.497  23.133  1.00  0.00    -0.344 N 
ATOM     15  H   UNL A   1      34.883  24.106  22.486  1.00  0.00     0.164 HD
ATOM     16  O   UNL A   1      33.628  25.932  21.534  1.00  0.00    -0.269 OA
BRANCH  14  17
ATOM     17  C   UNL A   1      34.142  23.803  24.410  1.00  0.00     0.130 C 
ATOM     18  C   UNL A   1      35.495  23.799  25.108  1.00  0.00     0.038 C 
BRANCH  17  19
ATOM     19  C   UNL A   1      33.611  22.414  24.151  1.00  0.00     0.084 A 
ATOM     20  N   UNL A   1      33.476  20.297  24.274  1.00  0.00    -0.273 N 
ATOM     21  C   UNL A   1      32.428  20.660  23.480  1.00  0.00     0.109 A 
ATOM     22  N   UNL A   1      34.207  21.342  24.698  1.00  0.00    -0.176 NA
ATOM     23  C   UNL A   1      32.489  22.028  23.372  1.00  0.00     0.047 A 
BRANCH  20  24
ATOM     24  C   UNL A   1      33.815  18.958  24.716  1.00  0.00     0.141 C 
ATOM     25  C   UNL A   1      32.599  18.133  25.103  1.00  0.00     0.029 C 
ENDBRANCH  20  24
ENDBRANCH  17  19
ENDBRANCH  14  17
ENDBRANCH   9  13
ENDBRANCH   6   8
ENDBRANCH   3   6
ENDBRANCH   1   2
BRANCH   1  26
ATOM     26  C   UNL A   1      35.383  31.820  27.886  1.00  0.00     0.023 C 
BRANCH  26  27
ATOM     27  C   UNL A   1      34.585  33.122  27.996  1.00  0.00     0.023 C 
BRANCH  27  28
ATOM     28  C   UNL A   1      35.255  34.194  28.839  1.00  0.00     0.116 C 
BRANCH  28  29
ATOM     29  N   UNL A   1      34.581  34.459  30.117  1.00  0.00    -0.352 N 
ATOM     30  C   UNL A   1      34.686  33.725  31.299  1.00  0.00     0.251 C 
ATOM     31  H   UNL A   1      33.989  35.245  30.143  1.00  0.00     0.163 HD
ATOM     32  O   UNL A   1      33.859  33.807  32.182  1.00  0.00    -0.269 OA
BRANCH  30  33
ATOM     33  C   UNL A   1      35.873  32.859  31.438  1.00  0.00     0.039 A 
ATOM     34  C   UNL A   1      35.837  31.463  31.341  1.00  0.00     0.014 A 
ATOM     35  C   UNL A   1      37.074  33.535  31.563  1.00  0.00     0.014 A 
ATOM     36  C   UNL A   1      37.046  30.766  31.291  1.00  0.00     0.010 A 
ATOM     37  C   UNL A   1      38.220  32.888  31.226  1.00  0.00     0.010 A 
ATOM     38  C   UNL A   1      38.237  31.497  31.226  1.00  0.00    -0.014 A 
BRANCH  38  39
ATOM     39  C   UNL A   1      39.564  30.898  31.128  1.00  0.00     0.031 A 
ATOM     40  C   UNL A   1      40.257  30.646  32.427  1.00  0.00     0.074 A 
ATOM     41  C   UNL A   1      39.908  30.289  29.966  1.00  0.00     0.049 A 
ATOM     42  N   UNL A   1      41.425  31.048  32.812  1.00  0.00    -0.248 NA
ATOM     43  C   UNL A   1      39.504  29.944  33.485  1.00  0.00     0.031 C 
ATOM     44  C   UNL A   1      39.119  30.189  28.721  1.00  0.00     0.029 A 
ATOM     45  N   UNL A   1      40.952  29.463  29.703  1.00  0.00    -0.354 N 
ATOM     46  C   UNL A   1      41.646  30.454  34.055  1.00  0.00     0.074 A 
ATOM     47  C   UNL A   1      40.368  29.969  34.501  1.00  0.00     0.031 C 
ATOM     48  C   UNL A   1      39.564  29.156  27.977  1.00  0.00     0.029 A 
ATOM     49  C   UNL A   1      40.781  28.656  28.579  1.00  0.00     0.049 A 
ATOM     50  H   UNL A   1      41.763  29.435  30.260  1.00  0.00     0.167 HD
ATOM     51  C   UNL A   1      42.902  30.179  34.511  1.00  0.00     0.037 A 
ATOM     52  C   UNL A   1      41.569  27.616  28.208  1.00  0.00     0.037 A 
ATOM     53  C   UNL A   1      43.899  30.895  33.755  1.00  0.00     0.049 A 
ATOM     54  C   UNL A   1      42.861  27.799  28.926  1.00  0.00     0.074 A 
ATOM     55  C   UNL A   1      44.158  32.230  33.514  1.00  0.00     0.029 A 
ATOM     56  N   UNL A   1      44.585  30.206  32.783  1.00  0.00    -0.354 N 
ATOM     57  N   UNL A   1      43.655  28.822  28.736  1.00  0.00    -0.248 NA
ATOM     58  C   UNL A   1      43.013  27.122  30.204  1.00  0.00     0.031 C 
ATOM     59  C   UNL A   1      44.538  32.287  32.140  1.00  0.00     0.029 A 
ATOM     60  C   UNL A   1      44.565  30.979  31.648  1.00  0.00     0.049 A 
ATOM     61  H   UNL A   1      45.011  29.324  32.881  1.00  0.00     0.167 HD
ATOM     62  C   UNL A   1      44.112  29.166  30.002  1.00  0.00     0.074 A 
ATOM     63  C   UNL A   1      43.728  28.043  30.857  1.00  0.00     0.031 C 
ATOM     64  C   UNL A   1      44.490  30.446  30.303  1.00  0.00     0.037 A 
BRANCH  51  65
ATOM     65  C   UNL A   1      43.256  29.000  35.391  1.00  0.00     0.058 A 
ATOM     66  C   UNL A   1      43.986  29.214  36.579  1.00  0.00     0.135 A 
ATOM     67  C   UNL A   1      43.154  27.651  34.979  1.00  0.00     0.135 A 
ATOM     68  F   UNL A   1      44.150  30.455  37.065  1.00  0.00    -0.206 F 
ATOM     69  C   UNL A   1      44.629  28.178  37.260  1.00  0.00     0.059 A 
ATOM     70  C   UNL A   1      43.740  26.599  35.674  1.00  0.00     0.059 A 
ATOM     71  F   UNL A   1      42.569  27.296  33.829  1.00  0.00    -0.206 F 
ATOM     72  C   UNL A   1      44.515  26.875  36.786  1.00  0.00     0.060 A 
BRANCH  72  73
ATOM     73  S   UNL A   1      45.449  25.556  37.581  1.00  0.00     0.124 S 
ATOM     74  O   UNL A   1      46.561  25.388  36.652  1.00  0.00    -0.237 OA
ATOM     75  O   UNL A   1      45.777  26.152  38.872  1.00  0.00    -0.237 OA
ATOM     76  O   UNL A   1      44.495  24.452  37.632  1.00  0.00    -0.744 OA
ENDBRANCH  72  73
ENDBRANCH  51  65
BRANCH  52  77
ATOM     77  C   UNL A   1      41.128  26.322  27.619  1.00  0.00     0.058 A 
ATOM     78  C   UNL A   1      41.878  25.673  26.625  1.00  0.00     0.135 A 
ATOM     79  C   UNL A   1      40.091  25.563  28.206  1.00  0.00     0.135 A 
ATOM     80  F   UNL A   1      42.899  26.309  26.030  1.00  0.00    -0.206 F 
ATOM     81  C   UNL A   1      41.639  24.342  26.258  1.00  0.00     0.059 A 
ATOM     82  C   UNL A   1      39.828  24.240  27.852  1.00  0.00     0.059 A 
ATOM     83  F   UNL A   1      39.353  26.064  29.209  1.00  0.00    -0.206 F 
ATOM     84  C   UNL A   1      40.621  23.626  26.889  1.00  0.00     0.060 A 
BRANCH  84  85
ATOM     85  S   UNL A   1      40.413  21.865  26.527  1.00  0.00     0.124 S 
ATOM     86  O   UNL A   1      41.534  21.608  25.629  1.00  0.00    -0.237 OA
ATOM     87  O   UNL A   1      40.509  21.263  27.852  1.00  0.00    -0.237 OA
ATOM     88  O   UNL A   1      39.092  21.797  25.909  1.00  0.00    -0.744 OA
ENDBRANCH  84  85
ENDBRANCH  52  77
BRANCH  64  89
ATOM     89  C   UNL A   1      44.608  31.450  29.177  1.00  0.00     0.058 A 
ATOM     90  C   UNL A   1      45.667  31.478  28.250  1.00  0.00     0.135 A 
ATOM     91  C   UNL A   1      43.517  32.287  28.909  1.00  0.00     0.135 A 
ATOM     92  F   UNL A   1      46.701  30.639  28.364  1.00  0.00    -0.206 F 
ATOM     93  C   UNL A   1      45.659  32.315  27.132  1.00  0.00     0.059 A 
ATOM     94  C   UNL A   1      43.472  33.111  27.784  1.00  0.00     0.059 A 
ATOM     95  F   UNL A   1      42.442  32.263  29.714  1.00  0.00    -0.206 F 
ATOM     96  C   UNL A   1      44.552  33.127  26.904  1.00  0.00     0.060 A 
BRANCH  96  97
ATOM     97  S   UNL A   1      44.501  34.142  25.411  1.00  0.00     0.124 S 
ATOM     98  O   UNL A   1      43.216  34.822  25.544  1.00  0.00    -0.237 OA
ATOM     99  O   UNL A   1      45.682  34.988  25.559  1.00  0.00    -0.237 OA
ATOM    100  O   UNL A   1      44.579  33.164  24.329  1.00  0.00    -0.744 OA
ENDBRANCH  96  97
ENDBRANCH  64  89
ENDBRANCH  38  39
ENDBRANCH  30  33
ENDBRANCH  28  29
ENDBRANCH  27  28
ENDBRANCH  26  27
ENDBRANCH   1  26
TORSDOF 19
ENDMDL
