MODEL 1
REMARK VINA RESULT:     -11.1      0.000      0.000
REMARK SMILES O=C(CN1C(=O)/C(=C2/Sc3ccccc3N2CCCS(=O)(=O)[O-])SC1=S)NCCCCNC(=O)c1ccc(-c2c3nc(c(-c4c(F)cc(S(=O)(=O)[O-])cc4F)c4ccc([nH]4)c(-c4c(F)cc(S(=O)(=O)[O-])cc4F)c4nc(c(-c5c(F)cc(S(=O)(=O)[O-])cc5F)c5ccc2[nH]5)C=C4)C=C3)cc1
REMARK SMILES IDX 28 1 27 2 1 3 2 4 3 6 4 7 5 8 25 9 6 10 7 11 24 12 26 13
REMARK SMILES IDX 8 14 9 15 16 16 10 17 15 18 11 19 14 20 12 21 13 22 17 23
REMARK SMILES IDX 18 24 19 25 20 26 21 27 22 28 23 29 29 30 30 31 31 32 32 33
REMARK SMILES IDX 33 34 34 36 35 37 36 38 100 39 37 40 99 41 38 42 39 43 40 44
REMARK SMILES IDX 93 45 41 46 98 47 92 48 94 49 42 50 97 51 91 52 90 53 43 55
REMARK SMILES IDX 77 56 56 57 76 58 57 59 60 60 75 61 95 62 58 63 59 64 74 66
REMARK SMILES IDX 96 67 61 68 44 69 45 70 54 71 46 72 47 73 53 74 55 75 48 76
REMARK SMILES IDX 49 77 50 78 51 79 52 80 78 81 79 82 88 83 80 84 81 85 87 86
REMARK SMILES IDX 89 87 82 88 83 89 84 90 85 91 86 92 62 93 63 94 72 95 64 96
REMARK SMILES IDX 65 97 71 98 73 99 66 100 67 101 68 102 69 103 70 104
REMARK H PARENT 27 5 32 35 94 54 60 65
REMARK Flexibility Score: inf
ROOT
ATOM      1  C   UNL A   1      47.161  39.173  25.137  1.00  0.00     0.116 C 
ENDROOT
BRANCH   1   2
ATOM      2  N   UNL A   1      46.555  40.356  24.463  1.00  0.00    -0.355 N 
ATOM      3  O   UNL A   1      46.845  41.686  26.315  1.00  0.00    -0.273 OA
ATOM      4  C   UNL A   1      46.466  41.597  25.144  1.00  0.00     0.240 C 
ATOM      5  H   UNL A   1      46.217  40.277  23.542  1.00  0.00     0.163 HD
BRANCH   4   6
ATOM      6  C   UNL A   1      45.948  42.898  24.395  1.00  0.00     0.227 C 
BRANCH   6   7
ATOM      7  N   UNL A   1      44.704  42.708  23.539  1.00  0.00    -0.283 N 
ATOM      8  C   UNL A   1      44.733  42.600  22.166  1.00  0.00     0.269 C 
ATOM      9  C   UNL A   1      43.472  42.294  23.996  1.00  0.00     0.148 C 
ATOM     10  O   UNL A   1      45.596  42.062  21.490  1.00  0.00    -0.268 OA
ATOM     11  C   UNL A   1      43.440  42.939  21.547  1.00  0.00     0.111 C 
ATOM     12  S   UNL A   1      42.273  42.339  22.674  1.00  0.00    -0.052 SA
ATOM     13  S   UNL A   1      43.068  41.733  25.515  1.00  0.00    -0.052 S 
ATOM     14  C   UNL A   1      43.259  43.641  20.398  1.00  0.00     0.100 C 
ATOM     15  S   UNL A   1      41.570  43.720  19.720  1.00  0.00    -0.068 SA
ATOM     16  N   UNL A   1      44.167  44.398  19.604  1.00  0.00    -0.334 N 
ATOM     17  C   UNL A   1      42.144  44.804  18.425  1.00  0.00     0.037 A 
ATOM     18  C   UNL A   1      43.496  45.140  18.588  1.00  0.00     0.056 A 
ATOM     19  C   UNL A   1      41.400  45.286  17.354  1.00  0.00     0.017 A 
ATOM     20  C   UNL A   1      44.049  46.121  17.761  1.00  0.00     0.027 A 
ATOM     21  C   UNL A   1      41.990  46.204  16.484  1.00  0.00     0.001 A 
ATOM     22  C   UNL A   1      43.294  46.652  16.711  1.00  0.00     0.002 A 
BRANCH  16  23
ATOM     23  C   UNL A   1      45.592  44.167  19.335  1.00  0.00     0.124 C 
BRANCH  23  24
ATOM     24  C   UNL A   1      46.506  44.923  20.287  1.00  0.00     0.037 C 
BRANCH  24  25
ATOM     25  C   UNL A   1      45.907  46.186  20.839  1.00  0.00     0.124 C 
BRANCH  25  26
ATOM     26  S   UNL A   1      46.381  47.819  20.187  1.00  0.00     0.095 S 
ATOM     27  O   UNL A   1      47.073  47.677  18.935  1.00  0.00    -0.243 OA
ATOM     28  O   UNL A   1      45.296  48.764  20.210  1.00  0.00    -0.243 OA
ATOM     29  O   UNL A   1      47.486  48.283  21.253  1.00  0.00    -0.748 OA
ENDBRANCH  25  26
ENDBRANCH  24  25
ENDBRANCH  23  24
ENDBRANCH  16  23
ENDBRANCH   6   7
ENDBRANCH   4   6
ENDBRANCH   1   2
BRANCH   1  30
ATOM     30  C   UNL A   1      46.391  38.236  26.126  1.00  0.00     0.023 C 
BRANCH  30  31
ATOM     31  C   UNL A   1      45.677  38.619  27.450  1.00  0.00     0.023 C 
BRANCH  31  32
ATOM     32  C   UNL A   1      46.111  38.051  28.815  1.00  0.00     0.116 C 
BRANCH  32  33
ATOM     33  N   UNL A   1      47.520  37.852  29.081  1.00  0.00    -0.352 N 
ATOM     34  C   UNL A   1      48.236  36.664  29.108  1.00  0.00     0.251 C 
ATOM     35  H   UNL A   1      48.038  38.668  29.267  1.00  0.00     0.163 HD
ATOM     36  O   UNL A   1      49.454  36.714  29.278  1.00  0.00    -0.269 OA
BRANCH  34  37
ATOM     37  C   UNL A   1      47.584  35.321  28.994  1.00  0.00     0.039 A 
ATOM     38  C   UNL A   1      47.347  34.482  30.089  1.00  0.00     0.014 A 
ATOM     39  C   UNL A   1      47.145  34.908  27.729  1.00  0.00     0.014 A 
ATOM     40  C   UNL A   1      46.817  33.193  29.895  1.00  0.00     0.010 A 
ATOM     41  C   UNL A   1      46.567  33.639  27.544  1.00  0.00     0.010 A 
ATOM     42  C   UNL A   1      46.444  32.741  28.616  1.00  0.00    -0.014 A 
BRANCH  42  43
ATOM     43  C   UNL A   1      45.979  31.333  28.398  1.00  0.00     0.031 A 
ATOM     44  C   UNL A   1      44.530  30.958  28.636  1.00  0.00     0.074 A 
ATOM     45  C   UNL A   1      46.830  30.383  27.954  1.00  0.00     0.049 A 
ATOM     46  N   UNL A   1      43.939  29.795  28.501  1.00  0.00    -0.248 NA
ATOM     47  C   UNL A   1      43.627  32.030  29.087  1.00  0.00     0.031 C 
ATOM     48  C   UNL A   1      48.251  30.590  27.675  1.00  0.00     0.029 A 
ATOM     49  N   UNL A   1      46.626  29.055  27.648  1.00  0.00    -0.354 N 
ATOM     50  C   UNL A   1      42.606  29.995  28.849  1.00  0.00     0.074 A 
ATOM     51  C   UNL A   1      42.482  31.381  29.246  1.00  0.00     0.031 C 
ATOM     52  C   UNL A   1      48.781  29.448  27.206  1.00  0.00     0.029 A 
ATOM     53  C   UNL A   1      47.754  28.407  27.198  1.00  0.00     0.049 A 
ATOM     54  H   UNL A   1      45.753  28.610  27.743  1.00  0.00     0.167 HD
ATOM     55  C   UNL A   1      41.571  29.118  28.819  1.00  0.00     0.037 A 
ATOM     56  C   UNL A   1      47.952  27.123  26.829  1.00  0.00     0.037 A 
ATOM     57  C   UNL A   1      41.681  27.740  28.408  1.00  0.00     0.049 A 
ATOM     58  C   UNL A   1      46.800  26.151  26.870  1.00  0.00     0.074 A 
ATOM     59  C   UNL A   1      40.679  26.787  28.329  1.00  0.00     0.029 A 
ATOM     60  N   UNL A   1      42.853  27.118  28.008  1.00  0.00    -0.354 N 
ATOM     61  N   UNL A   1      45.545  26.371  27.179  1.00  0.00    -0.248 NA
ATOM     62  C   UNL A   1      47.092  24.753  26.514  1.00  0.00     0.031 C 
ATOM     63  C   UNL A   1      41.254  25.577  27.931  1.00  0.00     0.029 A 
ATOM     64  C   UNL A   1      42.603  25.789  27.705  1.00  0.00     0.049 A 
ATOM     65  H   UNL A   1      43.732  27.556  27.948  1.00  0.00     0.167 HD
ATOM     66  C   UNL A   1      44.896  25.149  27.033  1.00  0.00     0.074 A 
ATOM     67  C   UNL A   1      45.891  24.196  26.589  1.00  0.00     0.031 C 
ATOM     68  C   UNL A   1      43.593  24.844  27.252  1.00  0.00     0.037 A 
BRANCH  55  69
ATOM     69  C   UNL A   1      40.206  29.611  29.227  1.00  0.00     0.058 A 
ATOM     70  C   UNL A   1      39.920  29.958  30.556  1.00  0.00     0.135 A 
ATOM     71  C   UNL A   1      39.207  29.836  28.264  1.00  0.00     0.135 A 
ATOM     72  F   UNL A   1      40.832  29.755  31.520  1.00  0.00    -0.206 F 
ATOM     73  C   UNL A   1      38.690  30.501  30.919  1.00  0.00     0.059 A 
ATOM     74  C   UNL A   1      37.980  30.403  28.599  1.00  0.00     0.059 A 
ATOM     75  F   UNL A   1      39.428  29.527  26.976  1.00  0.00    -0.206 F 
ATOM     76  C   UNL A   1      37.729  30.727  29.931  1.00  0.00     0.060 A 
BRANCH  76  77
ATOM     77  S   UNL A   1      36.156  31.467  30.420  1.00  0.00     0.124 S 
ATOM     78  O   UNL A   1      36.556  32.839  30.712  1.00  0.00    -0.237 OA
ATOM     79  O   UNL A   1      35.344  31.286  29.220  1.00  0.00    -0.237 OA
ATOM     80  O   UNL A   1      35.749  30.674  31.576  1.00  0.00    -0.744 OA
ENDBRANCH  76  77
ENDBRANCH  55  69
BRANCH  56  81
ATOM     81  C   UNL A   1      49.302  26.671  26.386  1.00  0.00     0.058 A 
ATOM     82  C   UNL A   1      50.208  26.099  27.293  1.00  0.00     0.135 A 
ATOM     83  C   UNL A   1      49.717  26.806  25.052  1.00  0.00     0.135 A 
ATOM     84  F   UNL A   1      49.868  25.960  28.584  1.00  0.00    -0.206 F 
ATOM     85  C   UNL A   1      51.479  25.693  26.898  1.00  0.00     0.059 A 
ATOM     86  C   UNL A   1      50.970  26.378  24.626  1.00  0.00     0.059 A 
ATOM     87  F   UNL A   1      48.888  27.341  24.141  1.00  0.00    -0.206 F 
ATOM     88  C   UNL A   1      51.848  25.831  25.559  1.00  0.00     0.060 A 
BRANCH  88  89
ATOM     89  S   UNL A   1      53.485  25.260  25.051  1.00  0.00     0.124 S 
ATOM     90  O   UNL A   1      54.343  25.915  26.031  1.00  0.00    -0.237 OA
ATOM     91  O   UNL A   1      53.354  23.813  25.181  1.00  0.00    -0.237 OA
ATOM     92  O   UNL A   1      53.602  25.752  23.681  1.00  0.00    -0.744 OA
ENDBRANCH  88  89
ENDBRANCH  56  81
BRANCH  68  93
ATOM     93  C   UNL A   1      43.145  23.430  26.994  1.00  0.00     0.058 A 
ATOM     94  C   UNL A   1      43.061  22.909  25.693  1.00  0.00     0.135 A 
ATOM     95  C   UNL A   1      42.869  22.562  28.064  1.00  0.00     0.135 A 
ATOM     96  F   UNL A   1      43.309  23.695  24.633  1.00  0.00    -0.206 F 
ATOM     97  C   UNL A   1      42.706  21.584  25.462  1.00  0.00     0.059 A 
ATOM     98  C   UNL A   1      42.541  21.225  27.856  1.00  0.00     0.059 A 
ATOM     99  F   UNL A   1      42.943  23.004  29.329  1.00  0.00    -0.206 F 
ATOM    100  C   UNL A   1      42.454  20.747  26.551  1.00  0.00     0.060 A 
BRANCH 100 101
ATOM    101  S   UNL A   1      42.038  19.020  26.232  1.00  0.00     0.124 S 
ATOM    102  O   UNL A   1      42.832  18.739  25.041  1.00  0.00    -0.237 OA
ATOM    103  O   UNL A   1      42.481  18.363  27.458  1.00  0.00    -0.237 OA
ATOM    104  O   UNL A   1      40.592  19.047  26.030  1.00  0.00    -0.744 OA
ENDBRANCH 100 101
ENDBRANCH  68  93
ENDBRANCH  42  43
ENDBRANCH  34  37
ENDBRANCH  32  33
ENDBRANCH  31  32
ENDBRANCH  30  31
ENDBRANCH   1  30
TORSDOF 19
ENDMDL
MODEL 2
REMARK VINA RESULT:     -10.7      0.932      7.960
REMARK SMILES O=C(CN1C(=O)/C(=C2/Sc3ccccc3N2CCCS(=O)(=O)[O-])SC1=S)NCCCCNC(=O)c1ccc(-c2c3nc(c(-c4c(F)cc(S(=O)(=O)[O-])cc4F)c4ccc([nH]4)c(-c4c(F)cc(S(=O)(=O)[O-])cc4F)c4nc(c(-c5c(F)cc(S(=O)(=O)[O-])cc5F)c5ccc2[nH]5)C=C4)C=C3)cc1
REMARK SMILES IDX 28 1 27 2 1 3 2 4 3 6 4 7 5 8 25 9 6 10 7 11 24 12 26 13
REMARK SMILES IDX 8 14 9 15 16 16 10 17 15 18 11 19 14 20 12 21 13 22 17 23
REMARK SMILES IDX 18 24 19 25 20 26 21 27 22 28 23 29 29 30 30 31 31 32 32 33
REMARK SMILES IDX 33 34 34 36 35 37 36 38 100 39 37 40 99 41 38 42 39 43 40 44
REMARK SMILES IDX 93 45 41 46 98 47 92 48 94 49 42 50 97 51 91 52 90 53 43 55
REMARK SMILES IDX 77 56 56 57 76 58 57 59 60 60 75 61 95 62 58 63 59 64 74 66
REMARK SMILES IDX 96 67 61 68 44 69 45 70 54 71 46 72 47 73 53 74 55 75 48 76
REMARK SMILES IDX 49 77 50 78 51 79 52 80 78 81 79 82 88 83 80 84 81 85 87 86
REMARK SMILES IDX 89 87 82 88 83 89 84 90 85 91 86 92 62 93 63 94 72 95 64 96
REMARK SMILES IDX 65 97 71 98 73 99 66 100 67 101 68 102 69 103 70 104
REMARK H PARENT 27 5 32 35 94 54 60 65
REMARK Flexibility Score: inf
ROOT
ATOM      1  C   UNL A   1      47.124  40.666  24.915  1.00  0.00     0.116 C 
ENDROOT
BRANCH   1   2
ATOM      2  N   UNL A   1      45.875  41.445  24.678  1.00  0.00    -0.355 N 
ATOM      3  O   UNL A   1      46.714  43.305  25.735  1.00  0.00    -0.273 OA
ATOM      4  C   UNL A   1      45.780  42.790  25.113  1.00  0.00     0.240 C 
ATOM      5  H   UNL A   1      45.114  41.023  24.216  1.00  0.00     0.163 HD
BRANCH   4   6
ATOM      6  C   UNL A   1      44.510  43.673  24.751  1.00  0.00     0.227 C 
BRANCH   6   7
ATOM      7  N   UNL A   1      43.686  43.179  23.570  1.00  0.00    -0.283 N 
ATOM      8  C   UNL A   1      44.115  43.246  22.262  1.00  0.00     0.269 C 
ATOM      9  C   UNL A   1      42.605  42.330  23.646  1.00  0.00     0.148 C 
ATOM     10  O   UNL A   1      45.257  43.108  21.856  1.00  0.00    -0.268 OA
ATOM     11  C   UNL A   1      42.998  43.205  21.302  1.00  0.00     0.111 C 
ATOM     12  S   UNL A   1      41.862  42.125  22.035  1.00  0.00    -0.052 SA
ATOM     13  S   UNL A   1      42.037  41.496  24.975  1.00  0.00    -0.052 S 
ATOM     14  C   UNL A   1      42.893  43.934  20.160  1.00  0.00     0.100 C 
ATOM     15  S   UNL A   1      41.528  43.524  19.025  1.00  0.00    -0.068 SA
ATOM     16  N   UNL A   1      43.652  45.036  19.673  1.00  0.00    -0.334 N 
ATOM     17  C   UNL A   1      42.005  44.878  17.967  1.00  0.00     0.037 A 
ATOM     18  C   UNL A   1      43.058  45.624  18.518  1.00  0.00     0.056 A 
ATOM     19  C   UNL A   1      41.451  45.205  16.735  1.00  0.00     0.017 A 
ATOM     20  C   UNL A   1      43.429  46.821  17.901  1.00  0.00     0.027 A 
ATOM     21  C   UNL A   1      41.888  46.361  16.085  1.00  0.00     0.001 A 
ATOM     22  C   UNL A   1      42.842  47.188  16.687  1.00  0.00     0.002 A 
BRANCH  16  23
ATOM     23  C   UNL A   1      45.084  45.324  19.823  1.00  0.00     0.124 C 
BRANCH  23  24
ATOM     24  C   UNL A   1      45.952  44.548  18.844  1.00  0.00     0.037 C 
BRANCH  24  25
ATOM     25  C   UNL A   1      47.365  44.334  19.314  1.00  0.00     0.124 C 
BRANCH  25  26
ATOM     26  S   UNL A   1      48.646  45.601  19.057  1.00  0.00     0.095 S 
ATOM     27  O   UNL A   1      48.049  46.843  18.645  1.00  0.00    -0.243 OA
ATOM     28  O   UNL A   1      49.581  45.676  20.149  1.00  0.00    -0.243 OA
ATOM     29  O   UNL A   1      49.411  45.029  17.768  1.00  0.00    -0.748 OA
ENDBRANCH  25  26
ENDBRANCH  24  25
ENDBRANCH  23  24
ENDBRANCH  16  23
ENDBRANCH   6   7
ENDBRANCH   4   6
ENDBRANCH   1   2
BRANCH   1  30
ATOM     30  C   UNL A   1      47.188  39.103  24.966  1.00  0.00     0.023 C 
BRANCH  30  31
ATOM     31  C   UNL A   1      47.736  38.203  26.107  1.00  0.00     0.023 C 
BRANCH  31  32
ATOM     32  C   UNL A   1      46.964  37.978  27.422  1.00  0.00     0.116 C 
BRANCH  32  33
ATOM     33  N   UNL A   1      47.693  37.950  28.672  1.00  0.00    -0.352 N 
ATOM     34  C   UNL A   1      48.128  36.849  29.395  1.00  0.00     0.251 C 
ATOM     35  H   UNL A   1      47.908  38.828  29.060  1.00  0.00     0.163 HD
ATOM     36  O   UNL A   1      48.806  37.038  30.405  1.00  0.00    -0.269 OA
BRANCH  34  37
ATOM     37  C   UNL A   1      47.762  35.443  29.031  1.00  0.00     0.039 A 
ATOM     38  C   UNL A   1      47.470  35.034  27.725  1.00  0.00     0.014 A 
ATOM     39  C   UNL A   1      47.761  34.479  30.049  1.00  0.00     0.014 A 
ATOM     40  C   UNL A   1      47.041  33.719  27.472  1.00  0.00     0.010 A 
ATOM     41  C   UNL A   1      47.381  33.151  29.785  1.00  0.00     0.010 A 
ATOM     42  C   UNL A   1      46.963  32.764  28.502  1.00  0.00    -0.014 A 
BRANCH  42  43
ATOM     43  C   UNL A   1      46.406  31.395  28.248  1.00  0.00     0.031 A 
ATOM     44  C   UNL A   1      47.303  30.284  27.742  1.00  0.00     0.074 A 
ATOM     45  C   UNL A   1      45.108  31.118  28.498  1.00  0.00     0.049 A 
ATOM     46  N   UNL A   1      47.006  29.036  27.465  1.00  0.00    -0.248 NA
ATOM     47  C   UNL A   1      48.719  30.617  27.516  1.00  0.00     0.031 C 
ATOM     48  C   UNL A   1      44.123  32.080  28.991  1.00  0.00     0.029 A 
ATOM     49  N   UNL A   1      44.393  29.947  28.382  1.00  0.00    -0.354 N 
ATOM     50  C   UNL A   1      48.189  28.442  27.035  1.00  0.00     0.074 A 
ATOM     51  C   UNL A   1      49.202  29.477  27.042  1.00  0.00     0.031 C 
ATOM     52  C   UNL A   1      42.947  31.455  29.170  1.00  0.00     0.029 A 
ATOM     53  C   UNL A   1      43.073  30.059  28.757  1.00  0.00     0.049 A 
ATOM     54  H   UNL A   1      44.790  29.105  28.060  1.00  0.00     0.167 HD
ATOM     55  C   UNL A   1      48.424  27.152  26.688  1.00  0.00     0.037 A 
ATOM     56  C   UNL A   1      42.072  29.153  28.761  1.00  0.00     0.037 A 
ATOM     57  C   UNL A   1      47.427  26.111  26.695  1.00  0.00     0.049 A 
ATOM     58  C   UNL A   1      42.343  27.741  28.306  1.00  0.00     0.074 A 
ATOM     59  C   UNL A   1      47.583  24.772  26.377  1.00  0.00     0.029 A 
ATOM     60  N   UNL A   1      46.094  26.285  27.035  1.00  0.00    -0.354 N 
ATOM     61  N   UNL A   1      43.476  27.200  27.926  1.00  0.00    -0.248 NA
ATOM     62  C   UNL A   1      41.199  26.817  28.277  1.00  0.00     0.031 C 
ATOM     63  C   UNL A   1      46.337  24.148  26.474  1.00  0.00     0.029 A 
ATOM     64  C   UNL A   1      45.415  25.083  26.911  1.00  0.00     0.049 A 
ATOM     65  H   UNL A   1      45.692  27.136  27.323  1.00  0.00     0.167 HD
ATOM     66  C   UNL A   1      43.184  25.870  27.636  1.00  0.00     0.074 A 
ATOM     67  C   UNL A   1      41.774  25.682  27.902  1.00  0.00     0.031 C 
ATOM     68  C   UNL A   1      44.012  24.895  27.186  1.00  0.00     0.037 A 
BRANCH  55  69
ATOM     69  C   UNL A   1      49.824  26.767  26.280  1.00  0.00     0.058 A 
ATOM     70  C   UNL A   1      50.683  26.088  27.159  1.00  0.00     0.135 A 
ATOM     71  C   UNL A   1      50.274  26.986  24.967  1.00  0.00     0.135 A 
ATOM     72  F   UNL A   1      50.309  25.862  28.428  1.00  0.00    -0.206 F 
ATOM     73  C   UNL A   1      51.940  25.649  26.754  1.00  0.00     0.059 A 
ATOM     74  C   UNL A   1      51.516  26.532  24.533  1.00  0.00     0.059 A 
ATOM     75  F   UNL A   1      49.493  27.626  24.083  1.00  0.00    -0.206 F 
ATOM     76  C   UNL A   1      52.345  25.868  25.436  1.00  0.00     0.060 A 
BRANCH  76  77
ATOM     77  S   UNL A   1      53.966  25.257  24.925  1.00  0.00     0.124 S 
ATOM     78  O   UNL A   1      54.113  25.881  23.614  1.00  0.00    -0.237 OA
ATOM     79  O   UNL A   1      54.837  25.776  25.974  1.00  0.00    -0.237 OA
ATOM     80  O   UNL A   1      53.796  23.807  24.912  1.00  0.00    -0.744 OA
ENDBRANCH  76  77
ENDBRANCH  55  69
BRANCH  56  81
ATOM     81  C   UNL A   1      40.707  29.548  29.211  1.00  0.00     0.058 A 
ATOM     82  C   UNL A   1      39.663  29.726  28.290  1.00  0.00     0.135 A 
ATOM     83  C   UNL A   1      40.419  29.763  30.569  1.00  0.00     0.135 A 
ATOM     84  F   UNL A   1      39.887  29.548  26.979  1.00  0.00    -0.206 F 
ATOM     85  C   UNL A   1      38.390  30.116  28.695  1.00  0.00     0.059 A 
ATOM     86  C   UNL A   1      39.146  30.122  31.001  1.00  0.00     0.059 A 
ATOM     87  F   UNL A   1      41.378  29.601  31.493  1.00  0.00    -0.206 F 
ATOM     88  C   UNL A   1      38.140  30.305  30.054  1.00  0.00     0.060 A 
BRANCH  88  89
ATOM     89  S   UNL A   1      36.472  30.770  30.570  1.00  0.00     0.124 S 
ATOM     90  O   UNL A   1      35.752  30.740  29.303  1.00  0.00    -0.237 OA
ATOM     91  O   UNL A   1      36.143  29.710  31.518  1.00  0.00    -0.237 OA
ATOM     92  O   UNL A   1      36.658  32.093  31.160  1.00  0.00    -0.744 OA
ENDBRANCH  88  89
ENDBRANCH  56  81
BRANCH  68  93
ATOM     93  C   UNL A   1      43.435  23.522  26.971  1.00  0.00     0.058 A 
ATOM     94  C   UNL A   1      43.156  23.033  25.685  1.00  0.00     0.135 A 
ATOM     95  C   UNL A   1      43.230  22.655  28.057  1.00  0.00     0.135 A 
ATOM     96  F   UNL A   1      43.327  23.820  24.610  1.00  0.00    -0.206 F 
ATOM     97  C   UNL A   1      42.680  21.740  25.485  1.00  0.00     0.059 A 
ATOM     98  C   UNL A   1      42.783  21.348  27.877  1.00  0.00     0.059 A 
ATOM     99  F   UNL A   1      43.490  23.065  29.308  1.00  0.00    -0.206 F 
ATOM    100  C   UNL A   1      42.503  20.903  26.588  1.00  0.00     0.060 A 
BRANCH 100 101
ATOM    101  S   UNL A   1      41.928  19.215  26.304  1.00  0.00     0.124 S 
ATOM    102  O   UNL A   1      42.818  18.776  25.234  1.00  0.00    -0.237 OA
ATOM    103  O   UNL A   1      42.146  18.591  27.605  1.00  0.00    -0.237 OA
ATOM    104  O   UNL A   1      40.529  19.389  25.925  1.00  0.00    -0.744 OA
ENDBRANCH 100 101
ENDBRANCH  68  93
ENDBRANCH  42  43
ENDBRANCH  34  37
ENDBRANCH  32  33
ENDBRANCH  31  32
ENDBRANCH  30  31
ENDBRANCH   1  30
TORSDOF 19
ENDMDL
MODEL 3
REMARK VINA RESULT:     -10.0      2.682      8.764
REMARK SMILES O=C(CN1C(=O)/C(=C2/Sc3ccccc3N2CCCS(=O)(=O)[O-])SC1=S)NCCCCNC(=O)c1ccc(-c2c3nc(c(-c4c(F)cc(S(=O)(=O)[O-])cc4F)c4ccc([nH]4)c(-c4c(F)cc(S(=O)(=O)[O-])cc4F)c4nc(c(-c5c(F)cc(S(=O)(=O)[O-])cc5F)c5ccc2[nH]5)C=C4)C=C3)cc1
REMARK SMILES IDX 28 1 27 2 1 3 2 4 3 6 4 7 5 8 25 9 6 10 7 11 24 12 26 13
REMARK SMILES IDX 8 14 9 15 16 16 10 17 15 18 11 19 14 20 12 21 13 22 17 23
REMARK SMILES IDX 18 24 19 25 20 26 21 27 22 28 23 29 29 30 30 31 31 32 32 33
REMARK SMILES IDX 33 34 34 36 35 37 36 38 100 39 37 40 99 41 38 42 39 43 40 44
REMARK SMILES IDX 93 45 41 46 98 47 92 48 94 49 42 50 97 51 91 52 90 53 43 55
REMARK SMILES IDX 77 56 56 57 76 58 57 59 60 60 75 61 95 62 58 63 59 64 74 66
REMARK SMILES IDX 96 67 61 68 44 69 45 70 54 71 46 72 47 73 53 74 55 75 48 76
REMARK SMILES IDX 49 77 50 78 51 79 52 80 78 81 79 82 88 83 80 84 81 85 87 86
REMARK SMILES IDX 89 87 82 88 83 89 84 90 85 91 86 92 62 93 63 94 72 95 64 96
REMARK SMILES IDX 65 97 71 98 73 99 66 100 67 101 68 102 69 103 70 104
REMARK H PARENT 27 5 32 35 94 54 60 65
REMARK Flexibility Score: inf
ROOT
ATOM      1  C   UNL A   1      47.090  37.937  25.806  1.00  0.00     0.116 C 
ENDROOT
BRANCH   1   2
ATOM      2  N   UNL A   1      46.059  38.821  26.421  1.00  0.00    -0.355 N 
ATOM      3  O   UNL A   1      46.102  40.278  24.644  1.00  0.00    -0.273 OA
ATOM      4  C   UNL A   1      45.607  39.975  25.733  1.00  0.00     0.240 C 
ATOM      5  H   UNL A   1      45.691  38.603  27.308  1.00  0.00     0.163 HD
BRANCH   4   6
ATOM      6  C   UNL A   1      44.416  40.851  26.314  1.00  0.00     0.227 C 
BRANCH   6   7
ATOM      7  N   UNL A   1      44.833  42.121  27.043  1.00  0.00    -0.283 N 
ATOM      8  C   UNL A   1      45.067  43.321  26.409  1.00  0.00     0.269 C 
ATOM      9  C   UNL A   1      44.714  42.343  28.397  1.00  0.00     0.148 C 
ATOM     10  O   UNL A   1      44.478  43.764  25.436  1.00  0.00    -0.268 OA
ATOM     11  C   UNL A   1      45.926  44.218  27.201  1.00  0.00     0.111 C 
ATOM     12  S   UNL A   1      45.449  43.910  28.835  1.00  0.00    -0.052 SA
ATOM     13  S   UNL A   1      43.943  41.398  29.536  1.00  0.00    -0.052 S 
ATOM     14  C   UNL A   1      46.913  45.018  26.719  1.00  0.00     0.100 C 
ATOM     15  S   UNL A   1      47.668  46.208  27.873  1.00  0.00    -0.068 SA
ATOM     16  N   UNL A   1      47.530  45.084  25.437  1.00  0.00    -0.334 N 
ATOM     17  C   UNL A   1      48.812  46.711  26.602  1.00  0.00     0.037 A 
ATOM     18  C   UNL A   1      48.670  45.941  25.438  1.00  0.00     0.056 A 
ATOM     19  C   UNL A   1      49.748  47.735  26.684  1.00  0.00     0.017 A 
ATOM     20  C   UNL A   1      49.609  46.089  24.414  1.00  0.00     0.027 A 
ATOM     21  C   UNL A   1      50.630  47.929  25.618  1.00  0.00     0.001 A 
ATOM     22  C   UNL A   1      50.589  47.081  24.508  1.00  0.00     0.002 A 
BRANCH  16  23
ATOM     23  C   UNL A   1      46.951  44.857  24.107  1.00  0.00     0.124 C 
BRANCH  23  24
ATOM     24  C   UNL A   1      47.254  43.472  23.555  1.00  0.00     0.037 C 
BRANCH  24  25
ATOM     25  C   UNL A   1      47.664  43.465  22.109  1.00  0.00     0.124 C 
BRANCH  25  26
ATOM     26  S   UNL A   1      46.892  42.326  20.915  1.00  0.00     0.095 S 
ATOM     27  O   UNL A   1      45.833  41.584  21.543  1.00  0.00    -0.243 OA
ATOM     28  O   UNL A   1      46.568  42.965  19.667  1.00  0.00    -0.243 OA
ATOM     29  O   UNL A   1      48.078  41.276  20.660  1.00  0.00    -0.748 OA
ENDBRANCH  25  26
ENDBRANCH  24  25
ENDBRANCH  23  24
ENDBRANCH  16  23
ENDBRANCH   6   7
ENDBRANCH   4   6
ENDBRANCH   1   2
BRANCH   1  30
ATOM     30  C   UNL A   1      48.626  38.232  25.827  1.00  0.00     0.023 C 
BRANCH  30  31
ATOM     31  C   UNL A   1      49.765  37.343  26.395  1.00  0.00     0.023 C 
BRANCH  31  32
ATOM     32  C   UNL A   1      50.046  37.230  27.906  1.00  0.00     0.116 C 
BRANCH  32  33
ATOM     33  N   UNL A   1      49.063  37.723  28.846  1.00  0.00    -0.352 N 
ATOM     34  C   UNL A   1      48.006  37.040  29.432  1.00  0.00     0.251 C 
ATOM     35  H   UNL A   1      49.156  38.668  29.105  1.00  0.00     0.163 HD
ATOM     36  O   UNL A   1      47.323  37.622  30.274  1.00  0.00    -0.269 OA
BRANCH  34  37
ATOM     37  C   UNL A   1      47.627  35.644  29.042  1.00  0.00     0.039 A 
ATOM     38  C   UNL A   1      47.065  35.313  27.805  1.00  0.00     0.014 A 
ATOM     39  C   UNL A   1      47.898  34.612  29.951  1.00  0.00     0.014 A 
ATOM     40  C   UNL A   1      46.645  33.996  27.545  1.00  0.00     0.010 A 
ATOM     41  C   UNL A   1      47.525  33.286  29.669  1.00  0.00     0.010 A 
ATOM     42  C   UNL A   1      46.844  32.967  28.483  1.00  0.00    -0.014 A 
BRANCH  42  43
ATOM     43  C   UNL A   1      46.302  31.589  28.247  1.00  0.00     0.031 A 
ATOM     44  C   UNL A   1      47.203  30.492  27.717  1.00  0.00     0.074 A 
ATOM     45  C   UNL A   1      45.017  31.291  28.534  1.00  0.00     0.049 A 
ATOM     46  N   UNL A   1      46.920  29.239  27.450  1.00  0.00    -0.248 NA
ATOM     47  C   UNL A   1      48.606  30.848  27.450  1.00  0.00     0.031 C 
ATOM     48  C   UNL A   1      44.030  32.237  29.054  1.00  0.00     0.029 A 
ATOM     49  N   UNL A   1      44.319  30.107  28.440  1.00  0.00    -0.354 N 
ATOM     50  C   UNL A   1      48.100  28.664  26.987  1.00  0.00     0.074 A 
ATOM     51  C   UNL A   1      49.094  29.715  26.964  1.00  0.00     0.031 C 
ATOM     52  C   UNL A   1      42.870  31.593  29.267  1.00  0.00     0.029 A 
ATOM     53  C   UNL A   1      43.008  30.198  28.852  1.00  0.00     0.049 A 
ATOM     54  H   UNL A   1      44.720  29.272  28.107  1.00  0.00     0.167 HD
ATOM     55  C   UNL A   1      48.346  27.378  26.635  1.00  0.00     0.037 A 
ATOM     56  C   UNL A   1      42.023  29.276  28.886  1.00  0.00     0.037 A 
ATOM     57  C   UNL A   1      47.366  26.320  26.671  1.00  0.00     0.049 A 
ATOM     58  C   UNL A   1      42.304  27.868  28.425  1.00  0.00     0.074 A 
ATOM     59  C   UNL A   1      47.536  24.983  26.350  1.00  0.00     0.029 A 
ATOM     60  N   UNL A   1      46.041  26.472  27.049  1.00  0.00    -0.354 N 
ATOM     61  N   UNL A   1      43.434  27.345  28.013  1.00  0.00    -0.248 NA
ATOM     62  C   UNL A   1      41.175  26.925  28.429  1.00  0.00     0.031 C 
ATOM     63  C   UNL A   1      46.303  24.339  26.484  1.00  0.00     0.029 A 
ATOM     64  C   UNL A   1      45.379  25.259  26.945  1.00  0.00     0.049 A 
ATOM     65  H   UNL A   1      45.633  27.317  27.347  1.00  0.00     0.167 HD
ATOM     66  C   UNL A   1      43.157  26.010  27.733  1.00  0.00     0.074 A 
ATOM     67  C   UNL A   1      41.758  25.800  28.039  1.00  0.00     0.031 C 
ATOM     68  C   UNL A   1      43.987  25.048  27.261  1.00  0.00     0.037 A 
BRANCH  55  69
ATOM     69  C   UNL A   1      49.739  27.015  26.188  1.00  0.00     0.058 A 
ATOM     70  C   UNL A   1      50.702  26.546  27.096  1.00  0.00     0.135 A 
ATOM     71  C   UNL A   1      50.084  27.038  24.825  1.00  0.00     0.135 A 
ATOM     72  F   UNL A   1      50.431  26.513  28.410  1.00  0.00    -0.206 F 
ATOM     73  C   UNL A   1      51.958  26.123  26.671  1.00  0.00     0.059 A 
ATOM     74  C   UNL A   1      51.324  26.593  24.375  1.00  0.00     0.059 A 
ATOM     75  F   UNL A   1      49.201  27.472  23.912  1.00  0.00    -0.206 F 
ATOM     76  C   UNL A   1      52.257  26.142  25.308  1.00  0.00     0.060 A 
BRANCH  76  77
ATOM     77  S   UNL A   1      53.880  25.553  24.778  1.00  0.00     0.124 S 
ATOM     78  O   UNL A   1      54.038  26.241  23.500  1.00  0.00    -0.237 OA
ATOM     79  O   UNL A   1      54.745  26.018  25.857  1.00  0.00    -0.237 OA
ATOM     80  O   UNL A   1      53.708  24.106  24.693  1.00  0.00    -0.744 OA
ENDBRANCH  76  77
ENDBRANCH  55  69
BRANCH  56  81
ATOM     81  C   UNL A   1      40.665  29.649  29.374  1.00  0.00     0.058 A 
ATOM     82  C   UNL A   1      39.594  29.816  28.482  1.00  0.00     0.135 A 
ATOM     83  C   UNL A   1      40.410  29.853  30.740  1.00  0.00     0.135 A 
ATOM     84  F   UNL A   1      39.786  29.648  27.165  1.00  0.00    -0.206 F 
ATOM     85  C   UNL A   1      38.326  30.186  28.923  1.00  0.00     0.059 A 
ATOM     86  C   UNL A   1      39.144  30.191  31.208  1.00  0.00     0.059 A 
ATOM     87  F   UNL A   1      41.396  29.701  31.638  1.00  0.00    -0.206 F 
ATOM     88  C   UNL A   1      38.111  30.365  30.290  1.00  0.00     0.060 A 
BRANCH  88  89
ATOM     89  S   UNL A   1      36.450  30.803  30.852  1.00  0.00     0.124 S 
ATOM     90  O   UNL A   1      35.743  30.962  29.588  1.00  0.00    -0.237 OA
ATOM     91  O   UNL A   1      36.084  29.636  31.648  1.00  0.00    -0.237 OA
ATOM     92  O   UNL A   1      36.666  32.030  31.614  1.00  0.00    -0.744 OA
ENDBRANCH  88  89
ENDBRANCH  56  81
BRANCH  68  93
ATOM     93  C   UNL A   1      43.427  23.665  27.063  1.00  0.00     0.058 A 
ATOM     94  C   UNL A   1      43.368  22.737  28.115  1.00  0.00     0.135 A 
ATOM     95  C   UNL A   1      42.872  23.289  25.829  1.00  0.00     0.135 A 
ATOM     96  F   UNL A   1      43.889  23.041  29.315  1.00  0.00    -0.206 F 
ATOM     97  C   UNL A   1      42.794  21.480  27.945  1.00  0.00     0.059 A 
ATOM     98  C   UNL A   1      42.266  22.049  25.646  1.00  0.00     0.059 A 
ATOM     99  F   UNL A   1      42.891  24.140  24.792  1.00  0.00    -0.206 F 
ATOM    100  C   UNL A   1      42.239  21.148  26.708  1.00  0.00     0.060 A 
BRANCH 100 101
ATOM    101  S   UNL A   1      41.459  19.531  26.521  1.00  0.00     0.124 S 
ATOM    102  O   UNL A   1      40.135  19.897  26.030  1.00  0.00    -0.237 OA
ATOM    103  O   UNL A   1      42.334  18.875  25.554  1.00  0.00    -0.237 OA
ATOM    104  O   UNL A   1      41.496  18.975  27.870  1.00  0.00    -0.744 OA
ENDBRANCH 100 101
ENDBRANCH  68  93
ENDBRANCH  42  43
ENDBRANCH  34  37
ENDBRANCH  32  33
ENDBRANCH  31  32
ENDBRANCH  30  31
ENDBRANCH   1  30
TORSDOF 19
ENDMDL
