MODEL 1
REMARK VINA RESULT:     -12.0      0.000      0.000
REMARK SMILES Cc1cc(C)c2c(=O)n(CCCC(=O)NCCCCNC(=O)c3ccc(-c4c5nc(c(-c6c(F)cc(S(=O)(=O)[O-])cc6F)c6ccc([nH]6)c(-c6c(F)cc(S(=O)(=O)[O-])cc6F)c6nc(c(-c7c(F)cc(S(=O)(=O)[O-])cc7F)c7ccc4[nH]7)C=C6)C=C5)cc3)sc2n1
REMARK SMILES IDX 17 1 16 2 15 3 13 4 14 5 12 7 11 8 10 9 9 10 1 11 2 12 3 13
REMARK SMILES IDX 91 14 4 15 90 16 5 17 6 18 89 19 7 20 8 21 18 22 19 23 20 24
REMARK SMILES IDX 21 25 22 27 23 28 24 29 88 30 25 31 87 32 26 33 27 34 28 35
REMARK SMILES IDX 81 36 29 37 86 38 80 39 82 40 30 41 85 42 79 43 78 44 31 46
REMARK SMILES IDX 65 47 44 48 64 49 45 50 48 51 63 52 83 53 46 54 47 55 62 57
REMARK SMILES IDX 84 58 49 59 32 60 33 61 42 62 34 63 35 64 41 65 43 66 36 67
REMARK SMILES IDX 37 68 38 69 39 70 40 71 66 72 67 73 76 74 68 75 69 76 75 77
REMARK SMILES IDX 77 78 70 79 71 80 72 81 73 82 74 83 50 84 51 85 60 86 52 87
REMARK SMILES IDX 53 88 59 89 61 90 54 91 55 92 56 93 57 94 58 95
REMARK H PARENT 15 6 20 26 82 45 48 56
REMARK Flexibility Score: inf
ROOT
ATOM      1  C   UNL A   1      40.833  21.668  26.235  1.00  0.00     0.023 C 
ENDROOT
BRANCH   1   2
ATOM      2  C   UNL A   1      39.349  21.863  26.575  1.00  0.00     0.116 C 
BRANCH   2   3
ATOM      3  N   UNL A   1      38.543  21.840  25.371  1.00  0.00    -0.356 N 
ATOM      4  C   UNL A   1      37.365  22.449  25.076  1.00  0.00     0.220 C 
ATOM      5  O   UNL A   1      36.797  22.125  24.030  1.00  0.00    -0.275 OA
ATOM      6  H   UNL A   1      38.912  21.289  24.644  1.00  0.00     0.163 HD
BRANCH   4   7
ATOM      7  C   UNL A   1      36.803  23.561  25.940  1.00  0.00     0.102 C 
BRANCH   7   8
ATOM      8  C   UNL A   1      35.603  24.370  25.434  1.00  0.00     0.033 C 
BRANCH   8   9
ATOM      9  C   UNL A   1      34.174  24.028  25.880  1.00  0.00     0.139 C 
BRANCH   9  10
ATOM     10  N   UNL A   1      33.583  22.727  25.615  1.00  0.00    -0.262 N 
ATOM     11  C   UNL A   1      33.033  16.725  24.606  1.00  0.00     0.067 C 
ATOM     12  C   UNL A   1      32.897  18.213  24.475  1.00  0.00     0.039 A 
ATOM     13  C   UNL A   1      32.431  18.797  23.288  1.00  0.00     0.027 A 
ATOM     14  N   UNL A   1      33.279  18.946  25.546  1.00  0.00    -0.241 NA
ATOM     15  C   UNL A   1      32.381  20.196  23.163  1.00  0.00    -0.033 A 
ATOM     16  C   UNL A   1      33.239  20.278  25.388  1.00  0.00     0.146 A 
ATOM     17  C   UNL A   1      31.817  20.835  21.933  1.00  0.00     0.045 C 
ATOM     18  C   UNL A   1      32.864  20.938  24.233  1.00  0.00     0.081 A 
ATOM     19  S   UNL A   1      33.633  21.406  26.693  1.00  0.00    -0.035 S 
ATOM     20  C   UNL A   1      33.109  22.395  24.342  1.00  0.00     0.270 A 
ATOM     21  O   UNL A   1      32.981  23.164  23.402  1.00  0.00    -0.268 OA
ENDBRANCH   9  10
ENDBRANCH   8   9
ENDBRANCH   7   8
ENDBRANCH   4   7
ENDBRANCH   2   3
ENDBRANCH   1   2
BRANCH   1  22
ATOM     22  C   UNL A   1      41.292  20.211  26.101  1.00  0.00     0.023 C 
BRANCH  22  23
ATOM     23  C   UNL A   1      42.648  19.927  26.731  1.00  0.00     0.116 C 
BRANCH  23  24
ATOM     24  N   UNL A   1      43.673  19.579  25.748  1.00  0.00    -0.352 N 
ATOM     25  C   UNL A   1      44.336  20.444  24.889  1.00  0.00     0.251 C 
ATOM     26  H   UNL A   1      43.919  18.628  25.689  1.00  0.00     0.163 HD
ATOM     27  O   UNL A   1      44.875  20.047  23.877  1.00  0.00    -0.269 OA
BRANCH  25  28
ATOM     28  C   UNL A   1      44.363  21.870  25.261  1.00  0.00     0.039 A 
ATOM     29  C   UNL A   1      43.642  22.820  24.537  1.00  0.00     0.014 A 
ATOM     30  C   UNL A   1      45.046  22.213  26.426  1.00  0.00     0.014 A 
ATOM     31  C   UNL A   1      43.527  24.107  25.059  1.00  0.00     0.010 A 
ATOM     32  C   UNL A   1      44.815  23.439  27.004  1.00  0.00     0.010 A 
ATOM     33  C   UNL A   1      44.086  24.403  26.316  1.00  0.00    -0.014 A 
BRANCH  33  34
ATOM     34  C   UNL A   1      43.801  25.683  26.965  1.00  0.00     0.031 A 
ATOM     35  C   UNL A   1      44.780  26.768  26.668  1.00  0.00     0.074 A 
ATOM     36  C   UNL A   1      42.656  25.950  27.633  1.00  0.00     0.049 A 
ATOM     37  N   UNL A   1      45.679  27.252  27.459  1.00  0.00    -0.248 NA
ATOM     38  C   UNL A   1      44.872  27.281  25.290  1.00  0.00     0.031 C 
ATOM     39  C   UNL A   1      41.459  25.105  27.748  1.00  0.00     0.029 A 
ATOM     40  N   UNL A   1      42.281  27.088  28.284  1.00  0.00    -0.354 N 
ATOM     41  C   UNL A   1      46.281  28.299  26.764  1.00  0.00     0.074 A 
ATOM     42  C   UNL A   1      45.889  28.142  25.389  1.00  0.00     0.031 C 
ATOM     43  C   UNL A   1      40.426  25.840  28.212  1.00  0.00     0.029 A 
ATOM     44  C   UNL A   1      40.932  27.136  28.618  1.00  0.00     0.049 A 
ATOM     45  H   UNL A   1      42.911  27.813  28.497  1.00  0.00     0.167 HD
ATOM     46  C   UNL A   1      46.830  29.356  27.427  1.00  0.00     0.037 A 
ATOM     47  C   UNL A   1      40.274  28.157  29.217  1.00  0.00     0.037 A 
ATOM     48  C   UNL A   1      46.900  29.088  28.841  1.00  0.00     0.049 A 
ATOM     49  C   UNL A   1      41.285  28.935  29.970  1.00  0.00     0.074 A 
ATOM     50  C   UNL A   1      47.685  28.332  29.682  1.00  0.00     0.029 A 
ATOM     51  N   UNL A   1      45.747  29.393  29.517  1.00  0.00    -0.354 N 
ATOM     52  N   UNL A   1      41.954  28.455  30.982  1.00  0.00    -0.248 NA
ATOM     53  C   UNL A   1      41.817  30.166  29.397  1.00  0.00     0.031 C 
ATOM     54  C   UNL A   1      46.864  28.014  30.807  1.00  0.00     0.029 A 
ATOM     55  C   UNL A   1      45.620  28.620  30.641  1.00  0.00     0.049 A 
ATOM     56  H   UNL A   1      45.098  30.076  29.233  1.00  0.00     0.167 HD
ATOM     57  C   UNL A   1      43.191  29.060  30.891  1.00  0.00     0.074 A 
ATOM     58  C   UNL A   1      42.990  30.218  30.030  1.00  0.00     0.031 C 
ATOM     59  C   UNL A   1      44.327  28.396  31.254  1.00  0.00     0.037 A 
BRANCH  46  60
ATOM     60  C   UNL A   1      46.886  30.782  26.919  1.00  0.00     0.058 A 
ATOM     61  C   UNL A   1      48.113  31.482  26.938  1.00  0.00     0.135 A 
ATOM     62  C   UNL A   1      45.741  31.577  26.692  1.00  0.00     0.135 A 
ATOM     63  F   UNL A   1      49.265  30.831  27.167  1.00  0.00    -0.206 F 
ATOM     64  C   UNL A   1      48.190  32.869  26.788  1.00  0.00     0.059 A 
ATOM     65  C   UNL A   1      45.800  32.954  26.489  1.00  0.00     0.059 A 
ATOM     66  F   UNL A   1      44.504  31.072  26.758  1.00  0.00    -0.206 F 
ATOM     67  C   UNL A   1      47.025  33.597  26.572  1.00  0.00     0.060 A 
BRANCH  67  68
ATOM     68  S   UNL A   1      47.113  35.393  26.443  1.00  0.00     0.124 S 
ATOM     69  O   UNL A   1      48.139  35.566  25.421  1.00  0.00    -0.237 OA
ATOM     70  O   UNL A   1      45.751  35.735  26.046  1.00  0.00    -0.237 OA
ATOM     71  O   UNL A   1      47.487  35.809  27.792  1.00  0.00    -0.744 OA
ENDBRANCH  67  68
ENDBRANCH  46  60
BRANCH  47  72
ATOM     72  C   UNL A   1      38.905  28.667  28.956  1.00  0.00     0.058 A 
ATOM     73  C   UNL A   1      37.975  28.773  30.006  1.00  0.00     0.135 A 
ATOM     74  C   UNL A   1      38.597  29.365  27.772  1.00  0.00     0.135 A 
ATOM     75  F   UNL A   1      38.186  28.131  31.164  1.00  0.00    -0.206 F 
ATOM     76  C   UNL A   1      36.859  29.609  29.927  1.00  0.00     0.059 A 
ATOM     77  C   UNL A   1      37.485  30.199  27.667  1.00  0.00     0.059 A 
ATOM     78  F   UNL A   1      39.427  29.337  26.719  1.00  0.00    -0.206 F 
ATOM     79  C   UNL A   1      36.644  30.348  28.765  1.00  0.00     0.060 A 
BRANCH  79  80
ATOM     80  S   UNL A   1      35.347  31.608  28.757  1.00  0.00     0.124 S 
ATOM     81  O   UNL A   1      35.197  31.897  30.178  1.00  0.00    -0.237 OA
ATOM     82  O   UNL A   1      35.955  32.665  27.953  1.00  0.00    -0.237 OA
ATOM     83  O   UNL A   1      34.216  30.927  28.133  1.00  0.00    -0.744 OA
ENDBRANCH  79  80
ENDBRANCH  47  72
BRANCH  59  84
ATOM     84  C   UNL A   1      44.191  27.275  32.244  1.00  0.00     0.058 A 
ATOM     85  C   UNL A   1      44.218  25.906  31.930  1.00  0.00     0.135 A 
ATOM     86  C   UNL A   1      44.096  27.621  33.600  1.00  0.00     0.135 A 
ATOM     87  F   UNL A   1      44.386  25.489  30.667  1.00  0.00    -0.206 F 
ATOM     88  C   UNL A   1      44.116  24.927  32.921  1.00  0.00     0.059 A 
ATOM     89  C   UNL A   1      44.025  26.665  34.605  1.00  0.00     0.059 A 
ATOM     90  F   UNL A   1      44.108  28.914  33.965  1.00  0.00    -0.206 F 
ATOM     91  C   UNL A   1      44.020  25.316  34.257  1.00  0.00     0.060 A 
BRANCH  91  92
ATOM     92  S   UNL A   1      43.936  24.051  35.543  1.00  0.00     0.124 S 
ATOM     93  O   UNL A   1      43.797  24.852  36.754  1.00  0.00    -0.237 OA
ATOM     94  O   UNL A   1      42.757  23.283  35.152  1.00  0.00    -0.237 OA
ATOM     95  O   UNL A   1      45.206  23.340  35.408  1.00  0.00    -0.744 OA
ENDBRANCH  91  92
ENDBRANCH  59  84
ENDBRANCH  33  34
ENDBRANCH  25  28
ENDBRANCH  23  24
ENDBRANCH  22  23
ENDBRANCH   1  22
TORSDOF 17
ENDMDL
MODEL 2
REMARK VINA RESULT:     -11.8      2.916      4.736
REMARK SMILES Cc1cc(C)c2c(=O)n(CCCC(=O)NCCCCNC(=O)c3ccc(-c4c5nc(c(-c6c(F)cc(S(=O)(=O)[O-])cc6F)c6ccc([nH]6)c(-c6c(F)cc(S(=O)(=O)[O-])cc6F)c6nc(c(-c7c(F)cc(S(=O)(=O)[O-])cc7F)c7ccc4[nH]7)C=C6)C=C5)cc3)sc2n1
REMARK SMILES IDX 17 1 16 2 15 3 13 4 14 5 12 7 11 8 10 9 9 10 1 11 2 12 3 13
REMARK SMILES IDX 91 14 4 15 90 16 5 17 6 18 89 19 7 20 8 21 18 22 19 23 20 24
REMARK SMILES IDX 21 25 22 27 23 28 24 29 88 30 25 31 87 32 26 33 27 34 28 35
REMARK SMILES IDX 81 36 29 37 86 38 80 39 82 40 30 41 85 42 79 43 78 44 31 46
REMARK SMILES IDX 65 47 44 48 64 49 45 50 48 51 63 52 83 53 46 54 47 55 62 57
REMARK SMILES IDX 84 58 49 59 32 60 33 61 42 62 34 63 35 64 41 65 43 66 36 67
REMARK SMILES IDX 37 68 38 69 39 70 40 71 66 72 67 73 76 74 68 75 69 76 75 77
REMARK SMILES IDX 77 78 70 79 71 80 72 81 73 82 74 83 50 84 51 85 60 86 52 87
REMARK SMILES IDX 53 88 59 89 61 90 54 91 55 92 56 93 57 94 58 95
REMARK H PARENT 15 6 20 26 82 45 48 56
REMARK Flexibility Score: inf
ROOT
ATOM      1  C   UNL A   1      36.300  21.597  24.599  1.00  0.00     0.023 C 
ENDROOT
BRANCH   1   2
ATOM      2  C   UNL A   1      35.667  20.253  24.986  1.00  0.00     0.116 C 
BRANCH   2   3
ATOM      3  N   UNL A   1      34.434  20.462  25.717  1.00  0.00    -0.356 N 
ATOM      4  C   UNL A   1      33.192  20.807  25.288  1.00  0.00     0.220 C 
ATOM      5  O   UNL A   1      32.349  21.093  26.142  1.00  0.00    -0.275 OA
ATOM      6  H   UNL A   1      34.509  20.334  26.690  1.00  0.00     0.163 HD
BRANCH   4   7
ATOM      7  C   UNL A   1      32.810  20.754  23.822  1.00  0.00     0.102 C 
BRANCH   7   8
ATOM      8  C   UNL A   1      32.467  22.055  23.088  1.00  0.00     0.033 C 
BRANCH   8   9
ATOM      9  C   UNL A   1      33.550  23.099  22.781  1.00  0.00     0.139 C 
BRANCH   9  10
ATOM     10  N   UNL A   1      33.697  24.304  23.581  1.00  0.00    -0.262 N 
ATOM     11  C   UNL A   1      32.378  28.967  27.303  1.00  0.00     0.067 C 
ATOM     12  C   UNL A   1      32.877  28.171  26.134  1.00  0.00     0.039 A 
ATOM     13  C   UNL A   1      33.212  28.793  24.923  1.00  0.00     0.027 A 
ATOM     14  N   UNL A   1      32.950  26.831  26.310  1.00  0.00    -0.241 NA
ATOM     15  C   UNL A   1      33.609  28.019  23.819  1.00  0.00    -0.033 A 
ATOM     16  C   UNL A   1      33.311  26.118  25.232  1.00  0.00     0.146 A 
ATOM     17  C   UNL A   1      34.042  28.670  22.543  1.00  0.00     0.045 C 
ATOM     18  C   UNL A   1      33.588  26.640  23.982  1.00  0.00     0.081 A 
ATOM     19  S   UNL A   1      33.530  24.363  25.278  1.00  0.00    -0.035 S 
ATOM     20  C   UNL A   1      33.774  25.564  22.980  1.00  0.00     0.270 A 
ATOM     21  O   UNL A   1      33.896  25.782  21.785  1.00  0.00    -0.268 OA
ENDBRANCH   9  10
ENDBRANCH   8   9
ENDBRANCH   7   8
ENDBRANCH   4   7
ENDBRANCH   2   3
ENDBRANCH   1   2
BRANCH   1  22
ATOM     22  C   UNL A   1      36.741  22.479  25.774  1.00  0.00     0.023 C 
BRANCH  22  23
ATOM     23  C   UNL A   1      38.218  22.846  25.754  1.00  0.00     0.116 C 
BRANCH  23  24
ATOM     24  N   UNL A   1      39.019  22.044  26.677  1.00  0.00    -0.352 N 
ATOM     25  C   UNL A   1      40.145  22.450  27.378  1.00  0.00     0.251 C 
ATOM     26  H   UNL A   1      38.728  21.114  26.815  1.00  0.00     0.163 HD
ATOM     27  O   UNL A   1      40.948  21.650  27.812  1.00  0.00    -0.269 OA
BRANCH  25  28
ATOM     28  C   UNL A   1      40.323  23.899  27.581  1.00  0.00     0.039 A 
ATOM     29  C   UNL A   1      39.270  24.792  27.379  1.00  0.00     0.014 A 
ATOM     30  C   UNL A   1      41.548  24.327  28.089  1.00  0.00     0.014 A 
ATOM     31  C   UNL A   1      39.430  26.113  27.795  1.00  0.00     0.010 A 
ATOM     32  C   UNL A   1      41.651  25.590  28.622  1.00  0.00     0.010 A 
ATOM     33  C   UNL A   1      40.612  26.500  28.452  1.00  0.00    -0.014 A 
BRANCH  33  34
ATOM     34  C   UNL A   1      40.711  27.822  29.071  1.00  0.00     0.031 A 
ATOM     35  C   UNL A   1      41.774  28.701  28.506  1.00  0.00     0.074 A 
ATOM     36  C   UNL A   1      39.810  28.308  29.954  1.00  0.00     0.049 A 
ATOM     37  N   UNL A   1      42.899  29.024  29.055  1.00  0.00    -0.248 NA
ATOM     38  C   UNL A   1      41.645  29.164  27.114  1.00  0.00     0.031 C 
ATOM     39  C   UNL A   1      38.539  27.703  30.376  1.00  0.00     0.029 A 
ATOM     40  N   UNL A   1      39.797  29.508  30.603  1.00  0.00    -0.354 N 
ATOM     41  C   UNL A   1      43.505  29.928  28.186  1.00  0.00     0.074 A 
ATOM     42  C   UNL A   1      42.795  29.823  26.939  1.00  0.00     0.031 C 
ATOM     43  C   UNL A   1      37.782  28.624  31.008  1.00  0.00     0.029 A 
ATOM     44  C   UNL A   1      38.586  29.811  31.219  1.00  0.00     0.049 A 
ATOM     45  H   UNL A   1      40.576  30.107  30.633  1.00  0.00     0.167 HD
ATOM     46  C   UNL A   1      44.366  30.878  28.651  1.00  0.00     0.037 A 
ATOM     47  C   UNL A   1      38.271  30.947  31.884  1.00  0.00     0.037 A 
ATOM     48  C   UNL A   1      44.702  30.626  30.030  1.00  0.00     0.049 A 
ATOM     49  C   UNL A   1      39.545  31.537  32.354  1.00  0.00     0.074 A 
ATOM     50  C   UNL A   1      45.509  29.753  30.724  1.00  0.00     0.029 A 
ATOM     51  N   UNL A   1      43.803  31.152  30.920  1.00  0.00    -0.354 N 
ATOM     52  N   UNL A   1      40.328  30.959  33.224  1.00  0.00    -0.248 NA
ATOM     53  C   UNL A   1      40.145  32.638  31.609  1.00  0.00     0.031 C 
ATOM     54  C   UNL A   1      44.917  29.613  32.016  1.00  0.00     0.029 A 
ATOM     55  C   UNL A   1      43.795  30.436  32.088  1.00  0.00     0.049 A 
ATOM     56  H   UNL A   1      43.237  31.938  30.743  1.00  0.00     0.167 HD
ATOM     57  C   UNL A   1      41.601  31.323  32.832  1.00  0.00     0.074 A 
ATOM     58  C   UNL A   1      41.420  32.483  31.969  1.00  0.00     0.031 C 
ATOM     59  C   UNL A   1      42.653  30.466  32.979  1.00  0.00     0.037 A 
BRANCH  46  60
ATOM     60  C   UNL A   1      44.558  32.259  28.060  1.00  0.00     0.058 A 
ATOM     61  C   UNL A   1      45.769  32.574  27.403  1.00  0.00     0.135 A 
ATOM     62  C   UNL A   1      43.733  33.362  28.367  1.00  0.00     0.135 A 
ATOM     63  F   UNL A   1      46.642  31.606  27.082  1.00  0.00    -0.206 F 
ATOM     64  C   UNL A   1      46.147  33.888  27.113  1.00  0.00     0.059 A 
ATOM     65  C   UNL A   1      44.068  34.675  28.042  1.00  0.00     0.059 A 
ATOM     66  F   UNL A   1      42.612  33.230  29.086  1.00  0.00    -0.206 F 
ATOM     67  C   UNL A   1      45.291  34.933  27.445  1.00  0.00     0.060 A 
BRANCH  67  68
ATOM     68  S   UNL A   1      45.805  36.633  27.133  1.00  0.00     0.124 S 
ATOM     69  O   UNL A   1      46.484  36.969  28.378  1.00  0.00    -0.237 OA
ATOM     70  O   UNL A   1      46.658  36.480  25.959  1.00  0.00    -0.237 OA
ATOM     71  O   UNL A   1      44.542  37.326  26.894  1.00  0.00    -0.744 OA
ENDBRANCH  67  68
ENDBRANCH  46  60
BRANCH  47  72
ATOM     72  C   UNL A   1      36.990  31.697  31.897  1.00  0.00     0.058 A 
ATOM     73  C   UNL A   1      36.444  32.150  33.111  1.00  0.00     0.135 A 
ATOM     74  C   UNL A   1      36.465  32.268  30.722  1.00  0.00     0.135 A 
ATOM     75  F   UNL A   1      36.880  31.650  34.277  1.00  0.00    -0.206 F 
ATOM     76  C   UNL A   1      35.510  33.187  33.165  1.00  0.00     0.059 A 
ATOM     77  C   UNL A   1      35.526  33.299  30.749  1.00  0.00     0.059 A 
ATOM     78  F   UNL A   1      36.929  31.913  29.514  1.00  0.00    -0.206 F 
ATOM     79  C   UNL A   1      35.086  33.781  31.977  1.00  0.00     0.060 A 
BRANCH  79  80
ATOM     80  S   UNL A   1      34.073  35.277  32.060  1.00  0.00     0.124 S 
ATOM     81  O   UNL A   1      34.866  36.131  32.936  1.00  0.00    -0.237 OA
ATOM     82  O   UNL A   1      34.013  35.681  30.659  1.00  0.00    -0.237 OA
ATOM     83  O   UNL A   1      32.812  34.802  32.623  1.00  0.00    -0.744 OA
ENDBRANCH  79  80
ENDBRANCH  47  72
BRANCH  59  84
ATOM     84  C   UNL A   1      42.546  29.408  34.038  1.00  0.00     0.058 A 
ATOM     85  C   UNL A   1      42.773  29.606  35.411  1.00  0.00     0.135 A 
ATOM     86  C   UNL A   1      42.119  28.134  33.636  1.00  0.00     0.135 A 
ATOM     87  F   UNL A   1      43.107  30.813  35.889  1.00  0.00    -0.206 F 
ATOM     88  C   UNL A   1      42.620  28.570  36.334  1.00  0.00     0.059 A 
ATOM     89  C   UNL A   1      41.930  27.096  34.540  1.00  0.00     0.059 A 
ATOM     90  F   UNL A   1      41.845  27.895  32.343  1.00  0.00    -0.206 F 
ATOM     91  C   UNL A   1      42.198  27.317  35.889  1.00  0.00     0.060 A 
BRANCH  91  92
ATOM     92  S   UNL A   1      41.954  25.989  37.089  1.00  0.00     0.124 S 
ATOM     93  O   UNL A   1      42.927  26.325  38.122  1.00  0.00    -0.237 OA
ATOM     94  O   UNL A   1      40.552  26.156  37.462  1.00  0.00    -0.237 OA
ATOM     95  O   UNL A   1      42.247  24.779  36.325  1.00  0.00    -0.744 OA
ENDBRANCH  91  92
ENDBRANCH  59  84
ENDBRANCH  33  34
ENDBRANCH  25  28
ENDBRANCH  23  24
ENDBRANCH  22  23
ENDBRANCH   1  22
TORSDOF 17
ENDMDL
MODEL 3
REMARK VINA RESULT:     -11.7      4.911     11.888
REMARK SMILES Cc1cc(C)c2c(=O)n(CCCC(=O)NCCCCNC(=O)c3ccc(-c4c5nc(c(-c6c(F)cc(S(=O)(=O)[O-])cc6F)c6ccc([nH]6)c(-c6c(F)cc(S(=O)(=O)[O-])cc6F)c6nc(c(-c7c(F)cc(S(=O)(=O)[O-])cc7F)c7ccc4[nH]7)C=C6)C=C5)cc3)sc2n1
REMARK SMILES IDX 17 1 16 2 15 3 13 4 14 5 12 7 11 8 10 9 9 10 1 11 2 12 3 13
REMARK SMILES IDX 91 14 4 15 90 16 5 17 6 18 89 19 7 20 8 21 18 22 19 23 20 24
REMARK SMILES IDX 21 25 22 27 23 28 24 29 88 30 25 31 87 32 26 33 27 34 28 35
REMARK SMILES IDX 81 36 29 37 86 38 80 39 82 40 30 41 85 42 79 43 78 44 31 46
REMARK SMILES IDX 65 47 44 48 64 49 45 50 48 51 63 52 83 53 46 54 47 55 62 57
REMARK SMILES IDX 84 58 49 59 32 60 33 61 42 62 34 63 35 64 41 65 43 66 36 67
REMARK SMILES IDX 37 68 38 69 39 70 40 71 66 72 67 73 76 74 68 75 69 76 75 77
REMARK SMILES IDX 77 78 70 79 71 80 72 81 73 82 74 83 50 84 51 85 60 86 52 87
REMARK SMILES IDX 53 88 59 89 61 90 54 91 55 92 56 93 57 94 58 95
REMARK H PARENT 15 6 20 26 82 45 48 56
REMARK Flexibility Score: inf
ROOT
ATOM      1  C   UNL A   1      37.202  30.973  32.717  1.00  0.00     0.023 C 
ENDROOT
BRANCH   1   2
ATOM      2  C   UNL A   1      38.302  31.130  33.777  1.00  0.00     0.116 C 
BRANCH   2   3
ATOM      3  N   UNL A   1      37.829  30.684  35.071  1.00  0.00    -0.356 N 
ATOM      4  C   UNL A   1      38.145  31.098  36.327  1.00  0.00     0.220 C 
ATOM      5  O   UNL A   1      37.726  30.430  37.274  1.00  0.00    -0.275 OA
ATOM      6  H   UNL A   1      37.168  29.956  35.036  1.00  0.00     0.163 HD
BRANCH   4   7
ATOM      7  C   UNL A   1      38.901  32.389  36.574  1.00  0.00     0.102 C 
BRANCH   7   8
ATOM      8  C   UNL A   1      38.326  33.709  36.048  1.00  0.00     0.033 C 
BRANCH   8   9
ATOM      9  C   UNL A   1      39.225  34.741  35.352  1.00  0.00     0.139 C 
BRANCH   9  10
ATOM     10  N   UNL A   1      40.014  34.399  34.181  1.00  0.00    -0.262 N 
ATOM     11  C   UNL A   1      44.244  34.674  29.779  1.00  0.00     0.067 C 
ATOM     12  C   UNL A   1      42.931  34.531  30.490  1.00  0.00     0.039 A 
ATOM     13  C   UNL A   1      41.717  34.609  29.794  1.00  0.00     0.027 A 
ATOM     14  N   UNL A   1      42.992  34.359  31.831  1.00  0.00    -0.241 NA
ATOM     15  C   UNL A   1      40.498  34.544  30.491  1.00  0.00    -0.033 A 
ATOM     16  C   UNL A   1      41.813  34.323  32.471  1.00  0.00     0.146 A 
ATOM     17  C   UNL A   1      39.194  34.549  29.758  1.00  0.00     0.045 C 
ATOM     18  C   UNL A   1      40.574  34.463  31.876  1.00  0.00     0.081 A 
ATOM     19  S   UNL A   1      41.681  34.037  34.212  1.00  0.00    -0.035 S 
ATOM     20  C   UNL A   1      39.498  34.556  32.891  1.00  0.00     0.270 A 
ATOM     21  O   UNL A   1      38.339  34.816  32.610  1.00  0.00    -0.268 OA
ENDBRANCH   9  10
ENDBRANCH   8   9
ENDBRANCH   7   8
ENDBRANCH   4   7
ENDBRANCH   2   3
ENDBRANCH   1   2
BRANCH   1  22
ATOM     22  C   UNL A   1      36.011  31.927  32.858  1.00  0.00     0.023 C 
BRANCH  22  23
ATOM     23  C   UNL A   1      35.817  32.858  31.670  1.00  0.00     0.116 C 
BRANCH  23  24
ATOM     24  N   UNL A   1      34.737  32.434  30.780  1.00  0.00    -0.352 N 
ATOM     25  C   UNL A   1      34.865  31.806  29.550  1.00  0.00     0.251 C 
ATOM     26  H   UNL A   1      33.820  32.614  31.088  1.00  0.00     0.163 HD
ATOM     27  O   UNL A   1      33.973  31.829  28.728  1.00  0.00    -0.269 OA
BRANCH  25  28
ATOM     28  C   UNL A   1      36.133  31.103  29.283  1.00  0.00     0.039 A 
ATOM     29  C   UNL A   1      37.305  31.807  29.005  1.00  0.00     0.014 A 
ATOM     30  C   UNL A   1      36.138  29.717  29.430  1.00  0.00     0.014 A 
ATOM     31  C   UNL A   1      38.510  31.107  28.980  1.00  0.00     0.010 A 
ATOM     32  C   UNL A   1      37.338  29.057  29.541  1.00  0.00     0.010 A 
ATOM     33  C   UNL A   1      38.527  29.734  29.286  1.00  0.00    -0.014 A 
BRANCH  33  34
ATOM     34  C   UNL A   1      39.800  29.034  29.461  1.00  0.00     0.031 A 
ATOM     35  C   UNL A   1      40.200  28.805  30.878  1.00  0.00     0.074 A 
ATOM     36  C   UNL A   1      40.491  28.464  28.448  1.00  0.00     0.049 A 
ATOM     37  N   UNL A   1      41.131  29.412  31.539  1.00  0.00    -0.248 NA
ATOM     38  C   UNL A   1      39.384  27.903  31.708  1.00  0.00     0.031 C 
ATOM     39  C   UNL A   1      40.083  28.322  27.044  1.00  0.00     0.029 A 
ATOM     40  N   UNL A   1      41.682  27.801  28.481  1.00  0.00    -0.354 N 
ATOM     41  C   UNL A   1      41.183  28.793  32.787  1.00  0.00     0.074 A 
ATOM     42  C   UNL A   1      39.974  28.022  32.901  1.00  0.00     0.031 C 
ATOM     43  C   UNL A   1      40.883  27.427  26.425  1.00  0.00     0.029 A 
ATOM     44  C   UNL A   1      41.973  27.093  27.319  1.00  0.00     0.049 A 
ATOM     45  H   UNL A   1      42.283  27.822  29.259  1.00  0.00     0.167 HD
ATOM     46  C   UNL A   1      42.343  28.756  33.502  1.00  0.00     0.037 A 
ATOM     47  C   UNL A   1      43.052  26.308  27.090  1.00  0.00     0.037 A 
ATOM     48  C   UNL A   1      43.333  29.618  32.910  1.00  0.00     0.049 A 
ATOM     49  C   UNL A   1      44.124  26.775  27.999  1.00  0.00     0.074 A 
ATOM     50  C   UNL A   1      43.578  30.972  32.846  1.00  0.00     0.029 A 
ATOM     51  N   UNL A   1      44.053  29.022  31.907  1.00  0.00    -0.354 N 
ATOM     52  N   UNL A   1      44.668  27.959  27.919  1.00  0.00    -0.248 NA
ATOM     53  C   UNL A   1      44.383  26.052  29.237  1.00  0.00     0.031 C 
ATOM     54  C   UNL A   1      44.299  31.185  31.633  1.00  0.00     0.029 A 
ATOM     55  C   UNL A   1      44.511  29.954  31.014  1.00  0.00     0.049 A 
ATOM     56  H   UNL A   1      44.217  28.054  31.838  1.00  0.00     0.167 HD
ATOM     57  C   UNL A   1      44.957  28.291  29.227  1.00  0.00     0.074 A 
ATOM     58  C   UNL A   1      44.934  27.031  29.957  1.00  0.00     0.031 C 
ATOM     59  C   UNL A   1      44.869  29.582  29.660  1.00  0.00     0.037 A 
BRANCH  46  60
ATOM     60  C   UNL A   1      42.765  27.643  34.440  1.00  0.00     0.058 A 
ATOM     61  C   UNL A   1      42.926  27.915  35.817  1.00  0.00     0.135 A 
ATOM     62  C   UNL A   1      43.296  26.411  34.001  1.00  0.00     0.135 A 
ATOM     63  F   UNL A   1      42.479  29.068  36.341  1.00  0.00    -0.206 F 
ATOM     64  C   UNL A   1      43.602  27.048  36.680  1.00  0.00     0.059 A 
ATOM     65  C   UNL A   1      43.928  25.510  34.855  1.00  0.00     0.059 A 
ATOM     66  F   UNL A   1      43.317  26.069  32.708  1.00  0.00    -0.206 F 
ATOM     67  C   UNL A   1      44.106  25.850  36.186  1.00  0.00     0.060 A 
BRANCH  67  68
ATOM     68  S   UNL A   1      45.035  24.760  37.282  1.00  0.00     0.124 S 
ATOM     69  O   UNL A   1      44.931  23.483  36.585  1.00  0.00    -0.237 OA
ATOM     70  O   UNL A   1      46.354  25.383  37.281  1.00  0.00    -0.237 OA
ATOM     71  O   UNL A   1      44.307  24.853  38.544  1.00  0.00    -0.744 OA
ENDBRANCH  67  68
ENDBRANCH  46  60
BRANCH  47  72
ATOM     72  C   UNL A   1      43.130  25.018  26.360  1.00  0.00     0.058 A 
ATOM     73  C   UNL A   1      43.979  24.883  25.246  1.00  0.00     0.135 A 
ATOM     74  C   UNL A   1      42.648  23.824  26.929  1.00  0.00     0.135 A 
ATOM     75  F   UNL A   1      44.474  25.971  24.638  1.00  0.00    -0.206 F 
ATOM     76  C   UNL A   1      44.413  23.636  24.791  1.00  0.00     0.059 A 
ATOM     77  C   UNL A   1      43.061  22.567  26.486  1.00  0.00     0.059 A 
ATOM     78  F   UNL A   1      41.843  23.846  28.002  1.00  0.00    -0.206 F 
ATOM     79  C   UNL A   1      43.977  22.484  25.443  1.00  0.00     0.060 A 
BRANCH  79  80
ATOM     80  S   UNL A   1      44.728  20.897  25.013  1.00  0.00     0.124 S 
ATOM     81  O   UNL A   1      46.026  20.988  25.672  1.00  0.00    -0.237 OA
ATOM     82  O   UNL A   1      43.784  19.946  25.593  1.00  0.00    -0.237 OA
ATOM     83  O   UNL A   1      44.765  20.923  23.553  1.00  0.00    -0.744 OA
ENDBRANCH  79  80
ENDBRANCH  47  72
BRANCH  59  84
ATOM     84  C   UNL A   1      45.015  30.671  28.636  1.00  0.00     0.058 A 
ATOM     85  C   UNL A   1      46.229  31.099  28.073  1.00  0.00     0.135 A 
ATOM     86  C   UNL A   1      43.840  31.263  28.152  1.00  0.00     0.135 A 
ATOM     87  F   UNL A   1      47.392  30.531  28.422  1.00  0.00    -0.206 F 
ATOM     88  C   UNL A   1      46.271  32.100  27.101  1.00  0.00     0.059 A 
ATOM     89  C   UNL A   1      43.854  32.238  27.163  1.00  0.00     0.059 A 
ATOM     90  F   UNL A   1      42.645  30.864  28.621  1.00  0.00    -0.206 F 
ATOM     91  C   UNL A   1      45.077  32.665  26.651  1.00  0.00     0.060 A 
BRANCH  91  92
ATOM     92  S   UNL A   1      45.127  33.925  25.359  1.00  0.00     0.124 S 
ATOM     93  O   UNL A   1      44.310  34.988  25.934  1.00  0.00    -0.237 OA
ATOM     94  O   UNL A   1      46.555  34.211  25.252  1.00  0.00    -0.237 OA
ATOM     95  O   UNL A   1      44.546  33.251  24.200  1.00  0.00    -0.744 OA
ENDBRANCH  91  92
ENDBRANCH  59  84
ENDBRANCH  33  34
ENDBRANCH  25  28
ENDBRANCH  23  24
ENDBRANCH  22  23
ENDBRANCH   1  22
TORSDOF 17
ENDMDL
