MODEL 1
REMARK VINA RESULT:     -11.9      0.000      0.000
REMARK SMILES CCc1noc(C[N@@H+]2CC[C@H](Cc3cccc(C(=O)NCCCCNC(=O)c4ccc(-c5c6nc(c(-c7c(F)cc(S(=O)(=O)[O-])cc7F)c7ccc([nH]7)c(-c7c(F)cc(S(=O)(=O)[O-])cc7F)c7nc(c(-c8c(F)cc(S(=O)(=O)[O-])cc8F)c8ccc5[nH]8)C=C7)C=C6)cc4)c3)C2)n1
REMARK SMILES IDX 21 1 20 2 18 3 19 4 17 6 13 7 14 8 94 9 15 10 16 11 12 12
REMARK SMILES IDX 11 13 8 14 9 15 95 16 10 18 7 19 6 20 3 21 4 22 96 23 5 24
REMARK SMILES IDX 2 25 1 26 22 27 23 28 24 29 25 30 26 31 27 33 28 34 29 35
REMARK SMILES IDX 93 36 30 37 92 38 31 39 32 40 33 41 86 42 34 43 91 44 85 45
REMARK SMILES IDX 87 46 35 47 90 48 84 49 83 50 36 52 70 53 49 54 69 55 50 56
REMARK SMILES IDX 53 57 68 58 88 59 51 60 52 61 67 63 89 64 54 65 37 66 38 67
REMARK SMILES IDX 47 68 39 69 40 70 46 71 48 72 41 73 42 74 43 75 44 76 45 77
REMARK SMILES IDX 71 78 72 79 81 80 73 81 74 82 80 83 82 84 75 85 76 86 77 87
REMARK SMILES IDX 78 88 79 89 55 90 56 91 65 92 57 93 58 94 64 95 66 96 59 97
REMARK SMILES IDX 60 98 61 99 62 100 63 101
REMARK H PARENT 20 5 8 17 25 32 87 51 53 62
REMARK Flexibility Score: inf
ROOT
ATOM      1  C   UNL A   1      32.535  30.146  25.984  1.00  0.00     0.116 C 
ENDROOT
BRANCH   1   2
ATOM      2  N   UNL A   1      32.893  29.740  24.631  1.00  0.00    -0.352 N 
ATOM      3  C   UNL A   1      32.468  28.671  23.866  1.00  0.00     0.251 C 
ATOM      4  O   UNL A   1      32.928  28.518  22.737  1.00  0.00    -0.269 OA
ATOM      5  H   UNL A   1      33.547  30.326  24.188  1.00  0.00     0.163 HD
BRANCH   3   6
ATOM      6  C   UNL A   1      31.513  27.665  24.401  1.00  0.00     0.040 A 
ATOM      7  C   UNL A   1      31.113  25.680  25.745  1.00  0.00    -0.047 A 
ATOM      8  C   UNL A   1      29.880  25.514  25.099  1.00  0.00     0.004 A 
ATOM      9  C   UNL A   1      31.859  26.826  25.459  1.00  0.00     0.017 A 
ATOM     10  C   UNL A   1      29.437  26.451  24.163  1.00  0.00     0.001 A 
ATOM     11  C   UNL A   1      30.266  27.510  23.790  1.00  0.00     0.014 A 
BRANCH   7  12
ATOM     12  C   UNL A   1      31.691  24.559  26.581  1.00  0.00     0.045 C 
BRANCH  12  13
ATOM     13  C   UNL A   1      32.963  23.885  26.049  1.00  0.00     0.054 C 
ATOM     14  N   UNL A   1      33.223  21.813  24.831  1.00  0.00    -0.327 N 
ATOM     15  C   UNL A   1      34.040  21.748  26.043  1.00  0.00     0.263 C 
ATOM     16  C   UNL A   1      32.762  23.199  24.690  1.00  0.00     0.266 C 
ATOM     17  H   UNL A   1      33.793  21.552  24.027  1.00  0.00     0.348 HD
ATOM     18  C   UNL A   1      33.473  22.792  26.981  1.00  0.00     0.071 C 
BRANCH  14  19
ATOM     19  C   UNL A   1      32.140  20.812  24.769  1.00  0.00     0.364 C 
BRANCH  19  20
ATOM     20  C   UNL A   1      32.537  19.373  24.720  1.00  0.00     0.281 A 
ATOM     21  C   UNL A   1      33.075  17.378  25.045  1.00  0.00     0.171 A 
ATOM     22  N   UNL A   1      33.248  17.528  23.726  1.00  0.00    -0.062 NA
ATOM     23  N   UNL A   1      32.627  18.498  25.697  1.00  0.00    -0.191 NA
ATOM     24  O   UNL A   1      32.879  18.859  23.502  1.00  0.00    -0.333 OA
BRANCH  21  25
ATOM     25  C   UNL A   1      33.420  16.118  25.751  1.00  0.00     0.078 C 
ATOM     26  C   UNL A   1      32.497  14.958  25.410  1.00  0.00     0.012 C 
ENDBRANCH  21  25
ENDBRANCH  19  20
ENDBRANCH  14  19
ENDBRANCH  12  13
ENDBRANCH   7  12
ENDBRANCH   3   6
ENDBRANCH   1   2
BRANCH   1  27
ATOM     27  C   UNL A   1      33.393  29.546  27.087  1.00  0.00     0.023 C 
BRANCH  27  28
ATOM     28  C   UNL A   1      34.733  30.218  27.344  1.00  0.00     0.023 C 
BRANCH  28  29
ATOM     29  C   UNL A   1      35.623  29.560  28.392  1.00  0.00     0.116 C 
BRANCH  29  30
ATOM     30  N   UNL A   1      35.560  30.186  29.705  1.00  0.00    -0.352 N 
ATOM     31  C   UNL A   1      36.584  30.509  30.569  1.00  0.00     0.251 C 
ATOM     32  H   UNL A   1      34.655  30.411  30.021  1.00  0.00     0.163 HD
ATOM     33  O   UNL A   1      36.328  30.976  31.670  1.00  0.00    -0.269 OA
BRANCH  31  34
ATOM     34  C   UNL A   1      37.989  30.247  30.177  1.00  0.00     0.039 A 
ATOM     35  C   UNL A   1      38.846  29.646  31.103  1.00  0.00     0.014 A 
ATOM     36  C   UNL A   1      38.448  30.556  28.895  1.00  0.00     0.014 A 
ATOM     37  C   UNL A   1      40.138  29.280  30.714  1.00  0.00     0.010 A 
ATOM     38  C   UNL A   1      39.702  30.113  28.485  1.00  0.00     0.010 A 
ATOM     39  C   UNL A   1      40.562  29.471  29.389  1.00  0.00    -0.014 A 
BRANCH  39  40
ATOM     40  C   UNL A   1      41.903  29.024  28.931  1.00  0.00     0.031 A 
ATOM     41  C   UNL A   1      43.036  30.013  28.852  1.00  0.00     0.074 A 
ATOM     42  C   UNL A   1      42.085  27.754  28.517  1.00  0.00     0.049 A 
ATOM     43  N   UNL A   1      44.253  29.844  28.400  1.00  0.00    -0.248 NA
ATOM     44  C   UNL A   1      42.753  31.382  29.313  1.00  0.00     0.031 C 
ATOM     45  C   UNL A   1      41.053  26.714  28.489  1.00  0.00     0.029 A 
ATOM     46  N   UNL A   1      43.203  27.121  28.032  1.00  0.00    -0.354 N 
ATOM     47  C   UNL A   1      44.869  31.086  28.500  1.00  0.00     0.074 A 
ATOM     48  C   UNL A   1      43.877  32.011  29.004  1.00  0.00     0.031 C 
ATOM     49  C   UNL A   1      41.592  25.571  28.035  1.00  0.00     0.029 A 
ATOM     50  C   UNL A   1      42.997  25.800  27.712  1.00  0.00     0.049 A 
ATOM     51  H   UNL A   1      44.071  27.573  27.924  1.00  0.00     0.167 HD
ATOM     52  C   UNL A   1      46.153  31.421  28.227  1.00  0.00     0.037 A 
ATOM     53  C   UNL A   1      43.845  24.879  27.215  1.00  0.00     0.037 A 
ATOM     54  C   UNL A   1      47.146  30.489  27.762  1.00  0.00     0.049 A 
ATOM     55  C   UNL A   1      45.276  25.265  26.955  1.00  0.00     0.074 A 
ATOM     56  C   UNL A   1      48.486  30.718  27.500  1.00  0.00     0.029 A 
ATOM     57  N   UNL A   1      46.911  29.146  27.503  1.00  0.00    -0.354 N 
ATOM     58  N   UNL A   1      45.855  26.432  27.103  1.00  0.00    -0.248 NA
ATOM     59  C   UNL A   1      46.173  24.205  26.472  1.00  0.00     0.031 C 
ATOM     60  C   UNL A   1      49.056  29.517  27.058  1.00  0.00     0.029 A 
ATOM     61  C   UNL A   1      48.080  28.533  27.084  1.00  0.00     0.049 A 
ATOM     62  H   UNL A   1      46.041  28.696  27.603  1.00  0.00     0.167 HD
ATOM     63  C   UNL A   1      47.191  26.239  26.767  1.00  0.00     0.074 A 
ATOM     64  C   UNL A   1      47.335  24.842  26.414  1.00  0.00     0.031 C 
ATOM     65  C   UNL A   1      48.208  27.136  26.757  1.00  0.00     0.037 A 
BRANCH  52  66
ATOM     66  C   UNL A   1      46.553  32.855  28.436  1.00  0.00     0.058 A 
ATOM     67  C   UNL A   1      47.045  33.307  29.672  1.00  0.00     0.135 A 
ATOM     68  C   UNL A   1      46.457  33.787  27.390  1.00  0.00     0.135 A 
ATOM     69  F   UNL A   1      47.141  32.462  30.711  1.00  0.00    -0.206 F 
ATOM     70  C   UNL A   1      47.393  34.637  29.874  1.00  0.00     0.059 A 
ATOM     71  C   UNL A   1      46.827  35.118  27.562  1.00  0.00     0.059 A 
ATOM     72  F   UNL A   1      45.994  33.410  26.188  1.00  0.00    -0.206 F 
ATOM     73  C   UNL A   1      47.278  35.537  28.814  1.00  0.00     0.060 A 
BRANCH  73  74
ATOM     74  S   UNL A   1      47.727  37.263  29.093  1.00  0.00     0.124 S 
ATOM     75  O   UNL A   1      47.541  37.830  27.761  1.00  0.00    -0.237 OA
ATOM     76  O   UNL A   1      46.757  37.681  30.101  1.00  0.00    -0.237 OA
ATOM     77  O   UNL A   1      49.109  37.183  29.554  1.00  0.00    -0.744 OA
ENDBRANCH  73  74
ENDBRANCH  52  66
BRANCH  53  78
ATOM     78  C   UNL A   1      43.378  23.487  26.976  1.00  0.00     0.058 A 
ATOM     79  C   UNL A   1      43.096  23.037  25.678  1.00  0.00     0.135 A 
ATOM     80  C   UNL A   1      43.207  22.579  28.033  1.00  0.00     0.135 A 
ATOM     81  F   UNL A   1      43.238  23.870  24.634  1.00  0.00    -0.206 F 
ATOM     82  C   UNL A   1      42.642  21.746  25.435  1.00  0.00     0.059 A 
ATOM     83  C   UNL A   1      42.777  21.275  27.813  1.00  0.00     0.059 A 
ATOM     84  F   UNL A   1      43.482  22.955  29.292  1.00  0.00    -0.206 F 
ATOM     85  C   UNL A   1      42.485  20.871  26.510  1.00  0.00     0.060 A 
BRANCH  85  86
ATOM     86  S   UNL A   1      41.937  19.181  26.180  1.00  0.00     0.124 S 
ATOM     87  O   UNL A   1      42.833  18.788  25.099  1.00  0.00    -0.237 OA
ATOM     88  O   UNL A   1      42.162  18.528  27.466  1.00  0.00    -0.237 OA
ATOM     89  O   UNL A   1      40.535  19.351  25.811  1.00  0.00    -0.744 OA
ENDBRANCH  85  86
ENDBRANCH  53  78
BRANCH  65  90
ATOM     90  C   UNL A   1      49.576  26.623  26.407  1.00  0.00     0.058 A 
ATOM     91  C   UNL A   1      50.109  26.752  25.116  1.00  0.00     0.135 A 
ATOM     92  C   UNL A   1      50.380  26.028  27.392  1.00  0.00     0.135 A 
ATOM     93  F   UNL A   1      49.379  27.310  24.136  1.00  0.00    -0.206 F 
ATOM     94  C   UNL A   1      51.381  26.282  24.805  1.00  0.00     0.059 A 
ATOM     95  C   UNL A   1      51.664  25.574  27.111  1.00  0.00     0.059 A 
ATOM     96  F   UNL A   1      49.922  25.892  28.648  1.00  0.00    -0.206 F 
ATOM     97  C   UNL A   1      52.150  25.692  25.809  1.00  0.00     0.060 A 
BRANCH  97  98
ATOM     98  S   UNL A   1      53.807  25.103  25.403  1.00  0.00     0.124 S 
ATOM     99  O   UNL A   1      53.584  23.667  25.272  1.00  0.00    -0.237 OA
ATOM    100  O   UNL A   1      54.099  25.814  24.162  1.00  0.00    -0.237 OA
ATOM    101  O   UNL A   1      54.605  25.513  26.555  1.00  0.00    -0.744 OA
ENDBRANCH  97  98
ENDBRANCH  65  90
ENDBRANCH  39  40
ENDBRANCH  31  34
ENDBRANCH  29  30
ENDBRANCH  28  29
ENDBRANCH  27  28
ENDBRANCH   1  27
TORSDOF 19
ENDMDL
MODEL 2
REMARK VINA RESULT:     -11.8      1.883      2.484
REMARK SMILES CCc1noc(C[N@@H+]2CC[C@H](Cc3cccc(C(=O)NCCCCNC(=O)c4ccc(-c5c6nc(c(-c7c(F)cc(S(=O)(=O)[O-])cc7F)c7ccc([nH]7)c(-c7c(F)cc(S(=O)(=O)[O-])cc7F)c7nc(c(-c8c(F)cc(S(=O)(=O)[O-])cc8F)c8ccc5[nH]8)C=C7)C=C6)cc4)c3)C2)n1
REMARK SMILES IDX 21 1 20 2 18 3 19 4 17 6 13 7 14 8 94 9 15 10 16 11 12 12
REMARK SMILES IDX 11 13 8 14 9 15 95 16 10 18 7 19 6 20 3 21 4 22 96 23 5 24
REMARK SMILES IDX 2 25 1 26 22 27 23 28 24 29 25 30 26 31 27 33 28 34 29 35
REMARK SMILES IDX 93 36 30 37 92 38 31 39 32 40 33 41 86 42 34 43 91 44 85 45
REMARK SMILES IDX 87 46 35 47 90 48 84 49 83 50 36 52 70 53 49 54 69 55 50 56
REMARK SMILES IDX 53 57 68 58 88 59 51 60 52 61 67 63 89 64 54 65 37 66 38 67
REMARK SMILES IDX 47 68 39 69 40 70 46 71 48 72 41 73 42 74 43 75 44 76 45 77
REMARK SMILES IDX 71 78 72 79 81 80 73 81 74 82 80 83 82 84 75 85 76 86 77 87
REMARK SMILES IDX 78 88 79 89 55 90 56 91 65 92 57 93 58 94 64 95 66 96 59 97
REMARK SMILES IDX 60 98 61 99 62 100 63 101
REMARK H PARENT 20 5 8 17 25 32 87 51 53 62
REMARK Flexibility Score: inf
ROOT
ATOM      1  C   UNL A   1      34.360  30.483  27.473  1.00  0.00     0.116 C 
ENDROOT
BRANCH   1   2
ATOM      2  N   UNL A   1      33.231  29.690  27.939  1.00  0.00    -0.352 N 
ATOM      3  C   UNL A   1      32.492  28.710  27.305  1.00  0.00     0.251 C 
ATOM      4  O   UNL A   1      31.556  28.180  27.901  1.00  0.00    -0.269 OA
ATOM      5  H   UNL A   1      32.947  29.884  28.861  1.00  0.00     0.163 HD
BRANCH   3   6
ATOM      6  C   UNL A   1      32.761  28.325  25.894  1.00  0.00     0.040 A 
ATOM      7  C   UNL A   1      33.609  26.696  24.303  1.00  0.00    -0.047 A 
ATOM      8  C   UNL A   1      33.679  27.706  23.334  1.00  0.00     0.004 A 
ATOM      9  C   UNL A   1      33.041  27.006  25.541  1.00  0.00     0.017 A 
ATOM     10  C   UNL A   1      33.230  28.998  23.621  1.00  0.00     0.001 A 
ATOM     11  C   UNL A   1      32.800  29.317  24.910  1.00  0.00     0.014 A 
BRANCH   7  12
ATOM     12  C   UNL A   1      34.298  25.369  24.070  1.00  0.00     0.045 C 
BRANCH  12  13
ATOM     13  C   UNL A   1      33.818  24.542  22.869  1.00  0.00     0.054 C 
ATOM     14  N   UNL A   1      31.701  23.434  22.501  1.00  0.00    -0.327 N 
ATOM     15  C   UNL A   1      32.772  22.444  22.390  1.00  0.00     0.263 C 
ATOM     16  C   UNL A   1      32.334  24.758  22.540  1.00  0.00     0.266 C 
ATOM     17  H   UNL A   1      31.092  23.364  21.686  1.00  0.00     0.348 HD
ATOM     18  C   UNL A   1      33.966  23.043  23.101  1.00  0.00     0.071 C 
BRANCH  14  19
ATOM     19  C   UNL A   1      30.755  23.190  23.607  1.00  0.00     0.364 C 
BRANCH  19  20
ATOM     20  C   UNL A   1      31.291  23.260  24.998  1.00  0.00     0.281 A 
ATOM     21  C   UNL A   1      32.203  23.006  26.864  1.00  0.00     0.171 A 
ATOM     22  N   UNL A   1      31.461  24.108  27.035  1.00  0.00    -0.062 NA
ATOM     23  N   UNL A   1      32.132  22.455  25.611  1.00  0.00    -0.191 NA
ATOM     24  O   UNL A   1      30.857  24.287  25.787  1.00  0.00    -0.333 OA
BRANCH  21  25
ATOM     25  C   UNL A   1      32.978  22.393  27.972  1.00  0.00     0.078 C 
ATOM     26  C   UNL A   1      34.339  21.865  27.543  1.00  0.00     0.012 C 
ENDBRANCH  21  25
ENDBRANCH  19  20
ENDBRANCH  14  19
ENDBRANCH  12  13
ENDBRANCH   7  12
ENDBRANCH   3   6
ENDBRANCH   1   2
BRANCH   1  27
ATOM     27  C   UNL A   1      34.334  31.949  27.880  1.00  0.00     0.023 C 
BRANCH  27  28
ATOM     28  C   UNL A   1      35.674  32.666  27.914  1.00  0.00     0.023 C 
BRANCH  28  29
ATOM     29  C   UNL A   1      36.297  32.860  29.290  1.00  0.00     0.116 C 
BRANCH  29  30
ATOM     30  N   UNL A   1      35.894  31.863  30.272  1.00  0.00    -0.352 N 
ATOM     31  C   UNL A   1      36.589  30.768  30.742  1.00  0.00     0.251 C 
ATOM     32  H   UNL A   1      34.997  31.990  30.657  1.00  0.00     0.163 HD
ATOM     33  O   UNL A   1      36.054  29.999  31.528  1.00  0.00    -0.269 OA
BRANCH  31  34
ATOM     34  C   UNL A   1      37.963  30.504  30.256  1.00  0.00     0.039 A 
ATOM     35  C   UNL A   1      39.019  30.532  31.171  1.00  0.00     0.014 A 
ATOM     36  C   UNL A   1      38.206  30.196  28.916  1.00  0.00     0.014 A 
ATOM     37  C   UNL A   1      40.303  30.169  30.758  1.00  0.00     0.010 A 
ATOM     38  C   UNL A   1      39.466  29.751  28.526  1.00  0.00     0.010 A 
ATOM     39  C   UNL A   1      40.529  29.733  29.442  1.00  0.00    -0.014 A 
BRANCH  39  40
ATOM     40  C   UNL A   1      41.870  29.271  28.996  1.00  0.00     0.031 A 
ATOM     41  C   UNL A   1      43.014  30.247  28.924  1.00  0.00     0.074 A 
ATOM     42  C   UNL A   1      42.042  27.997  28.589  1.00  0.00     0.049 A 
ATOM     43  N   UNL A   1      44.232  30.064  28.483  1.00  0.00    -0.248 NA
ATOM     44  C   UNL A   1      42.741  31.621  29.378  1.00  0.00     0.031 C 
ATOM     45  C   UNL A   1      40.999  26.968  28.555  1.00  0.00     0.029 A 
ATOM     46  N   UNL A   1      43.157  27.352  28.115  1.00  0.00    -0.354 N 
ATOM     47  C   UNL A   1      44.861  31.300  28.585  1.00  0.00     0.074 A 
ATOM     48  C   UNL A   1      43.874  32.237  29.077  1.00  0.00     0.031 C 
ATOM     49  C   UNL A   1      41.531  25.818  28.110  1.00  0.00     0.029 A 
ATOM     50  C   UNL A   1      42.941  26.032  27.798  1.00  0.00     0.049 A 
ATOM     51  H   UNL A   1      44.031  27.793  28.013  1.00  0.00     0.167 HD
ATOM     52  C   UNL A   1      46.150  31.620  28.321  1.00  0.00     0.037 A 
ATOM     53  C   UNL A   1      43.783  25.099  27.311  1.00  0.00     0.037 A 
ATOM     54  C   UNL A   1      47.138  30.677  27.869  1.00  0.00     0.049 A 
ATOM     55  C   UNL A   1      45.220  25.470  27.062  1.00  0.00     0.074 A 
ATOM     56  C   UNL A   1      48.482  30.891  27.617  1.00  0.00     0.029 A 
ATOM     57  N   UNL A   1      46.891  29.336  27.612  1.00  0.00    -0.354 N 
ATOM     58  N   UNL A   1      45.810  26.631  27.211  1.00  0.00    -0.248 NA
ATOM     59  C   UNL A   1      46.110  24.399  26.591  1.00  0.00     0.031 C 
ATOM     60  C   UNL A   1      49.043  29.683  27.184  1.00  0.00     0.029 A 
ATOM     61  C   UNL A   1      48.057  28.709  27.204  1.00  0.00     0.049 A 
ATOM     62  H   UNL A   1      46.016  28.895  27.705  1.00  0.00     0.167 HD
ATOM     63  C   UNL A   1      47.146  26.423  26.888  1.00  0.00     0.074 A 
ATOM     64  C   UNL A   1      47.279  25.024  26.540  1.00  0.00     0.031 C 
ATOM     65  C   UNL A   1      48.173  27.310  26.884  1.00  0.00     0.037 A 
BRANCH  52  66
ATOM     66  C   UNL A   1      46.563  33.051  28.529  1.00  0.00     0.058 A 
ATOM     67  C   UNL A   1      46.845  33.555  29.810  1.00  0.00     0.135 A 
ATOM     68  C   UNL A   1      46.693  33.927  27.440  1.00  0.00     0.135 A 
ATOM     69  F   UNL A   1      46.720  32.766  30.889  1.00  0.00    -0.206 F 
ATOM     70  C   UNL A   1      47.204  34.883  30.007  1.00  0.00     0.059 A 
ATOM     71  C   UNL A   1      47.079  35.253  27.610  1.00  0.00     0.059 A 
ATOM     72  F   UNL A   1      46.436  33.499  26.193  1.00  0.00    -0.206 F 
ATOM     73  C   UNL A   1      47.315  35.727  28.901  1.00  0.00     0.060 A 
BRANCH  73  74
ATOM     74  S   UNL A   1      47.777  37.451  29.172  1.00  0.00     0.124 S 
ATOM     75  O   UNL A   1      46.524  38.011  29.669  1.00  0.00    -0.237 OA
ATOM     76  O   UNL A   1      48.853  37.337  30.153  1.00  0.00    -0.237 OA
ATOM     77  O   UNL A   1      48.187  37.905  27.848  1.00  0.00    -0.744 OA
ENDBRANCH  73  74
ENDBRANCH  52  66
BRANCH  53  78
ATOM     78  C   UNL A   1      43.303  23.712  27.073  1.00  0.00     0.058 A 
ATOM     79  C   UNL A   1      42.984  23.275  25.779  1.00  0.00     0.135 A 
ATOM     80  C   UNL A   1      43.157  22.796  28.126  1.00  0.00     0.135 A 
ATOM     81  F   UNL A   1      43.101  24.116  24.739  1.00  0.00    -0.206 F 
ATOM     82  C   UNL A   1      42.518  21.987  25.536  1.00  0.00     0.059 A 
ATOM     83  C   UNL A   1      42.716  21.495  27.907  1.00  0.00     0.059 A 
ATOM     84  F   UNL A   1      43.467  23.159  29.380  1.00  0.00    -0.206 F 
ATOM     85  C   UNL A   1      42.387  21.103  26.608  1.00  0.00     0.060 A 
BRANCH  85  86
ATOM     86  S   UNL A   1      41.823  19.419  26.279  1.00  0.00     0.124 S 
ATOM     87  O   UNL A   1      42.594  19.079  25.089  1.00  0.00    -0.237 OA
ATOM     88  O   UNL A   1      42.198  18.723  27.505  1.00  0.00    -0.237 OA
ATOM     89  O   UNL A   1      40.386  19.582  26.075  1.00  0.00    -0.744 OA
ENDBRANCH  85  86
ENDBRANCH  53  78
BRANCH  65  90
ATOM     90  C   UNL A   1      49.539  26.781  26.547  1.00  0.00     0.058 A 
ATOM     91  C   UNL A   1      50.435  26.355  27.538  1.00  0.00     0.135 A 
ATOM     92  C   UNL A   1      49.938  26.664  25.206  1.00  0.00     0.135 A 
ATOM     93  F   UNL A   1      50.103  26.451  28.836  1.00  0.00    -0.206 F 
ATOM     94  C   UNL A   1      51.694  25.859  27.214  1.00  0.00     0.059 A 
ATOM     95  C   UNL A   1      51.181  26.147  24.857  1.00  0.00     0.059 A 
ATOM     96  F   UNL A   1      49.113  27.046  24.217  1.00  0.00    -0.206 F 
ATOM     97  C   UNL A   1      52.059  25.761  25.870  1.00  0.00     0.060 A 
BRANCH  97  98
ATOM     98  S   UNL A   1      53.685  25.096  25.457  1.00  0.00     0.124 S 
ATOM     99  O   UNL A   1      53.373  23.693  25.204  1.00  0.00    -0.237 OA
ATOM    100  O   UNL A   1      54.058  25.883  24.285  1.00  0.00    -0.237 OA
ATOM    101  O   UNL A   1      54.474  25.360  26.657  1.00  0.00    -0.744 OA
ENDBRANCH  97  98
ENDBRANCH  65  90
ENDBRANCH  39  40
ENDBRANCH  31  34
ENDBRANCH  29  30
ENDBRANCH  28  29
ENDBRANCH  27  28
ENDBRANCH   1  27
TORSDOF 19
ENDMDL
MODEL 3
REMARK VINA RESULT:     -11.4      0.777      8.133
REMARK SMILES CCc1noc(C[N@@H+]2CC[C@H](Cc3cccc(C(=O)NCCCCNC(=O)c4ccc(-c5c6nc(c(-c7c(F)cc(S(=O)(=O)[O-])cc7F)c7ccc([nH]7)c(-c7c(F)cc(S(=O)(=O)[O-])cc7F)c7nc(c(-c8c(F)cc(S(=O)(=O)[O-])cc8F)c8ccc5[nH]8)C=C7)C=C6)cc4)c3)C2)n1
REMARK SMILES IDX 21 1 20 2 18 3 19 4 17 6 13 7 14 8 94 9 15 10 16 11 12 12
REMARK SMILES IDX 11 13 8 14 9 15 95 16 10 18 7 19 6 20 3 21 4 22 96 23 5 24
REMARK SMILES IDX 2 25 1 26 22 27 23 28 24 29 25 30 26 31 27 33 28 34 29 35
REMARK SMILES IDX 93 36 30 37 92 38 31 39 32 40 33 41 86 42 34 43 91 44 85 45
REMARK SMILES IDX 87 46 35 47 90 48 84 49 83 50 36 52 70 53 49 54 69 55 50 56
REMARK SMILES IDX 53 57 68 58 88 59 51 60 52 61 67 63 89 64 54 65 37 66 38 67
REMARK SMILES IDX 47 68 39 69 40 70 46 71 48 72 41 73 42 74 43 75 44 76 45 77
REMARK SMILES IDX 71 78 72 79 81 80 73 81 74 82 80 83 82 84 75 85 76 86 77 87
REMARK SMILES IDX 78 88 79 89 55 90 56 91 65 92 57 93 58 94 64 95 66 96 59 97
REMARK SMILES IDX 60 98 61 99 62 100 63 101
REMARK H PARENT 20 5 8 17 25 32 87 51 53 62
REMARK Flexibility Score: inf
ROOT
ATOM      1  C   UNL A   1      32.642  30.068  26.379  1.00  0.00     0.116 C 
ENDROOT
BRANCH   1   2
ATOM      2  N   UNL A   1      32.933  29.898  24.961  1.00  0.00    -0.352 N 
ATOM      3  C   UNL A   1      32.413  29.017  24.032  1.00  0.00     0.251 C 
ATOM      4  O   UNL A   1      32.830  29.047  22.876  1.00  0.00    -0.269 OA
ATOM      5  H   UNL A   1      33.613  30.513  24.606  1.00  0.00     0.163 HD
BRANCH   3   6
ATOM      6  C   UNL A   1      31.406  27.991  24.413  1.00  0.00     0.040 A 
ATOM      7  C   UNL A   1      30.878  25.915  25.561  1.00  0.00    -0.047 A 
ATOM      8  C   UNL A   1      29.697  25.824  24.814  1.00  0.00     0.004 A 
ATOM      9  C   UNL A   1      31.660  27.065  25.423  1.00  0.00     0.017 A 
ATOM     10  C   UNL A   1      29.339  26.840  23.924  1.00  0.00     0.001 A 
ATOM     11  C   UNL A   1      30.208  27.909  23.699  1.00  0.00     0.014 A 
BRANCH   7  12
ATOM     12  C   UNL A   1      31.376  24.722  26.346  1.00  0.00     0.045 C 
BRANCH  12  13
ATOM     13  C   UNL A   1      32.794  24.227  26.028  1.00  0.00     0.054 C 
ATOM     14  N   UNL A   1      33.521  22.481  24.522  1.00  0.00    -0.327 N 
ATOM     15  C   UNL A   1      34.027  22.183  25.862  1.00  0.00     0.263 C 
ATOM     16  C   UNL A   1      32.985  23.847  24.553  1.00  0.00     0.266 C 
ATOM     17  H   UNL A   1      34.288  22.423  23.853  1.00  0.00     0.348 HD
ATOM     18  C   UNL A   1      33.162  22.975  26.818  1.00  0.00     0.071 C 
BRANCH  14  19
ATOM     19  C   UNL A   1      32.579  21.479  23.987  1.00  0.00     0.364 C 
BRANCH  19  20
ATOM     20  C   UNL A   1      32.756  20.065  24.430  1.00  0.00     0.281 A 
ATOM     21  C   UNL A   1      33.241  18.053  24.735  1.00  0.00     0.171 A 
ATOM     22  N   UNL A   1      32.292  18.279  25.652  1.00  0.00    -0.062 NA
ATOM     23  N   UNL A   1      33.564  19.137  23.962  1.00  0.00    -0.191 NA
ATOM     24  O   UNL A   1      31.971  19.626  25.458  1.00  0.00    -0.333 OA
BRANCH  21  25
ATOM     25  C   UNL A   1      33.836  16.708  24.526  1.00  0.00     0.078 C 
ATOM     26  C   UNL A   1      34.309  16.467  23.100  1.00  0.00     0.012 C 
ENDBRANCH  21  25
ENDBRANCH  19  20
ENDBRANCH  14  19
ENDBRANCH  12  13
ENDBRANCH   7  12
ENDBRANCH   3   6
ENDBRANCH   1   2
BRANCH   1  27
ATOM     27  C   UNL A   1      33.622  29.392  27.326  1.00  0.00     0.023 C 
BRANCH  27  28
ATOM     28  C   UNL A   1      34.922  30.133  27.596  1.00  0.00     0.023 C 
BRANCH  28  29
ATOM     29  C   UNL A   1      35.845  29.510  28.636  1.00  0.00     0.116 C 
BRANCH  29  30
ATOM     30  N   UNL A   1      35.784  30.146  29.945  1.00  0.00    -0.352 N 
ATOM     31  C   UNL A   1      36.812  30.531  30.779  1.00  0.00     0.251 C 
ATOM     32  H   UNL A   1      34.877  30.329  30.282  1.00  0.00     0.163 HD
ATOM     33  O   UNL A   1      36.560  30.996  31.882  1.00  0.00    -0.269 OA
BRANCH  31  34
ATOM     34  C   UNL A   1      38.218  30.336  30.353  1.00  0.00     0.039 A 
ATOM     35  C   UNL A   1      39.076  29.605  31.179  1.00  0.00     0.014 A 
ATOM     36  C   UNL A   1      38.676  30.837  29.133  1.00  0.00     0.014 A 
ATOM     37  C   UNL A   1      40.370  29.307  30.740  1.00  0.00     0.010 A 
ATOM     38  C   UNL A   1      39.932  30.466  28.662  1.00  0.00     0.010 A 
ATOM     39  C   UNL A   1      40.794  29.698  29.460  1.00  0.00    -0.014 A 
BRANCH  39  40
ATOM     40  C   UNL A   1      42.137  29.330  28.940  1.00  0.00     0.031 A 
ATOM     41  C   UNL A   1      42.395  27.928  28.457  1.00  0.00     0.074 A 
ATOM     42  C   UNL A   1      43.141  30.229  28.970  1.00  0.00     0.049 A 
ATOM     43  N   UNL A   1      43.513  27.385  28.048  1.00  0.00    -0.248 NA
ATOM     44  C   UNL A   1      41.249  27.003  28.466  1.00  0.00     0.031 C 
ATOM     45  C   UNL A   1      43.035  31.604  29.468  1.00  0.00     0.029 A 
ATOM     46  N   UNL A   1      44.453  30.121  28.580  1.00  0.00    -0.354 N 
ATOM     47  C   UNL A   1      43.211  26.056  27.775  1.00  0.00     0.074 A 
ATOM     48  C   UNL A   1      41.819  25.860  28.116  1.00  0.00     0.031 C 
ATOM     49  C   UNL A   1      44.224  32.214  29.331  1.00  0.00     0.029 A 
ATOM     50  C   UNL A   1      45.183  31.271  28.765  1.00  0.00     0.049 A 
ATOM     51  H   UNL A   1      44.835  29.295  28.203  1.00  0.00     0.167 HD
ATOM     52  C   UNL A   1      44.011  25.093  27.258  1.00  0.00     0.037 A 
ATOM     53  C   UNL A   1      46.478  31.535  28.506  1.00  0.00     0.037 A 
ATOM     54  C   UNL A   1      45.385  25.302  26.884  1.00  0.00     0.049 A 
ATOM     55  C   UNL A   1      47.338  30.460  27.897  1.00  0.00     0.074 A 
ATOM     56  C   UNL A   1      46.268  24.404  26.310  1.00  0.00     0.029 A 
ATOM     57  N   UNL A   1      46.072  26.498  27.036  1.00  0.00    -0.354 N 
ATOM     58  N   UNL A   1      47.022  29.223  27.598  1.00  0.00    -0.248 NA
ATOM     59  C   UNL A   1      48.727  30.821  27.577  1.00  0.00     0.031 C 
ATOM     60  C   UNL A   1      47.498  25.051  26.137  1.00  0.00     0.029 A 
ATOM     61  C   UNL A   1      47.368  26.362  26.567  1.00  0.00     0.049 A 
ATOM     62  H   UNL A   1      45.694  27.321  27.421  1.00  0.00     0.167 HD
ATOM     63  C   UNL A   1      48.160  28.669  27.023  1.00  0.00     0.074 A 
ATOM     64  C   UNL A   1      49.169  29.707  27.010  1.00  0.00     0.031 C 
ATOM     65  C   UNL A   1      48.352  27.414  26.543  1.00  0.00     0.037 A 
BRANCH  52  66
ATOM     66  C   UNL A   1      43.411  23.729  27.059  1.00  0.00     0.058 A 
ATOM     67  C   UNL A   1      42.987  23.291  25.793  1.00  0.00     0.135 A 
ATOM     68  C   UNL A   1      43.267  22.842  28.138  1.00  0.00     0.135 A 
ATOM     69  F   UNL A   1      43.084  24.105  24.729  1.00  0.00    -0.206 F 
ATOM     70  C   UNL A   1      42.410  22.040  25.610  1.00  0.00     0.059 A 
ATOM     71  C   UNL A   1      42.719  21.574  27.974  1.00  0.00     0.059 A 
ATOM     72  F   UNL A   1      43.656  23.208  29.370  1.00  0.00    -0.206 F 
ATOM     73  C   UNL A   1      42.276  21.188  26.708  1.00  0.00     0.060 A 
BRANCH  73  74
ATOM     74  S   UNL A   1      41.520  19.569  26.457  1.00  0.00     0.124 S 
ATOM     75  O   UNL A   1      42.202  19.114  25.250  1.00  0.00    -0.237 OA
ATOM     76  O   UNL A   1      41.872  18.865  27.687  1.00  0.00    -0.237 OA
ATOM     77  O   UNL A   1      40.103  19.877  26.301  1.00  0.00    -0.744 OA
ENDBRANCH  73  74
ENDBRANCH  52  66
BRANCH  53  78
ATOM     78  C   UNL A   1      47.032  32.889  28.776  1.00  0.00     0.058 A 
ATOM     79  C   UNL A   1      47.636  33.186  30.007  1.00  0.00     0.135 A 
ATOM     80  C   UNL A   1      46.975  33.909  27.814  1.00  0.00     0.135 A 
ATOM     81  F   UNL A   1      47.710  32.245  30.961  1.00  0.00    -0.206 F 
ATOM     82  C   UNL A   1      48.144  34.449  30.285  1.00  0.00     0.059 A 
ATOM     83  C   UNL A   1      47.497  35.175  28.059  1.00  0.00     0.059 A 
ATOM     84  F   UNL A   1      46.424  33.671  26.613  1.00  0.00    -0.206 F 
ATOM     85  C   UNL A   1      48.071  35.439  29.304  1.00  0.00     0.060 A 
BRANCH  85  86
ATOM     86  S   UNL A   1      48.773  37.065  29.658  1.00  0.00     0.124 S 
ATOM     87  O   UNL A   1      48.767  37.076  31.116  1.00  0.00    -0.237 OA
ATOM     88  O   UNL A   1      50.085  36.978  29.025  1.00  0.00    -0.237 OA
ATOM     89  O   UNL A   1      47.835  37.981  29.014  1.00  0.00    -0.744 OA
ENDBRANCH  85  86
ENDBRANCH  53  78
BRANCH  65  90
ATOM     90  C   UNL A   1      49.682  27.113  25.913  1.00  0.00     0.058 A 
ATOM     91  C   UNL A   1      49.888  27.215  24.529  1.00  0.00     0.135 A 
ATOM     92  C   UNL A   1      50.777  26.754  26.715  1.00  0.00     0.135 A 
ATOM     93  F   UNL A   1      48.872  27.551  23.718  1.00  0.00    -0.206 F 
ATOM     94  C   UNL A   1      51.127  26.942  23.958  1.00  0.00     0.059 A 
ATOM     95  C   UNL A   1      52.031  26.502  26.169  1.00  0.00     0.059 A 
ATOM     96  F   UNL A   1      50.636  26.654  28.048  1.00  0.00    -0.206 F 
ATOM     97  C   UNL A   1      52.192  26.584  24.786  1.00  0.00     0.060 A 
BRANCH  97  98
ATOM     98  S   UNL A   1      53.801  26.252  24.040  1.00  0.00     0.124 S 
ATOM     99  O   UNL A   1      54.577  27.403  24.492  1.00  0.00    -0.237 OA
ATOM    100  O   UNL A   1      54.166  24.970  24.633  1.00  0.00    -0.237 OA
ATOM    101  O   UNL A   1      53.510  26.213  22.609  1.00  0.00    -0.744 OA
ENDBRANCH  97  98
ENDBRANCH  65  90
ENDBRANCH  39  40
ENDBRANCH  31  34
ENDBRANCH  29  30
ENDBRANCH  28  29
ENDBRANCH  27  28
ENDBRANCH   1  27
TORSDOF 19
ENDMDL
