MODEL 1
REMARK VINA RESULT:     -10.7      0.000      0.000
REMARK SMILES C[C@H](c1ccccc1)[N@@H+](CC(=O)NCCCCNC(=O)c1ccc(-c2c3nc(c(-c4c(F)cc(S(=O)(=O)[O-])cc4F)c4ccc([nH]4)c(-c4c(F)cc(S(=O)(=O)[O-])cc4F)c4nc(c(-c5c(F)cc(S(=O)(=O)[O-])cc5F)c5ccc2[nH]5)C=C4)C=C3)cc1)CC(F)(F)F
REMARK SMILES IDX 15 1 14 2 13 3 11 4 12 5 10 7 9 8 2 10 1 11 3 12 4 13 8 14
REMARK SMILES IDX 5 15 7 16 6 17 87 18 88 19 89 20 90 21 91 22 16 23 17 24
REMARK SMILES IDX 18 25 19 26 20 28 21 29 22 30 86 31 23 32 85 33 24 34 25 35
REMARK SMILES IDX 26 36 79 37 27 38 84 39 78 40 80 41 28 42 83 43 77 44 76 45
REMARK SMILES IDX 29 47 63 48 42 49 62 50 43 51 46 52 61 53 81 54 44 55 45 56
REMARK SMILES IDX 60 58 82 59 47 60 30 61 31 62 40 63 32 64 33 65 39 66 41 67
REMARK SMILES IDX 34 68 35 69 36 70 37 71 38 72 64 73 65 74 74 75 66 76 67 77
REMARK SMILES IDX 73 78 75 79 68 80 69 81 70 82 71 83 72 84 48 85 49 86 58 87
REMARK SMILES IDX 50 88 51 89 57 90 59 91 52 92 53 93 54 94 55 95 56 96
REMARK H PARENT 13 6 9 9 18 27 80 46 46 57
REMARK Flexibility Score: inf
ROOT
ATOM      1  C   UNL A   1      31.653  27.499  26.451  1.00  0.00     0.023 C 
ENDROOT
BRANCH   1   2
ATOM      2  C   UNL A   1      30.670  26.452  25.905  1.00  0.00     0.116 C 
BRANCH   2   3
ATOM      3  N   UNL A   1      30.582  25.192  26.633  1.00  0.00    -0.351 N 
ATOM      4  C   UNL A   1      31.394  24.089  26.665  1.00  0.00     0.275 C 
ATOM      5  O   UNL A   1      31.197  23.263  27.561  1.00  0.00    -0.269 OA
ATOM      6  H   UNL A   1      29.788  25.118  27.209  1.00  0.00     0.163 HD
BRANCH   4   7
ATOM      7  C   UNL A   1      32.489  23.856  25.616  1.00  0.00     0.364 C 
BRANCH   7   8
ATOM      8  N   UNL A   1      32.061  23.116  24.398  1.00  0.00    -0.314 N 
ATOM      9  H   UNL A   1      31.162  22.706  24.653  1.00  0.00     0.349 HD
BRANCH   8  10
ATOM     10  C   UNL A   1      32.870  21.926  24.115  1.00  0.00     0.212 C 
ATOM     11  C   UNL A   1      32.310  20.593  24.634  1.00  0.00     0.081 C 
BRANCH  10  12
ATOM     12  C   UNL A   1      34.389  22.056  24.240  1.00  0.00     0.009 A 
ATOM     13  C   UNL A   1      35.147  22.830  23.348  1.00  0.00     0.010 A 
ATOM     14  C   UNL A   1      35.093  21.215  25.129  1.00  0.00     0.010 A 
ATOM     15  C   UNL A   1      36.547  22.784  23.368  1.00  0.00     0.001 A 
ATOM     16  C   UNL A   1      36.486  21.170  25.150  1.00  0.00     0.001 A 
ATOM     17  C   UNL A   1      37.215  21.957  24.269  1.00  0.00     0.000 A 
ENDBRANCH  10  12
ENDBRANCH   8  10
BRANCH   8  18
ATOM     18  C   UNL A   1      31.581  23.926  23.262  1.00  0.00     0.380 C 
BRANCH  18  19
ATOM     19  C   UNL A   1      32.293  25.165  22.673  1.00  0.00     0.438 C 
ATOM     20  F   UNL A   1      31.561  26.289  22.816  1.00  0.00    -0.165 F 
ATOM     21  F   UNL A   1      33.454  25.381  23.343  1.00  0.00    -0.165 F 
ATOM     22  F   UNL A   1      32.608  25.019  21.374  1.00  0.00    -0.165 F 
ENDBRANCH  18  19
ENDBRANCH   8  18
ENDBRANCH   7   8
ENDBRANCH   4   7
ENDBRANCH   2   3
ENDBRANCH   1   2
BRANCH   1  23
ATOM     23  C   UNL A   1      33.052  27.502  25.839  1.00  0.00     0.023 C 
BRANCH  23  24
ATOM     24  C   UNL A   1      34.097  28.106  26.749  1.00  0.00     0.116 C 
BRANCH  24  25
ATOM     25  N   UNL A   1      33.757  29.470  27.136  1.00  0.00    -0.352 N 
ATOM     26  C   UNL A   1      34.486  30.375  27.858  1.00  0.00     0.251 C 
ATOM     27  H   UNL A   1      32.875  29.785  26.833  1.00  0.00     0.163 HD
ATOM     28  O   UNL A   1      33.961  31.422  28.237  1.00  0.00    -0.269 OA
BRANCH  26  29
ATOM     29  C   UNL A   1      35.887  30.070  28.199  1.00  0.00     0.039 A 
ATOM     30  C   UNL A   1      36.187  29.586  29.473  1.00  0.00     0.014 A 
ATOM     31  C   UNL A   1      36.896  30.240  27.248  1.00  0.00     0.014 A 
ATOM     32  C   UNL A   1      37.500  29.237  29.777  1.00  0.00     0.010 A 
ATOM     33  C   UNL A   1      38.171  29.771  27.508  1.00  0.00     0.010 A 
ATOM     34  C   UNL A   1      38.494  29.305  28.788  1.00  0.00    -0.014 A 
BRANCH  34  35
ATOM     35  C   UNL A   1      39.901  28.957  29.081  1.00  0.00     0.031 A 
ATOM     36  C   UNL A   1      40.792  29.986  29.723  1.00  0.00     0.074 A 
ATOM     37  C   UNL A   1      40.375  27.753  28.711  1.00  0.00     0.049 A 
ATOM     38  N   UNL A   1      42.067  29.915  30.000  1.00  0.00    -0.248 NA
ATOM     39  C   UNL A   1      40.180  31.285  30.061  1.00  0.00     0.031 C 
ATOM     40  C   UNL A   1      39.607  26.716  28.019  1.00  0.00     0.029 A 
ATOM     41  N   UNL A   1      41.619  27.201  28.860  1.00  0.00    -0.354 N 
ATOM     42  C   UNL A   1      42.408  31.160  30.516  1.00  0.00     0.074 A 
ATOM     43  C   UNL A   1      41.230  31.991  30.449  1.00  0.00     0.031 C 
ATOM     44  C   UNL A   1      40.387  25.639  27.835  1.00  0.00     0.029 A 
ATOM     45  C   UNL A   1      41.718  25.925  28.358  1.00  0.00     0.049 A 
ATOM     46  H   UNL A   1      42.371  27.671  29.287  1.00  0.00     0.167 HD
ATOM     47  C   UNL A   1      43.593  31.559  31.034  1.00  0.00     0.037 A 
ATOM     48  C   UNL A   1      42.771  25.086  28.325  1.00  0.00     0.037 A 
ATOM     49  C   UNL A   1      44.739  30.698  31.133  1.00  0.00     0.049 A 
ATOM     50  C   UNL A   1      44.068  25.541  28.937  1.00  0.00     0.074 A 
ATOM     51  C   UNL A   1      45.969  30.964  31.705  1.00  0.00     0.029 A 
ATOM     52  N   UNL A   1      44.791  29.397  30.652  1.00  0.00    -0.354 N 
ATOM     53  N   UNL A   1      44.357  26.696  29.491  1.00  0.00    -0.248 NA
ATOM     54  C   UNL A   1      45.176  24.578  28.933  1.00  0.00     0.031 C 
ATOM     55  C   UNL A   1      46.782  29.841  31.525  1.00  0.00     0.029 A 
ATOM     56  C   UNL A   1      46.040  28.853  30.894  1.00  0.00     0.049 A 
ATOM     57  H   UNL A   1      44.050  28.930  30.204  1.00  0.00     0.167 HD
ATOM     58  C   UNL A   1      45.673  26.592  29.923  1.00  0.00     0.074 A 
ATOM     59  C   UNL A   1      46.115  25.254  29.581  1.00  0.00     0.031 C 
ATOM     60  C   UNL A   1      46.448  27.514  30.545  1.00  0.00     0.037 A 
BRANCH  47  61
ATOM     61  C   UNL A   1      43.699  32.973  31.537  1.00  0.00     0.058 A 
ATOM     62  C   UNL A   1      43.516  33.294  32.892  1.00  0.00     0.135 A 
ATOM     63  C   UNL A   1      44.014  34.020  30.656  1.00  0.00     0.135 A 
ATOM     64  F   UNL A   1      43.191  32.338  33.776  1.00  0.00    -0.206 F 
ATOM     65  C   UNL A   1      43.617  34.603  33.353  1.00  0.00     0.059 A 
ATOM     66  C   UNL A   1      44.152  35.333  31.101  1.00  0.00     0.059 A 
ATOM     67  F   UNL A   1      44.192  33.775  29.349  1.00  0.00    -0.206 F 
ATOM     68  C   UNL A   1      43.939  35.616  32.448  1.00  0.00     0.060 A 
BRANCH  68  69
ATOM     69  S   UNL A   1      44.086  37.305  33.066  1.00  0.00     0.124 S 
ATOM     70  O   UNL A   1      44.145  38.067  31.821  1.00  0.00    -0.237 OA
ATOM     71  O   UNL A   1      42.861  37.459  33.845  1.00  0.00    -0.237 OA
ATOM     72  O   UNL A   1      45.321  37.277  33.843  1.00  0.00    -0.744 OA
ENDBRANCH  68  69
ENDBRANCH  47  61
BRANCH  48  73
ATOM     73  C   UNL A   1      42.623  23.734  27.722  1.00  0.00     0.058 A 
ATOM     74  C   UNL A   1      42.730  23.543  26.338  1.00  0.00     0.135 A 
ATOM     75  C   UNL A   1      42.405  22.601  28.523  1.00  0.00     0.135 A 
ATOM     76  F   UNL A   1      42.939  24.594  25.529  1.00  0.00    -0.206 F 
ATOM     77  C   UNL A   1      42.608  22.282  25.763  1.00  0.00     0.059 A 
ATOM     78  C   UNL A   1      42.306  21.326  27.975  1.00  0.00     0.059 A 
ATOM     79  F   UNL A   1      42.317  22.726  29.855  1.00  0.00    -0.206 F 
ATOM     80  C   UNL A   1      42.399  21.177  26.592  1.00  0.00     0.060 A 
BRANCH  80  81
ATOM     81  S   UNL A   1      42.291  19.540  25.839  1.00  0.00     0.124 S 
ATOM     82  O   UNL A   1      43.271  19.645  24.765  1.00  0.00    -0.237 OA
ATOM     83  O   UNL A   1      42.653  18.667  26.952  1.00  0.00    -0.237 OA
ATOM     84  O   UNL A   1      40.896  19.457  25.416  1.00  0.00    -0.744 OA
ENDBRANCH  80  81
ENDBRANCH  48  73
BRANCH  60  85
ATOM     85  C   UNL A   1      47.840  27.099  30.925  1.00  0.00     0.058 A 
ATOM     86  C   UNL A   1      48.116  26.485  32.155  1.00  0.00     0.135 A 
ATOM     87  C   UNL A   1      48.901  27.266  30.019  1.00  0.00     0.135 A 
ATOM     88  F   UNL A   1      47.137  26.307  33.058  1.00  0.00    -0.206 F 
ATOM     89  C   UNL A   1      49.402  26.074  32.487  1.00  0.00     0.059 A 
ATOM     90  C   UNL A   1      50.187  26.834  30.316  1.00  0.00     0.059 A 
ATOM     91  F   UNL A   1      48.684  27.836  28.822  1.00  0.00    -0.206 F 
ATOM     92  C   UNL A   1      50.430  26.250  31.559  1.00  0.00     0.060 A 
BRANCH  92  93
ATOM     93  S   UNL A   1      52.088  25.682  31.988  1.00  0.00     0.124 S 
ATOM     94  O   UNL A   1      51.869  24.251  32.172  1.00  0.00    -0.237 OA
ATOM     95  O   UNL A   1      52.861  26.058  30.809  1.00  0.00    -0.237 OA
ATOM     96  O   UNL A   1      52.401  26.431  33.201  1.00  0.00    -0.744 OA
ENDBRANCH  92  93
ENDBRANCH  60  85
ENDBRANCH  34  35
ENDBRANCH  26  29
ENDBRANCH  24  25
ENDBRANCH  23  24
ENDBRANCH   1  23
TORSDOF 19
ENDMDL
MODEL 2
REMARK VINA RESULT:     -10.7      2.720      3.455
REMARK SMILES C[C@H](c1ccccc1)[N@@H+](CC(=O)NCCCCNC(=O)c1ccc(-c2c3nc(c(-c4c(F)cc(S(=O)(=O)[O-])cc4F)c4ccc([nH]4)c(-c4c(F)cc(S(=O)(=O)[O-])cc4F)c4nc(c(-c5c(F)cc(S(=O)(=O)[O-])cc5F)c5ccc2[nH]5)C=C4)C=C3)cc1)CC(F)(F)F
REMARK SMILES IDX 15 1 14 2 13 3 11 4 12 5 10 7 9 8 2 10 1 11 3 12 4 13 8 14
REMARK SMILES IDX 5 15 7 16 6 17 87 18 88 19 89 20 90 21 91 22 16 23 17 24
REMARK SMILES IDX 18 25 19 26 20 28 21 29 22 30 86 31 23 32 85 33 24 34 25 35
REMARK SMILES IDX 26 36 79 37 27 38 84 39 78 40 80 41 28 42 83 43 77 44 76 45
REMARK SMILES IDX 29 47 63 48 42 49 62 50 43 51 46 52 61 53 81 54 44 55 45 56
REMARK SMILES IDX 60 58 82 59 47 60 30 61 31 62 40 63 32 64 33 65 39 66 41 67
REMARK SMILES IDX 34 68 35 69 36 70 37 71 38 72 64 73 65 74 74 75 66 76 67 77
REMARK SMILES IDX 73 78 75 79 68 80 69 81 70 82 71 83 72 84 48 85 49 86 58 87
REMARK SMILES IDX 50 88 51 89 57 90 59 91 52 92 53 93 54 94 55 95 56 96
REMARK H PARENT 13 6 9 9 18 27 80 46 46 57
REMARK Flexibility Score: inf
ROOT
ATOM      1  C   UNL A   1      31.629  26.978  26.389  1.00  0.00     0.023 C 
ENDROOT
BRANCH   1   2
ATOM      2  C   UNL A   1      30.604  26.056  25.712  1.00  0.00     0.116 C 
BRANCH   2   3
ATOM      3  N   UNL A   1      29.993  25.027  26.546  1.00  0.00    -0.351 N 
ATOM      4  C   UNL A   1      30.132  23.665  26.576  1.00  0.00     0.275 C 
ATOM      5  O   UNL A   1      29.673  23.067  27.553  1.00  0.00    -0.269 OA
ATOM      6  H   UNL A   1      29.362  25.377  27.214  1.00  0.00     0.163 HD
BRANCH   4   7
ATOM      7  C   UNL A   1      30.800  22.891  25.430  1.00  0.00     0.364 C 
BRANCH   7   8
ATOM      8  N   UNL A   1      32.266  22.679  25.571  1.00  0.00    -0.314 N 
ATOM      9  H   UNL A   1      32.489  23.054  26.493  1.00  0.00     0.349 HD
BRANCH   8  10
ATOM     10  C   UNL A   1      33.074  23.531  24.692  1.00  0.00     0.212 C 
ATOM     11  C   UNL A   1      32.518  23.758  23.279  1.00  0.00     0.081 C 
BRANCH  10  12
ATOM     12  C   UNL A   1      34.594  23.364  24.747  1.00  0.00     0.009 A 
ATOM     13  C   UNL A   1      35.351  23.780  25.853  1.00  0.00     0.010 A 
ATOM     14  C   UNL A   1      35.298  22.988  23.583  1.00  0.00     0.010 A 
ATOM     15  C   UNL A   1      36.750  23.789  25.803  1.00  0.00     0.001 A 
ATOM     16  C   UNL A   1      36.692  22.996  23.533  1.00  0.00     0.001 A 
ATOM     17  C   UNL A   1      37.419  23.396  24.646  1.00  0.00     0.000 A 
ENDBRANCH  10  12
ENDBRANCH   8  10
BRANCH   8  18
ATOM     18  C   UNL A   1      32.717  21.296  25.818  1.00  0.00     0.380 C 
BRANCH  18  19
ATOM     19  C   UNL A   1      32.850  20.186  24.750  1.00  0.00     0.438 C 
ATOM     20  F   UNL A   1      32.228  20.511  23.598  1.00  0.00    -0.165 F 
ATOM     21  F   UNL A   1      34.161  20.014  24.437  1.00  0.00    -0.165 F 
ATOM     22  F   UNL A   1      32.385  18.997  25.170  1.00  0.00    -0.165 F 
ENDBRANCH  18  19
ENDBRANCH   8  18
ENDBRANCH   7   8
ENDBRANCH   4   7
ENDBRANCH   2   3
ENDBRANCH   1   2
BRANCH   1  23
ATOM     23  C   UNL A   1      32.821  27.409  25.537  1.00  0.00     0.023 C 
BRANCH  23  24
ATOM     24  C   UNL A   1      33.921  28.063  26.342  1.00  0.00     0.116 C 
BRANCH  24  25
ATOM     25  N   UNL A   1      33.677  29.487  26.539  1.00  0.00    -0.352 N 
ATOM     26  C   UNL A   1      34.363  30.386  27.309  1.00  0.00     0.251 C 
ATOM     27  H   UNL A   1      32.909  29.853  26.045  1.00  0.00     0.163 HD
ATOM     28  O   UNL A   1      33.903  31.514  27.488  1.00  0.00    -0.269 OA
BRANCH  26  29
ATOM     29  C   UNL A   1      35.631  29.982  27.940  1.00  0.00     0.039 A 
ATOM     30  C   UNL A   1      36.822  30.130  27.227  1.00  0.00     0.014 A 
ATOM     31  C   UNL A   1      35.642  29.482  29.243  1.00  0.00     0.014 A 
ATOM     32  C   UNL A   1      38.028  29.808  27.843  1.00  0.00     0.010 A 
ATOM     33  C   UNL A   1      36.846  29.289  29.896  1.00  0.00     0.010 A 
ATOM     34  C   UNL A   1      38.048  29.409  29.189  1.00  0.00    -0.014 A 
BRANCH  34  35
ATOM     35  C   UNL A   1      39.310  29.046  29.868  1.00  0.00     0.031 A 
ATOM     36  C   UNL A   1      39.731  29.813  31.092  1.00  0.00     0.074 A 
ATOM     37  C   UNL A   1      40.089  28.081  29.345  1.00  0.00     0.049 A 
ATOM     38  N   UNL A   1      40.827  29.707  31.795  1.00  0.00    -0.248 NA
ATOM     39  C   UNL A   1      38.819  30.871  31.566  1.00  0.00     0.031 C 
ATOM     40  C   UNL A   1      39.800  27.329  28.121  1.00  0.00     0.029 A 
ATOM     41  N   UNL A   1      41.286  27.572  29.772  1.00  0.00    -0.354 N 
ATOM     42  C   UNL A   1      40.744  30.695  32.770  1.00  0.00     0.074 A 
ATOM     43  C   UNL A   1      39.530  31.438  32.527  1.00  0.00     0.031 C 
ATOM     44  C   UNL A   1      40.776  26.431  27.916  1.00  0.00     0.029 A 
ATOM     45  C   UNL A   1      41.777  26.571  28.968  1.00  0.00     0.049 A 
ATOM     46  H   UNL A   1      41.751  27.891  30.579  1.00  0.00     0.167 HD
ATOM     47  C   UNL A   1      41.591  30.936  33.798  1.00  0.00     0.037 A 
ATOM     48  C   UNL A   1      42.910  25.852  29.072  1.00  0.00     0.037 A 
ATOM     49  C   UNL A   1      42.769  30.152  34.046  1.00  0.00     0.049 A 
ATOM     50  C   UNL A   1      43.818  26.114  30.242  1.00  0.00     0.074 A 
ATOM     51  C   UNL A   1      43.664  30.251  35.096  1.00  0.00     0.029 A 
ATOM     52  N   UNL A   1      43.214  29.118  33.234  1.00  0.00    -0.354 N 
ATOM     53  N   UNL A   1      43.690  27.003  31.201  1.00  0.00    -0.248 NA
ATOM     54  C   UNL A   1      45.015  25.272  30.355  1.00  0.00     0.031 C 
ATOM     55  C   UNL A   1      44.677  29.310  34.892  1.00  0.00     0.029 A 
ATOM     56  C   UNL A   1      44.382  28.583  33.747  1.00  0.00     0.049 A 
ATOM     57  H   UNL A   1      42.765  28.810  32.415  1.00  0.00     0.167 HD
ATOM     58  C   UNL A   1      44.778  26.812  32.045  1.00  0.00     0.074 A 
ATOM     59  C   UNL A   1      45.542  25.711  31.490  1.00  0.00     0.031 C 
ATOM     60  C   UNL A   1      45.117  27.482  33.173  1.00  0.00     0.037 A 
BRANCH  47  61
ATOM     61  C   UNL A   1      41.265  32.075  34.725  1.00  0.00     0.058 A 
ATOM     62  C   UNL A   1      40.386  31.920  35.809  1.00  0.00     0.135 A 
ATOM     63  C   UNL A   1      41.861  33.333  34.544  1.00  0.00     0.135 A 
ATOM     64  F   UNL A   1      39.769  30.747  36.019  1.00  0.00    -0.206 F 
ATOM     65  C   UNL A   1      40.089  32.977  36.665  1.00  0.00     0.059 A 
ATOM     66  C   UNL A   1      41.604  34.395  35.406  1.00  0.00     0.059 A 
ATOM     67  F   UNL A   1      42.704  33.542  33.520  1.00  0.00    -0.206 F 
ATOM     68  C   UNL A   1      40.707  34.211  36.456  1.00  0.00     0.060 A 
BRANCH  68  69
ATOM     69  S   UNL A   1      40.327  35.564  37.588  1.00  0.00     0.124 S 
ATOM     70  O   UNL A   1      39.325  34.948  38.453  1.00  0.00    -0.237 OA
ATOM     71  O   UNL A   1      41.623  35.825  38.207  1.00  0.00    -0.237 OA
ATOM     72  O   UNL A   1      39.832  36.617  36.707  1.00  0.00    -0.744 OA
ENDBRANCH  68  69
ENDBRANCH  47  61
BRANCH  48  73
ATOM     73  C   UNL A   1      43.220  24.804  28.063  1.00  0.00     0.058 A 
ATOM     74  C   UNL A   1      43.939  25.110  26.900  1.00  0.00     0.135 A 
ATOM     75  C   UNL A   1      42.831  23.469  28.257  1.00  0.00     0.135 A 
ATOM     76  F   UNL A   1      44.335  26.372  26.667  1.00  0.00    -0.206 F 
ATOM     77  C   UNL A   1      44.248  24.138  25.955  1.00  0.00     0.059 A 
ATOM     78  C   UNL A   1      43.151  22.473  27.340  1.00  0.00     0.059 A 
ATOM     79  F   UNL A   1      42.160  23.118  29.365  1.00  0.00    -0.206 F 
ATOM     80  C   UNL A   1      43.852  22.818  26.186  1.00  0.00     0.060 A 
BRANCH  80  81
ATOM     81  S   UNL A   1      44.300  21.556  24.976  1.00  0.00     0.124 S 
ATOM     82  O   UNL A   1      43.308  20.522  25.249  1.00  0.00    -0.237 OA
ATOM     83  O   UNL A   1      44.146  22.273  23.714  1.00  0.00    -0.237 OA
ATOM     84  O   UNL A   1      45.676  21.222  25.334  1.00  0.00    -0.744 OA
ENDBRANCH  80  81
ENDBRANCH  48  73
BRANCH  60  85
ATOM     85  C   UNL A   1      46.348  27.024  33.901  1.00  0.00     0.058 A 
ATOM     86  C   UNL A   1      47.608  27.582  33.642  1.00  0.00     0.135 A 
ATOM     87  C   UNL A   1      46.251  26.054  34.914  1.00  0.00     0.135 A 
ATOM     88  F   UNL A   1      47.754  28.509  32.682  1.00  0.00    -0.206 F 
ATOM     89  C   UNL A   1      48.738  27.175  34.343  1.00  0.00     0.059 A 
ATOM     90  C   UNL A   1      47.361  25.656  35.648  1.00  0.00     0.059 A 
ATOM     91  F   UNL A   1      45.064  25.500  35.208  1.00  0.00    -0.206 F 
ATOM     92  C   UNL A   1      48.603  26.214  35.347  1.00  0.00     0.060 A 
BRANCH  92  93
ATOM     93  S   UNL A   1      50.071  25.719  36.271  1.00  0.00     0.124 S 
ATOM     94  O   UNL A   1      49.716  24.364  36.682  1.00  0.00    -0.237 OA
ATOM     95  O   UNL A   1      51.122  25.819  35.263  1.00  0.00    -0.237 OA
ATOM     96  O   UNL A   1      50.145  26.703  37.346  1.00  0.00    -0.744 OA
ENDBRANCH  92  93
ENDBRANCH  60  85
ENDBRANCH  34  35
ENDBRANCH  26  29
ENDBRANCH  24  25
ENDBRANCH  23  24
ENDBRANCH   1  23
TORSDOF 19
ENDMDL
MODEL 3
REMARK VINA RESULT:     -10.6      1.227      1.895
REMARK SMILES C[C@H](c1ccccc1)[N@@H+](CC(=O)NCCCCNC(=O)c1ccc(-c2c3nc(c(-c4c(F)cc(S(=O)(=O)[O-])cc4F)c4ccc([nH]4)c(-c4c(F)cc(S(=O)(=O)[O-])cc4F)c4nc(c(-c5c(F)cc(S(=O)(=O)[O-])cc5F)c5ccc2[nH]5)C=C4)C=C3)cc1)CC(F)(F)F
REMARK SMILES IDX 15 1 14 2 13 3 11 4 12 5 10 7 9 8 2 10 1 11 3 12 4 13 8 14
REMARK SMILES IDX 5 15 7 16 6 17 87 18 88 19 89 20 90 21 91 22 16 23 17 24
REMARK SMILES IDX 18 25 19 26 20 28 21 29 22 30 86 31 23 32 85 33 24 34 25 35
REMARK SMILES IDX 26 36 79 37 27 38 84 39 78 40 80 41 28 42 83 43 77 44 76 45
REMARK SMILES IDX 29 47 63 48 42 49 62 50 43 51 46 52 61 53 81 54 44 55 45 56
REMARK SMILES IDX 60 58 82 59 47 60 30 61 31 62 40 63 32 64 33 65 39 66 41 67
REMARK SMILES IDX 34 68 35 69 36 70 37 71 38 72 64 73 65 74 74 75 66 76 67 77
REMARK SMILES IDX 73 78 75 79 68 80 69 81 70 82 71 83 72 84 48 85 49 86 58 87
REMARK SMILES IDX 50 88 51 89 57 90 59 91 52 92 53 93 54 94 55 95 56 96
REMARK H PARENT 13 6 9 9 18 27 80 46 46 57
REMARK Flexibility Score: inf
ROOT
ATOM      1  C   UNL A   1      31.918  27.466  26.161  1.00  0.00     0.023 C 
ENDROOT
BRANCH   1   2
ATOM      2  C   UNL A   1      31.064  26.306  25.627  1.00  0.00     0.116 C 
BRANCH   2   3
ATOM      3  N   UNL A   1      30.839  25.185  26.531  1.00  0.00    -0.351 N 
ATOM      4  C   UNL A   1      31.325  23.904  26.548  1.00  0.00     0.275 C 
ATOM      5  O   UNL A   1      31.151  23.243  27.575  1.00  0.00    -0.269 OA
ATOM      6  H   UNL A   1      30.220  25.386  27.270  1.00  0.00     0.163 HD
BRANCH   4   7
ATOM      7  C   UNL A   1      32.031  23.288  25.332  1.00  0.00     0.364 C 
BRANCH   7   8
ATOM      8  N   UNL A   1      33.352  22.661  25.610  1.00  0.00    -0.314 N 
ATOM      9  H   UNL A   1      33.526  22.862  26.595  1.00  0.00     0.349 HD
BRANCH   8  10
ATOM     10  C   UNL A   1      34.477  23.339  24.958  1.00  0.00     0.212 C 
ATOM     11  C   UNL A   1      34.311  23.627  23.459  1.00  0.00     0.081 C 
BRANCH  10  12
ATOM     12  C   UNL A   1      35.890  22.913  25.361  1.00  0.00     0.009 A 
ATOM     13  C   UNL A   1      36.755  23.766  26.062  1.00  0.00     0.010 A 
ATOM     14  C   UNL A   1      36.437  21.722  24.837  1.00  0.00     0.010 A 
ATOM     15  C   UNL A   1      38.100  23.425  26.255  1.00  0.00     0.001 A 
ATOM     16  C   UNL A   1      37.776  21.382  25.028  1.00  0.00     0.001 A 
ATOM     17  C   UNL A   1      38.609  22.235  25.740  1.00  0.00     0.000 A 
ENDBRANCH  10  12
ENDBRANCH   8  10
BRANCH   8  18
ATOM     18  C   UNL A   1      33.381  21.189  25.711  1.00  0.00     0.380 C 
BRANCH  18  19
ATOM     19  C   UNL A   1      33.064  20.200  24.567  1.00  0.00     0.438 C 
ATOM     20  F   UNL A   1      32.850  20.830  23.393  1.00  0.00    -0.165 F 
ATOM     21  F   UNL A   1      34.130  19.382  24.367  1.00  0.00    -0.165 F 
ATOM     22  F   UNL A   1      32.007  19.414  24.832  1.00  0.00    -0.165 F 
ENDBRANCH  18  19
ENDBRANCH   8  18
ENDBRANCH   7   8
ENDBRANCH   4   7
ENDBRANCH   2   3
ENDBRANCH   1   2
BRANCH   1  23
ATOM     23  C   UNL A   1      33.375  27.143  26.486  1.00  0.00     0.023 C 
BRANCH  23  24
ATOM     24  C   UNL A   1      34.317  28.291  26.202  1.00  0.00     0.116 C 
BRANCH  24  25
ATOM     25  N   UNL A   1      33.878  29.524  26.843  1.00  0.00    -0.352 N 
ATOM     26  C   UNL A   1      34.522  30.296  27.771  1.00  0.00     0.251 C 
ATOM     27  H   UNL A   1      32.990  29.849  26.567  1.00  0.00     0.163 HD
ATOM     28  O   UNL A   1      33.919  31.213  28.330  1.00  0.00    -0.269 OA
BRANCH  26  29
ATOM     29  C   UNL A   1      35.924  30.001  28.113  1.00  0.00     0.039 A 
ATOM     30  C   UNL A   1      36.220  29.466  29.367  1.00  0.00     0.014 A 
ATOM     31  C   UNL A   1      36.939  30.229  27.181  1.00  0.00     0.014 A 
ATOM     32  C   UNL A   1      37.536  29.127  29.670  1.00  0.00     0.010 A 
ATOM     33  C   UNL A   1      38.220  29.772  27.434  1.00  0.00     0.010 A 
ATOM     34  C   UNL A   1      38.539  29.255  28.695  1.00  0.00    -0.014 A 
BRANCH  34  35
ATOM     35  C   UNL A   1      39.948  28.919  28.987  1.00  0.00     0.031 A 
ATOM     36  C   UNL A   1      40.840  29.965  29.600  1.00  0.00     0.074 A 
ATOM     37  C   UNL A   1      40.425  27.709  28.642  1.00  0.00     0.049 A 
ATOM     38  N   UNL A   1      42.116  29.905  29.870  1.00  0.00    -0.248 NA
ATOM     39  C   UNL A   1      40.225  31.269  29.912  1.00  0.00     0.031 C 
ATOM     40  C   UNL A   1      39.656  26.653  27.979  1.00  0.00     0.029 A 
ATOM     41  N   UNL A   1      41.671  27.164  28.795  1.00  0.00    -0.354 N 
ATOM     42  C   UNL A   1      42.457  31.163  30.356  1.00  0.00     0.074 A 
ATOM     43  C   UNL A   1      41.275  31.988  30.277  1.00  0.00     0.031 C 
ATOM     44  C   UNL A   1      40.439  25.575  27.814  1.00  0.00     0.029 A 
ATOM     45  C   UNL A   1      41.772  25.877  28.322  1.00  0.00     0.049 A 
ATOM     46  H   UNL A   1      42.424  27.647  29.207  1.00  0.00     0.167 HD
ATOM     47  C   UNL A   1      43.643  31.578  30.857  1.00  0.00     0.037 A 
ATOM     48  C   UNL A   1      42.827  25.042  28.301  1.00  0.00     0.037 A 
ATOM     49  C   UNL A   1      44.793  30.723  30.969  1.00  0.00     0.049 A 
ATOM     50  C   UNL A   1      44.126  25.514  28.894  1.00  0.00     0.074 A 
ATOM     51  C   UNL A   1      46.026  31.006  31.526  1.00  0.00     0.029 A 
ATOM     52  N   UNL A   1      44.847  29.411  30.517  1.00  0.00    -0.354 N 
ATOM     53  N   UNL A   1      44.415  26.683  29.420  1.00  0.00    -0.248 NA
ATOM     54  C   UNL A   1      45.238  24.556  28.906  1.00  0.00     0.031 C 
ATOM     55  C   UNL A   1      46.842  29.882  31.367  1.00  0.00     0.029 A 
ATOM     56  C   UNL A   1      46.099  28.878  30.763  1.00  0.00     0.049 A 
ATOM     57  H   UNL A   1      44.104  28.932  30.084  1.00  0.00     0.167 HD
ATOM     58  C   UNL A   1      45.734  26.593  29.846  1.00  0.00     0.074 A 
ATOM     59  C   UNL A   1      46.179  25.249  29.532  1.00  0.00     0.031 C 
ATOM     60  C   UNL A   1      46.509  27.533  30.442  1.00  0.00     0.037 A 
BRANCH  47  61
ATOM     61  C   UNL A   1      43.747  33.003  31.327  1.00  0.00     0.058 A 
ATOM     62  C   UNL A   1      43.347  33.390  32.617  1.00  0.00     0.135 A 
ATOM     63  C   UNL A   1      44.280  33.993  30.486  1.00  0.00     0.135 A 
ATOM     64  F   UNL A   1      42.810  32.491  33.457  1.00  0.00    -0.206 F 
ATOM     65  C   UNL A   1      43.447  34.709  33.047  1.00  0.00     0.059 A 
ATOM     66  C   UNL A   1      44.419  35.313  30.907  1.00  0.00     0.059 A 
ATOM     67  F   UNL A   1      44.672  33.683  29.240  1.00  0.00    -0.206 F 
ATOM     68  C   UNL A   1      43.988  35.664  32.185  1.00  0.00     0.060 A 
BRANCH  68  69
ATOM     69  S   UNL A   1      44.130  37.366  32.767  1.00  0.00     0.124 S 
ATOM     70  O   UNL A   1      43.868  38.116  31.541  1.00  0.00    -0.237 OA
ATOM     71  O   UNL A   1      43.086  37.434  33.786  1.00  0.00    -0.237 OA
ATOM     72  O   UNL A   1      45.498  37.442  33.268  1.00  0.00    -0.744 OA
ENDBRANCH  68  69
ENDBRANCH  47  61
BRANCH  48  73
ATOM     73  C   UNL A   1      42.681  23.676  27.730  1.00  0.00     0.058 A 
ATOM     74  C   UNL A   1      42.429  22.570  28.554  1.00  0.00     0.135 A 
ATOM     75  C   UNL A   1      42.759  23.454  26.345  1.00  0.00     0.135 A 
ATOM     76  F   UNL A   1      42.344  22.730  29.884  1.00  0.00    -0.206 F 
ATOM     77  C   UNL A   1      42.276  21.290  28.032  1.00  0.00     0.059 A 
ATOM     78  C   UNL A   1      42.584  22.188  25.796  1.00  0.00     0.059 A 
ATOM     79  F   UNL A   1      42.977  24.482  25.511  1.00  0.00    -0.206 F 
ATOM     80  C   UNL A   1      42.352  21.109  26.648  1.00  0.00     0.060 A 
BRANCH  80  81
ATOM     81  S   UNL A   1      42.104  19.452  25.978  1.00  0.00     0.124 S 
ATOM     82  O   UNL A   1      40.656  19.415  25.813  1.00  0.00    -0.237 OA
ATOM     83  O   UNL A   1      42.887  19.499  24.747  1.00  0.00    -0.237 OA
ATOM     84  O   UNL A   1      42.643  18.584  27.022  1.00  0.00    -0.744 OA
ENDBRANCH  80  81
ENDBRANCH  48  73
BRANCH  60  85
ATOM     85  C   UNL A   1      47.905  27.131  30.823  1.00  0.00     0.058 A 
ATOM     86  C   UNL A   1      48.190  26.535  32.060  1.00  0.00     0.135 A 
ATOM     87  C   UNL A   1      48.962  27.292  29.910  1.00  0.00     0.135 A 
ATOM     88  F   UNL A   1      47.215  26.363  32.969  1.00  0.00    -0.206 F 
ATOM     89  C   UNL A   1      49.479  26.136  32.393  1.00  0.00     0.059 A 
ATOM     90  C   UNL A   1      50.252  26.871  30.209  1.00  0.00     0.059 A 
ATOM     91  F   UNL A   1      48.738  27.844  28.707  1.00  0.00    -0.206 F 
ATOM     92  C   UNL A   1      50.503  26.306  31.459  1.00  0.00     0.060 A 
BRANCH  92  93
ATOM     93  S   UNL A   1      52.165  25.754  31.890  1.00  0.00     0.124 S 
ATOM     94  O   UNL A   1      52.894  26.027  30.655  1.00  0.00    -0.237 OA
ATOM     95  O   UNL A   1      52.495  26.613  33.023  1.00  0.00    -0.237 OA
ATOM     96  O   UNL A   1      51.983  24.342  32.213  1.00  0.00    -0.744 OA
ENDBRANCH  92  93
ENDBRANCH  60  85
ENDBRANCH  34  35
ENDBRANCH  26  29
ENDBRANCH  24  25
ENDBRANCH  23  24
ENDBRANCH   1  23
TORSDOF 19
ENDMDL
