MODEL 1
REMARK VINA RESULT:     -12.1      0.000      0.000
REMARK SMILES O=C(NCCCCNC(=O)[C@H]1Cc2ccc(Cl)cc2C[N@@H+]1Cc1ccc(Cl)cc1)c1ccc(-c2c3nc(c(-c4c(F)cc(S(=O)(=O)[O-])cc4F)c4ccc([nH]4)c(-c4c(F)cc(S(=O)(=O)[O-])cc4F)c4nc(c(-c5c(F)cc(S(=O)(=O)[O-])cc5F)c5ccc2[nH]5)C=C4)C=C3)cc1
REMARK SMILES IDX 5 1 4 2 3 3 1 4 2 5 30 7 31 8 95 9 32 10 94 11 33 12 34 13
REMARK SMILES IDX 35 14 88 15 36 16 93 17 87 18 89 19 37 20 92 21 86 22 85 23
REMARK SMILES IDX 38 25 72 26 51 27 71 28 52 29 55 30 70 31 90 32 53 33 54 34
REMARK SMILES IDX 69 36 91 37 56 38 39 39 40 40 49 41 41 42 42 43 48 44 50 45
REMARK SMILES IDX 43 46 44 47 45 48 46 49 47 50 73 51 74 52 83 53 75 54 76 55
REMARK SMILES IDX 82 56 84 57 77 58 78 59 79 60 80 61 81 62 57 63 58 64 67 65
REMARK SMILES IDX 59 66 60 67 66 68 68 69 61 70 62 71 63 72 64 73 65 74 6 75
REMARK SMILES IDX 7 76 8 77 9 78 10 80 11 81 12 82 21 83 13 84 20 85 14 87
REMARK SMILES IDX 19 88 15 89 18 90 16 91 17 92 22 93 23 94 24 95 29 96 25 97
REMARK SMILES IDX 28 98 26 99 27 100
REMARK H PARENT 3 6 89 24 55 35 8 79 21 86
REMARK Flexibility Score: inf
ROOT
ATOM      1  C   UNL A   1      33.092  27.628  25.228  1.00  0.00     0.023 C 
ENDROOT
BRANCH   1   2
ATOM      2  C   UNL A   1      34.109  28.240  26.178  1.00  0.00     0.116 C 
BRANCH   2   3
ATOM      3  N   UNL A   1      33.834  29.644  26.437  1.00  0.00    -0.352 N 
ATOM      4  O   UNL A   1      33.959  31.602  27.538  1.00  0.00    -0.269 OA
ATOM      5  C   UNL A   1      34.461  30.502  27.301  1.00  0.00     0.251 C 
ATOM      6  H   UNL A   1      33.093  30.033  25.918  1.00  0.00     0.163 HD
BRANCH   5   7
ATOM      7  C   UNL A   1      35.726  30.103  27.950  1.00  0.00     0.039 A 
ATOM      8  C   UNL A   1      35.697  29.633  29.265  1.00  0.00     0.014 A 
ATOM      9  C   UNL A   1      36.941  30.220  27.270  1.00  0.00     0.014 A 
ATOM     10  C   UNL A   1      36.888  29.254  29.888  1.00  0.00     0.010 A 
ATOM     11  C   UNL A   1      38.111  29.760  27.859  1.00  0.00     0.010 A 
ATOM     12  C   UNL A   1      38.100  29.302  29.185  1.00  0.00    -0.014 A 
BRANCH  12  13
ATOM     13  C   UNL A   1      39.394  28.971  29.831  1.00  0.00     0.031 A 
ATOM     14  C   UNL A   1      39.826  29.755  31.042  1.00  0.00     0.074 A 
ATOM     15  C   UNL A   1      40.189  28.016  29.314  1.00  0.00     0.049 A 
ATOM     16  N   UNL A   1      40.970  29.742  31.672  1.00  0.00    -0.248 NA
ATOM     17  C   UNL A   1      38.845  30.703  31.601  1.00  0.00     0.031 C 
ATOM     18  C   UNL A   1      39.876  27.187  28.148  1.00  0.00     0.029 A 
ATOM     19  N   UNL A   1      41.431  27.583  29.704  1.00  0.00    -0.354 N 
ATOM     20  C   UNL A   1      40.849  30.679  32.692  1.00  0.00     0.074 A 
ATOM     21  C   UNL A   1      39.547  31.291  32.558  1.00  0.00     0.031 C 
ATOM     22  C   UNL A   1      40.885  26.325  27.938  1.00  0.00     0.029 A 
ATOM     23  C   UNL A   1      41.937  26.574  28.918  1.00  0.00     0.049 A 
ATOM     24  H   UNL A   1      41.915  27.959  30.475  1.00  0.00     0.167 HD
ATOM     25  C   UNL A   1      41.731  30.977  33.675  1.00  0.00     0.037 A 
ATOM     26  C   UNL A   1      43.121  25.933  28.981  1.00  0.00     0.037 A 
ATOM     27  C   UNL A   1      43.013  30.341  33.821  1.00  0.00     0.049 A 
ATOM     28  C   UNL A   1      44.107  26.326  30.050  1.00  0.00     0.074 A 
ATOM     29  C   UNL A   1      43.984  30.571  34.780  1.00  0.00     0.029 A 
ATOM     30  N   UNL A   1      43.495  29.335  32.995  1.00  0.00    -0.354 N 
ATOM     31  N   UNL A   1      43.985  27.227  30.996  1.00  0.00    -0.248 NA
ATOM     32  C   UNL A   1      45.391  25.613  30.060  1.00  0.00     0.031 C 
ATOM     33  C   UNL A   1      45.067  29.726  34.515  1.00  0.00     0.029 A 
ATOM     34  C   UNL A   1      44.750  28.935  33.422  1.00  0.00     0.049 A 
ATOM     35  H   UNL A   1      43.015  28.961  32.221  1.00  0.00     0.167 HD
ATOM     36  C   UNL A   1      45.163  27.162  31.736  1.00  0.00     0.074 A 
ATOM     37  C   UNL A   1      45.976  26.127  31.132  1.00  0.00     0.031 C 
ATOM     38  C   UNL A   1      45.536  27.891  32.817  1.00  0.00     0.037 A 
BRANCH  25  39
ATOM     39  C   UNL A   1      41.330  32.017  34.684  1.00  0.00     0.058 A 
ATOM     40  C   UNL A   1      41.666  33.370  34.510  1.00  0.00     0.135 A 
ATOM     41  C   UNL A   1      40.554  31.674  35.802  1.00  0.00     0.135 A 
ATOM     42  F   UNL A   1      42.428  33.751  33.473  1.00  0.00    -0.206 F 
ATOM     43  C   UNL A   1      41.256  34.343  35.415  1.00  0.00     0.059 A 
ATOM     44  C   UNL A   1      40.109  32.635  36.705  1.00  0.00     0.059 A 
ATOM     45  F   UNL A   1      40.211  30.394  36.021  1.00  0.00    -0.206 F 
ATOM     46  C   UNL A   1      40.470  33.967  36.505  1.00  0.00     0.060 A 
BRANCH  46  47
ATOM     47  S   UNL A   1      39.916  35.252  37.645  1.00  0.00     0.124 S 
ATOM     48  O   UNL A   1      41.033  35.310  38.585  1.00  0.00    -0.237 OA
ATOM     49  O   UNL A   1      39.770  36.405  36.763  1.00  0.00    -0.237 OA
ATOM     50  O   UNL A   1      38.671  34.716  38.185  1.00  0.00    -0.744 OA
ENDBRANCH  46  47
ENDBRANCH  25  39
BRANCH  26  51
ATOM     51  C   UNL A   1      43.433  24.837  28.025  1.00  0.00     0.058 A 
ATOM     52  C   UNL A   1      44.040  25.116  26.792  1.00  0.00     0.135 A 
ATOM     53  C   UNL A   1      43.127  23.498  28.313  1.00  0.00     0.135 A 
ATOM     54  F   UNL A   1      44.346  26.383  26.467  1.00  0.00    -0.206 F 
ATOM     55  C   UNL A   1      44.312  24.114  25.868  1.00  0.00     0.059 A 
ATOM     56  C   UNL A   1      43.415  22.473  27.417  1.00  0.00     0.059 A 
ATOM     57  F   UNL A   1      42.559  23.173  29.485  1.00  0.00    -0.206 F 
ATOM     58  C   UNL A   1      43.996  22.793  26.191  1.00  0.00     0.060 A 
BRANCH  58  59
ATOM     59  S   UNL A   1      44.381  21.498  24.993  1.00  0.00     0.124 S 
ATOM     60  O   UNL A   1      44.166  22.192  23.729  1.00  0.00    -0.237 OA
ATOM     61  O   UNL A   1      45.768  21.183  25.320  1.00  0.00    -0.237 OA
ATOM     62  O   UNL A   1      43.416  20.449  25.310  1.00  0.00    -0.744 OA
ENDBRANCH  58  59
ENDBRANCH  26  51
BRANCH  38  63
ATOM     63  C   UNL A   1      46.860  27.561  33.450  1.00  0.00     0.058 A 
ATOM     64  C   UNL A   1      46.979  26.580  34.445  1.00  0.00     0.135 A 
ATOM     65  C   UNL A   1      48.032  28.204  33.015  1.00  0.00     0.135 A 
ATOM     66  F   UNL A   1      45.890  25.938  34.897  1.00  0.00    -0.206 F 
ATOM     67  C   UNL A   1      48.211  26.270  35.013  1.00  0.00     0.059 A 
ATOM     68  C   UNL A   1      49.277  27.887  33.548  1.00  0.00     0.059 A 
ATOM     69  F   UNL A   1      47.974  29.139  32.054  1.00  0.00    -0.206 F 
ATOM     70  C   UNL A   1      49.354  26.929  34.557  1.00  0.00     0.060 A 
BRANCH  70  71
ATOM     71  S   UNL A   1      50.946  26.503  35.294  1.00  0.00     0.124 S 
ATOM     72  O   UNL A   1      50.979  27.390  36.453  1.00  0.00    -0.237 OA
ATOM     73  O   UNL A   1      50.782  25.083  35.585  1.00  0.00    -0.237 OA
ATOM     74  O   UNL A   1      51.904  26.815  34.238  1.00  0.00    -0.744 OA
ENDBRANCH  70  71
ENDBRANCH  38  63
ENDBRANCH  12  13
ENDBRANCH   5   7
ENDBRANCH   2   3
ENDBRANCH   1   2
BRANCH   1  75
ATOM     75  C   UNL A   1      33.674  27.233  23.870  1.00  0.00     0.023 C 
BRANCH  75  76
ATOM     76  C   UNL A   1      33.122  25.941  23.283  1.00  0.00     0.116 C 
BRANCH  76  77
ATOM     77  N   UNL A   1      32.385  25.192  24.285  1.00  0.00    -0.351 N 
ATOM     78  C   UNL A   1      32.669  23.984  24.862  1.00  0.00     0.278 C 
ATOM     79  H   UNL A   1      31.554  25.619  24.596  1.00  0.00     0.163 HD
ATOM     80  O   UNL A   1      31.816  23.501  25.610  1.00  0.00    -0.268 OA
BRANCH  78  81
ATOM     81  C   UNL A   1      34.054  23.343  24.634  1.00  0.00     0.279 C 
ATOM     82  C   UNL A   1      34.970  24.030  25.679  1.00  0.00     0.111 C 
ATOM     83  N   UNL A   1      34.053  21.869  24.821  1.00  0.00    -0.317 N 
ATOM     84  C   UNL A   1      36.334  23.402  25.788  1.00  0.00    -0.033 A 
ATOM     85  C   UNL A   1      35.404  21.313  24.696  1.00  0.00     0.300 C 
ATOM     86  H   UNL A   1      33.729  21.733  25.779  1.00  0.00     0.349 HD
ATOM     87  C   UNL A   1      37.417  24.114  26.323  1.00  0.00     0.006 A 
ATOM     88  C   UNL A   1      36.510  22.074  25.384  1.00  0.00     0.011 A 
ATOM     89  C   UNL A   1      38.680  23.523  26.404  1.00  0.00     0.021 A 
ATOM     90  C   UNL A   1      37.782  21.486  25.472  1.00  0.00     0.030 A 
ATOM     91  C   UNL A   1      38.858  22.212  25.972  1.00  0.00     0.041 A 
ATOM     92  Cl  UNL A   1      40.421  21.492  26.025  1.00  0.00    -0.084 Cl
BRANCH  83  93
ATOM     93  C   UNL A   1      33.067  21.120  24.005  1.00  0.00     0.299 C 
BRANCH  93  94
ATOM     94  C   UNL A   1      32.874  19.638  24.300  1.00  0.00     0.006 A 
ATOM     95  C   UNL A   1      32.668  19.150  25.600  1.00  0.00     0.011 A 
ATOM     96  C   UNL A   1      32.881  18.705  23.253  1.00  0.00     0.011 A 
ATOM     97  C   UNL A   1      32.676  17.779  25.872  1.00  0.00     0.021 A 
ATOM     98  C   UNL A   1      32.831  17.328  23.515  1.00  0.00     0.021 A 
ATOM     99  C   UNL A   1      32.787  16.872  24.827  1.00  0.00     0.041 A 
ATOM    100  Cl  UNL A   1      32.886  15.189  25.163  1.00  0.00    -0.084 Cl
ENDBRANCH  93  94
ENDBRANCH  83  93
ENDBRANCH  78  81
ENDBRANCH  76  77
ENDBRANCH  75  76
ENDBRANCH   1  75
TORSDOF 16
ENDMDL
MODEL 2
REMARK VINA RESULT:     -12.0      2.819      4.168
REMARK SMILES O=C(NCCCCNC(=O)[C@H]1Cc2ccc(Cl)cc2C[N@@H+]1Cc1ccc(Cl)cc1)c1ccc(-c2c3nc(c(-c4c(F)cc(S(=O)(=O)[O-])cc4F)c4ccc([nH]4)c(-c4c(F)cc(S(=O)(=O)[O-])cc4F)c4nc(c(-c5c(F)cc(S(=O)(=O)[O-])cc5F)c5ccc2[nH]5)C=C4)C=C3)cc1
REMARK SMILES IDX 5 1 4 2 3 3 1 4 2 5 30 7 31 8 95 9 32 10 94 11 33 12 34 13
REMARK SMILES IDX 35 14 88 15 36 16 93 17 87 18 89 19 37 20 92 21 86 22 85 23
REMARK SMILES IDX 38 25 72 26 51 27 71 28 52 29 55 30 70 31 90 32 53 33 54 34
REMARK SMILES IDX 69 36 91 37 56 38 39 39 40 40 49 41 41 42 42 43 48 44 50 45
REMARK SMILES IDX 43 46 44 47 45 48 46 49 47 50 73 51 74 52 83 53 75 54 76 55
REMARK SMILES IDX 82 56 84 57 77 58 78 59 79 60 80 61 81 62 57 63 58 64 67 65
REMARK SMILES IDX 59 66 60 67 66 68 68 69 61 70 62 71 63 72 64 73 65 74 6 75
REMARK SMILES IDX 7 76 8 77 9 78 10 80 11 81 12 82 21 83 13 84 20 85 14 87
REMARK SMILES IDX 19 88 15 89 18 90 16 91 17 92 22 93 23 94 24 95 29 96 25 97
REMARK SMILES IDX 28 98 26 99 27 100
REMARK H PARENT 3 6 89 24 55 35 8 79 21 86
REMARK Flexibility Score: inf
ROOT
ATOM      1  C   UNL A   1      33.630  27.645  26.674  1.00  0.00     0.023 C 
ENDROOT
BRANCH   1   2
ATOM      2  C   UNL A   1      34.182  28.872  25.966  1.00  0.00     0.116 C 
BRANCH   2   3
ATOM      3  N   UNL A   1      33.877  30.098  26.687  1.00  0.00    -0.352 N 
ATOM      4  O   UNL A   1      34.052  31.619  28.335  1.00  0.00    -0.269 OA
ATOM      5  C   UNL A   1      34.569  30.693  27.708  1.00  0.00     0.251 C 
ATOM      6  H   UNL A   1      33.059  30.565  26.402  1.00  0.00     0.163 HD
BRANCH   5   7
ATOM      7  C   UNL A   1      35.924  30.220  28.058  1.00  0.00     0.039 A 
ATOM      8  C   UNL A   1      36.137  29.630  29.306  1.00  0.00     0.014 A 
ATOM      9  C   UNL A   1      36.986  30.384  27.165  1.00  0.00     0.014 A 
ATOM     10  C   UNL A   1      37.414  29.180  29.646  1.00  0.00     0.010 A 
ATOM     11  C   UNL A   1      38.234  29.857  27.469  1.00  0.00     0.010 A 
ATOM     12  C   UNL A   1      38.468  29.278  28.725  1.00  0.00    -0.014 A 
BRANCH  12  13
ATOM     13  C   UNL A   1      39.852  28.873  29.072  1.00  0.00     0.031 A 
ATOM     14  C   UNL A   1      40.739  29.851  29.795  1.00  0.00     0.074 A 
ATOM     15  C   UNL A   1      40.320  27.665  28.706  1.00  0.00     0.049 A 
ATOM     16  N   UNL A   1      42.015  29.770  30.064  1.00  0.00    -0.248 NA
ATOM     17  C   UNL A   1      40.109  31.103  30.253  1.00  0.00     0.031 C 
ATOM     18  C   UNL A   1      39.553  26.632  28.006  1.00  0.00     0.029 A 
ATOM     19  N   UNL A   1      41.561  27.104  28.868  1.00  0.00    -0.354 N 
ATOM     20  C   UNL A   1      42.339  30.957  30.712  1.00  0.00     0.074 A 
ATOM     21  C   UNL A   1      41.145  31.770  30.737  1.00  0.00     0.031 C 
ATOM     22  C   UNL A   1      40.332  25.551  27.829  1.00  0.00     0.029 A 
ATOM     23  C   UNL A   1      41.665  25.833  28.353  1.00  0.00     0.049 A 
ATOM     24  H   UNL A   1      42.307  27.567  29.313  1.00  0.00     0.167 HD
ATOM     25  C   UNL A   1      43.519  31.322  31.267  1.00  0.00     0.037 A 
ATOM     26  C   UNL A   1      42.722  24.998  28.303  1.00  0.00     0.037 A 
ATOM     27  C   UNL A   1      44.695  30.494  31.264  1.00  0.00     0.049 A 
ATOM     28  C   UNL A   1      44.038  25.453  28.878  1.00  0.00     0.074 A 
ATOM     29  C   UNL A   1      45.943  30.769  31.797  1.00  0.00     0.029 A 
ATOM     30  N   UNL A   1      44.764  29.220  30.719  1.00  0.00    -0.354 N 
ATOM     31  N   UNL A   1      44.334  26.586  29.471  1.00  0.00    -0.248 NA
ATOM     32  C   UNL A   1      45.164  24.515  28.777  1.00  0.00     0.031 C 
ATOM     33  C   UNL A   1      46.775  29.674  31.545  1.00  0.00     0.029 A 
ATOM     34  C   UNL A   1      46.033  28.697  30.900  1.00  0.00     0.049 A 
ATOM     35  H   UNL A   1      44.020  28.757  30.269  1.00  0.00     0.167 HD
ATOM     36  C   UNL A   1      45.670  26.480  29.846  1.00  0.00     0.074 A 
ATOM     37  C   UNL A   1      46.119  25.170  29.422  1.00  0.00     0.031 C 
ATOM     38  C   UNL A   1      46.454  27.384  30.485  1.00  0.00     0.037 A 
BRANCH  25  39
ATOM     39  C   UNL A   1      43.589  32.661  31.946  1.00  0.00     0.058 A 
ATOM     40  C   UNL A   1      43.993  33.812  31.249  1.00  0.00     0.135 A 
ATOM     41  C   UNL A   1      43.193  32.812  33.284  1.00  0.00     0.135 A 
ATOM     42  F   UNL A   1      44.405  33.723  29.975  1.00  0.00    -0.206 F 
ATOM     43  C   UNL A   1      44.012  35.062  31.859  1.00  0.00     0.059 A 
ATOM     44  C   UNL A   1      43.178  34.058  33.906  1.00  0.00     0.059 A 
ATOM     45  F   UNL A   1      42.806  31.744  33.999  1.00  0.00    -0.206 F 
ATOM     46  C   UNL A   1      43.595  35.175  33.185  1.00  0.00     0.060 A 
BRANCH  46  47
ATOM     47  S   UNL A   1      43.592  36.813  33.944  1.00  0.00     0.124 S 
ATOM     48  O   UNL A   1      42.358  36.771  34.725  1.00  0.00    -0.237 OA
ATOM     49  O   UNL A   1      44.831  36.800  34.714  1.00  0.00    -0.237 OA
ATOM     50  O   UNL A   1      43.576  37.720  32.800  1.00  0.00    -0.744 OA
ENDBRANCH  46  47
ENDBRANCH  25  39
BRANCH  26  51
ATOM     51  C   UNL A   1      42.579  23.639  27.715  1.00  0.00     0.058 A 
ATOM     52  C   UNL A   1      42.394  22.520  28.541  1.00  0.00     0.135 A 
ATOM     53  C   UNL A   1      42.632  23.426  26.329  1.00  0.00     0.135 A 
ATOM     54  F   UNL A   1      42.344  22.672  29.874  1.00  0.00    -0.206 F 
ATOM     55  C   UNL A   1      42.291  21.236  28.018  1.00  0.00     0.059 A 
ATOM     56  C   UNL A   1      42.502  22.153  25.780  1.00  0.00     0.059 A 
ATOM     57  F   UNL A   1      42.792  24.463  25.493  1.00  0.00    -0.206 F 
ATOM     58  C   UNL A   1      42.345  21.063  26.634  1.00  0.00     0.060 A 
BRANCH  58  59
ATOM     59  S   UNL A   1      42.181  19.393  25.968  1.00  0.00     0.124 S 
ATOM     60  O   UNL A   1      40.744  19.307  25.741  1.00  0.00    -0.237 OA
ATOM     61  O   UNL A   1      43.014  19.460  24.771  1.00  0.00    -0.237 OA
ATOM     62  O   UNL A   1      42.703  18.550  27.039  1.00  0.00    -0.744 OA
ENDBRANCH  58  59
ENDBRANCH  26  51
BRANCH  38  63
ATOM     63  C   UNL A   1      47.862  26.968  30.812  1.00  0.00     0.058 A 
ATOM     64  C   UNL A   1      48.167  26.233  31.967  1.00  0.00     0.135 A 
ATOM     65  C   UNL A   1      48.912  27.271  29.928  1.00  0.00     0.135 A 
ATOM     66  F   UNL A   1      47.200  25.920  32.844  1.00  0.00    -0.206 F 
ATOM     67  C   UNL A   1      49.470  25.840  32.252  1.00  0.00     0.059 A 
ATOM     68  C   UNL A   1      50.218  26.861  30.179  1.00  0.00     0.059 A 
ATOM     69  F   UNL A   1      48.671  27.960  28.801  1.00  0.00    -0.206 F 
ATOM     70  C   UNL A   1      50.488  26.159  31.351  1.00  0.00     0.060 A 
BRANCH  70  71
ATOM     71  S   UNL A   1      52.172  25.626  31.730  1.00  0.00     0.124 S 
ATOM     72  O   UNL A   1      52.861  25.921  30.478  1.00  0.00    -0.237 OA
ATOM     73  O   UNL A   1      52.519  26.478  32.862  1.00  0.00    -0.237 OA
ATOM     74  O   UNL A   1      52.018  24.209  32.043  1.00  0.00    -0.744 OA
ENDBRANCH  70  71
ENDBRANCH  38  63
ENDBRANCH  12  13
ENDBRANCH   5   7
ENDBRANCH   2   3
ENDBRANCH   1   2
BRANCH   1  75
ATOM     75  C   UNL A   1      32.221  27.839  27.236  1.00  0.00     0.023 C 
BRANCH  75  76
ATOM     76  C   UNL A   1      31.090  27.507  26.272  1.00  0.00     0.116 C 
BRANCH  76  77
ATOM     77  N   UNL A   1      30.352  26.341  26.724  1.00  0.00    -0.351 N 
ATOM     78  C   UNL A   1      30.512  25.021  26.396  1.00  0.00     0.278 C 
ATOM     79  H   UNL A   1      29.627  26.528  27.363  1.00  0.00     0.163 HD
ATOM     80  O   UNL A   1      29.674  24.227  26.830  1.00  0.00    -0.268 OA
BRANCH  78  81
ATOM     81  C   UNL A   1      31.759  24.585  25.599  1.00  0.00     0.279 C 
ATOM     82  C   UNL A   1      32.658  23.883  26.650  1.00  0.00     0.111 C 
ATOM     83  N   UNL A   1      31.441  23.663  24.478  1.00  0.00    -0.317 N 
ATOM     84  C   UNL A   1      33.845  23.178  26.051  1.00  0.00    -0.033 A 
ATOM     85  C   UNL A   1      32.660  23.191  23.811  1.00  0.00     0.300 C 
ATOM     86  H   UNL A   1      30.982  22.868  24.923  1.00  0.00     0.349 HD
ATOM     87  C   UNL A   1      34.974  22.877  26.826  1.00  0.00     0.006 A 
ATOM     88  C   UNL A   1      33.801  22.784  24.709  1.00  0.00     0.011 A 
ATOM     89  C   UNL A   1      36.074  22.236  26.252  1.00  0.00     0.021 A 
ATOM     90  C   UNL A   1      34.910  22.138  24.140  1.00  0.00     0.030 A 
ATOM     91  C   UNL A   1      36.039  21.875  24.909  1.00  0.00     0.041 A 
ATOM     92  Cl  UNL A   1      37.409  21.126  24.182  1.00  0.00    -0.084 Cl
BRANCH  83  93
ATOM     93  C   UNL A   1      30.434  24.157  23.508  1.00  0.00     0.299 C 
BRANCH  93  94
ATOM     94  C   UNL A   1      30.367  25.657  23.249  1.00  0.00     0.006 A 
ATOM     95  C   UNL A   1      29.227  26.422  23.542  1.00  0.00     0.011 A 
ATOM     96  C   UNL A   1      31.476  26.328  22.714  1.00  0.00     0.011 A 
ATOM     97  C   UNL A   1      29.119  27.753  23.130  1.00  0.00     0.021 A 
ATOM     98  C   UNL A   1      31.393  27.681  22.351  1.00  0.00     0.021 A 
ATOM     99  C   UNL A   1      30.195  28.370  22.508  1.00  0.00     0.041 A 
ATOM    100  Cl  UNL A   1      30.038  29.977  21.922  1.00  0.00    -0.084 Cl
ENDBRANCH  93  94
ENDBRANCH  83  93
ENDBRANCH  78  81
ENDBRANCH  76  77
ENDBRANCH  75  76
ENDBRANCH   1  75
TORSDOF 16
ENDMDL
MODEL 3
REMARK VINA RESULT:     -11.9      3.329      4.999
REMARK SMILES O=C(NCCCCNC(=O)[C@H]1Cc2ccc(Cl)cc2C[N@@H+]1Cc1ccc(Cl)cc1)c1ccc(-c2c3nc(c(-c4c(F)cc(S(=O)(=O)[O-])cc4F)c4ccc([nH]4)c(-c4c(F)cc(S(=O)(=O)[O-])cc4F)c4nc(c(-c5c(F)cc(S(=O)(=O)[O-])cc5F)c5ccc2[nH]5)C=C4)C=C3)cc1
REMARK SMILES IDX 5 1 4 2 3 3 1 4 2 5 30 7 31 8 95 9 32 10 94 11 33 12 34 13
REMARK SMILES IDX 35 14 88 15 36 16 93 17 87 18 89 19 37 20 92 21 86 22 85 23
REMARK SMILES IDX 38 25 72 26 51 27 71 28 52 29 55 30 70 31 90 32 53 33 54 34
REMARK SMILES IDX 69 36 91 37 56 38 39 39 40 40 49 41 41 42 42 43 48 44 50 45
REMARK SMILES IDX 43 46 44 47 45 48 46 49 47 50 73 51 74 52 83 53 75 54 76 55
REMARK SMILES IDX 82 56 84 57 77 58 78 59 79 60 80 61 81 62 57 63 58 64 67 65
REMARK SMILES IDX 59 66 60 67 66 68 68 69 61 70 62 71 63 72 64 73 65 74 6 75
REMARK SMILES IDX 7 76 8 77 9 78 10 80 11 81 12 82 21 83 13 84 20 85 14 87
REMARK SMILES IDX 19 88 15 89 18 90 16 91 17 92 22 93 23 94 24 95 29 96 25 97
REMARK SMILES IDX 28 98 26 99 27 100
REMARK H PARENT 3 6 89 24 55 35 8 79 21 86
REMARK Flexibility Score: inf
ROOT
ATOM      1  C   UNL A   1      32.246  27.589  26.334  1.00  0.00     0.023 C 
ENDROOT
BRANCH   1   2
ATOM      2  C   UNL A   1      33.480  28.200  26.978  1.00  0.00     0.116 C 
BRANCH   2   3
ATOM      3  N   UNL A   1      33.290  29.609  27.286  1.00  0.00    -0.352 N 
ATOM      4  O   UNL A   1      33.724  31.581  28.278  1.00  0.00    -0.269 OA
ATOM      5  C   UNL A   1      34.137  30.475  27.923  1.00  0.00     0.251 C 
ATOM      6  H   UNL A   1      32.432  29.994  26.995  1.00  0.00     0.163 HD
BRANCH   5   7
ATOM      7  C   UNL A   1      35.535  30.081  28.190  1.00  0.00     0.039 A 
ATOM      8  C   UNL A   1      35.891  29.663  29.474  1.00  0.00     0.014 A 
ATOM      9  C   UNL A   1      36.497  30.149  27.180  1.00  0.00     0.014 A 
ATOM     10  C   UNL A   1      37.210  29.288  29.737  1.00  0.00     0.010 A 
ATOM     11  C   UNL A   1      37.787  29.692  27.419  1.00  0.00     0.010 A 
ATOM     12  C   UNL A   1      38.163  29.287  28.708  1.00  0.00    -0.014 A 
BRANCH  12  13
ATOM     13  C   UNL A   1      39.588  28.959  28.961  1.00  0.00     0.031 A 
ATOM     14  C   UNL A   1      40.486  30.015  29.549  1.00  0.00     0.074 A 
ATOM     15  C   UNL A   1      40.079  27.752  28.626  1.00  0.00     0.049 A 
ATOM     16  N   UNL A   1      41.781  30.002  29.714  1.00  0.00    -0.248 NA
ATOM     17  C   UNL A   1      39.838  31.266  29.986  1.00  0.00     0.031 C 
ATOM     18  C   UNL A   1      39.305  26.648  28.053  1.00  0.00     0.029 A 
ATOM     19  N   UNL A   1      41.353  27.252  28.715  1.00  0.00    -0.354 N 
ATOM     20  C   UNL A   1      42.103  31.238  30.264  1.00  0.00     0.074 A 
ATOM     21  C   UNL A   1      40.880  32.002  30.343  1.00  0.00     0.031 C 
ATOM     22  C   UNL A   1      40.115  25.590  27.873  1.00  0.00     0.029 A 
ATOM     23  C   UNL A   1      41.472  25.957  28.267  1.00  0.00     0.049 A 
ATOM     24  H   UNL A   1      42.111  27.770  29.068  1.00  0.00     0.167 HD
ATOM     25  C   UNL A   1      43.307  31.683  30.697  1.00  0.00     0.037 A 
ATOM     26  C   UNL A   1      42.558  25.164  28.176  1.00  0.00     0.037 A 
ATOM     27  C   UNL A   1      44.515  30.904  30.643  1.00  0.00     0.049 A 
ATOM     28  C   UNL A   1      43.894  25.706  28.612  1.00  0.00     0.074 A 
ATOM     29  C   UNL A   1      45.788  31.261  31.052  1.00  0.00     0.029 A 
ATOM     30  N   UNL A   1      44.597  29.604  30.167  1.00  0.00    -0.354 N 
ATOM     31  N   UNL A   1      44.186  26.883  29.112  1.00  0.00    -0.248 NA
ATOM     32  C   UNL A   1      45.049  24.809  28.471  1.00  0.00     0.031 C 
ATOM     33  C   UNL A   1      46.646  30.188  30.795  1.00  0.00     0.029 A 
ATOM     34  C   UNL A   1      45.898  29.144  30.271  1.00  0.00     0.049 A 
ATOM     35  H   UNL A   1      43.841  29.084  29.809  1.00  0.00     0.167 HD
ATOM     36  C   UNL A   1      45.552  26.854  29.380  1.00  0.00     0.074 A 
ATOM     37  C   UNL A   1      46.023  25.540  28.995  1.00  0.00     0.031 C 
ATOM     38  C   UNL A   1      46.343  27.826  29.898  1.00  0.00     0.037 A 
BRANCH  25  39
ATOM     39  C   UNL A   1      43.371  33.063  31.290  1.00  0.00     0.058 A 
ATOM     40  C   UNL A   1      43.240  33.269  32.673  1.00  0.00     0.135 A 
ATOM     41  C   UNL A   1      43.625  34.183  30.483  1.00  0.00     0.135 A 
ATOM     42  F   UNL A   1      42.971  32.238  33.489  1.00  0.00    -0.206 F 
ATOM     43  C   UNL A   1      43.347  34.538  33.233  1.00  0.00     0.059 A 
ATOM     44  C   UNL A   1      43.765  35.458  31.024  1.00  0.00     0.059 A 
ATOM     45  F   UNL A   1      43.752  34.044  29.153  1.00  0.00    -0.206 F 
ATOM     46  C   UNL A   1      43.618  35.624  32.401  1.00  0.00     0.060 A 
BRANCH  46  47
ATOM     47  S   UNL A   1      43.793  37.256  33.153  1.00  0.00     0.124 S 
ATOM     48  O   UNL A   1      45.082  37.130  33.828  1.00  0.00    -0.237 OA
ATOM     49  O   UNL A   1      43.769  38.137  31.990  1.00  0.00    -0.237 OA
ATOM     50  O   UNL A   1      42.633  37.351  34.034  1.00  0.00    -0.744 OA
ENDBRANCH  46  47
ENDBRANCH  25  39
BRANCH  26  51
ATOM     51  C   UNL A   1      42.429  23.768  27.681  1.00  0.00     0.058 A 
ATOM     52  C   UNL A   1      42.383  23.500  26.304  1.00  0.00     0.135 A 
ATOM     53  C   UNL A   1      42.340  22.678  28.560  1.00  0.00     0.135 A 
ATOM     54  F   UNL A   1      42.456  24.510  25.423  1.00  0.00    -0.206 F 
ATOM     55  C   UNL A   1      42.229  22.207  25.816  1.00  0.00     0.059 A 
ATOM     56  C   UNL A   1      42.216  21.371  28.096  1.00  0.00     0.059 A 
ATOM     57  F   UNL A   1      42.394  22.876  29.887  1.00  0.00    -0.206 F 
ATOM     58  C   UNL A   1      42.148  21.148  26.721  1.00  0.00     0.060 A 
BRANCH  58  59
ATOM     59  S   UNL A   1      41.978  19.472  26.073  1.00  0.00     0.124 S 
ATOM     60  O   UNL A   1      42.861  19.513  24.914  1.00  0.00    -0.237 OA
ATOM     61  O   UNL A   1      42.437  18.662  27.197  1.00  0.00    -0.237 OA
ATOM     62  O   UNL A   1      40.552  19.368  25.778  1.00  0.00    -0.744 OA
ENDBRANCH  58  59
ENDBRANCH  26  51
BRANCH  38  63
ATOM     63  C   UNL A   1      47.791  27.488  30.129  1.00  0.00     0.058 A 
ATOM     64  C   UNL A   1      48.240  26.957  31.347  1.00  0.00     0.135 A 
ATOM     65  C   UNL A   1      48.730  27.655  29.096  1.00  0.00     0.135 A 
ATOM     66  F   UNL A   1      47.385  26.780  32.365  1.00  0.00    -0.206 F 
ATOM     67  C   UNL A   1      49.579  26.633  31.545  1.00  0.00     0.059 A 
ATOM     68  C   UNL A   1      50.067  27.309  29.264  1.00  0.00     0.059 A 
ATOM     69  F   UNL A   1      48.348  28.146  27.907  1.00  0.00    -0.206 F 
ATOM     70  C   UNL A   1      50.484  26.812  30.497  1.00  0.00     0.060 A 
BRANCH  70  71
ATOM     71  S   UNL A   1      52.213  26.371  30.767  1.00  0.00     0.124 S 
ATOM     72  O   UNL A   1      52.085  25.125  31.514  1.00  0.00    -0.237 OA
ATOM     73  O   UNL A   1      52.718  26.244  29.403  1.00  0.00    -0.237 OA
ATOM     74  O   UNL A   1      52.740  27.504  31.521  1.00  0.00    -0.744 OA
ENDBRANCH  70  71
ENDBRANCH  38  63
ENDBRANCH  12  13
ENDBRANCH   5   7
ENDBRANCH   2   3
ENDBRANCH   1   2
BRANCH   1  75
ATOM     75  C   UNL A   1      32.144  26.073  26.511  1.00  0.00     0.023 C 
BRANCH  75  76
ATOM     76  C   UNL A   1      30.810  25.464  26.099  1.00  0.00     0.116 C 
BRANCH  76  77
ATOM     77  N   UNL A   1      31.013  24.305  25.248  1.00  0.00    -0.351 N 
ATOM     78  C   UNL A   1      30.848  24.171  23.895  1.00  0.00     0.278 C 
ATOM     79  H   UNL A   1      31.316  23.492  25.714  1.00  0.00     0.163 HD
ATOM     80  O   UNL A   1      30.976  23.040  23.421  1.00  0.00    -0.268 OA
BRANCH  78  81
ATOM     81  C   UNL A   1      30.614  25.429  23.033  1.00  0.00     0.279 C 
ATOM     82  C   UNL A   1      29.549  26.237  23.818  1.00  0.00     0.111 C 
ATOM     83  N   UNL A   1      31.846  26.236  22.833  1.00  0.00    -0.317 N 
ATOM     84  C   UNL A   1      29.320  27.621  23.271  1.00  0.00    -0.033 A 
ATOM     85  C   UNL A   1      31.562  27.473  22.098  1.00  0.00     0.300 C 
ATOM     86  H   UNL A   1      32.150  26.477  23.777  1.00  0.00     0.349 HD
ATOM     87  C   UNL A   1      28.135  28.319  23.542  1.00  0.00     0.006 A 
ATOM     88  C   UNL A   1      30.325  28.231  22.512  1.00  0.00     0.011 A 
ATOM     89  C   UNL A   1      27.931  29.596  23.015  1.00  0.00     0.021 A 
ATOM     90  C   UNL A   1      30.114  29.516  21.988  1.00  0.00     0.030 A 
ATOM     91  C   UNL A   1      28.920  30.186  22.234  1.00  0.00     0.041 A 
ATOM     92  Cl  UNL A   1      28.657  31.741  21.542  1.00  0.00    -0.084 Cl
BRANCH  83  93
ATOM     93  C   UNL A   1      33.005  25.506  22.264  1.00  0.00     0.299 C 
BRANCH  93  94
ATOM     94  C   UNL A   1      33.898  24.726  23.222  1.00  0.00     0.006 A 
ATOM     95  C   UNL A   1      34.293  23.402  22.971  1.00  0.00     0.011 A 
ATOM     96  C   UNL A   1      34.370  25.332  24.395  1.00  0.00     0.011 A 
ATOM     97  C   UNL A   1      34.956  22.647  23.942  1.00  0.00     0.021 A 
ATOM     98  C   UNL A   1      35.087  24.593  25.348  1.00  0.00     0.021 A 
ATOM     99  C   UNL A   1      35.326  23.239  25.141  1.00  0.00     0.041 A 
ATOM    100  Cl  UNL A   1      36.062  22.292  26.372  1.00  0.00    -0.084 Cl
ENDBRANCH  93  94
ENDBRANCH  83  93
ENDBRANCH  78  81
ENDBRANCH  76  77
ENDBRANCH  75  76
ENDBRANCH   1  75
TORSDOF 16
ENDMDL
