MODEL 1
REMARK VINA RESULT:     -12.7      0.000      0.000
REMARK SMILES CN1C(=O)C[C@@H](C(=O)NCCCCNC(=O)c2ccc(-c3c4nc(c(-c5c(F)cc(S(=O)(=O)[O-])cc5F)c5ccc([nH]5)c(-c5c(F)cc(S(=O)(=O)[O-])cc5F)c5nc(c(-c6c(F)cc(S(=O)(=O)[O-])cc6F)c6ccc3[nH]6)C=C5)C=C4)cc2)C12CCN(c1ccc(Cl)cn1)CC2
REMARK SMILES IDX 12 1 11 2 10 3 9 4 7 5 8 6 6 8 1 9 2 10 3 11 83 12 4 13 5 14
REMARK SMILES IDX 84 15 95 16 85 17 94 18 86 19 87 20 88 21 93 22 89 23 92 24
REMARK SMILES IDX 90 25 91 26 13 27 14 28 15 29 16 31 17 32 18 33 82 34 19 35
REMARK SMILES IDX 81 36 20 37 21 38 22 39 75 40 23 41 80 42 74 43 76 44 24 45
REMARK SMILES IDX 79 46 73 47 72 48 25 50 59 51 38 52 58 53 39 54 42 55 57 56
REMARK SMILES IDX 77 57 40 58 41 59 56 61 78 62 43 63 26 64 27 65 36 66 28 67
REMARK SMILES IDX 29 68 35 69 37 70 30 71 31 72 32 73 33 74 34 75 60 76 61 77
REMARK SMILES IDX 70 78 62 79 63 80 69 81 71 82 64 83 65 84 66 85 67 86 68 87
REMARK SMILES IDX 44 88 45 89 54 90 46 91 47 92 53 93 55 94 48 95 49 96 50 97
REMARK SMILES IDX 51 98 52 99
REMARK H PARENT 9 7 14 30 76 49 42 60
REMARK Flexibility Score: inf
ROOT
ATOM      1  C   UNL A   1      33.921  28.953  27.248  1.00  0.00     0.023 C 
ENDROOT
BRANCH   1   2
ATOM      2  C   UNL A   1      32.857  29.894  26.695  1.00  0.00     0.023 C 
BRANCH   2   3
ATOM      3  C   UNL A   1      32.293  29.486  25.331  1.00  0.00     0.116 C 
BRANCH   3   4
ATOM      4  N   UNL A   1      33.304  29.319  24.302  1.00  0.00    -0.356 N 
ATOM      5  C   UNL A   1      33.404  28.514  23.215  1.00  0.00     0.226 C 
ATOM      6  O   UNL A   1      34.411  28.671  22.514  1.00  0.00    -0.275 OA
ATOM      7  H   UNL A   1      34.080  29.914  24.418  1.00  0.00     0.163 HD
BRANCH   5   8
ATOM      8  C   UNL A   1      32.403  27.427  22.817  1.00  0.00     0.113 C 
ATOM      9  C   UNL A   1      30.255  26.216  25.619  1.00  0.00     0.147 C 
ATOM     10  N   UNL A   1      30.815  26.712  24.375  1.00  0.00    -0.339 N 
ATOM     11  C   UNL A   1      30.126  27.581  23.541  1.00  0.00     0.223 C 
ATOM     12  C   UNL A   1      32.116  26.292  23.828  1.00  0.00     0.058 C 
ATOM     13  O   UNL A   1      28.988  27.994  23.700  1.00  0.00    -0.275 OA
ATOM     14  C   UNL A   1      31.036  27.986  22.416  1.00  0.00     0.116 C 
ATOM     15  C   UNL A   1      33.208  26.118  24.904  1.00  0.00     0.051 C 
ATOM     16  C   UNL A   1      31.908  24.931  23.079  1.00  0.00     0.051 C 
ATOM     17  C   UNL A   1      34.469  25.476  24.364  1.00  0.00     0.120 C 
ATOM     18  C   UNL A   1      33.212  24.226  22.668  1.00  0.00     0.120 C 
ATOM     19  N   UNL A   1      34.072  24.190  23.835  1.00  0.00    -0.356 N 
BRANCH  19  20
ATOM     20  C   UNL A   1      34.843  23.092  24.139  1.00  0.00     0.128 A 
ATOM     21  C   UNL A   1      36.226  23.148  23.928  1.00  0.00     0.048 A 
ATOM     22  N   UNL A   1      34.260  21.986  24.641  1.00  0.00    -0.238 NA
ATOM     23  C   UNL A   1      37.028  22.045  24.203  1.00  0.00     0.026 A 
ATOM     24  C   UNL A   1      35.054  20.909  24.872  1.00  0.00     0.134 A 
ATOM     25  C   UNL A   1      36.425  20.893  24.673  1.00  0.00     0.059 A 
ATOM     26  Cl  UNL A   1      37.358  19.492  25.005  1.00  0.00    -0.083 Cl
ENDBRANCH  19  20
ENDBRANCH   5   8
ENDBRANCH   3   4
ENDBRANCH   2   3
ENDBRANCH   1   2
BRANCH   1  27
ATOM     27  C   UNL A   1      35.237  29.642  27.562  1.00  0.00     0.116 C 
BRANCH  27  28
ATOM     28  N   UNL A   1      35.259  30.220  28.900  1.00  0.00    -0.352 N 
ATOM     29  C   UNL A   1      36.277  30.217  29.818  1.00  0.00     0.251 C 
ATOM     30  H   UNL A   1      34.431  30.672  29.182  1.00  0.00     0.163 HD
ATOM     31  O   UNL A   1      36.079  30.594  30.967  1.00  0.00    -0.269 OA
BRANCH  29  32
ATOM     32  C   UNL A   1      37.602  29.731  29.396  1.00  0.00     0.039 A 
ATOM     33  C   UNL A   1      37.990  29.879  28.065  1.00  0.00     0.014 A 
ATOM     34  C   UNL A   1      38.472  29.179  30.340  1.00  0.00     0.014 A 
ATOM     35  C   UNL A   1      39.281  29.513  27.689  1.00  0.00     0.010 A 
ATOM     36  C   UNL A   1      39.785  28.912  29.986  1.00  0.00     0.010 A 
ATOM     37  C   UNL A   1      40.195  29.055  28.653  1.00  0.00    -0.014 A 
BRANCH  37  38
ATOM     38  C   UNL A   1      41.574  28.664  28.284  1.00  0.00     0.031 A 
ATOM     39  C   UNL A   1      42.651  29.714  28.243  1.00  0.00     0.074 A 
ATOM     40  C   UNL A   1      41.837  27.391  27.933  1.00  0.00     0.049 A 
ATOM     41  N   UNL A   1      43.900  29.601  27.874  1.00  0.00    -0.248 NA
ATOM     42  C   UNL A   1      42.262  31.081  28.629  1.00  0.00     0.031 C 
ATOM     43  C   UNL A   1      40.857  26.303  27.881  1.00  0.00     0.029 A 
ATOM     44  N   UNL A   1      43.011  26.796  27.548  1.00  0.00    -0.354 N 
ATOM     45  C   UNL A   1      44.435  30.880  27.969  1.00  0.00     0.074 A 
ATOM     46  C   UNL A   1      43.362  31.764  28.358  1.00  0.00     0.031 C 
ATOM     47  C   UNL A   1      41.477  25.168  27.520  1.00  0.00     0.029 A 
ATOM     48  C   UNL A   1      42.888  25.452  27.283  1.00  0.00     0.049 A 
ATOM     49  H   UNL A   1      43.861  27.286  27.468  1.00  0.00     0.167 HD
ATOM     50  C   UNL A   1      45.717  31.275  27.784  1.00  0.00     0.037 A 
ATOM     51  C   UNL A   1      43.816  24.556  26.897  1.00  0.00     0.037 A 
ATOM     52  C   UNL A   1      46.786  30.377  27.437  1.00  0.00     0.049 A 
ATOM     53  C   UNL A   1      45.239  25.014  26.724  1.00  0.00     0.074 A 
ATOM     54  C   UNL A   1      48.129  30.660  27.269  1.00  0.00     0.029 A 
ATOM     55  N   UNL A   1      46.630  29.016  27.218  1.00  0.00    -0.354 N 
ATOM     56  N   UNL A   1      45.741  26.219  26.865  1.00  0.00    -0.248 NA
ATOM     57  C   UNL A   1      46.225  23.991  26.350  1.00  0.00     0.031 C 
ATOM     58  C   UNL A   1      48.782  29.473  26.920  1.00  0.00     0.029 A 
ATOM     59  C   UNL A   1      47.853  28.445  26.913  1.00  0.00     0.049 A 
ATOM     60  H   UNL A   1      45.777  28.528  27.272  1.00  0.00     0.167 HD
ATOM     61  C   UNL A   1      47.105  26.091  26.633  1.00  0.00     0.074 A 
ATOM     62  C   UNL A   1      47.351  24.691  26.350  1.00  0.00     0.031 C 
ATOM     63  C   UNL A   1      48.071  27.044  26.654  1.00  0.00     0.037 A 
BRANCH  50  64
ATOM     64  C   UNL A   1      46.027  32.734  27.974  1.00  0.00     0.058 A 
ATOM     65  C   UNL A   1      46.450  33.240  29.215  1.00  0.00     0.135 A 
ATOM     66  C   UNL A   1      45.915  33.637  26.905  1.00  0.00     0.135 A 
ATOM     67  F   UNL A   1      46.553  32.424  30.278  1.00  0.00    -0.206 F 
ATOM     68  C   UNL A   1      46.717  34.591  29.399  1.00  0.00     0.059 A 
ATOM     69  C   UNL A   1      46.207  34.989  27.059  1.00  0.00     0.059 A 
ATOM     70  F   UNL A   1      45.511  33.210  25.699  1.00  0.00    -0.206 F 
ATOM     71  C   UNL A   1      46.593  35.459  28.313  1.00  0.00     0.060 A 
BRANCH  71  72
ATOM     72  S   UNL A   1      46.948  37.210  28.567  1.00  0.00     0.124 S 
ATOM     73  O   UNL A   1      48.402  37.196  28.698  1.00  0.00    -0.237 OA
ATOM     74  O   UNL A   1      46.428  37.816  27.346  1.00  0.00    -0.237 OA
ATOM     75  O   UNL A   1      46.212  37.533  29.785  1.00  0.00    -0.744 OA
ENDBRANCH  71  72
ENDBRANCH  50  64
BRANCH  51  76
ATOM     76  C   UNL A   1      43.441  23.131  26.697  1.00  0.00     0.058 A 
ATOM     77  C   UNL A   1      43.133  22.308  27.791  1.00  0.00     0.135 A 
ATOM     78  C   UNL A   1      43.376  22.565  25.415  1.00  0.00     0.135 A 
ATOM     79  F   UNL A   1      43.180  22.804  29.036  1.00  0.00    -0.206 F 
ATOM     80  C   UNL A   1      42.800  20.967  27.625  1.00  0.00     0.059 A 
ATOM     81  C   UNL A   1      43.021  21.233  25.221  1.00  0.00     0.059 A 
ATOM     82  F   UNL A   1      43.640  23.315  24.333  1.00  0.00    -0.206 F 
ATOM     83  C   UNL A   1      42.748  20.440  26.334  1.00  0.00     0.060 A 
BRANCH  83  84
ATOM     84  S   UNL A   1      42.281  18.707  26.126  1.00  0.00     0.124 S 
ATOM     85  O   UNL A   1      40.876  18.824  25.755  1.00  0.00    -0.237 OA
ATOM     86  O   UNL A   1      43.188  18.269  25.069  1.00  0.00    -0.237 OA
ATOM     87  O   UNL A   1      42.542  18.130  27.442  1.00  0.00    -0.744 OA
ENDBRANCH  83  84
ENDBRANCH  51  76
BRANCH  63  88
ATOM     88  C   UNL A   1      49.485  26.595  26.416  1.00  0.00     0.058 A 
ATOM     89  C   UNL A   1      50.264  26.030  27.436  1.00  0.00     0.135 A 
ATOM     90  C   UNL A   1      50.049  26.690  25.133  1.00  0.00     0.135 A 
ATOM     91  F   UNL A   1      49.771  25.920  28.681  1.00  0.00    -0.206 F 
ATOM     92  C   UNL A   1      51.565  25.601  27.201  1.00  0.00     0.059 A 
ATOM     93  C   UNL A   1      51.338  26.242  24.868  1.00  0.00     0.059 A 
ATOM     94  F   UNL A   1      49.339  27.211  24.119  1.00  0.00    -0.206 F 
ATOM     95  C   UNL A   1      52.094  25.713  25.913  1.00  0.00     0.060 A 
BRANCH  95  96
ATOM     96  S   UNL A   1      53.776  25.130  25.613  1.00  0.00     0.124 S 
ATOM     97  O   UNL A   1      54.433  25.476  26.869  1.00  0.00    -0.237 OA
ATOM     98  O   UNL A   1      53.575  23.704  25.374  1.00  0.00    -0.237 OA
ATOM     99  O   UNL A   1      54.199  25.901  24.447  1.00  0.00    -0.744 OA
ENDBRANCH  95  96
ENDBRANCH  63  88
ENDBRANCH  37  38
ENDBRANCH  29  32
ENDBRANCH  27  28
ENDBRANCH   1  27
TORSDOF 15
ENDMDL
MODEL 2
REMARK VINA RESULT:     -12.7      3.042      4.102
REMARK SMILES CN1C(=O)C[C@@H](C(=O)NCCCCNC(=O)c2ccc(-c3c4nc(c(-c5c(F)cc(S(=O)(=O)[O-])cc5F)c5ccc([nH]5)c(-c5c(F)cc(S(=O)(=O)[O-])cc5F)c5nc(c(-c6c(F)cc(S(=O)(=O)[O-])cc6F)c6ccc3[nH]6)C=C5)C=C4)cc2)C12CCN(c1ccc(Cl)cn1)CC2
REMARK SMILES IDX 12 1 11 2 10 3 9 4 7 5 8 6 6 8 1 9 2 10 3 11 83 12 4 13 5 14
REMARK SMILES IDX 84 15 95 16 85 17 94 18 86 19 87 20 88 21 93 22 89 23 92 24
REMARK SMILES IDX 90 25 91 26 13 27 14 28 15 29 16 31 17 32 18 33 82 34 19 35
REMARK SMILES IDX 81 36 20 37 21 38 22 39 75 40 23 41 80 42 74 43 76 44 24 45
REMARK SMILES IDX 79 46 73 47 72 48 25 50 59 51 38 52 58 53 39 54 42 55 57 56
REMARK SMILES IDX 77 57 40 58 41 59 56 61 78 62 43 63 26 64 27 65 36 66 28 67
REMARK SMILES IDX 29 68 35 69 37 70 30 71 31 72 32 73 33 74 34 75 60 76 61 77
REMARK SMILES IDX 70 78 62 79 63 80 69 81 71 82 64 83 65 84 66 85 67 86 68 87
REMARK SMILES IDX 44 88 45 89 54 90 46 91 47 92 53 93 55 94 48 95 49 96 50 97
REMARK SMILES IDX 51 98 52 99
REMARK H PARENT 9 7 14 30 76 49 42 60
REMARK Flexibility Score: inf
ROOT
ATOM      1  C   UNL A   1      32.320  27.790  27.230  1.00  0.00     0.023 C 
ENDROOT
BRANCH   1   2
ATOM      2  C   UNL A   1      31.635  27.852  25.871  1.00  0.00     0.023 C 
BRANCH   2   3
ATOM      3  C   UNL A   1      31.183  26.494  25.324  1.00  0.00     0.116 C 
BRANCH   3   4
ATOM      4  N   UNL A   1      31.251  25.416  26.294  1.00  0.00    -0.356 N 
ATOM      5  C   UNL A   1      32.159  24.439  26.541  1.00  0.00     0.226 C 
ATOM      6  O   UNL A   1      31.912  23.697  27.499  1.00  0.00    -0.275 OA
ATOM      7  H   UNL A   1      30.475  25.388  26.900  1.00  0.00     0.163 HD
BRANCH   5   8
ATOM      8  C   UNL A   1      33.422  24.171  25.721  1.00  0.00     0.113 C 
ATOM      9  C   UNL A   1      32.825  23.803  22.054  1.00  0.00     0.147 C 
ATOM     10  N   UNL A   1      33.285  24.145  23.387  1.00  0.00    -0.339 N 
ATOM     11  C   UNL A   1      33.812  25.391  23.698  1.00  0.00     0.223 C 
ATOM     12  C   UNL A   1      33.322  23.202  24.518  1.00  0.00     0.058 C 
ATOM     13  O   UNL A   1      34.001  26.315  22.923  1.00  0.00    -0.275 OA
ATOM     14  C   UNL A   1      34.069  25.447  25.177  1.00  0.00     0.116 C 
ATOM     15  C   UNL A   1      32.102  22.259  24.571  1.00  0.00     0.051 C 
ATOM     16  C   UNL A   1      34.629  22.348  24.391  1.00  0.00     0.051 C 
ATOM     17  C   UNL A   1      32.256  21.155  25.597  1.00  0.00     0.120 C 
ATOM     18  C   UNL A   1      34.696  21.144  25.347  1.00  0.00     0.120 C 
ATOM     19  N   UNL A   1      33.445  20.421  25.223  1.00  0.00    -0.356 N 
BRANCH  19  20
ATOM     20  C   UNL A   1      33.393  19.047  25.226  1.00  0.00     0.128 A 
ATOM     21  C   UNL A   1      34.323  18.326  24.468  1.00  0.00     0.048 A 
ATOM     22  N   UNL A   1      32.456  18.417  25.961  1.00  0.00    -0.238 NA
ATOM     23  C   UNL A   1      34.279  16.936  24.431  1.00  0.00     0.026 A 
ATOM     24  C   UNL A   1      32.409  17.062  25.887  1.00  0.00     0.134 A 
ATOM     25  C   UNL A   1      33.289  16.289  25.148  1.00  0.00     0.059 A 
ATOM     26  Cl  UNL A   1      33.168  14.578  25.120  1.00  0.00    -0.083 Cl
ENDBRANCH  19  20
ENDBRANCH   5   8
ENDBRANCH   3   4
ENDBRANCH   2   3
ENDBRANCH   1   2
BRANCH   1  27
ATOM     27  C   UNL A   1      33.655  28.514  27.272  1.00  0.00     0.116 C 
BRANCH  27  28
ATOM     28  N   UNL A   1      33.516  29.918  27.639  1.00  0.00    -0.352 N 
ATOM     29  C   UNL A   1      34.433  30.739  28.243  1.00  0.00     0.251 C 
ATOM     30  H   UNL A   1      32.648  30.330  27.425  1.00  0.00     0.163 HD
ATOM     31  O   UNL A   1      34.104  31.849  28.643  1.00  0.00    -0.269 OA
BRANCH  29  32
ATOM     32  C   UNL A   1      35.810  30.247  28.416  1.00  0.00     0.039 A 
ATOM     33  C   UNL A   1      36.712  30.359  27.358  1.00  0.00     0.014 A 
ATOM     34  C   UNL A   1      36.212  29.726  29.649  1.00  0.00     0.014 A 
ATOM     35  C   UNL A   1      38.040  29.989  27.557  1.00  0.00     0.010 A 
ATOM     36  C   UNL A   1      37.552  29.455  29.873  1.00  0.00     0.010 A 
ATOM     37  C   UNL A   1      38.474  29.562  28.823  1.00  0.00    -0.014 A 
BRANCH  37  38
ATOM     38  C   UNL A   1      39.880  29.167  29.064  1.00  0.00     0.031 A 
ATOM     39  C   UNL A   1      40.835  30.166  29.659  1.00  0.00     0.074 A 
ATOM     40  C   UNL A   1      40.304  27.943  28.696  1.00  0.00     0.049 A 
ATOM     41  N   UNL A   1      42.117  30.052  29.881  1.00  0.00    -0.248 NA
ATOM     42  C   UNL A   1      40.281  31.484  30.015  1.00  0.00     0.031 C 
ATOM     43  C   UNL A   1      39.479  26.914  28.056  1.00  0.00     0.029 A 
ATOM     44  N   UNL A   1      41.539  27.356  28.802  1.00  0.00    -0.354 N 
ATOM     45  C   UNL A   1      42.522  31.282  30.384  1.00  0.00     0.074 A 
ATOM     46  C   UNL A   1      41.369  32.151  30.367  1.00  0.00     0.031 C 
ATOM     47  C   UNL A   1      40.222  25.813  27.859  1.00  0.00     0.029 A 
ATOM     48  C   UNL A   1      41.581  26.067  28.326  1.00  0.00     0.049 A 
ATOM     49  H   UNL A   1      42.321  27.816  29.182  1.00  0.00     0.167 HD
ATOM     50  C   UNL A   1      43.740  31.645  30.853  1.00  0.00     0.037 A 
ATOM     51  C   UNL A   1      42.604  25.193  28.278  1.00  0.00     0.037 A 
ATOM     52  C   UNL A   1      44.871  30.758  30.903  1.00  0.00     0.049 A 
ATOM     53  C   UNL A   1      43.940  25.610  28.830  1.00  0.00     0.074 A 
ATOM     54  C   UNL A   1      46.138  31.004  31.400  1.00  0.00     0.029 A 
ATOM     55  N   UNL A   1      44.863  29.446  30.450  1.00  0.00    -0.354 N 
ATOM     56  N   UNL A   1      44.296  26.763  29.348  1.00  0.00    -0.248 NA
ATOM     57  C   UNL A   1      45.013  24.606  28.802  1.00  0.00     0.031 C 
ATOM     58  C   UNL A   1      46.906  29.848  31.221  1.00  0.00     0.029 A 
ATOM     59  C   UNL A   1      46.105  28.871  30.653  1.00  0.00     0.049 A 
ATOM     60  H   UNL A   1      44.089  28.992  30.046  1.00  0.00     0.167 HD
ATOM     61  C   UNL A   1      45.620  26.610  29.741  1.00  0.00     0.074 A 
ATOM     62  C   UNL A   1      46.000  25.252  29.406  1.00  0.00     0.031 C 
ATOM     63  C   UNL A   1      46.449  27.510  30.327  1.00  0.00     0.037 A 
BRANCH  50  64
ATOM     64  C   UNL A   1      43.895  33.051  31.364  1.00  0.00     0.058 A 
ATOM     65  C   UNL A   1      43.725  33.361  32.724  1.00  0.00     0.135 A 
ATOM     66  C   UNL A   1      44.231  34.098  30.492  1.00  0.00     0.135 A 
ATOM     67  F   UNL A   1      43.382  32.401  33.599  1.00  0.00    -0.206 F 
ATOM     68  C   UNL A   1      43.849  34.662  33.195  1.00  0.00     0.059 A 
ATOM     69  C   UNL A   1      44.390  35.404  30.947  1.00  0.00     0.059 A 
ATOM     70  F   UNL A   1      44.401  33.859  29.182  1.00  0.00    -0.206 F 
ATOM     71  C   UNL A   1      44.182  35.679  32.297  1.00  0.00     0.060 A 
BRANCH  71  72
ATOM     72  S   UNL A   1      44.343  37.363  32.926  1.00  0.00     0.124 S 
ATOM     73  O   UNL A   1      43.071  37.538  33.620  1.00  0.00    -0.237 OA
ATOM     74  O   UNL A   1      45.522  37.266  33.781  1.00  0.00    -0.237 OA
ATOM     75  O   UNL A   1      44.514  38.162  31.716  1.00  0.00    -0.744 OA
ENDBRANCH  71  72
ENDBRANCH  50  64
BRANCH  51  76
ATOM     76  C   UNL A   1      42.393  23.825  27.734  1.00  0.00     0.058 A 
ATOM     77  C   UNL A   1      42.274  22.721  28.590  1.00  0.00     0.135 A 
ATOM     78  C   UNL A   1      42.301  23.594  26.353  1.00  0.00     0.135 A 
ATOM     79  F   UNL A   1      42.354  22.892  29.918  1.00  0.00    -0.206 F 
ATOM     80  C   UNL A   1      42.097  21.431  28.099  1.00  0.00     0.059 A 
ATOM     81  C   UNL A   1      42.100  22.317  25.838  1.00  0.00     0.059 A 
ATOM     82  F   UNL A   1      42.387  24.619  25.490  1.00  0.00    -0.206 F 
ATOM     83  C   UNL A   1      42.012  21.240  26.720  1.00  0.00     0.060 A 
BRANCH  83  84
ATOM     84  S   UNL A   1      41.749  19.567  26.092  1.00  0.00     0.124 S 
ATOM     85  O   UNL A   1      42.153  18.758  27.235  1.00  0.00    -0.237 OA
ATOM     86  O   UNL A   1      40.321  19.575  25.787  1.00  0.00    -0.237 OA
ATOM     87  O   UNL A   1      42.628  19.503  24.928  1.00  0.00    -0.744 OA
ENDBRANCH  83  84
ENDBRANCH  51  76
BRANCH  63  88
ATOM     88  C   UNL A   1      47.829  27.038  30.691  1.00  0.00     0.058 A 
ATOM     89  C   UNL A   1      48.919  27.201  29.823  1.00  0.00     0.135 A 
ATOM     90  C   UNL A   1      48.068  26.456  31.946  1.00  0.00     0.135 A 
ATOM     91  F   UNL A   1      48.741  27.747  28.609  1.00  0.00    -0.206 F 
ATOM     92  C   UNL A   1      50.195  26.777  30.175  1.00  0.00     0.059 A 
ATOM     93  C   UNL A   1      49.341  26.051  32.331  1.00  0.00     0.059 A 
ATOM     94  F   UNL A   1      47.060  26.291  32.818  1.00  0.00    -0.206 F 
ATOM     95  C   UNL A   1      50.395  26.201  31.432  1.00  0.00     0.060 A 
BRANCH  95  96
ATOM     96  S   UNL A   1      52.061  25.677  31.889  1.00  0.00     0.124 S 
ATOM     97  O   UNL A   1      52.337  26.542  33.031  1.00  0.00    -0.237 OA
ATOM     98  O   UNL A   1      51.871  24.262  32.196  1.00  0.00    -0.237 OA
ATOM     99  O   UNL A   1      52.845  25.950  30.688  1.00  0.00    -0.744 OA
ENDBRANCH  95  96
ENDBRANCH  63  88
ENDBRANCH  37  38
ENDBRANCH  29  32
ENDBRANCH  27  28
ENDBRANCH   1  27
TORSDOF 15
ENDMDL
MODEL 3
REMARK VINA RESULT:     -12.6      2.825      3.431
REMARK SMILES CN1C(=O)C[C@@H](C(=O)NCCCCNC(=O)c2ccc(-c3c4nc(c(-c5c(F)cc(S(=O)(=O)[O-])cc5F)c5ccc([nH]5)c(-c5c(F)cc(S(=O)(=O)[O-])cc5F)c5nc(c(-c6c(F)cc(S(=O)(=O)[O-])cc6F)c6ccc3[nH]6)C=C5)C=C4)cc2)C12CCN(c1ccc(Cl)cn1)CC2
REMARK SMILES IDX 12 1 11 2 10 3 9 4 7 5 8 6 6 8 1 9 2 10 3 11 83 12 4 13 5 14
REMARK SMILES IDX 84 15 95 16 85 17 94 18 86 19 87 20 88 21 93 22 89 23 92 24
REMARK SMILES IDX 90 25 91 26 13 27 14 28 15 29 16 31 17 32 18 33 82 34 19 35
REMARK SMILES IDX 81 36 20 37 21 38 22 39 75 40 23 41 80 42 74 43 76 44 24 45
REMARK SMILES IDX 79 46 73 47 72 48 25 50 59 51 38 52 58 53 39 54 42 55 57 56
REMARK SMILES IDX 77 57 40 58 41 59 56 61 78 62 43 63 26 64 27 65 36 66 28 67
REMARK SMILES IDX 29 68 35 69 37 70 30 71 31 72 32 73 33 74 34 75 60 76 61 77
REMARK SMILES IDX 70 78 62 79 63 80 69 81 71 82 64 83 65 84 66 85 67 86 68 87
REMARK SMILES IDX 44 88 45 89 54 90 46 91 47 92 53 93 55 94 48 95 49 96 50 97
REMARK SMILES IDX 51 98 52 99
REMARK H PARENT 9 7 14 30 76 49 42 60
REMARK Flexibility Score: inf
ROOT
ATOM      1  C   UNL A   1      33.919  28.194  25.306  1.00  0.00     0.023 C 
ENDROOT
BRANCH   1   2
ATOM      2  C   UNL A   1      33.205  29.341  24.601  1.00  0.00     0.023 C 
BRANCH   2   3
ATOM      3  C   UNL A   1      32.837  29.060  23.141  1.00  0.00     0.116 C 
BRANCH   3   4
ATOM      4  N   UNL A   1      33.564  27.949  22.554  1.00  0.00    -0.356 N 
ATOM      5  C   UNL A   1      33.212  26.688  22.199  1.00  0.00     0.226 C 
ATOM      6  O   UNL A   1      34.098  26.004  21.674  1.00  0.00    -0.275 OA
ATOM      7  H   UNL A   1      34.511  28.152  22.377  1.00  0.00     0.163 HD
BRANCH   5   8
ATOM      8  C   UNL A   1      31.840  26.050  22.426  1.00  0.00     0.113 C 
ATOM      9  C   UNL A   1      30.702  26.073  25.981  1.00  0.00     0.147 C 
ATOM     10  N   UNL A   1      30.855  26.180  24.542  1.00  0.00    -0.339 N 
ATOM     11  C   UNL A   1      30.220  27.161  23.795  1.00  0.00     0.223 C 
ATOM     12  C   UNL A   1      31.620  25.227  23.718  1.00  0.00     0.058 C 
ATOM     13  O   UNL A   1      29.441  28.003  24.212  1.00  0.00    -0.275 OA
ATOM     14  C   UNL A   1      30.691  27.059  22.372  1.00  0.00     0.116 C 
ATOM     15  C   UNL A   1      32.924  24.746  24.387  1.00  0.00     0.051 C 
ATOM     16  C   UNL A   1      30.700  23.992  23.431  1.00  0.00     0.051 C 
ATOM     17  C   UNL A   1      33.584  23.608  23.636  1.00  0.00     0.120 C 
ATOM     18  C   UNL A   1      31.427  22.792  22.799  1.00  0.00     0.120 C 
ATOM     19  N   UNL A   1      32.613  22.536  23.593  1.00  0.00    -0.356 N 
BRANCH  19  20
ATOM     20  C   UNL A   1      33.036  21.261  23.884  1.00  0.00     0.128 A 
ATOM     21  C   UNL A   1      32.293  20.171  23.414  1.00  0.00     0.048 A 
ATOM     22  N   UNL A   1      34.157  21.078  24.609  1.00  0.00    -0.238 NA
ATOM     23  C   UNL A   1      32.682  18.869  23.714  1.00  0.00     0.026 A 
ATOM     24  C   UNL A   1      34.501  19.801  24.919  1.00  0.00     0.134 A 
ATOM     25  C   UNL A   1      33.806  18.681  24.497  1.00  0.00     0.059 A 
ATOM     26  Cl  UNL A   1      34.319  17.100  24.921  1.00  0.00    -0.083 Cl
ENDBRANCH  19  20
ENDBRANCH   5   8
ENDBRANCH   3   4
ENDBRANCH   2   3
ENDBRANCH   1   2
BRANCH   1  27
ATOM     27  C   UNL A   1      33.845  28.270  26.821  1.00  0.00     0.116 C 
BRANCH  27  28
ATOM     28  N   UNL A   1      33.633  29.630  27.301  1.00  0.00    -0.352 N 
ATOM     29  C   UNL A   1      34.485  30.425  28.023  1.00  0.00     0.251 C 
ATOM     30  H   UNL A   1      32.762  30.030  27.076  1.00  0.00     0.163 HD
ATOM     31  O   UNL A   1      34.092  31.484  28.500  1.00  0.00    -0.269 OA
BRANCH  29  32
ATOM     32  C   UNL A   1      35.869  29.967  28.229  1.00  0.00     0.039 A 
ATOM     33  C   UNL A   1      36.797  30.119  27.199  1.00  0.00     0.014 A 
ATOM     34  C   UNL A   1      36.250  29.438  29.465  1.00  0.00     0.014 A 
ATOM     35  C   UNL A   1      38.129  29.781  27.430  1.00  0.00     0.010 A 
ATOM     36  C   UNL A   1      37.590  29.198  29.723  1.00  0.00     0.010 A 
ATOM     37  C   UNL A   1      38.538  29.346  28.702  1.00  0.00    -0.014 A 
BRANCH  37  38
ATOM     38  C   UNL A   1      39.947  28.984  28.976  1.00  0.00     0.031 A 
ATOM     39  C   UNL A   1      40.860  30.003  29.604  1.00  0.00     0.074 A 
ATOM     40  C   UNL A   1      40.411  27.775  28.610  1.00  0.00     0.049 A 
ATOM     41  N   UNL A   1      42.139  29.919  29.859  1.00  0.00    -0.248 NA
ATOM     42  C   UNL A   1      40.263  31.303  29.956  1.00  0.00     0.031 C 
ATOM     43  C   UNL A   1      39.629  26.731  27.942  1.00  0.00     0.029 A 
ATOM     44  N   UNL A   1      41.657  27.219  28.745  1.00  0.00    -0.354 N 
ATOM     45  C   UNL A   1      42.499  31.155  30.382  1.00  0.00     0.074 A 
ATOM     46  C   UNL A   1      41.324  31.994  30.341  1.00  0.00     0.031 C 
ATOM     47  C   UNL A   1      40.405  25.651  27.756  1.00  0.00     0.029 A 
ATOM     48  C   UNL A   1      41.744  25.935  28.260  1.00  0.00     0.049 A 
ATOM     49  H   UNL A   1      42.417  27.695  29.149  1.00  0.00     0.167 HD
ATOM     50  C   UNL A   1      43.694  31.544  30.886  1.00  0.00     0.037 A 
ATOM     51  C   UNL A   1      42.790  25.087  28.233  1.00  0.00     0.037 A 
ATOM     52  C   UNL A   1      44.845  30.685  30.959  1.00  0.00     0.049 A 
ATOM     53  C   UNL A   1      44.100  25.533  28.823  1.00  0.00     0.074 A 
ATOM     54  C   UNL A   1      46.092  30.959  31.491  1.00  0.00     0.029 A 
ATOM     55  N   UNL A   1      44.883  29.378  30.496  1.00  0.00    -0.354 N 
ATOM     56  N   UNL A   1      44.413  26.690  29.359  1.00  0.00    -0.248 NA
ATOM     57  C   UNL A   1      45.198  24.557  28.815  1.00  0.00     0.031 C 
ATOM     58  C   UNL A   1      46.894  29.825  31.324  1.00  0.00     0.029 A 
ATOM     59  C   UNL A   1      46.133  28.832  30.727  1.00  0.00     0.049 A 
ATOM     60  H   UNL A   1      44.132  28.908  30.068  1.00  0.00     0.167 HD
ATOM     61  C   UNL A   1      45.730  26.568  29.785  1.00  0.00     0.074 A 
ATOM     62  C   UNL A   1      46.153  25.222  29.451  1.00  0.00     0.031 C 
ATOM     63  C   UNL A   1      46.520  27.483  30.400  1.00  0.00     0.037 A 
BRANCH  50  64
ATOM     64  C   UNL A   1      43.800  32.949  31.411  1.00  0.00     0.058 A 
ATOM     65  C   UNL A   1      43.566  33.247  32.765  1.00  0.00     0.135 A 
ATOM     66  C   UNL A   1      44.154  34.009  30.561  1.00  0.00     0.135 A 
ATOM     67  F   UNL A   1      43.204  32.275  33.618  1.00  0.00    -0.206 F 
ATOM     68  C   UNL A   1      43.644  34.547  33.248  1.00  0.00     0.059 A 
ATOM     69  C   UNL A   1      44.267  35.314  31.030  1.00  0.00     0.059 A 
ATOM     70  F   UNL A   1      44.384  33.782  29.258  1.00  0.00    -0.206 F 
ATOM     71  C   UNL A   1      43.996  35.576  32.372  1.00  0.00     0.060 A 
BRANCH  71  72
ATOM     72  S   UNL A   1      44.098  37.258  33.017  1.00  0.00     0.124 S 
ATOM     73  O   UNL A   1      45.377  37.224  33.719  1.00  0.00    -0.237 OA
ATOM     74  O   UNL A   1      44.064  38.062  31.801  1.00  0.00    -0.237 OA
ATOM     75  O   UNL A   1      42.917  37.366  33.869  1.00  0.00    -0.744 OA
ENDBRANCH  71  72
ENDBRANCH  50  64
BRANCH  51  76
ATOM     76  C   UNL A   1      42.628  23.719  27.673  1.00  0.00     0.058 A 
ATOM     77  C   UNL A   1      42.387  22.622  28.513  1.00  0.00     0.135 A 
ATOM     78  C   UNL A   1      42.706  23.480  26.292  1.00  0.00     0.135 A 
ATOM     79  F   UNL A   1      42.304  22.800  29.839  1.00  0.00    -0.206 F 
ATOM     80  C   UNL A   1      42.254  21.332  28.009  1.00  0.00     0.059 A 
ATOM     81  C   UNL A   1      42.551  22.203  25.762  1.00  0.00     0.059 A 
ATOM     82  F   UNL A   1      42.914  24.499  25.442  1.00  0.00    -0.206 F 
ATOM     83  C   UNL A   1      42.339  21.133  26.631  1.00  0.00     0.060 A 
BRANCH  83  84
ATOM     84  S   UNL A   1      42.130  19.460  25.983  1.00  0.00     0.124 S 
ATOM     85  O   UNL A   1      40.686  19.397  25.791  1.00  0.00    -0.237 OA
ATOM     86  O   UNL A   1      42.936  19.499  24.766  1.00  0.00    -0.237 OA
ATOM     87  O   UNL A   1      42.664  18.619  27.051  1.00  0.00    -0.744 OA
ENDBRANCH  83  84
ENDBRANCH  51  76
BRANCH  63  88
ATOM     88  C   UNL A   1      47.901  27.043  30.797  1.00  0.00     0.058 A 
ATOM     89  C   UNL A   1      48.142  26.345  31.990  1.00  0.00     0.135 A 
ATOM     90  C   UNL A   1      48.991  27.284  29.944  1.00  0.00     0.135 A 
ATOM     91  F   UNL A   1      47.133  26.093  32.841  1.00  0.00    -0.206 F 
ATOM     92  C   UNL A   1      49.420  25.926  32.339  1.00  0.00     0.059 A 
ATOM     93  C   UNL A   1      50.274  26.850  30.260  1.00  0.00     0.059 A 
ATOM     94  F   UNL A   1      48.811  27.936  28.785  1.00  0.00    -0.206 F 
ATOM     95  C   UNL A   1      50.481  26.185  31.468  1.00  0.00     0.060 A 
BRANCH  95  96
ATOM     96  S   UNL A   1      52.133  25.616  31.920  1.00  0.00     0.124 S 
ATOM     97  O   UNL A   1      52.878  25.878  30.693  1.00  0.00    -0.237 OA
ATOM     98  O   UNL A   1      52.459  26.472  33.056  1.00  0.00    -0.237 OA
ATOM     99  O   UNL A   1      51.929  24.207  32.244  1.00  0.00    -0.744 OA
ENDBRANCH  95  96
ENDBRANCH  63  88
ENDBRANCH  37  38
ENDBRANCH  29  32
ENDBRANCH  27  28
ENDBRANCH   1  27
TORSDOF 15
ENDMDL
