MODEL 1
REMARK VINA RESULT:     -11.6      0.000      0.000
REMARK SMILES CC1(C)C[C@](CC(=O)NCCCCNC(=O)c2ccc(-c3c4nc(c(-c5c(F)cc(S(=O)(=O)[O-])cc5F)c5ccc([nH]5)c(-c5c(F)cc(S(=O)(=O)[O-])cc5F)c5nc(c(-c6c(F)cc(S(=O)(=O)[O-])cc6F)c6ccc3[nH]6)C=C5)C=C4)cc2)([NH+]2CCCC2)C(C)(C)O1
REMARK SMILES IDX 12 1 11 2 10 3 9 4 7 5 8 6 6 8 5 9 1 10 2 11 3 12 4 13 91 14
REMARK SMILES IDX 88 15 89 16 90 17 83 18 84 19 87 20 85 22 86 23 13 24 14 25
REMARK SMILES IDX 15 26 16 28 17 29 18 30 82 31 19 32 81 33 20 34 21 35 22 36
REMARK SMILES IDX 75 37 23 38 80 39 74 40 76 41 24 42 79 43 73 44 72 45 25 47
REMARK SMILES IDX 59 48 38 49 58 50 39 51 42 52 57 53 77 54 40 55 41 56 56 58
REMARK SMILES IDX 78 59 43 60 26 61 27 62 36 63 28 64 29 65 35 66 37 67 30 68
REMARK SMILES IDX 31 69 32 70 33 71 34 72 60 73 61 74 70 75 62 76 63 77 69 78
REMARK SMILES IDX 71 79 64 80 65 81 66 82 67 83 68 84 44 85 45 86 54 87 46 88
REMARK SMILES IDX 47 89 53 90 55 91 48 92 49 93 50 94 51 95 52 96
REMARK H PARENT 9 7 83 21 14 27 76 46 42 57
REMARK Flexibility Score: inf
ROOT
ATOM      1  C   UNL A   1      31.996  28.602  26.367  1.00  0.00     0.023 C 
ENDROOT
BRANCH   1   2
ATOM      2  C   UNL A   1      31.230  27.359  26.773  1.00  0.00     0.023 C 
BRANCH   2   3
ATOM      3  C   UNL A   1      31.338  26.177  25.820  1.00  0.00     0.116 C 
BRANCH   3   4
ATOM      4  N   UNL A   1      30.770  24.976  26.371  1.00  0.00    -0.356 N 
ATOM      5  C   UNL A   1      31.365  23.878  26.894  1.00  0.00     0.226 C 
ATOM      6  O   UNL A   1      30.626  23.110  27.521  1.00  0.00    -0.275 OA
ATOM      7  H   UNL A   1      29.785  24.946  26.366  1.00  0.00     0.163 HD
BRANCH   5   8
ATOM      8  C   UNL A   1      32.865  23.591  26.809  1.00  0.00     0.171 C 
BRANCH   8   9
ATOM      9  C   UNL A   1      33.624  22.968  25.560  1.00  0.00     0.138 C 
ATOM     10  C   UNL A   1      37.211  23.721  25.696  1.00  0.00     0.042 C 
ATOM     11  C   UNL A   1      36.106  22.826  25.107  1.00  0.00     0.070 C 
ATOM     12  C   UNL A   1      36.806  21.592  24.534  1.00  0.00     0.042 C 
ATOM     13  C   UNL A   1      35.022  22.526  26.143  1.00  0.00     0.107 C 
ATOM     14  O   UNL A   1      35.468  23.513  24.030  1.00  0.00    -0.363 OA
ATOM     15  C   UNL A   1      34.151  23.999  24.440  1.00  0.00     0.118 C 
ATOM     16  C   UNL A   1      34.437  25.461  24.879  1.00  0.00     0.049 C 
ATOM     17  C   UNL A   1      33.345  23.999  23.130  1.00  0.00     0.049 C 
BRANCH   9  18
ATOM     18  N   UNL A   1      32.976  21.704  25.089  1.00  0.00    -0.327 N 
ATOM     19  C   UNL A   1      32.721  21.463  23.671  1.00  0.00     0.263 C 
ATOM     20  C   UNL A   1      33.241  20.422  25.734  1.00  0.00     0.263 C 
ATOM     21  H   UNL A   1      32.127  22.090  25.501  1.00  0.00     0.348 HD
ATOM     22  C   UNL A   1      32.376  19.989  23.561  1.00  0.00     0.067 C 
ATOM     23  C   UNL A   1      33.231  19.369  24.634  1.00  0.00     0.067 C 
ENDBRANCH   9  18
ENDBRANCH   8   9
ENDBRANCH   5   8
ENDBRANCH   3   4
ENDBRANCH   2   3
ENDBRANCH   1   2
BRANCH   1  24
ATOM     24  C   UNL A   1      33.271  28.842  27.156  1.00  0.00     0.116 C 
BRANCH  24  25
ATOM     25  N   UNL A   1      33.378  30.184  27.733  1.00  0.00    -0.352 N 
ATOM     26  C   UNL A   1      34.458  30.808  28.322  1.00  0.00     0.251 C 
ATOM     27  H   UNL A   1      32.555  30.722  27.694  1.00  0.00     0.163 HD
ATOM     28  O   UNL A   1      34.348  31.911  28.815  1.00  0.00    -0.269 OA
BRANCH  26  29
ATOM     29  C   UNL A   1      35.740  30.072  28.389  1.00  0.00     0.039 A 
ATOM     30  C   UNL A   1      36.593  30.079  27.284  1.00  0.00     0.014 A 
ATOM     31  C   UNL A   1      36.150  29.510  29.597  1.00  0.00     0.014 A 
ATOM     32  C   UNL A   1      37.910  29.643  27.437  1.00  0.00     0.010 A 
ATOM     33  C   UNL A   1      37.493  29.228  29.783  1.00  0.00     0.010 A 
ATOM     34  C   UNL A   1      38.393  29.288  28.707  1.00  0.00    -0.014 A 
BRANCH  34  35
ATOM     35  C   UNL A   1      39.826  28.974  28.958  1.00  0.00     0.031 A 
ATOM     36  C   UNL A   1      40.722  30.025  29.560  1.00  0.00     0.074 A 
ATOM     37  C   UNL A   1      40.348  27.800  28.546  1.00  0.00     0.049 A 
ATOM     38  N   UNL A   1      42.022  30.027  29.700  1.00  0.00    -0.248 NA
ATOM     39  C   UNL A   1      40.073  31.272  30.000  1.00  0.00     0.031 C 
ATOM     40  C   UNL A   1      39.612  26.724  27.877  1.00  0.00     0.029 A 
ATOM     41  N   UNL A   1      41.631  27.318  28.625  1.00  0.00    -0.354 N 
ATOM     42  C   UNL A   1      42.345  31.288  30.185  1.00  0.00     0.074 A 
ATOM     43  C   UNL A   1      41.116  32.047  30.243  1.00  0.00     0.031 C 
ATOM     44  C   UNL A   1      40.441  25.688  27.663  1.00  0.00     0.029 A 
ATOM     45  C   UNL A   1      41.775  26.043  28.132  1.00  0.00     0.049 A 
ATOM     46  H   UNL A   1      42.379  27.838  29.000  1.00  0.00     0.167 HD
ATOM     47  C   UNL A   1      43.548  31.764  30.585  1.00  0.00     0.037 A 
ATOM     48  C   UNL A   1      42.860  25.247  28.074  1.00  0.00     0.037 A 
ATOM     49  C   UNL A   1      44.748  30.976  30.609  1.00  0.00     0.049 A 
ATOM     50  C   UNL A   1      44.173  25.763  28.592  1.00  0.00     0.074 A 
ATOM     51  C   UNL A   1      45.999  31.322  31.087  1.00  0.00     0.029 A 
ATOM     52  N   UNL A   1      44.840  29.669  30.153  1.00  0.00    -0.354 N 
ATOM     53  N   UNL A   1      44.453  26.941  29.096  1.00  0.00    -0.248 NA
ATOM     54  C   UNL A   1      45.318  24.843  28.534  1.00  0.00     0.031 C 
ATOM     55  C   UNL A   1      46.853  30.228  30.902  1.00  0.00     0.029 A 
ATOM     56  C   UNL A   1      46.126  29.192  30.334  1.00  0.00     0.049 A 
ATOM     57  H   UNL A   1      44.099  29.156  29.757  1.00  0.00     0.167 HD
ATOM     58  C   UNL A   1      45.800  26.898  29.435  1.00  0.00     0.074 A 
ATOM     59  C   UNL A   1      46.277  25.575  29.085  1.00  0.00     0.031 C 
ATOM     60  C   UNL A   1      46.574  27.868  29.984  1.00  0.00     0.037 A 
BRANCH  47  61
ATOM     61  C   UNL A   1      43.596  33.196  31.043  1.00  0.00     0.058 A 
ATOM     62  C   UNL A   1      43.907  34.243  30.158  1.00  0.00     0.135 A 
ATOM     63  C   UNL A   1      43.385  33.522  32.391  1.00  0.00     0.135 A 
ATOM     64  F   UNL A   1      44.137  33.984  28.860  1.00  0.00    -0.206 F 
ATOM     65  C   UNL A   1      44.077  35.548  30.605  1.00  0.00     0.059 A 
ATOM     66  C   UNL A   1      43.514  34.828  32.856  1.00  0.00     0.059 A 
ATOM     67  F   UNL A   1      43.079  32.563  33.280  1.00  0.00    -0.206 F 
ATOM     68  C   UNL A   1      43.893  35.828  31.959  1.00  0.00     0.060 A 
BRANCH  68  69
ATOM     69  S   UNL A   1      44.174  37.513  32.542  1.00  0.00     0.124 S 
ATOM     70  O   UNL A   1      43.884  38.286  31.337  1.00  0.00    -0.237 OA
ATOM     71  O   UNL A   1      43.204  37.642  33.624  1.00  0.00    -0.237 OA
ATOM     72  O   UNL A   1      45.574  37.497  32.956  1.00  0.00    -0.744 OA
ENDBRANCH  68  69
ENDBRANCH  47  61
BRANCH  48  73
ATOM     73  C   UNL A   1      42.728  23.854  27.570  1.00  0.00     0.058 A 
ATOM     74  C   UNL A   1      42.572  22.787  28.468  1.00  0.00     0.135 A 
ATOM     75  C   UNL A   1      42.707  23.562  26.197  1.00  0.00     0.135 A 
ATOM     76  F   UNL A   1      42.592  23.019  29.790  1.00  0.00    -0.206 F 
ATOM     77  C   UNL A   1      42.399  21.480  28.028  1.00  0.00     0.059 A 
ATOM     78  C   UNL A   1      42.517  22.264  25.731  1.00  0.00     0.059 A 
ATOM     79  F   UNL A   1      42.836  24.549  25.297  1.00  0.00    -0.206 F 
ATOM     80  C   UNL A   1      42.366  21.229  26.655  1.00  0.00     0.060 A 
BRANCH  80  81
ATOM     81  S   UNL A   1      42.059  19.539  26.094  1.00  0.00     0.124 S 
ATOM     82  O   UNL A   1      42.479  18.763  27.255  1.00  0.00    -0.237 OA
ATOM     83  O   UNL A   1      40.625  19.561  25.824  1.00  0.00    -0.237 OA
ATOM     84  O   UNL A   1      42.909  19.420  24.913  1.00  0.00    -0.744 OA
ENDBRANCH  80  81
ENDBRANCH  48  73
BRANCH  60  85
ATOM     85  C   UNL A   1      48.008  27.525  30.265  1.00  0.00     0.058 A 
ATOM     86  C   UNL A   1      49.034  27.885  29.378  1.00  0.00     0.135 A 
ATOM     87  C   UNL A   1      48.364  26.882  31.461  1.00  0.00     0.135 A 
ATOM     88  F   UNL A   1      48.741  28.496  28.219  1.00  0.00    -0.206 F 
ATOM     89  C   UNL A   1      50.366  27.608  29.662  1.00  0.00     0.059 A 
ATOM     90  C   UNL A   1      49.692  26.613  31.774  1.00  0.00     0.059 A 
ATOM     91  F   UNL A   1      47.418  26.526  32.344  1.00  0.00    -0.206 F 
ATOM     92  C   UNL A   1      50.685  26.972  30.864  1.00  0.00     0.060 A 
BRANCH  92  93
ATOM     93  S   UNL A   1      52.421  26.654  31.243  1.00  0.00     0.124 S 
ATOM     94  O   UNL A   1      52.932  28.008  31.436  1.00  0.00    -0.237 OA
ATOM     95  O   UNL A   1      52.336  25.831  32.446  1.00  0.00    -0.237 OA
ATOM     96  O   UNL A   1      52.905  25.962  30.051  1.00  0.00    -0.744 OA
ENDBRANCH  92  93
ENDBRANCH  60  85
ENDBRANCH  34  35
ENDBRANCH  26  29
ENDBRANCH  24  25
ENDBRANCH   1  24
TORSDOF 16
ENDMDL
MODEL 2
REMARK VINA RESULT:     -11.6      4.813     10.414
REMARK SMILES CC1(C)C[C@](CC(=O)NCCCCNC(=O)c2ccc(-c3c4nc(c(-c5c(F)cc(S(=O)(=O)[O-])cc5F)c5ccc([nH]5)c(-c5c(F)cc(S(=O)(=O)[O-])cc5F)c5nc(c(-c6c(F)cc(S(=O)(=O)[O-])cc6F)c6ccc3[nH]6)C=C5)C=C4)cc2)([NH+]2CCCC2)C(C)(C)O1
REMARK SMILES IDX 12 1 11 2 10 3 9 4 7 5 8 6 6 8 5 9 1 10 2 11 3 12 4 13 91 14
REMARK SMILES IDX 88 15 89 16 90 17 83 18 84 19 87 20 85 22 86 23 13 24 14 25
REMARK SMILES IDX 15 26 16 28 17 29 18 30 82 31 19 32 81 33 20 34 21 35 22 36
REMARK SMILES IDX 75 37 23 38 80 39 74 40 76 41 24 42 79 43 73 44 72 45 25 47
REMARK SMILES IDX 59 48 38 49 58 50 39 51 42 52 57 53 77 54 40 55 41 56 56 58
REMARK SMILES IDX 78 59 43 60 26 61 27 62 36 63 28 64 29 65 35 66 37 67 30 68
REMARK SMILES IDX 31 69 32 70 33 71 34 72 60 73 61 74 70 75 62 76 63 77 69 78
REMARK SMILES IDX 71 79 64 80 65 81 66 82 67 83 68 84 44 85 45 86 54 87 46 88
REMARK SMILES IDX 47 89 53 90 55 91 48 92 49 93 50 94 51 95 52 96
REMARK H PARENT 9 7 83 21 14 27 76 46 42 57
REMARK Flexibility Score: inf
ROOT
ATOM      1  C   UNL A   1      40.050  22.121  26.904  1.00  0.00     0.023 C 
ENDROOT
BRANCH   1   2
ATOM      2  C   UNL A   1      38.913  22.763  26.134  1.00  0.00     0.023 C 
BRANCH   2   3
ATOM      3  C   UNL A   1      37.823  21.815  25.655  1.00  0.00     0.116 C 
BRANCH   3   4
ATOM      4  N   UNL A   1      37.419  22.083  24.300  1.00  0.00    -0.356 N 
ATOM      5  C   UNL A   1      36.542  22.986  23.804  1.00  0.00     0.226 C 
ATOM      6  O   UNL A   1      36.583  23.163  22.580  1.00  0.00    -0.275 OA
ATOM      7  H   UNL A   1      37.853  21.516  23.622  1.00  0.00     0.163 HD
BRANCH   5   8
ATOM      8  C   UNL A   1      35.587  23.817  24.662  1.00  0.00     0.171 C 
BRANCH   8   9
ATOM      9  C   UNL A   1      34.006  23.673  24.700  1.00  0.00     0.138 C 
ATOM     10  C   UNL A   1      32.895  22.255  27.895  1.00  0.00     0.042 C 
ATOM     11  C   UNL A   1      32.505  23.047  26.635  1.00  0.00     0.070 C 
ATOM     12  C   UNL A   1      31.175  23.736  26.949  1.00  0.00     0.042 C 
ATOM     13  C   UNL A   1      33.628  23.988  26.199  1.00  0.00     0.107 C 
ATOM     14  O   UNL A   1      32.288  22.137  25.554  1.00  0.00    -0.363 OA
ATOM     15  C   UNL A   1      33.409  22.179  24.616  1.00  0.00     0.118 C 
ATOM     16  C   UNL A   1      34.312  21.010  25.096  1.00  0.00     0.049 C 
ATOM     17  C   UNL A   1      32.762  21.815  23.269  1.00  0.00     0.049 C 
BRANCH   9  18
ATOM     18  N   UNL A   1      33.330  24.736  23.892  1.00  0.00    -0.327 N 
ATOM     19  C   UNL A   1      32.993  26.034  24.470  1.00  0.00     0.263 C 
ATOM     20  C   UNL A   1      33.628  24.925  22.476  1.00  0.00     0.263 C 
ATOM     21  H   UNL A   1      32.506  24.138  23.958  1.00  0.00     0.348 HD
ATOM     22  C   UNL A   1      32.640  26.928  23.296  1.00  0.00     0.067 C 
ATOM     23  C   UNL A   1      33.554  26.423  22.211  1.00  0.00     0.067 C 
ENDBRANCH   9  18
ENDBRANCH   8   9
ENDBRANCH   5   8
ENDBRANCH   3   4
ENDBRANCH   2   3
ENDBRANCH   1   2
BRANCH   1  24
ATOM     24  C   UNL A   1      41.293  22.984  27.029  1.00  0.00     0.116 C 
BRANCH  24  25
ATOM     25  N   UNL A   1      41.453  23.969  25.957  1.00  0.00    -0.352 N 
ATOM     26  C   UNL A   1      41.561  25.342  26.028  1.00  0.00     0.251 C 
ATOM     27  H   UNL A   1      41.487  23.594  25.047  1.00  0.00     0.163 HD
ATOM     28  O   UNL A   1      41.618  26.016  25.021  1.00  0.00    -0.269 OA
BRANCH  26  29
ATOM     29  C   UNL A   1      41.547  25.977  27.365  1.00  0.00     0.039 A 
ATOM     30  C   UNL A   1      42.634  26.755  27.765  1.00  0.00     0.014 A 
ATOM     31  C   UNL A   1      40.393  25.915  28.145  1.00  0.00     0.014 A 
ATOM     32  C   UNL A   1      42.505  27.582  28.883  1.00  0.00     0.010 A 
ATOM     33  C   UNL A   1      40.216  26.849  29.153  1.00  0.00     0.010 A 
ATOM     34  C   UNL A   1      41.268  27.694  29.539  1.00  0.00    -0.014 A 
BRANCH  34  35
ATOM     35  C   UNL A   1      41.029  28.679  30.629  1.00  0.00     0.031 A 
ATOM     36  C   UNL A   1      41.873  28.625  31.876  1.00  0.00     0.074 A 
ATOM     37  C   UNL A   1      39.992  29.539  30.554  1.00  0.00     0.049 A 
ATOM     38  N   UNL A   1      41.724  29.264  33.007  1.00  0.00    -0.248 NA
ATOM     39  C   UNL A   1      42.996  27.672  31.872  1.00  0.00     0.031 C 
ATOM     40  C   UNL A   1      39.046  29.645  29.440  1.00  0.00     0.029 A 
ATOM     41  N   UNL A   1      39.556  30.489  31.444  1.00  0.00    -0.354 N 
ATOM     42  C   UNL A   1      42.691  28.746  33.860  1.00  0.00     0.074 A 
ATOM     43  C   UNL A   1      43.370  27.692  33.140  1.00  0.00     0.031 C 
ATOM     44  C   UNL A   1      38.182  30.644  29.686  1.00  0.00     0.029 A 
ATOM     45  C   UNL A   1      38.478  31.216  30.994  1.00  0.00     0.049 A 
ATOM     46  H   UNL A   1      39.976  30.636  32.322  1.00  0.00     0.167 HD
ATOM     47  C   UNL A   1      43.017  29.136  35.115  1.00  0.00     0.037 A 
ATOM     48  C   UNL A   1      37.811  32.235  31.570  1.00  0.00     0.037 A 
ATOM     49  C   UNL A   1      42.399  30.244  35.790  1.00  0.00     0.049 A 
ATOM     50  C   UNL A   1      38.234  32.707  32.933  1.00  0.00     0.074 A 
ATOM     51  C   UNL A   1      42.716  30.791  37.019  1.00  0.00     0.029 A 
ATOM     52  N   UNL A   1      41.348  30.990  35.277  1.00  0.00    -0.354 N 
ATOM     53  N   UNL A   1      39.185  32.241  33.707  1.00  0.00    -0.248 NA
ATOM     54  C   UNL A   1      37.493  33.841  33.502  1.00  0.00     0.031 C 
ATOM     55  C   UNL A   1      41.842  31.859  37.259  1.00  0.00     0.029 A 
ATOM     56  C   UNL A   1      41.000  31.992  36.165  1.00  0.00     0.049 A 
ATOM     57  H   UNL A   1      40.913  30.830  34.409  1.00  0.00     0.167 HD
ATOM     58  C   UNL A   1      39.172  33.038  34.845  1.00  0.00     0.074 A 
ATOM     59  C   UNL A   1      38.124  34.020  34.655  1.00  0.00     0.031 C 
ATOM     60  C   UNL A   1      39.956  32.963  35.950  1.00  0.00     0.037 A 
BRANCH  47  61
ATOM     61  C   UNL A   1      44.103  28.361  35.810  1.00  0.00     0.058 A 
ATOM     62  C   UNL A   1      45.461  28.674  35.632  1.00  0.00     0.135 A 
ATOM     63  C   UNL A   1      43.786  27.259  36.619  1.00  0.00     0.135 A 
ATOM     64  F   UNL A   1      45.819  29.708  34.853  1.00  0.00    -0.206 F 
ATOM     65  C   UNL A   1      46.467  27.882  36.171  1.00  0.00     0.059 A 
ATOM     66  C   UNL A   1      44.778  26.472  37.198  1.00  0.00     0.059 A 
ATOM     67  F   UNL A   1      42.505  26.917  36.829  1.00  0.00    -0.206 F 
ATOM     68  C   UNL A   1      46.115  26.773  36.941  1.00  0.00     0.060 A 
BRANCH  68  69
ATOM     69  S   UNL A   1      47.427  25.715  37.587  1.00  0.00     0.124 S 
ATOM     70  O   UNL A   1      48.593  26.240  36.882  1.00  0.00    -0.237 OA
ATOM     71  O   UNL A   1      47.379  25.988  39.020  1.00  0.00    -0.237 OA
ATOM     72  O   UNL A   1      47.004  24.375  37.192  1.00  0.00    -0.744 OA
ENDBRANCH  68  69
ENDBRANCH  47  61
BRANCH  48  73
ATOM     73  C   UNL A   1      36.724  32.920  30.823  1.00  0.00     0.058 A 
ATOM     74  C   UNL A   1      35.380  32.671  31.141  1.00  0.00     0.135 A 
ATOM     75  C   UNL A   1      36.994  33.864  29.821  1.00  0.00     0.135 A 
ATOM     76  F   UNL A   1      35.073  31.771  32.089  1.00  0.00    -0.206 F 
ATOM     77  C   UNL A   1      34.341  33.330  30.495  1.00  0.00     0.059 A 
ATOM     78  C   UNL A   1      35.972  34.551  29.172  1.00  0.00     0.059 A 
ATOM     79  F   UNL A   1      38.264  34.151  29.492  1.00  0.00    -0.206 F 
ATOM     80  C   UNL A   1      34.648  34.275  29.515  1.00  0.00     0.060 A 
BRANCH  80  81
ATOM     81  S   UNL A   1      33.293  35.186  28.738  1.00  0.00     0.124 S 
ATOM     82  O   UNL A   1      34.018  36.164  27.935  1.00  0.00    -0.237 OA
ATOM     83  O   UNL A   1      32.604  34.135  27.997  1.00  0.00    -0.237 OA
ATOM     84  O   UNL A   1      32.557  35.724  29.878  1.00  0.00    -0.744 OA
ENDBRANCH  80  81
ENDBRANCH  48  73
BRANCH  60  85
ATOM     85  C   UNL A   1      39.728  33.985  37.025  1.00  0.00     0.058 A 
ATOM     86  C   UNL A   1      39.003  33.676  38.186  1.00  0.00     0.135 A 
ATOM     87  C   UNL A   1      40.291  35.266  36.918  1.00  0.00     0.135 A 
ATOM     88  F   UNL A   1      38.441  32.466  38.329  1.00  0.00    -0.206 F 
ATOM     89  C   UNL A   1      38.832  34.610  39.201  1.00  0.00     0.059 A 
ATOM     90  C   UNL A   1      40.149  36.209  37.931  1.00  0.00     0.059 A 
ATOM     91  F   UNL A   1      41.000  35.605  35.830  1.00  0.00    -0.206 F 
ATOM     92  C   UNL A   1      39.410  35.874  39.064  1.00  0.00     0.060 A 
BRANCH  92  93
ATOM     93  S   UNL A   1      39.218  37.065  40.407  1.00  0.00     0.124 S 
ATOM     94  O   UNL A   1      38.417  36.305  41.361  1.00  0.00    -0.237 OA
ATOM     95  O   UNL A   1      40.600  37.321  40.801  1.00  0.00    -0.237 OA
ATOM     96  O   UNL A   1      38.538  38.188  39.768  1.00  0.00    -0.744 OA
ENDBRANCH  92  93
ENDBRANCH  60  85
ENDBRANCH  34  35
ENDBRANCH  26  29
ENDBRANCH  24  25
ENDBRANCH   1  24
TORSDOF 16
ENDMDL
MODEL 3
REMARK VINA RESULT:     -11.6      4.760     10.499
REMARK SMILES CC1(C)C[C@](CC(=O)NCCCCNC(=O)c2ccc(-c3c4nc(c(-c5c(F)cc(S(=O)(=O)[O-])cc5F)c5ccc([nH]5)c(-c5c(F)cc(S(=O)(=O)[O-])cc5F)c5nc(c(-c6c(F)cc(S(=O)(=O)[O-])cc6F)c6ccc3[nH]6)C=C5)C=C4)cc2)([NH+]2CCCC2)C(C)(C)O1
REMARK SMILES IDX 12 1 11 2 10 3 9 4 7 5 8 6 6 8 5 9 1 10 2 11 3 12 4 13 91 14
REMARK SMILES IDX 88 15 89 16 90 17 83 18 84 19 87 20 85 22 86 23 13 24 14 25
REMARK SMILES IDX 15 26 16 28 17 29 18 30 82 31 19 32 81 33 20 34 21 35 22 36
REMARK SMILES IDX 75 37 23 38 80 39 74 40 76 41 24 42 79 43 73 44 72 45 25 47
REMARK SMILES IDX 59 48 38 49 58 50 39 51 42 52 57 53 77 54 40 55 41 56 56 58
REMARK SMILES IDX 78 59 43 60 26 61 27 62 36 63 28 64 29 65 35 66 37 67 30 68
REMARK SMILES IDX 31 69 32 70 33 71 34 72 60 73 61 74 70 75 62 76 63 77 69 78
REMARK SMILES IDX 71 79 64 80 65 81 66 82 67 83 68 84 44 85 45 86 54 87 46 88
REMARK SMILES IDX 47 89 53 90 55 91 48 92 49 93 50 94 51 95 52 96
REMARK H PARENT 9 7 83 21 14 27 76 46 42 57
REMARK Flexibility Score: inf
ROOT
ATOM      1  C   UNL A   1      37.442  22.600  25.601  1.00  0.00     0.023 C 
ENDROOT
BRANCH   1   2
ATOM      2  C   UNL A   1      36.895  22.805  24.203  1.00  0.00     0.023 C 
BRANCH   2   3
ATOM      3  C   UNL A   1      35.381  22.721  24.069  1.00  0.00     0.116 C 
BRANCH   3   4
ATOM      4  N   UNL A   1      34.709  22.903  25.328  1.00  0.00    -0.356 N 
ATOM      5  C   UNL A   1      34.127  24.001  25.866  1.00  0.00     0.226 C 
ATOM      6  O   UNL A   1      33.405  23.803  26.851  1.00  0.00    -0.275 OA
ATOM      7  H   UNL A   1      34.664  22.097  25.892  1.00  0.00     0.163 HD
BRANCH   5   8
ATOM      8  C   UNL A   1      34.259  25.412  25.292  1.00  0.00     0.171 C 
BRANCH   8   9
ATOM      9  C   UNL A   1      33.076  26.291  24.701  1.00  0.00     0.138 C 
ATOM     10  C   UNL A   1      30.514  24.172  23.153  1.00  0.00     0.042 C 
ATOM     11  C   UNL A   1      30.856  25.549  23.747  1.00  0.00     0.070 C 
ATOM     12  C   UNL A   1      29.522  26.240  24.037  1.00  0.00     0.042 C 
ATOM     13  C   UNL A   1      31.786  25.418  24.954  1.00  0.00     0.107 C 
ATOM     14  O   UNL A   1      31.555  26.324  22.771  1.00  0.00    -0.363 OA
ATOM     15  C   UNL A   1      32.978  26.395  23.096  1.00  0.00     0.118 C 
ATOM     16  C   UNL A   1      33.588  25.239  22.257  1.00  0.00     0.049 C 
ATOM     17  C   UNL A   1      33.412  27.748  22.507  1.00  0.00     0.049 C 
BRANCH   9  18
ATOM     18  N   UNL A   1      32.865  27.544  25.490  1.00  0.00    -0.327 N 
ATOM     19  C   UNL A   1      31.800  27.648  26.484  1.00  0.00     0.263 C 
ATOM     20  C   UNL A   1      33.986  28.370  25.929  1.00  0.00     0.263 C 
ATOM     21  H   UNL A   1      32.517  27.933  24.614  1.00  0.00     0.348 HD
ATOM     22  C   UNL A   1      32.105  28.900  27.285  1.00  0.00     0.067 C 
ATOM     23  C   UNL A   1      33.610  28.927  27.295  1.00  0.00     0.067 C 
ENDBRANCH   9  18
ENDBRANCH   8   9
ENDBRANCH   5   8
ENDBRANCH   3   4
ENDBRANCH   2   3
ENDBRANCH   1   2
BRANCH   1  24
ATOM     24  C   UNL A   1      38.232  23.776  26.147  1.00  0.00     0.116 C 
BRANCH  24  25
ATOM     25  N   UNL A   1      39.685  23.590  26.121  1.00  0.00    -0.352 N 
ATOM     26  C   UNL A   1      40.683  24.351  26.692  1.00  0.00     0.251 C 
ATOM     27  H   UNL A   1      39.996  22.803  25.617  1.00  0.00     0.163 HD
ATOM     28  O   UNL A   1      41.852  24.085  26.508  1.00  0.00    -0.269 OA
BRANCH  26  29
ATOM     29  C   UNL A   1      40.291  25.534  27.491  1.00  0.00     0.039 A 
ATOM     30  C   UNL A   1      39.320  25.399  28.485  1.00  0.00     0.014 A 
ATOM     31  C   UNL A   1      40.997  26.727  27.347  1.00  0.00     0.014 A 
ATOM     32  C   UNL A   1      39.158  26.420  29.422  1.00  0.00     0.010 A 
ATOM     33  C   UNL A   1      40.943  27.664  28.366  1.00  0.00     0.010 A 
ATOM     34  C   UNL A   1      40.023  27.527  29.417  1.00  0.00    -0.014 A 
BRANCH  34  35
ATOM     35  C   UNL A   1      40.003  28.561  30.487  1.00  0.00     0.031 A 
ATOM     36  C   UNL A   1      40.940  28.433  31.661  1.00  0.00     0.074 A 
ATOM     37  C   UNL A   1      39.078  29.543  30.468  1.00  0.00     0.049 A 
ATOM     38  N   UNL A   1      40.970  29.114  32.776  1.00  0.00    -0.248 NA
ATOM     39  C   UNL A   1      41.931  27.346  31.598  1.00  0.00     0.031 C 
ATOM     40  C   UNL A   1      38.059  29.739  29.433  1.00  0.00     0.029 A 
ATOM     41  N   UNL A   1      38.842  30.563  31.356  1.00  0.00    -0.354 N 
ATOM     42  C   UNL A   1      41.937  28.500  33.563  1.00  0.00     0.074 A 
ATOM     43  C   UNL A   1      42.414  27.351  32.828  1.00  0.00     0.031 C 
ATOM     44  C   UNL A   1      37.350  30.845  29.715  1.00  0.00     0.029 A 
ATOM     45  C   UNL A   1      37.827  31.408  30.972  1.00  0.00     0.049 A 
ATOM     46  H   UNL A   1      39.352  30.678  32.191  1.00  0.00     0.167 HD
ATOM     47  C   UNL A   1      42.416  28.878  34.772  1.00  0.00     0.037 A 
ATOM     48  C   UNL A   1      37.344  32.517  31.564  1.00  0.00     0.037 A 
ATOM     49  C   UNL A   1      42.002  30.072  35.456  1.00  0.00     0.049 A 
ATOM     50  C   UNL A   1      37.939  32.967  32.869  1.00  0.00     0.074 A 
ATOM     51  C   UNL A   1      42.490  30.605  36.634  1.00  0.00     0.029 A 
ATOM     52  N   UNL A   1      41.010  30.931  35.005  1.00  0.00    -0.354 N 
ATOM     53  N   UNL A   1      38.889  32.404  33.577  1.00  0.00    -0.248 NA
ATOM     54  C   UNL A   1      37.397  34.200  33.457  1.00  0.00     0.031 C 
ATOM     55  C   UNL A   1      41.779  31.780  36.907  1.00  0.00     0.029 A 
ATOM     56  C   UNL A   1      40.867  31.991  35.883  1.00  0.00     0.049 A 
ATOM     57  H   UNL A   1      40.484  30.805  34.183  1.00  0.00     0.167 HD
ATOM     58  C   UNL A   1      39.075  33.225  34.683  1.00  0.00     0.074 A 
ATOM     59  C   UNL A   1      38.143  34.327  34.546  1.00  0.00     0.031 C 
ATOM     60  C   UNL A   1      39.936  33.080  35.720  1.00  0.00     0.037 A 
BRANCH  47  61
ATOM     61  C   UNL A   1      43.455  27.990  35.402  1.00  0.00     0.058 A 
ATOM     62  C   UNL A   1      44.821  28.127  35.103  1.00  0.00     0.135 A 
ATOM     63  C   UNL A   1      43.076  26.955  36.270  1.00  0.00     0.135 A 
ATOM     64  F   UNL A   1      45.235  29.091  34.264  1.00  0.00    -0.206 F 
ATOM     65  C   UNL A   1      45.765  27.229  35.585  1.00  0.00     0.059 A 
ATOM     66  C   UNL A   1      44.010  26.063  36.793  1.00  0.00     0.059 A 
ATOM     67  F   UNL A   1      41.785  26.780  36.595  1.00  0.00    -0.206 F 
ATOM     68  C   UNL A   1      45.347  26.190  36.417  1.00  0.00     0.060 A 
BRANCH  68  69
ATOM     69  S   UNL A   1      46.570  24.992  36.989  1.00  0.00     0.124 S 
ATOM     70  O   UNL A   1      45.890  24.418  38.147  1.00  0.00    -0.237 OA
ATOM     71  O   UNL A   1      46.713  24.108  35.836  1.00  0.00    -0.237 OA
ATOM     72  O   UNL A   1      47.736  25.818  37.290  1.00  0.00    -0.744 OA
ENDBRANCH  68  69
ENDBRANCH  47  61
BRANCH  48  73
ATOM     73  C   UNL A   1      36.288  33.316  30.886  1.00  0.00     0.058 A 
ATOM     74  C   UNL A   1      34.955  33.234  31.315  1.00  0.00     0.135 A 
ATOM     75  C   UNL A   1      36.587  34.203  29.841  1.00  0.00     0.135 A 
ATOM     76  F   UNL A   1      34.621  32.394  32.307  1.00  0.00    -0.206 F 
ATOM     77  C   UNL A   1      33.953  34.002  30.734  1.00  0.00     0.059 A 
ATOM     78  C   UNL A   1      35.604  34.996  29.256  1.00  0.00     0.059 A 
ATOM     79  F   UNL A   1      37.851  34.329  29.407  1.00  0.00    -0.206 F 
ATOM     80  C   UNL A   1      34.289  34.887  29.708  1.00  0.00     0.060 A 
BRANCH  80  81
ATOM     81  S   UNL A   1      32.993  35.940  29.015  1.00  0.00     0.124 S 
ATOM     82  O   UNL A   1      33.777  36.992  28.380  1.00  0.00    -0.237 OA
ATOM     83  O   UNL A   1      32.303  35.023  28.113  1.00  0.00    -0.237 OA
ATOM     84  O   UNL A   1      32.227  36.343  30.191  1.00  0.00    -0.744 OA
ENDBRANCH  80  81
ENDBRANCH  48  73
BRANCH  60  85
ATOM     85  C   UNL A   1      39.931  34.149  36.773  1.00  0.00     0.058 A 
ATOM     86  C   UNL A   1      40.793  35.254  36.699  1.00  0.00     0.135 A 
ATOM     87  C   UNL A   1      39.013  34.098  37.833  1.00  0.00     0.135 A 
ATOM     88  F   UNL A   1      41.692  35.343  35.706  1.00  0.00    -0.206 F 
ATOM     89  C   UNL A   1      40.754  36.267  37.650  1.00  0.00     0.059 A 
ATOM     90  C   UNL A   1      38.943  35.110  38.785  1.00  0.00     0.059 A 
ATOM     91  F   UNL A   1      38.161  33.066  37.942  1.00  0.00    -0.206 F 
ATOM     92  C   UNL A   1      39.824  36.186  38.689  1.00  0.00     0.060 A 
BRANCH  92  93
ATOM     93  S   UNL A   1      39.754  37.528  39.896  1.00  0.00     0.124 S 
ATOM     94  O   UNL A   1      40.996  38.240  39.614  1.00  0.00    -0.237 OA
ATOM     95  O   UNL A   1      38.526  38.223  39.521  1.00  0.00    -0.237 OA
ATOM     96  O   UNL A   1      39.705  36.828  41.176  1.00  0.00    -0.744 OA
ENDBRANCH  92  93
ENDBRANCH  60  85
ENDBRANCH  34  35
ENDBRANCH  26  29
ENDBRANCH  24  25
ENDBRANCH   1  24
TORSDOF 16
ENDMDL
