MODEL 1
REMARK VINA RESULT:     -13.1      0.000      0.000
REMARK SMILES Cc1c(CC(=O)N[C@@H](C)C(=O)NCCCCNC(=O)c2ccc(-c3c4nc(c(-c5c(F)cc(S(=O)(=O)[O-])cc5F)c5ccc([nH]5)c(-c5c(F)cc(S(=O)(=O)[O-])cc5F)c5nc(c(-c6c(F)cc(S(=O)(=O)[O-])cc6F)c6ccc3[nH]6)C=C5)C=C4)cc2)c(=O)oc2cc3oc4c(c3cc12)CCCC4
REMARK SMILES IDX 14 1 13 2 12 3 10 4 11 5 8 7 9 8 7 9 5 10 6 11 4 13 3 14
REMARK SMILES IDX 1 15 2 16 97 17 86 18 89 19 96 20 87 21 88 22 90 23 95 24
REMARK SMILES IDX 91 25 94 26 92 27 93 28 98 29 101 30 99 31 100 32 15 33
REMARK SMILES IDX 16 34 17 35 18 36 19 38 20 39 21 40 85 41 22 42 84 43 23 44
REMARK SMILES IDX 24 45 25 46 78 47 26 48 83 49 77 50 79 51 27 52 82 53 76 54
REMARK SMILES IDX 75 55 28 57 62 58 41 59 61 60 42 61 45 62 60 63 80 64 43 65
REMARK SMILES IDX 44 66 59 68 81 69 46 70 29 71 30 72 39 73 31 74 32 75 38 76
REMARK SMILES IDX 40 77 33 78 34 79 35 80 36 81 37 82 63 83 64 84 73 85 65 86
REMARK SMILES IDX 66 87 72 88 74 89 67 90 68 91 69 92 70 93 71 94 47 95 48 96
REMARK SMILES IDX 57 97 49 98 50 99 56 100 58 101 51 102 52 103 53 104 54 105
REMARK SMILES IDX 55 106
REMARK H PARENT 12 6 7 12 17 37 79 56 45 67
REMARK Flexibility Score: inf
ROOT
ATOM      1  C   UNL A   1      36.301  20.519  25.163  1.00  0.00     0.023 C 
ENDROOT
BRANCH   1   2
ATOM      2  C   UNL A   1      35.156  21.056  24.310  1.00  0.00     0.116 C 
BRANCH   2   3
ATOM      3  N   UNL A   1      33.889  20.402  24.616  1.00  0.00    -0.354 N 
ATOM      4  C   UNL A   1      32.877  20.752  25.460  1.00  0.00     0.242 C 
ATOM      5  O   UNL A   1      31.788  20.189  25.326  1.00  0.00    -0.273 OA
ATOM      6  H   UNL A   1      33.737  19.563  24.127  1.00  0.00     0.163 HD
BRANCH   4   7
ATOM      7  C   UNL A   1      33.056  21.893  26.458  1.00  0.00     0.168 C 
ATOM      8  C   UNL A   1      33.859  21.395  27.660  1.00  0.00     0.041 C 
BRANCH   7   9
ATOM      9  N   UNL A   1      31.741  22.440  26.800  1.00  0.00    -0.344 N 
ATOM     10  C   UNL A   1      31.345  23.733  26.926  1.00  0.00     0.225 C 
ATOM     11  O   UNL A   1      30.143  23.960  27.075  1.00  0.00    -0.275 OA
ATOM     12  H   UNL A   1      31.039  21.769  26.961  1.00  0.00     0.164 HD
BRANCH  10  13
ATOM     13  C   UNL A   1      32.366  24.861  26.925  1.00  0.00     0.143 C 
BRANCH  13  14
ATOM     14  C   UNL A   1      32.166  25.768  25.737  1.00  0.00     0.051 A 
ATOM     15  C   UNL A   1      30.983  27.566  27.056  1.00  0.00     0.046 C 
ATOM     16  C   UNL A   1      31.647  27.012  25.817  1.00  0.00    -0.029 A 
ATOM     17  C   UNL A   1      31.665  27.864  24.618  1.00  0.00     0.022 A 
ATOM     18  C   UNL A   1      32.652  25.206  24.447  1.00  0.00     0.340 A 
ATOM     19  C   UNL A   1      32.025  27.306  23.389  1.00  0.00     0.142 A 
ATOM     20  C   UNL A   1      31.205  29.184  24.657  1.00  0.00     0.024 A 
ATOM     21  O   UNL A   1      33.111  24.073  24.364  1.00  0.00    -0.246 OA
ATOM     22  O   UNL A   1      32.559  26.008  23.323  1.00  0.00    -0.422 OA
ATOM     23  C   UNL A   1      31.791  27.926  22.159  1.00  0.00     0.095 A 
ATOM     24  C   UNL A   1      30.768  29.743  23.450  1.00  0.00     0.025 A 
ATOM     25  C   UNL A   1      31.024  29.075  22.256  1.00  0.00     0.138 A 
ATOM     26  C   UNL A   1      29.806  30.737  23.157  1.00  0.00     0.001 A 
ATOM     27  O   UNL A   1      30.243  29.582  21.256  1.00  0.00    -0.461 OA
ATOM     28  C   UNL A   1      29.395  30.439  21.875  1.00  0.00     0.108 A 
ATOM     29  C   UNL A   1      28.885  31.451  24.078  1.00  0.00     0.040 C 
ATOM     30  C   UNL A   1      27.960  30.461  21.487  1.00  0.00     0.076 C 
ATOM     31  C   UNL A   1      27.510  30.745  24.055  1.00  0.00     0.005 C 
ATOM     32  C   UNL A   1      27.185  29.967  22.743  1.00  0.00     0.008 C 
ENDBRANCH  13  14
ENDBRANCH  10  13
ENDBRANCH   7   9
ENDBRANCH   4   7
ENDBRANCH   2   3
ENDBRANCH   1   2
BRANCH   1  33
ATOM     33  C   UNL A   1      37.688  20.953  24.689  1.00  0.00     0.023 C 
BRANCH  33  34
ATOM     34  C   UNL A   1      38.424  21.857  25.678  1.00  0.00     0.116 C 
BRANCH  34  35
ATOM     35  N   UNL A   1      39.405  21.149  26.475  1.00  0.00    -0.352 N 
ATOM     36  C   UNL A   1      40.519  21.672  27.120  1.00  0.00     0.251 C 
ATOM     37  H   UNL A   1      39.266  20.179  26.571  1.00  0.00     0.163 HD
ATOM     38  O   UNL A   1      41.310  20.959  27.697  1.00  0.00    -0.269 OA
BRANCH  36  39
ATOM     39  C   UNL A   1      40.716  23.131  27.024  1.00  0.00     0.039 A 
ATOM     40  C   UNL A   1      41.753  23.627  26.233  1.00  0.00     0.014 A 
ATOM     41  C   UNL A   1      39.986  23.962  27.876  1.00  0.00     0.014 A 
ATOM     42  C   UNL A   1      42.196  24.923  26.444  1.00  0.00     0.010 A 
ATOM     43  C   UNL A   1      40.392  25.285  28.037  1.00  0.00     0.010 A 
ATOM     44  C   UNL A   1      41.541  25.737  27.375  1.00  0.00    -0.014 A 
BRANCH  44  45
ATOM     45  C   UNL A   1      42.125  27.063  27.591  1.00  0.00     0.031 A 
ATOM     46  C   UNL A   1      41.126  28.165  27.631  1.00  0.00     0.074 A 
ATOM     47  C   UNL A   1      43.257  27.237  28.300  1.00  0.00     0.049 A 
ATOM     48  N   UNL A   1      40.422  28.438  28.688  1.00  0.00    -0.248 NA
ATOM     49  C   UNL A   1      40.682  28.848  26.418  1.00  0.00     0.031 C 
ATOM     50  C   UNL A   1      43.646  26.448  29.475  1.00  0.00     0.029 A 
ATOM     51  N   UNL A   1      44.145  28.283  28.280  1.00  0.00    -0.354 N 
ATOM     52  C   UNL A   1      39.411  29.288  28.286  1.00  0.00     0.074 A 
ATOM     53  C   UNL A   1      39.611  29.516  26.872  1.00  0.00     0.031 C 
ATOM     54  C   UNL A   1      44.562  27.147  30.176  1.00  0.00     0.029 A 
ATOM     55  C   UNL A   1      44.942  28.332  29.418  1.00  0.00     0.049 A 
ATOM     56  H   UNL A   1      44.210  28.929  27.540  1.00  0.00     0.167 HD
ATOM     57  C   UNL A   1      38.456  29.756  29.130  1.00  0.00     0.037 A 
ATOM     58  C   UNL A   1      45.493  29.472  29.919  1.00  0.00     0.037 A 
ATOM     59  C   UNL A   1      38.602  29.387  30.505  1.00  0.00     0.049 A 
ATOM     60  C   UNL A   1      44.278  30.073  30.588  1.00  0.00     0.074 A 
ATOM     61  C   UNL A   1      38.163  28.375  31.331  1.00  0.00     0.029 A 
ATOM     62  N   UNL A   1      39.459  30.132  31.284  1.00  0.00    -0.354 N 
ATOM     63  N   UNL A   1      43.795  29.728  31.754  1.00  0.00    -0.248 NA
ATOM     64  C   UNL A   1      43.345  30.836  29.752  1.00  0.00     0.031 C 
ATOM     65  C   UNL A   1      39.107  28.316  32.403  1.00  0.00     0.029 A 
ATOM     66  C   UNL A   1      40.097  29.259  32.130  1.00  0.00     0.049 A 
ATOM     67  H   UNL A   1      39.589  31.108  31.242  1.00  0.00     0.167 HD
ATOM     68  C   UNL A   1      42.419  29.967  31.671  1.00  0.00     0.074 A 
ATOM     69  C   UNL A   1      42.219  30.693  30.436  1.00  0.00     0.031 C 
ATOM     70  C   UNL A   1      41.493  29.390  32.490  1.00  0.00     0.037 A 
BRANCH  57  71
ATOM     71  C   UNL A   1      37.412  30.711  28.725  1.00  0.00     0.058 A 
ATOM     72  C   UNL A   1      37.607  32.073  28.987  1.00  0.00     0.135 A 
ATOM     73  C   UNL A   1      36.165  30.292  28.247  1.00  0.00     0.135 A 
ATOM     74  F   UNL A   1      38.795  32.505  29.441  1.00  0.00    -0.206 F 
ATOM     75  C   UNL A   1      36.580  32.992  28.832  1.00  0.00     0.059 A 
ATOM     76  C   UNL A   1      35.119  31.196  28.082  1.00  0.00     0.059 A 
ATOM     77  F   UNL A   1      35.941  28.996  27.980  1.00  0.00    -0.206 F 
ATOM     78  C   UNL A   1      35.331  32.538  28.404  1.00  0.00     0.060 A 
BRANCH  78  79
ATOM     79  S   UNL A   1      33.981  33.733  28.328  1.00  0.00     0.124 S 
ATOM     80  O   UNL A   1      34.597  34.832  27.592  1.00  0.00    -0.237 OA
ATOM     81  O   UNL A   1      32.954  32.984  27.612  1.00  0.00    -0.237 OA
ATOM     82  O   UNL A   1      33.690  34.006  29.732  1.00  0.00    -0.744 OA
ENDBRANCH  78  79
ENDBRANCH  57  71
BRANCH  58  83
ATOM     83  C   UNL A   1      46.366  30.165  28.913  1.00  0.00     0.058 A 
ATOM     84  C   UNL A   1      46.704  31.514  29.173  1.00  0.00     0.135 A 
ATOM     85  C   UNL A   1      46.970  29.587  27.790  1.00  0.00     0.135 A 
ATOM     86  F   UNL A   1      46.068  32.195  30.142  1.00  0.00    -0.206 F 
ATOM     87  C   UNL A   1      47.729  32.171  28.501  1.00  0.00     0.059 A 
ATOM     88  C   UNL A   1      48.017  30.215  27.112  1.00  0.00     0.059 A 
ATOM     89  F   UNL A   1      46.596  28.380  27.345  1.00  0.00    -0.206 F 
ATOM     90  C   UNL A   1      48.424  31.485  27.513  1.00  0.00     0.060 A 
BRANCH  90  91
ATOM     91  S   UNL A   1      49.914  32.244  26.835  1.00  0.00     0.124 S 
ATOM     92  O   UNL A   1      49.362  33.236  25.920  1.00  0.00    -0.237 OA
ATOM     93  O   UNL A   1      50.549  32.770  28.040  1.00  0.00    -0.237 OA
ATOM     94  O   UNL A   1      50.607  31.124  26.207  1.00  0.00    -0.744 OA
ENDBRANCH  90  91
ENDBRANCH  58  83
BRANCH  70  95
ATOM     95  C   UNL A   1      42.028  28.651  33.671  1.00  0.00     0.058 A 
ATOM     96  C   UNL A   1      41.983  29.234  34.944  1.00  0.00     0.135 A 
ATOM     97  C   UNL A   1      42.519  27.339  33.568  1.00  0.00     0.135 A 
ATOM     98  F   UNL A   1      41.515  30.484  35.102  1.00  0.00    -0.206 F 
ATOM     99  C   UNL A   1      42.369  28.529  36.081  1.00  0.00     0.059 A 
ATOM    100  C   UNL A   1      42.887  26.606  34.694  1.00  0.00     0.059 A 
ATOM    101  F   UNL A   1      42.612  26.733  32.372  1.00  0.00    -0.206 F 
ATOM    102  C   UNL A   1      42.802  27.209  35.947  1.00  0.00     0.060 A 
BRANCH 102 103
ATOM    103  S   UNL A   1      43.171  26.264  37.440  1.00  0.00     0.124 S 
ATOM    104  O   UNL A   1      43.770  25.051  36.893  1.00  0.00    -0.237 OA
ATOM    105  O   UNL A   1      44.082  27.152  38.157  1.00  0.00    -0.237 OA
ATOM    106  O   UNL A   1      41.863  26.090  38.066  1.00  0.00    -0.744 OA
ENDBRANCH 102 103
ENDBRANCH  70  95
ENDBRANCH  44  45
ENDBRANCH  36  39
ENDBRANCH  34  35
ENDBRANCH  33  34
ENDBRANCH   1  33
TORSDOF 17
ENDMDL
MODEL 2
REMARK VINA RESULT:     -12.9      8.860     14.203
REMARK SMILES Cc1c(CC(=O)N[C@@H](C)C(=O)NCCCCNC(=O)c2ccc(-c3c4nc(c(-c5c(F)cc(S(=O)(=O)[O-])cc5F)c5ccc([nH]5)c(-c5c(F)cc(S(=O)(=O)[O-])cc5F)c5nc(c(-c6c(F)cc(S(=O)(=O)[O-])cc6F)c6ccc3[nH]6)C=C5)C=C4)cc2)c(=O)oc2cc3oc4c(c3cc12)CCCC4
REMARK SMILES IDX 14 1 13 2 12 3 10 4 11 5 8 7 9 8 7 9 5 10 6 11 4 13 3 14
REMARK SMILES IDX 1 15 2 16 97 17 86 18 89 19 96 20 87 21 88 22 90 23 95 24
REMARK SMILES IDX 91 25 94 26 92 27 93 28 98 29 101 30 99 31 100 32 15 33
REMARK SMILES IDX 16 34 17 35 18 36 19 38 20 39 21 40 85 41 22 42 84 43 23 44
REMARK SMILES IDX 24 45 25 46 78 47 26 48 83 49 77 50 79 51 27 52 82 53 76 54
REMARK SMILES IDX 75 55 28 57 62 58 41 59 61 60 42 61 45 62 60 63 80 64 43 65
REMARK SMILES IDX 44 66 59 68 81 69 46 70 29 71 30 72 39 73 31 74 32 75 38 76
REMARK SMILES IDX 40 77 33 78 34 79 35 80 36 81 37 82 63 83 64 84 73 85 65 86
REMARK SMILES IDX 66 87 72 88 74 89 67 90 68 91 69 92 70 93 71 94 47 95 48 96
REMARK SMILES IDX 57 97 49 98 50 99 56 100 58 101 51 102 52 103 53 104 54 105
REMARK SMILES IDX 55 106
REMARK H PARENT 12 6 7 12 17 37 79 56 45 67
REMARK Flexibility Score: inf
ROOT
ATOM      1  C   UNL A   1      43.891  38.951  28.061  1.00  0.00     0.023 C 
ENDROOT
BRANCH   1   2
ATOM      2  C   UNL A   1      43.216  40.253  27.641  1.00  0.00     0.116 C 
BRANCH   2   3
ATOM      3  N   UNL A   1      43.932  41.426  28.128  1.00  0.00    -0.354 N 
ATOM      4  C   UNL A   1      44.549  42.443  27.462  1.00  0.00     0.242 C 
ATOM      5  O   UNL A   1      44.830  43.464  28.094  1.00  0.00    -0.273 OA
ATOM      6  H   UNL A   1      43.977  41.497  29.107  1.00  0.00     0.163 HD
BRANCH   4   7
ATOM      7  C   UNL A   1      44.773  42.363  25.954  1.00  0.00     0.168 C 
ATOM      8  C   UNL A   1      46.208  41.915  25.676  1.00  0.00     0.041 C 
BRANCH   7   9
ATOM      9  N   UNL A   1      44.418  43.649  25.350  1.00  0.00    -0.344 N 
ATOM     10  C   UNL A   1      43.870  43.915  24.135  1.00  0.00     0.225 C 
ATOM     11  O   UNL A   1      43.517  45.072  23.899  1.00  0.00    -0.275 OA
ATOM     12  H   UNL A   1      44.604  44.439  25.907  1.00  0.00     0.164 HD
BRANCH  10  13
ATOM     13  C   UNL A   1      43.737  42.821  23.088  1.00  0.00     0.143 C 
BRANCH  13  14
ATOM     14  C   UNL A   1      43.194  43.375  21.794  1.00  0.00     0.051 A 
ATOM     15  C   UNL A   1      45.409  44.318  21.035  1.00  0.00     0.046 C 
ATOM     16  C   UNL A   1      43.957  43.945  20.838  1.00  0.00    -0.029 A 
ATOM     17  C   UNL A   1      43.338  44.288  19.549  1.00  0.00     0.022 A 
ATOM     18  C   UNL A   1      41.728  43.187  21.614  1.00  0.00     0.340 A 
ATOM     19  C   UNL A   1      41.950  44.207  19.416  1.00  0.00     0.142 A 
ATOM     20  C   UNL A   1      44.092  44.817  18.497  1.00  0.00     0.024 A 
ATOM     21  O   UNL A   1      41.026  42.684  22.484  1.00  0.00    -0.246 OA
ATOM     22  O   UNL A   1      41.169  43.615  20.423  1.00  0.00    -0.422 OA
ATOM     23  C   UNL A   1      41.237  44.784  18.361  1.00  0.00     0.095 A 
ATOM     24  C   UNL A   1      43.409  45.581  17.543  1.00  0.00     0.025 A 
ATOM     25  C   UNL A   1      42.017  45.584  17.541  1.00  0.00     0.138 A 
ATOM     26  C   UNL A   1      43.815  46.654  16.717  1.00  0.00     0.001 A 
ATOM     27  O   UNL A   1      41.549  46.624  16.788  1.00  0.00    -0.461 OA
ATOM     28  C   UNL A   1      42.649  47.349  16.472  1.00  0.00     0.108 A 
ATOM     29  C   UNL A   1      45.119  47.365  16.677  1.00  0.00     0.040 C 
ATOM     30  C   UNL A   1      42.594  48.834  16.538  1.00  0.00     0.076 C 
ATOM     31  C   UNL A   1      45.014  48.647  17.532  1.00  0.00     0.005 C 
ATOM     32  C   UNL A   1      43.576  49.233  17.678  1.00  0.00     0.008 C 
ENDBRANCH  13  14
ENDBRANCH  10  13
ENDBRANCH   7   9
ENDBRANCH   4   7
ENDBRANCH   2   3
ENDBRANCH   1   2
BRANCH   1  33
ATOM     33  C   UNL A   1      45.190  38.653  27.312  1.00  0.00     0.023 C 
BRANCH  33  34
ATOM     34  C   UNL A   1      45.517  37.163  27.212  1.00  0.00     0.116 C 
BRANCH  34  35
ATOM     35  N   UNL A   1      44.732  36.474  26.206  1.00  0.00    -0.352 N 
ATOM     36  C   UNL A   1      43.745  35.516  26.402  1.00  0.00     0.251 C 
ATOM     37  H   UNL A   1      44.923  36.713  25.271  1.00  0.00     0.163 HD
ATOM     38  O   UNL A   1      43.213  34.956  25.469  1.00  0.00    -0.269 OA
BRANCH  36  39
ATOM     39  C   UNL A   1      43.415  35.180  27.800  1.00  0.00     0.039 A 
ATOM     40  C   UNL A   1      44.264  34.333  28.514  1.00  0.00     0.014 A 
ATOM     41  C   UNL A   1      42.171  35.560  28.303  1.00  0.00     0.014 A 
ATOM     42  C   UNL A   1      43.780  33.701  29.648  1.00  0.00     0.010 A 
ATOM     43  C   UNL A   1      41.712  34.972  29.480  1.00  0.00     0.010 A 
ATOM     44  C   UNL A   1      42.490  33.990  30.107  1.00  0.00    -0.014 A 
BRANCH  44  45
ATOM     45  C   UNL A   1      42.032  33.218  31.264  1.00  0.00     0.031 A 
ATOM     46  C   UNL A   1      40.578  33.360  31.550  1.00  0.00     0.074 A 
ATOM     47  C   UNL A   1      42.617  32.059  31.625  1.00  0.00     0.049 A 
ATOM     48  N   UNL A   1      39.667  32.698  30.903  1.00  0.00    -0.248 NA
ATOM     49  C   UNL A   1      40.060  34.434  32.393  1.00  0.00     0.031 C 
ATOM     50  C   UNL A   1      43.170  31.068  30.694  1.00  0.00     0.029 A 
ATOM     51  N   UNL A   1      42.611  31.422  32.840  1.00  0.00    -0.354 N 
ATOM     52  C   UNL A   1      38.456  33.288  31.205  1.00  0.00     0.074 A 
ATOM     53  C   UNL A   1      38.746  34.359  32.133  1.00  0.00     0.031 C 
ATOM     54  C   UNL A   1      43.261  29.884  31.334  1.00  0.00     0.029 A 
ATOM     55  C   UNL A   1      42.939  30.075  32.742  1.00  0.00     0.049 A 
ATOM     56  H   UNL A   1      42.397  31.871  33.690  1.00  0.00     0.167 HD
ATOM     57  C   UNL A   1      37.277  32.874  30.674  1.00  0.00     0.037 A 
ATOM     58  C   UNL A   1      42.518  29.118  33.614  1.00  0.00     0.037 A 
ATOM     59  C   UNL A   1      37.341  31.717  29.835  1.00  0.00     0.049 A 
ATOM     60  C   UNL A   1      41.096  28.939  33.132  1.00  0.00     0.074 A 
ATOM     61  C   UNL A   1      37.493  31.452  28.491  1.00  0.00     0.029 A 
ATOM     62  N   UNL A   1      37.342  30.481  30.442  1.00  0.00    -0.354 N 
ATOM     63  N   UNL A   1      40.721  28.236  32.093  1.00  0.00    -0.248 NA
ATOM     64  C   UNL A   1      40.087  29.887  33.613  1.00  0.00     0.031 C 
ATOM     65  C   UNL A   1      38.013  30.122  28.419  1.00  0.00     0.029 A 
ATOM     66  C   UNL A   1      38.201  29.682  29.728  1.00  0.00     0.049 A 
ATOM     67  H   UNL A   1      36.823  30.219  31.238  1.00  0.00     0.167 HD
ATOM     68  C   UNL A   1      39.564  28.865  31.619  1.00  0.00     0.074 A 
ATOM     69  C   UNL A   1      39.203  29.839  32.626  1.00  0.00     0.031 C 
ATOM     70  C   UNL A   1      39.080  28.716  30.353  1.00  0.00     0.037 A 
BRANCH  57  71
ATOM     71  C   UNL A   1      35.974  33.456  31.038  1.00  0.00     0.058 A 
ATOM     72  C   UNL A   1      35.309  34.256  30.101  1.00  0.00     0.135 A 
ATOM     73  C   UNL A   1      35.462  33.380  32.339  1.00  0.00     0.135 A 
ATOM     74  F   UNL A   1      35.774  34.345  28.844  1.00  0.00    -0.206 F 
ATOM     75  C   UNL A   1      34.196  35.006  30.453  1.00  0.00     0.059 A 
ATOM     76  C   UNL A   1      34.346  34.121  32.715  1.00  0.00     0.059 A 
ATOM     77  F   UNL A   1      36.069  32.620  33.263  1.00  0.00    -0.206 F 
ATOM     78  C   UNL A   1      33.738  34.951  31.770  1.00  0.00     0.060 A 
BRANCH  78  79
ATOM     79  S   UNL A   1      32.365  36.028  32.230  1.00  0.00     0.124 S 
ATOM     80  O   UNL A   1      32.944  36.797  33.327  1.00  0.00    -0.237 OA
ATOM     81  O   UNL A   1      32.131  36.763  30.992  1.00  0.00    -0.237 OA
ATOM     82  O   UNL A   1      31.311  35.091  32.609  1.00  0.00    -0.744 OA
ENDBRANCH  78  79
ENDBRANCH  57  71
BRANCH  58  83
ATOM     83  C   UNL A   1      42.927  29.423  35.026  1.00  0.00     0.058 A 
ATOM     84  C   UNL A   1      43.893  28.573  35.616  1.00  0.00     0.135 A 
ATOM     85  C   UNL A   1      42.529  30.524  35.793  1.00  0.00     0.135 A 
ATOM     86  F   UNL A   1      44.231  27.418  35.019  1.00  0.00    -0.206 F 
ATOM     87  C   UNL A   1      44.574  28.910  36.780  1.00  0.00     0.059 A 
ATOM     88  C   UNL A   1      43.210  30.898  36.953  1.00  0.00     0.059 A 
ATOM     89  F   UNL A   1      41.501  31.296  35.418  1.00  0.00    -0.206 F 
ATOM     90  C   UNL A   1      44.267  30.112  37.406  1.00  0.00     0.060 A 
BRANCH  90  91
ATOM     91  S   UNL A   1      45.329  30.666  38.756  1.00  0.00     0.124 S 
ATOM     92  O   UNL A   1      46.372  29.646  38.762  1.00  0.00    -0.237 OA
ATOM     93  O   UNL A   1      45.733  31.988  38.286  1.00  0.00    -0.237 OA
ATOM     94  O   UNL A   1      44.437  30.663  39.910  1.00  0.00    -0.744 OA
ENDBRANCH  90  91
ENDBRANCH  58  83
BRANCH  70  95
ATOM     95  C   UNL A   1      39.708  27.642  29.529  1.00  0.00     0.058 A 
ATOM     96  C   UNL A   1      39.224  26.329  29.598  1.00  0.00     0.135 A 
ATOM     97  C   UNL A   1      40.739  27.914  28.614  1.00  0.00     0.135 A 
ATOM     98  F   UNL A   1      38.234  26.015  30.450  1.00  0.00    -0.206 F 
ATOM     99  C   UNL A   1      39.712  25.330  28.762  1.00  0.00     0.059 A 
ATOM    100  C   UNL A   1      41.225  26.935  27.750  1.00  0.00     0.059 A 
ATOM    101  F   UNL A   1      41.264  29.147  28.517  1.00  0.00    -0.206 F 
ATOM    102  C   UNL A   1      40.700  25.647  27.828  1.00  0.00     0.060 A 
BRANCH 102 103
ATOM    103  S   UNL A   1      41.228  24.376  26.660  1.00  0.00     0.124 S 
ATOM    104  O   UNL A   1      41.645  25.172  25.510  1.00  0.00    -0.237 OA
ATOM    105  O   UNL A   1      42.301  23.706  27.389  1.00  0.00    -0.237 OA
ATOM    106  O   UNL A   1      40.024  23.572  26.463  1.00  0.00    -0.744 OA
ENDBRANCH 102 103
ENDBRANCH  70  95
ENDBRANCH  44  45
ENDBRANCH  36  39
ENDBRANCH  34  35
ENDBRANCH  33  34
ENDBRANCH   1  33
TORSDOF 17
ENDMDL
MODEL 3
REMARK VINA RESULT:     -12.2      2.919      8.778
REMARK SMILES Cc1c(CC(=O)N[C@@H](C)C(=O)NCCCCNC(=O)c2ccc(-c3c4nc(c(-c5c(F)cc(S(=O)(=O)[O-])cc5F)c5ccc([nH]5)c(-c5c(F)cc(S(=O)(=O)[O-])cc5F)c5nc(c(-c6c(F)cc(S(=O)(=O)[O-])cc6F)c6ccc3[nH]6)C=C5)C=C4)cc2)c(=O)oc2cc3oc4c(c3cc12)CCCC4
REMARK SMILES IDX 14 1 13 2 12 3 10 4 11 5 8 7 9 8 7 9 5 10 6 11 4 13 3 14
REMARK SMILES IDX 1 15 2 16 97 17 86 18 89 19 96 20 87 21 88 22 90 23 95 24
REMARK SMILES IDX 91 25 94 26 92 27 93 28 98 29 101 30 99 31 100 32 15 33
REMARK SMILES IDX 16 34 17 35 18 36 19 38 20 39 21 40 85 41 22 42 84 43 23 44
REMARK SMILES IDX 24 45 25 46 78 47 26 48 83 49 77 50 79 51 27 52 82 53 76 54
REMARK SMILES IDX 75 55 28 57 62 58 41 59 61 60 42 61 45 62 60 63 80 64 43 65
REMARK SMILES IDX 44 66 59 68 81 69 46 70 29 71 30 72 39 73 31 74 32 75 38 76
REMARK SMILES IDX 40 77 33 78 34 79 35 80 36 81 37 82 63 83 64 84 73 85 65 86
REMARK SMILES IDX 66 87 72 88 74 89 67 90 68 91 69 92 70 93 71 94 47 95 48 96
REMARK SMILES IDX 57 97 49 98 50 99 56 100 58 101 51 102 52 103 53 104 54 105
REMARK SMILES IDX 55 106
REMARK H PARENT 12 6 7 12 17 37 79 56 45 67
REMARK Flexibility Score: inf
ROOT
ATOM      1  C   UNL A   1      33.500  28.538  27.849  1.00  0.00     0.023 C 
ENDROOT
BRANCH   1   2
ATOM      2  C   UNL A   1      32.079  28.600  27.299  1.00  0.00     0.116 C 
BRANCH   2   3
ATOM      3  N   UNL A   1      31.736  29.929  26.807  1.00  0.00    -0.354 N 
ATOM      4  C   UNL A   1      31.415  30.370  25.558  1.00  0.00     0.242 C 
ATOM      5  O   UNL A   1      30.884  31.478  25.452  1.00  0.00    -0.273 OA
ATOM      6  H   UNL A   1      31.736  30.629  27.497  1.00  0.00     0.163 HD
BRANCH   4   7
ATOM      7  C   UNL A   1      31.596  29.464  24.342  1.00  0.00     0.168 C 
ATOM      8  C   UNL A   1      33.004  29.650  23.775  1.00  0.00     0.041 C 
BRANCH   7   9
ATOM      9  N   UNL A   1      30.522  29.732  23.383  1.00  0.00    -0.344 N 
ATOM     10  C   UNL A   1      29.999  28.929  22.420  1.00  0.00     0.225 C 
ATOM     11  O   UNL A   1      28.991  29.316  21.826  1.00  0.00    -0.275 OA
ATOM     12  H   UNL A   1      30.119  30.628  23.445  1.00  0.00     0.164 HD
BRANCH  10  13
ATOM     13  C   UNL A   1      30.666  27.610  22.063  1.00  0.00     0.143 C 
BRANCH  13  14
ATOM     14  C   UNL A   1      30.884  26.765  23.294  1.00  0.00     0.051 A 
ATOM     15  C   UNL A   1      33.340  26.389  22.844  1.00  0.00     0.046 C 
ATOM     16  C   UNL A   1      32.092  26.313  23.694  1.00  0.00    -0.029 A 
ATOM     17  C   UNL A   1      32.201  25.649  25.001  1.00  0.00     0.022 A 
ATOM     18  C   UNL A   1      29.652  26.511  24.091  1.00  0.00     0.340 A 
ATOM     19  C   UNL A   1      31.036  25.321  25.699  1.00  0.00     0.142 A 
ATOM     20  C   UNL A   1      33.435  25.220  25.499  1.00  0.00     0.024 A 
ATOM     21  O   UNL A   1      28.551  26.906  23.726  1.00  0.00    -0.246 OA
ATOM     22  O   UNL A   1      29.787  25.796  25.267  1.00  0.00    -0.422 OA
ATOM     23  C   UNL A   1      31.004  24.438  26.782  1.00  0.00     0.095 A 
ATOM     24  C   UNL A   1      33.420  24.181  26.437  1.00  0.00     0.025 A 
ATOM     25  C   UNL A   1      32.209  23.789  27.001  1.00  0.00     0.138 A 
ATOM     26  C   UNL A   1      34.355  23.167  26.747  1.00  0.00     0.001 A 
ATOM     27  O   UNL A   1      32.344  22.572  27.608  1.00  0.00    -0.461 OA
ATOM     28  C   UNL A   1      33.586  22.149  27.269  1.00  0.00     0.108 A 
ATOM     29  C   UNL A   1      35.647  22.850  26.086  1.00  0.00     0.040 C 
ATOM     30  C   UNL A   1      33.797  20.729  26.881  1.00  0.00     0.076 C 
ATOM     31  C   UNL A   1      35.420  21.709  25.068  1.00  0.00     0.005 C 
ATOM     32  C   UNL A   1      34.215  20.769  25.382  1.00  0.00     0.008 C 
ENDBRANCH  13  14
ENDBRANCH  10  13
ENDBRANCH   7   9
ENDBRANCH   4   7
ENDBRANCH   2   3
ENDBRANCH   1   2
BRANCH   1  33
ATOM     33  C   UNL A   1      34.586  28.782  26.802  1.00  0.00     0.023 C 
BRANCH  33  34
ATOM     34  C   UNL A   1      35.530  29.933  27.148  1.00  0.00     0.116 C 
BRANCH  34  35
ATOM     35  N   UNL A   1      34.851  31.206  27.285  1.00  0.00    -0.352 N 
ATOM     36  C   UNL A   1      35.098  32.210  28.214  1.00  0.00     0.251 C 
ATOM     37  H   UNL A   1      34.127  31.381  26.642  1.00  0.00     0.163 HD
ATOM     38  O   UNL A   1      34.405  33.202  28.273  1.00  0.00    -0.269 OA
BRANCH  36  39
ATOM     39  C   UNL A   1      36.211  31.983  29.155  1.00  0.00     0.039 A 
ATOM     40  C   UNL A   1      37.520  32.205  28.726  1.00  0.00     0.014 A 
ATOM     41  C   UNL A   1      35.938  31.369  30.378  1.00  0.00     0.014 A 
ATOM     42  C   UNL A   1      38.563  31.630  29.432  1.00  0.00     0.010 A 
ATOM     43  C   UNL A   1      36.995  30.848  31.121  1.00  0.00     0.010 A 
ATOM     44  C   UNL A   1      38.296  30.917  30.607  1.00  0.00    -0.014 A 
BRANCH  44  45
ATOM     45  C   UNL A   1      39.448  30.276  31.245  1.00  0.00     0.031 A 
ATOM     46  C   UNL A   1      39.710  28.890  30.770  1.00  0.00     0.074 A 
ATOM     47  C   UNL A   1      40.509  30.984  31.681  1.00  0.00     0.049 A 
ATOM     48  N   UNL A   1      40.337  28.634  29.661  1.00  0.00    -0.248 NA
ATOM     49  C   UNL A   1      39.061  27.730  31.378  1.00  0.00     0.031 C 
ATOM     50  C   UNL A   1      41.047  32.183  31.028  1.00  0.00     0.029 A 
ATOM     51  N   UNL A   1      41.454  30.650  32.618  1.00  0.00    -0.354 N 
ATOM     52  C   UNL A   1      40.133  27.296  29.388  1.00  0.00     0.074 A 
ATOM     53  C   UNL A   1      39.338  26.775  30.478  1.00  0.00     0.031 C 
ATOM     54  C   UNL A   1      42.317  32.364  31.446  1.00  0.00     0.029 A 
ATOM     55  C   UNL A   1      42.612  31.409  32.506  1.00  0.00     0.049 A 
ATOM     56  H   UNL A   1      41.325  29.947  33.296  1.00  0.00     0.167 HD
ATOM     57  C   UNL A   1      40.620  26.684  28.278  1.00  0.00     0.037 A 
ATOM     58  C   UNL A   1      43.847  30.986  32.894  1.00  0.00     0.037 A 
ATOM     59  C   UNL A   1      41.445  27.489  27.430  1.00  0.00     0.049 A 
ATOM     60  C   UNL A   1      44.181  30.073  31.736  1.00  0.00     0.074 A 
ATOM     61  C   UNL A   1      41.273  28.299  26.329  1.00  0.00     0.029 A 
ATOM     62  N   UNL A   1      42.773  27.627  27.768  1.00  0.00    -0.354 N 
ATOM     63  N   UNL A   1      44.618  30.450  30.561  1.00  0.00    -0.248 NA
ATOM     64  C   UNL A   1      43.650  28.706  31.769  1.00  0.00     0.031 C 
ATOM     65  C   UNL A   1      42.382  29.202  26.339  1.00  0.00     0.029 A 
ATOM     66  C   UNL A   1      43.129  28.922  27.482  1.00  0.00     0.049 A 
ATOM     67  H   UNL A   1      43.358  26.927  28.142  1.00  0.00     0.167 HD
ATOM     68  C   UNL A   1      44.143  29.490  29.663  1.00  0.00     0.074 A 
ATOM     69  C   UNL A   1      43.601  28.422  30.475  1.00  0.00     0.031 C 
ATOM     70  C   UNL A   1      44.022  29.696  28.319  1.00  0.00     0.037 A 
BRANCH  57  71
ATOM     71  C   UNL A   1      40.462  25.245  28.009  1.00  0.00     0.058 A 
ATOM     72  C   UNL A   1      41.475  24.368  28.418  1.00  0.00     0.135 A 
ATOM     73  C   UNL A   1      39.424  24.746  27.213  1.00  0.00     0.135 A 
ATOM     74  F   UNL A   1      42.481  24.818  29.186  1.00  0.00    -0.206 F 
ATOM     75  C   UNL A   1      41.493  23.044  28.006  1.00  0.00     0.059 A 
ATOM     76  C   UNL A   1      39.419  23.420  26.790  1.00  0.00     0.059 A 
ATOM     77  F   UNL A   1      38.433  25.554  26.806  1.00  0.00    -0.206 F 
ATOM     78  C   UNL A   1      40.473  22.587  27.170  1.00  0.00     0.060 A 
BRANCH  78  79
ATOM     79  S   UNL A   1      40.585  20.895  26.552  1.00  0.00     0.124 S 
ATOM     80  O   UNL A   1      39.295  20.734  25.889  1.00  0.00    -0.237 OA
ATOM     81  O   UNL A   1      41.747  20.972  25.673  1.00  0.00    -0.237 OA
ATOM     82  O   UNL A   1      40.771  20.102  27.763  1.00  0.00    -0.744 OA
ENDBRANCH  78  79
ENDBRANCH  57  71
BRANCH  58  83
ATOM     83  C   UNL A   1      43.881  30.601  34.344  1.00  0.00     0.058 A 
ATOM     84  C   UNL A   1      44.949  29.775  34.768  1.00  0.00     0.135 A 
ATOM     85  C   UNL A   1      43.022  31.058  35.351  1.00  0.00     0.135 A 
ATOM     86  F   UNL A   1      45.739  29.175  33.862  1.00  0.00    -0.206 F 
ATOM     87  C   UNL A   1      45.269  29.596  36.109  1.00  0.00     0.059 A 
ATOM     88  C   UNL A   1      43.332  30.912  36.705  1.00  0.00     0.059 A 
ATOM     89  F   UNL A   1      41.884  31.698  35.055  1.00  0.00    -0.206 F 
ATOM     90  C   UNL A   1      44.488  30.226  37.069  1.00  0.00     0.060 A 
BRANCH  90  91
ATOM     91  S   UNL A   1      45.061  30.208  38.781  1.00  0.00     0.124 S 
ATOM     92  O   UNL A   1      46.411  30.747  38.656  1.00  0.00    -0.237 OA
ATOM     93  O   UNL A   1      44.083  31.079  39.425  1.00  0.00    -0.237 OA
ATOM     94  O   UNL A   1      44.976  28.799  39.150  1.00  0.00    -0.744 OA
ENDBRANCH  90  91
ENDBRANCH  58  83
BRANCH  70  95
ATOM     95  C   UNL A   1      44.652  30.938  27.784  1.00  0.00     0.058 A 
ATOM     96  C   UNL A   1      43.982  32.164  27.881  1.00  0.00     0.135 A 
ATOM     97  C   UNL A   1      45.947  30.939  27.241  1.00  0.00     0.135 A 
ATOM     98  F   UNL A   1      42.743  32.221  28.399  1.00  0.00    -0.206 F 
ATOM     99  C   UNL A   1      44.588  33.356  27.494  1.00  0.00     0.059 A 
ATOM    100  C   UNL A   1      46.583  32.123  26.871  1.00  0.00     0.059 A 
ATOM    101  F   UNL A   1      46.634  29.793  27.097  1.00  0.00    -0.206 F 
ATOM    102  C   UNL A   1      45.896  33.327  27.008  1.00  0.00     0.060 A 
BRANCH 102 103
ATOM    103  S   UNL A   1      46.717  34.892  26.638  1.00  0.00     0.124 S 
ATOM    104  O   UNL A   1      47.831  34.882  27.579  1.00  0.00    -0.237 OA
ATOM    105  O   UNL A   1      47.075  34.732  25.231  1.00  0.00    -0.237 OA
ATOM    106  O   UNL A   1      45.683  35.890  26.899  1.00  0.00    -0.744 OA
ENDBRANCH 102 103
ENDBRANCH  70  95
ENDBRANCH  44  45
ENDBRANCH  36  39
ENDBRANCH  34  35
ENDBRANCH  33  34
ENDBRANCH   1  33
TORSDOF 17
ENDMDL
