MODEL 1
REMARK VINA RESULT:     -14.5      0.000      0.000
REMARK SMILES Cc1ccc(-c2cc(Cl)cc3c2O[C@H](C(F)(F)F)C(C(=O)NCCCCNC(=O)c2ccc(-c4c5nc(c(-c6c(F)cc(S(=O)(=O)[O-])cc6F)c6ccc([nH]6)c(-c6c(F)cc(S(=O)(=O)[O-])cc6F)c6nc(c(-c7c(F)cc(S(=O)(=O)[O-])cc7F)c7ccc4[nH]7)C=C6)C=C5)cc2)=C3)cc1F
REMARK SMILES IDX 25 1 24 2 23 3 22 4 20 5 21 6 19 8 6 9 7 10 12 11 8 12 11 13
REMARK SMILES IDX 13 14 9 15 10 16 96 17 14 18 5 19 1 20 2 21 3 22 98 23 4 24
REMARK SMILES IDX 97 25 99 26 15 27 16 28 17 29 18 30 26 31 27 32 28 33 29 35
REMARK SMILES IDX 30 36 31 37 95 38 32 39 94 40 33 41 34 42 35 43 88 44 36 45
REMARK SMILES IDX 93 46 87 47 89 48 37 49 92 50 86 51 85 52 38 54 72 55 51 56
REMARK SMILES IDX 71 57 52 58 55 59 70 60 90 61 53 62 54 63 69 65 91 66 56 67
REMARK SMILES IDX 39 68 40 69 49 70 41 71 42 72 48 73 50 74 43 75 44 76 45 77
REMARK SMILES IDX 46 78 47 79 73 80 74 81 83 82 75 83 76 84 82 85 84 86 77 87
REMARK SMILES IDX 78 88 79 89 80 90 81 91 57 92 58 93 67 94 59 95 60 96 66 97
REMARK SMILES IDX 68 98 61 99 62 100 63 101 64 102 65 103
REMARK H PARENT 22 7 27 34 89 53 55 64
REMARK Flexibility Score: inf
ROOT
ATOM      1  C   UNL A   1      32.968  29.738  26.669  1.00  0.00     0.023 C 
ENDROOT
BRANCH   1   2
ATOM      2  C   UNL A   1      32.748  28.697  25.582  1.00  0.00     0.023 C 
BRANCH   2   3
ATOM      3  C   UNL A   1      33.942  27.862  25.177  1.00  0.00     0.116 C 
BRANCH   3   4
ATOM      4  N   UNL A   1      33.992  27.652  23.744  1.00  0.00    -0.352 N 
ATOM      5  C   UNL A   1      33.798  26.588  22.933  1.00  0.00     0.251 C 
ATOM      6  O   UNL A   1      33.982  26.791  21.728  1.00  0.00    -0.270 OA
ATOM      7  H   UNL A   1      34.219  28.472  23.248  1.00  0.00     0.163 HD
BRANCH   5   8
ATOM      8  C   UNL A   1      33.366  25.236  23.396  1.00  0.00     0.067 C 
ATOM      9  C   UNL A   1      32.018  21.524  24.863  1.00  0.00     0.026 A 
ATOM     10  C   UNL A   1      31.014  21.508  25.840  1.00  0.00     0.033 A 
ATOM     11  C   UNL A   1      32.412  22.771  24.339  1.00  0.00     0.135 A 
ATOM     12  C   UNL A   1      30.432  22.703  26.272  1.00  0.00     0.042 A 
ATOM     13  C   UNL A   1      31.832  23.966  24.768  1.00  0.00     0.019 A 
ATOM     14  O   UNL A   1      33.344  22.752  23.340  1.00  0.00    -0.475 OA
ATOM     15  Cl  UNL A   1      29.200  22.660  27.476  1.00  0.00    -0.084 Cl
ATOM     16  C   UNL A   1      30.833  23.929  25.742  1.00  0.00     0.032 A 
ATOM     17  C   UNL A   1      32.271  25.225  24.181  1.00  0.00     0.025 C 
ATOM     18  C   UNL A   1      34.115  23.959  23.117  1.00  0.00     0.314 C 
BRANCH   9  19
ATOM     19  C   UNL A   1      32.651  20.280  24.395  1.00  0.00    -0.012 A 
ATOM     20  C   UNL A   1      34.242  16.423  23.249  1.00  0.00     0.047 C 
ATOM     21  C   UNL A   1      33.729  17.776  23.633  1.00  0.00    -0.015 A 
ATOM     22  C   UNL A   1      34.324  18.523  24.655  1.00  0.00     0.007 A 
ATOM     23  C   UNL A   1      32.608  18.300  22.991  1.00  0.00     0.126 A 
ATOM     24  C   UNL A   1      33.792  19.764  25.029  1.00  0.00     0.009 A 
ATOM     25  C   UNL A   1      32.075  19.533  23.355  1.00  0.00     0.048 A 
ATOM     26  F   UNL A   1      32.016  17.605  22.007  1.00  0.00    -0.207 F 
ENDBRANCH   9  19
BRANCH  18  27
ATOM     27  C   UNL A   1      35.451  23.856  23.868  1.00  0.00     0.429 C 
ATOM     28  F   UNL A   1      35.574  22.660  24.489  1.00  0.00    -0.167 F 
ATOM     29  F   UNL A   1      36.523  23.993  23.056  1.00  0.00    -0.167 F 
ATOM     30  F   UNL A   1      35.563  24.812  24.824  1.00  0.00    -0.167 F 
ENDBRANCH  18  27
ENDBRANCH   5   8
ENDBRANCH   3   4
ENDBRANCH   2   3
ENDBRANCH   1   2
BRANCH   1  31
ATOM     31  C   UNL A   1      34.431  30.009  27.022  1.00  0.00     0.116 C 
BRANCH  31  32
ATOM     32  N   UNL A   1      34.713  30.044  28.440  1.00  0.00    -0.352 N 
ATOM     33  C   UNL A   1      35.887  30.487  29.003  1.00  0.00     0.251 C 
ATOM     34  H   UNL A   1      34.009  29.726  29.051  1.00  0.00     0.163 HD
ATOM     35  O   UNL A   1      35.920  31.457  29.756  1.00  0.00    -0.269 OA
BRANCH  33  36
ATOM     36  C   UNL A   1      37.035  29.561  28.908  1.00  0.00     0.039 A 
ATOM     37  C   UNL A   1      37.430  28.728  29.956  1.00  0.00     0.014 A 
ATOM     38  C   UNL A   1      37.856  29.723  27.787  1.00  0.00     0.014 A 
ATOM     39  C   UNL A   1      38.713  28.191  29.958  1.00  0.00     0.010 A 
ATOM     40  C   UNL A   1      39.129  29.174  27.781  1.00  0.00     0.010 A 
ATOM     41  C   UNL A   1      39.579  28.459  28.890  1.00  0.00    -0.014 A 
BRANCH  41  42
ATOM     42  C   UNL A   1      40.937  27.924  28.861  1.00  0.00     0.031 A 
ATOM     43  C   UNL A   1      41.100  26.501  28.479  1.00  0.00     0.074 A 
ATOM     44  C   UNL A   1      42.006  28.630  29.300  1.00  0.00     0.049 A 
ATOM     45  N   UNL A   1      41.977  25.694  28.972  1.00  0.00    -0.248 NA
ATOM     46  C   UNL A   1      40.173  25.842  27.564  1.00  0.00     0.031 C 
ATOM     47  C   UNL A   1      43.399  28.204  29.276  1.00  0.00     0.029 A 
ATOM     48  N   UNL A   1      42.044  29.787  30.076  1.00  0.00    -0.354 N 
ATOM     49  C   UNL A   1      41.941  24.529  28.231  1.00  0.00     0.074 A 
ATOM     50  C   UNL A   1      40.711  24.622  27.483  1.00  0.00     0.031 C 
ATOM     51  C   UNL A   1      44.057  28.850  30.253  1.00  0.00     0.029 A 
ATOM     52  C   UNL A   1      43.074  29.609  31.009  1.00  0.00     0.049 A 
ATOM     53  H   UNL A   1      41.462  30.576  29.986  1.00  0.00     0.167 HD
ATOM     54  C   UNL A   1      43.037  23.712  28.229  1.00  0.00     0.037 A 
ATOM     55  C   UNL A   1      42.957  29.587  32.374  1.00  0.00     0.037 A 
ATOM     56  C   UNL A   1      44.027  24.198  29.193  1.00  0.00     0.049 A 
ATOM     57  C   UNL A   1      43.550  28.353  32.998  1.00  0.00     0.074 A 
ATOM     58  C   UNL A   1      45.141  25.008  29.044  1.00  0.00     0.029 A 
ATOM     59  N   UNL A   1      43.770  24.118  30.556  1.00  0.00    -0.354 N 
ATOM     60  N   UNL A   1      43.715  27.240  32.342  1.00  0.00    -0.248 NA
ATOM     61  C   UNL A   1      43.982  28.251  34.388  1.00  0.00     0.031 C 
ATOM     62  C   UNL A   1      45.508  25.481  30.327  1.00  0.00     0.029 A 
ATOM     63  C   UNL A   1      44.641  24.931  31.257  1.00  0.00     0.049 A 
ATOM     64  H   UNL A   1      43.069  23.563  30.965  1.00  0.00     0.167 HD
ATOM     65  C   UNL A   1      44.277  26.299  33.162  1.00  0.00     0.074 A 
ATOM     66  C   UNL A   1      44.425  26.981  34.435  1.00  0.00     0.031 C 
ATOM     67  C   UNL A   1      44.575  25.045  32.709  1.00  0.00     0.037 A 
BRANCH  54  68
ATOM     68  C   UNL A   1      43.381  22.666  27.169  1.00  0.00     0.058 A 
ATOM     69  C   UNL A   1      42.654  21.451  27.109  1.00  0.00     0.135 A 
ATOM     70  C   UNL A   1      44.442  22.739  26.245  1.00  0.00     0.135 A 
ATOM     71  F   UNL A   1      41.563  21.248  27.860  1.00  0.00    -0.206 F 
ATOM     72  C   UNL A   1      43.008  20.378  26.282  1.00  0.00     0.059 A 
ATOM     73  C   UNL A   1      44.832  21.672  25.427  1.00  0.00     0.059 A 
ATOM     74  F   UNL A   1      45.137  23.859  26.044  1.00  0.00    -0.206 F 
ATOM     75  C   UNL A   1      44.119  20.486  25.461  1.00  0.00     0.060 A 
BRANCH  75  76
ATOM     76  S   UNL A   1      44.596  19.090  24.427  1.00  0.00     0.124 S 
ATOM     77  O   UNL A   1      43.607  18.084  24.800  1.00  0.00    -0.237 OA
ATOM     78  O   UNL A   1      44.468  19.643  23.084  1.00  0.00    -0.237 OA
ATOM     79  O   UNL A   1      45.964  18.802  24.853  1.00  0.00    -0.744 OA
ENDBRANCH  75  76
ENDBRANCH  54  68
BRANCH  55  80
ATOM     80  C   UNL A   1      41.836  30.375  32.963  1.00  0.00     0.058 A 
ATOM     81  C   UNL A   1      42.072  31.752  33.108  1.00  0.00     0.135 A 
ATOM     82  C   UNL A   1      40.539  29.962  32.643  1.00  0.00     0.135 A 
ATOM     83  F   UNL A   1      43.261  32.181  33.557  1.00  0.00    -0.206 F 
ATOM     84  C   UNL A   1      41.177  32.687  32.605  1.00  0.00     0.059 A 
ATOM     85  C   UNL A   1      39.678  30.869  32.038  1.00  0.00     0.059 A 
ATOM     86  F   UNL A   1      40.232  28.658  32.592  1.00  0.00    -0.206 F 
ATOM     87  C   UNL A   1      40.043  32.218  31.951  1.00  0.00     0.060 A 
BRANCH  87  88
ATOM     88  S   UNL A   1      39.271  33.241  30.659  1.00  0.00     0.124 S 
ATOM     89  O   UNL A   1      39.141  32.312  29.542  1.00  0.00    -0.237 OA
ATOM     90  O   UNL A   1      38.015  33.659  31.272  1.00  0.00    -0.237 OA
ATOM     91  O   UNL A   1      40.268  34.293  30.509  1.00  0.00    -0.744 OA
ENDBRANCH  87  88
ENDBRANCH  55  80
BRANCH  67  92
ATOM     92  C   UNL A   1      44.956  23.858  33.561  1.00  0.00     0.058 A 
ATOM     93  C   UNL A   1      44.058  22.853  33.957  1.00  0.00     0.135 A 
ATOM     94  C   UNL A   1      46.312  23.626  33.903  1.00  0.00     0.135 A 
ATOM     95  F   UNL A   1      42.770  22.878  33.585  1.00  0.00    -0.206 F 
ATOM     96  C   UNL A   1      44.454  21.748  34.712  1.00  0.00     0.059 A 
ATOM     97  C   UNL A   1      46.739  22.502  34.604  1.00  0.00     0.059 A 
ATOM     98  F   UNL A   1      47.282  24.484  33.553  1.00  0.00    -0.206 F 
ATOM     99  C   UNL A   1      45.797  21.583  35.036  1.00  0.00     0.060 A 
BRANCH  99 100
ATOM    100  S   UNL A   1      46.315  20.135  35.973  1.00  0.00     0.124 S 
ATOM    101  O   UNL A   1      47.768  20.234  35.878  1.00  0.00    -0.237 OA
ATOM    102  O   UNL A   1      45.752  20.390  37.296  1.00  0.00    -0.237 OA
ATOM    103  O   UNL A   1      45.705  19.027  35.245  1.00  0.00    -0.744 OA
ENDBRANCH  99 100
ENDBRANCH  67  92
ENDBRANCH  41  42
ENDBRANCH  33  36
ENDBRANCH  31  32
ENDBRANCH   1  31
TORSDOF 16
ENDMDL
MODEL 2
REMARK VINA RESULT:     -14.4      1.567      2.292
REMARK SMILES Cc1ccc(-c2cc(Cl)cc3c2O[C@H](C(F)(F)F)C(C(=O)NCCCCNC(=O)c2ccc(-c4c5nc(c(-c6c(F)cc(S(=O)(=O)[O-])cc6F)c6ccc([nH]6)c(-c6c(F)cc(S(=O)(=O)[O-])cc6F)c6nc(c(-c7c(F)cc(S(=O)(=O)[O-])cc7F)c7ccc4[nH]7)C=C6)C=C5)cc2)=C3)cc1F
REMARK SMILES IDX 25 1 24 2 23 3 22 4 20 5 21 6 19 8 6 9 7 10 12 11 8 12 11 13
REMARK SMILES IDX 13 14 9 15 10 16 96 17 14 18 5 19 1 20 2 21 3 22 98 23 4 24
REMARK SMILES IDX 97 25 99 26 15 27 16 28 17 29 18 30 26 31 27 32 28 33 29 35
REMARK SMILES IDX 30 36 31 37 95 38 32 39 94 40 33 41 34 42 35 43 88 44 36 45
REMARK SMILES IDX 93 46 87 47 89 48 37 49 92 50 86 51 85 52 38 54 72 55 51 56
REMARK SMILES IDX 71 57 52 58 55 59 70 60 90 61 53 62 54 63 69 65 91 66 56 67
REMARK SMILES IDX 39 68 40 69 49 70 41 71 42 72 48 73 50 74 43 75 44 76 45 77
REMARK SMILES IDX 46 78 47 79 73 80 74 81 83 82 75 83 76 84 82 85 84 86 77 87
REMARK SMILES IDX 78 88 79 89 80 90 81 91 57 92 58 93 67 94 59 95 60 96 66 97
REMARK SMILES IDX 68 98 61 99 62 100 63 101 64 102 65 103
REMARK H PARENT 22 7 27 34 89 53 55 64
REMARK Flexibility Score: inf
ROOT
ATOM      1  C   UNL A   1      34.150  28.498  26.862  1.00  0.00     0.023 C 
ENDROOT
BRANCH   1   2
ATOM      2  C   UNL A   1      32.689  28.124  27.065  1.00  0.00     0.023 C 
BRANCH   2   3
ATOM      3  C   UNL A   1      32.189  26.891  26.346  1.00  0.00     0.116 C 
BRANCH   3   4
ATOM      4  N   UNL A   1      32.436  26.962  24.920  1.00  0.00    -0.352 N 
ATOM      5  C   UNL A   1      33.053  26.161  24.022  1.00  0.00     0.251 C 
ATOM      6  O   UNL A   1      33.107  26.593  22.866  1.00  0.00    -0.270 OA
ATOM      7  H   UNL A   1      32.070  27.779  24.511  1.00  0.00     0.163 HD
BRANCH   5   8
ATOM      8  C   UNL A   1      33.632  24.821  24.337  1.00  0.00     0.067 C 
ATOM      9  C   UNL A   1      35.474  21.137  25.218  1.00  0.00     0.026 A 
ATOM     10  C   UNL A   1      36.856  21.110  25.447  1.00  0.00     0.033 A 
ATOM     11  C   UNL A   1      34.865  22.386  24.987  1.00  0.00     0.135 A 
ATOM     12  C   UNL A   1      37.594  22.296  25.442  1.00  0.00     0.042 A 
ATOM     13  C   UNL A   1      35.601  23.573  24.982  1.00  0.00     0.019 A 
ATOM     14  O   UNL A   1      33.507  22.390  24.834  1.00  0.00    -0.475 OA
ATOM     15  Cl  UNL A   1      39.293  22.240  25.724  1.00  0.00    -0.084 Cl
ATOM     16  C   UNL A   1      36.976  23.525  25.213  1.00  0.00     0.032 A 
ATOM     17  C   UNL A   1      34.914  24.837  24.750  1.00  0.00     0.025 C 
ATOM     18  C   UNL A   1      32.913  23.512  24.137  1.00  0.00     0.314 C 
BRANCH   9  19
ATOM     19  C   UNL A   1      34.674  19.900  25.213  1.00  0.00    -0.012 A 
ATOM     20  C   UNL A   1      32.208  16.367  24.823  1.00  0.00     0.047 C 
ATOM     21  C   UNL A   1      33.060  17.585  25.001  1.00  0.00    -0.015 A 
ATOM     22  C   UNL A   1      32.580  18.727  25.652  1.00  0.00     0.007 A 
ATOM     23  C   UNL A   1      34.352  17.610  24.477  1.00  0.00     0.126 A 
ATOM     24  C   UNL A   1      33.381  19.871  25.759  1.00  0.00     0.009 A 
ATOM     25  C   UNL A   1      35.154  18.741  24.582  1.00  0.00     0.048 A 
ATOM     26  F   UNL A   1      34.838  16.529  23.848  1.00  0.00    -0.207 F 
ENDBRANCH   9  19
BRANCH  18  27
ATOM     27  C   UNL A   1      32.713  23.146  22.659  1.00  0.00     0.429 C 
ATOM     28  F   UNL A   1      31.741  23.899  22.094  1.00  0.00    -0.167 F 
ATOM     29  F   UNL A   1      33.829  23.319  21.917  1.00  0.00    -0.167 F 
ATOM     30  F   UNL A   1      32.345  21.848  22.509  1.00  0.00    -0.167 F 
ENDBRANCH  18  27
ENDBRANCH   5   8
ENDBRANCH   3   4
ENDBRANCH   2   3
ENDBRANCH   1   2
BRANCH   1  31
ATOM     31  C   UNL A   1      34.524  29.916  27.295  1.00  0.00     0.116 C 
BRANCH  31  32
ATOM     32  N   UNL A   1      34.909  30.041  28.684  1.00  0.00    -0.352 N 
ATOM     33  C   UNL A   1      36.118  30.517  29.131  1.00  0.00     0.251 C 
ATOM     34  H   UNL A   1      34.252  29.763  29.363  1.00  0.00     0.163 HD
ATOM     35  O   UNL A   1      36.203  31.533  29.816  1.00  0.00    -0.269 OA
BRANCH  33  36
ATOM     36  C   UNL A   1      37.260  29.585  29.011  1.00  0.00     0.039 A 
ATOM     37  C   UNL A   1      37.669  28.745  30.048  1.00  0.00     0.014 A 
ATOM     38  C   UNL A   1      38.062  29.748  27.876  1.00  0.00     0.014 A 
ATOM     39  C   UNL A   1      38.949  28.201  30.025  1.00  0.00     0.010 A 
ATOM     40  C   UNL A   1      39.332  29.192  27.845  1.00  0.00     0.010 A 
ATOM     41  C   UNL A   1      39.797  28.470  28.943  1.00  0.00    -0.014 A 
BRANCH  41  42
ATOM     42  C   UNL A   1      41.152  27.927  28.887  1.00  0.00     0.031 A 
ATOM     43  C   UNL A   1      41.301  26.508  28.485  1.00  0.00     0.074 A 
ATOM     44  C   UNL A   1      42.230  28.622  29.320  1.00  0.00     0.049 A 
ATOM     45  N   UNL A   1      42.181  25.691  28.954  1.00  0.00    -0.248 NA
ATOM     46  C   UNL A   1      40.357  25.868  27.574  1.00  0.00     0.031 C 
ATOM     47  C   UNL A   1      43.621  28.189  29.271  1.00  0.00     0.029 A 
ATOM     48  N   UNL A   1      42.287  29.768  30.111  1.00  0.00    -0.354 N 
ATOM     49  C   UNL A   1      42.127  24.536  28.199  1.00  0.00     0.074 A 
ATOM     50  C   UNL A   1      40.887  24.645  27.470  1.00  0.00     0.031 C 
ATOM     51  C   UNL A   1      44.296  28.817  30.247  1.00  0.00     0.029 A 
ATOM     52  C   UNL A   1      43.328  29.572  31.027  1.00  0.00     0.049 A 
ATOM     53  H   UNL A   1      41.708  30.561  30.040  1.00  0.00     0.167 HD
ATOM     54  C   UNL A   1      43.219  23.713  28.170  1.00  0.00     0.037 A 
ATOM     55  C   UNL A   1      43.231  29.533  32.393  1.00  0.00     0.037 A 
ATOM     56  C   UNL A   1      44.225  24.180  29.127  1.00  0.00     0.049 A 
ATOM     57  C   UNL A   1      43.825  28.287  32.992  1.00  0.00     0.074 A 
ATOM     58  C   UNL A   1      45.341  24.986  28.972  1.00  0.00     0.029 A 
ATOM     59  N   UNL A   1      43.987  24.084  30.492  1.00  0.00    -0.354 N 
ATOM     60  N   UNL A   1      43.975  27.182  32.319  1.00  0.00    -0.248 NA
ATOM     61  C   UNL A   1      44.276  28.164  34.375  1.00  0.00     0.031 C 
ATOM     62  C   UNL A   1      45.729  25.440  30.256  1.00  0.00     0.029 A 
ATOM     63  C   UNL A   1      44.872  24.883  31.191  1.00  0.00     0.049 A 
ATOM     64  H   UNL A   1      43.288  23.527  30.904  1.00  0.00     0.167 HD
ATOM     65  C   UNL A   1      44.543  26.228  33.119  1.00  0.00     0.074 A 
ATOM     66  C   UNL A   1      44.713  26.891  34.398  1.00  0.00     0.031 C 
ATOM     67  C   UNL A   1      44.827  24.978  32.645  1.00  0.00     0.037 A 
BRANCH  54  68
ATOM     68  C   UNL A   1      43.541  22.679  27.092  1.00  0.00     0.058 A 
ATOM     69  C   UNL A   1      42.762  21.500  26.983  1.00  0.00     0.135 A 
ATOM     70  C   UNL A   1      44.628  22.727  26.195  1.00  0.00     0.135 A 
ATOM     71  F   UNL A   1      41.645  21.328  27.703  1.00  0.00    -0.206 F 
ATOM     72  C   UNL A   1      43.089  20.433  26.137  1.00  0.00     0.059 A 
ATOM     73  C   UNL A   1      44.989  21.664  25.359  1.00  0.00     0.059 A 
ATOM     74  F   UNL A   1      45.376  23.819  26.040  1.00  0.00    -0.206 F 
ATOM     75  C   UNL A   1      44.223  20.511  25.346  1.00  0.00     0.060 A 
BRANCH  75  76
ATOM     76  S   UNL A   1      44.662  19.121  24.288  1.00  0.00     0.124 S 
ATOM     77  O   UNL A   1      46.067  18.914  24.624  1.00  0.00    -0.237 OA
ATOM     78  O   UNL A   1      43.738  18.086  24.738  1.00  0.00    -0.237 OA
ATOM     79  O   UNL A   1      44.416  19.628  22.939  1.00  0.00    -0.744 OA
ENDBRANCH  75  76
ENDBRANCH  54  68
BRANCH  55  80
ATOM     80  C   UNL A   1      42.122  30.319  33.009  1.00  0.00     0.058 A 
ATOM     81  C   UNL A   1      42.364  31.694  33.158  1.00  0.00     0.135 A 
ATOM     82  C   UNL A   1      40.819  29.910  32.710  1.00  0.00     0.135 A 
ATOM     83  F   UNL A   1      43.563  32.118  33.587  1.00  0.00    -0.206 F 
ATOM     84  C   UNL A   1      41.462  32.634  32.678  1.00  0.00     0.059 A 
ATOM     85  C   UNL A   1      39.949  30.823  32.128  1.00  0.00     0.059 A 
ATOM     86  F   UNL A   1      40.509  28.607  32.657  1.00  0.00    -0.206 F 
ATOM     87  C   UNL A   1      40.314  32.172  32.042  1.00  0.00     0.060 A 
BRANCH  87  88
ATOM     88  S   UNL A   1      39.520  33.205  30.772  1.00  0.00     0.124 S 
ATOM     89  O   UNL A   1      40.476  34.292  30.592  1.00  0.00    -0.237 OA
ATOM     90  O   UNL A   1      39.387  32.296  29.639  1.00  0.00    -0.237 OA
ATOM     91  O   UNL A   1      38.271  33.550  31.440  1.00  0.00    -0.744 OA
ENDBRANCH  87  88
ENDBRANCH  55  80
BRANCH  67  92
ATOM     92  C   UNL A   1      45.213  23.778  33.476  1.00  0.00     0.058 A 
ATOM     93  C   UNL A   1      46.512  23.538  33.957  1.00  0.00     0.135 A 
ATOM     94  C   UNL A   1      44.222  22.875  33.936  1.00  0.00     0.135 A 
ATOM     95  F   UNL A   1      47.518  24.389  33.711  1.00  0.00    -0.206 F 
ATOM     96  C   UNL A   1      46.824  22.437  34.757  1.00  0.00     0.059 A 
ATOM     97  C   UNL A   1      44.499  21.805  34.782  1.00  0.00     0.059 A 
ATOM     98  F   UNL A   1      42.933  23.009  33.588  1.00  0.00    -0.206 F 
ATOM     99  C   UNL A   1      45.811  21.572  35.161  1.00  0.00     0.060 A 
BRANCH  99 100
ATOM    100  S   UNL A   1      46.207  20.177  36.228  1.00  0.00     0.124 S 
ATOM    101  O   UNL A   1      47.665  20.160  36.154  1.00  0.00    -0.237 OA
ATOM    102  O   UNL A   1      45.647  20.587  37.513  1.00  0.00    -0.237 OA
ATOM    103  O   UNL A   1      45.526  19.058  35.586  1.00  0.00    -0.744 OA
ENDBRANCH  99 100
ENDBRANCH  67  92
ENDBRANCH  41  42
ENDBRANCH  33  36
ENDBRANCH  31  32
ENDBRANCH   1  31
TORSDOF 16
ENDMDL
MODEL 3
REMARK VINA RESULT:     -14.4      1.399      1.926
REMARK SMILES Cc1ccc(-c2cc(Cl)cc3c2O[C@H](C(F)(F)F)C(C(=O)NCCCCNC(=O)c2ccc(-c4c5nc(c(-c6c(F)cc(S(=O)(=O)[O-])cc6F)c6ccc([nH]6)c(-c6c(F)cc(S(=O)(=O)[O-])cc6F)c6nc(c(-c7c(F)cc(S(=O)(=O)[O-])cc7F)c7ccc4[nH]7)C=C6)C=C5)cc2)=C3)cc1F
REMARK SMILES IDX 25 1 24 2 23 3 22 4 20 5 21 6 19 8 6 9 7 10 12 11 8 12 11 13
REMARK SMILES IDX 13 14 9 15 10 16 96 17 14 18 5 19 1 20 2 21 3 22 98 23 4 24
REMARK SMILES IDX 97 25 99 26 15 27 16 28 17 29 18 30 26 31 27 32 28 33 29 35
REMARK SMILES IDX 30 36 31 37 95 38 32 39 94 40 33 41 34 42 35 43 88 44 36 45
REMARK SMILES IDX 93 46 87 47 89 48 37 49 92 50 86 51 85 52 38 54 72 55 51 56
REMARK SMILES IDX 71 57 52 58 55 59 70 60 90 61 53 62 54 63 69 65 91 66 56 67
REMARK SMILES IDX 39 68 40 69 49 70 41 71 42 72 48 73 50 74 43 75 44 76 45 77
REMARK SMILES IDX 46 78 47 79 73 80 74 81 83 82 75 83 76 84 82 85 84 86 77 87
REMARK SMILES IDX 78 88 79 89 80 90 81 91 57 92 58 93 67 94 59 95 60 96 66 97
REMARK SMILES IDX 68 98 61 99 62 100 63 101 64 102 65 103
REMARK H PARENT 22 7 27 34 89 53 55 64
REMARK Flexibility Score: inf
ROOT
ATOM      1  C   UNL A   1      32.890  30.109  26.868  1.00  0.00     0.023 C 
ENDROOT
BRANCH   1   2
ATOM      2  C   UNL A   1      32.483  30.012  25.405  1.00  0.00     0.023 C 
BRANCH   2   3
ATOM      3  C   UNL A   1      31.126  29.417  25.107  1.00  0.00     0.116 C 
BRANCH   3   4
ATOM      4  N   UNL A   1      31.019  28.982  23.729  1.00  0.00    -0.352 N 
ATOM      5  C   UNL A   1      31.191  27.804  23.088  1.00  0.00     0.251 C 
ATOM      6  O   UNL A   1      31.054  27.835  21.861  1.00  0.00    -0.270 OA
ATOM      7  H   UNL A   1      30.761  29.711  23.120  1.00  0.00     0.163 HD
BRANCH   5   8
ATOM      8  C   UNL A   1      31.505  26.509  23.763  1.00  0.00     0.067 C 
ATOM      9  C   UNL A   1      32.196  22.882  25.789  1.00  0.00     0.026 A 
ATOM     10  C   UNL A   1      31.202  22.385  26.644  1.00  0.00     0.033 A 
ATOM     11  C   UNL A   1      31.922  24.063  25.073  1.00  0.00     0.135 A 
ATOM     12  C   UNL A   1      29.983  23.055  26.771  1.00  0.00     0.042 A 
ATOM     13  C   UNL A   1      30.704  24.734  25.197  1.00  0.00     0.019 A 
ATOM     14  O   UNL A   1      32.882  24.487  24.196  1.00  0.00    -0.475 OA
ATOM     15  Cl  UNL A   1      28.776  22.428  27.829  1.00  0.00    -0.084 Cl
ATOM     16  C   UNL A   1      29.727  24.223  26.053  1.00  0.00     0.032 A 
ATOM     17  C   UNL A   1      30.474  25.944  24.420  1.00  0.00     0.025 C 
ATOM     18  C   UNL A   1      32.875  25.885  23.818  1.00  0.00     0.314 C 
BRANCH   9  19
ATOM     19  C   UNL A   1      33.492  22.197  25.642  1.00  0.00    -0.012 A 
ATOM     20  C   UNL A   1      37.357  20.411  24.877  1.00  0.00     0.047 C 
ATOM     21  C   UNL A   1      36.009  20.996  25.166  1.00  0.00    -0.015 A 
ATOM     22  C   UNL A   1      34.832  20.363  24.752  1.00  0.00     0.007 A 
ATOM     23  C   UNL A   1      35.911  22.217  25.831  1.00  0.00     0.126 A 
ATOM     24  C   UNL A   1      33.587  20.958  24.991  1.00  0.00     0.009 A 
ATOM     25  C   UNL A   1      34.678  22.812  26.074  1.00  0.00     0.048 A 
ATOM     26  F   UNL A   1      37.024  22.846  26.240  1.00  0.00    -0.207 F 
ENDBRANCH   9  19
BRANCH  18  27
ATOM     27  C   UNL A   1      33.863  26.657  24.706  1.00  0.00     0.429 C 
ATOM     28  F   UNL A   1      34.946  25.902  25.006  1.00  0.00    -0.167 F 
ATOM     29  F   UNL A   1      34.319  27.789  24.125  1.00  0.00    -0.167 F 
ATOM     30  F   UNL A   1      33.298  27.025  25.883  1.00  0.00    -0.167 F 
ENDBRANCH  18  27
ENDBRANCH   5   8
ENDBRANCH   3   4
ENDBRANCH   2   3
ENDBRANCH   1   2
BRANCH   1  31
ATOM     31  C   UNL A   1      34.386  29.953  27.139  1.00  0.00     0.116 C 
BRANCH  31  32
ATOM     32  N   UNL A   1      34.767  30.093  28.528  1.00  0.00    -0.352 N 
ATOM     33  C   UNL A   1      35.975  30.572  28.973  1.00  0.00     0.251 C 
ATOM     34  H   UNL A   1      34.107  29.824  29.208  1.00  0.00     0.163 HD
ATOM     35  O   UNL A   1      36.059  31.596  29.647  1.00  0.00    -0.269 OA
BRANCH  33  36
ATOM     36  C   UNL A   1      37.116  29.637  28.868  1.00  0.00     0.039 A 
ATOM     37  C   UNL A   1      37.498  28.784  29.905  1.00  0.00     0.014 A 
ATOM     38  C   UNL A   1      37.943  29.809  27.753  1.00  0.00     0.014 A 
ATOM     39  C   UNL A   1      38.777  28.234  29.904  1.00  0.00     0.010 A 
ATOM     40  C   UNL A   1      39.211  29.249  27.744  1.00  0.00     0.010 A 
ATOM     41  C   UNL A   1      39.650  28.512  28.843  1.00  0.00    -0.014 A 
BRANCH  41  42
ATOM     42  C   UNL A   1      41.003  27.965  28.812  1.00  0.00     0.031 A 
ATOM     43  C   UNL A   1      41.152  26.539  28.432  1.00  0.00     0.074 A 
ATOM     44  C   UNL A   1      42.079  28.662  29.247  1.00  0.00     0.049 A 
ATOM     45  N   UNL A   1      42.024  25.726  28.924  1.00  0.00    -0.248 NA
ATOM     46  C   UNL A   1      40.217  25.888  27.520  1.00  0.00     0.031 C 
ATOM     47  C   UNL A   1      43.468  28.224  29.220  1.00  0.00     0.029 A 
ATOM     48  N   UNL A   1      42.130  29.820  30.021  1.00  0.00    -0.354 N 
ATOM     49  C   UNL A   1      41.975  24.560  28.185  1.00  0.00     0.074 A 
ATOM     50  C   UNL A   1      40.744  24.663  27.440  1.00  0.00     0.031 C 
ATOM     51  C   UNL A   1      44.134  28.865  30.195  1.00  0.00     0.029 A 
ATOM     52  C   UNL A   1      43.160  29.635  30.952  1.00  0.00     0.049 A 
ATOM     53  H   UNL A   1      41.554  30.614  29.931  1.00  0.00     0.167 HD
ATOM     54  C   UNL A   1      43.064  23.734  28.181  1.00  0.00     0.037 A 
ATOM     55  C   UNL A   1      43.046  29.616  32.317  1.00  0.00     0.037 A 
ATOM     56  C   UNL A   1      44.061  24.212  29.143  1.00  0.00     0.049 A 
ATOM     57  C   UNL A   1      43.630  28.377  32.942  1.00  0.00     0.074 A 
ATOM     58  C   UNL A   1      45.181  25.012  28.989  1.00  0.00     0.029 A 
ATOM     59  N   UNL A   1      43.807  24.137  30.506  1.00  0.00    -0.354 N 
ATOM     60  N   UNL A   1      43.783  27.262  32.287  1.00  0.00    -0.248 NA
ATOM     61  C   UNL A   1      44.065  28.274  34.331  1.00  0.00     0.031 C 
ATOM     62  C   UNL A   1      45.556  25.484  30.270  1.00  0.00     0.029 A 
ATOM     63  C   UNL A   1      44.687  24.943  31.204  1.00  0.00     0.049 A 
ATOM     64  H   UNL A   1      43.101  23.588  30.918  1.00  0.00     0.167 HD
ATOM     65  C   UNL A   1      44.339  26.318  33.107  1.00  0.00     0.074 A 
ATOM     66  C   UNL A   1      44.497  27.000  34.379  1.00  0.00     0.031 C 
ATOM     67  C   UNL A   1      44.625  25.061  32.655  1.00  0.00     0.037 A 
BRANCH  54  68
ATOM     68  C   UNL A   1      43.396  22.683  27.123  1.00  0.00     0.058 A 
ATOM     69  C   UNL A   1      42.695  21.452  27.100  1.00  0.00     0.135 A 
ATOM     70  C   UNL A   1      44.425  22.768  26.163  1.00  0.00     0.135 A 
ATOM     71  F   UNL A   1      41.633  21.234  27.889  1.00  0.00    -0.206 F 
ATOM     72  C   UNL A   1      43.045  20.377  26.273  1.00  0.00     0.059 A 
ATOM     73  C   UNL A   1      44.811  21.700  25.344  1.00  0.00     0.059 A 
ATOM     74  F   UNL A   1      45.088  23.900  25.927  1.00  0.00    -0.206 F 
ATOM     75  C   UNL A   1      44.126  20.500  25.415  1.00  0.00     0.060 A 
BRANCH  75  76
ATOM     76  S   UNL A   1      44.599  19.102  24.382  1.00  0.00     0.124 S 
ATOM     77  O   UNL A   1      45.971  18.856  24.812  1.00  0.00    -0.237 OA
ATOM     78  O   UNL A   1      43.619  18.091  24.763  1.00  0.00    -0.237 OA
ATOM     79  O   UNL A   1      44.459  19.620  23.022  1.00  0.00    -0.744 OA
ENDBRANCH  75  76
ENDBRANCH  54  68
BRANCH  55  80
ATOM     80  C   UNL A   1      41.934  30.414  32.908  1.00  0.00     0.058 A 
ATOM     81  C   UNL A   1      42.181  31.790  33.047  1.00  0.00     0.135 A 
ATOM     82  C   UNL A   1      40.633  30.010  32.594  1.00  0.00     0.135 A 
ATOM     83  F   UNL A   1      43.375  32.212  33.489  1.00  0.00    -0.206 F 
ATOM     84  C   UNL A   1      41.291  32.730  32.544  1.00  0.00     0.059 A 
ATOM     85  C   UNL A   1      39.776  30.922  31.990  1.00  0.00     0.059 A 
ATOM     86  F   UNL A   1      40.315  28.708  32.550  1.00  0.00    -0.206 F 
ATOM     87  C   UNL A   1      40.151  32.267  31.896  1.00  0.00     0.060 A 
BRANCH  87  88
ATOM     88  S   UNL A   1      39.381  33.291  30.604  1.00  0.00     0.124 S 
ATOM     89  O   UNL A   1      38.136  33.723  31.229  1.00  0.00    -0.237 OA
ATOM     90  O   UNL A   1      40.367  34.344  30.383  1.00  0.00    -0.237 OA
ATOM     91  O   UNL A   1      39.257  32.322  29.522  1.00  0.00    -0.744 OA
ENDBRANCH  87  88
ENDBRANCH  55  80
BRANCH  67  92
ATOM     92  C   UNL A   1      44.998  23.872  33.508  1.00  0.00     0.058 A 
ATOM     93  C   UNL A   1      44.133  22.799  33.785  1.00  0.00     0.135 A 
ATOM     94  C   UNL A   1      46.326  23.713  33.978  1.00  0.00     0.135 A 
ATOM     95  F   UNL A   1      42.889  22.756  33.287  1.00  0.00    -0.206 F 
ATOM     96  C   UNL A   1      44.525  21.696  34.545  1.00  0.00     0.059 A 
ATOM     97  C   UNL A   1      46.756  22.595  34.686  1.00  0.00     0.059 A 
ATOM     98  F   UNL A   1      47.268  24.642  33.750  1.00  0.00    -0.206 F 
ATOM     99  C   UNL A   1      45.838  21.604  34.997  1.00  0.00     0.060 A 
BRANCH  99 100
ATOM    100  S   UNL A   1      46.355  20.161  35.941  1.00  0.00     0.124 S 
ATOM    101  O   UNL A   1      45.820  20.473  37.263  1.00  0.00    -0.237 OA
ATOM    102  O   UNL A   1      45.696  19.064  35.238  1.00  0.00    -0.237 OA
ATOM    103  O   UNL A   1      47.809  20.185  35.824  1.00  0.00    -0.744 OA
ENDBRANCH  99 100
ENDBRANCH  67  92
ENDBRANCH  41  42
ENDBRANCH  33  36
ENDBRANCH  31  32
ENDBRANCH   1  31
TORSDOF 16
ENDMDL
