MODEL 1
REMARK VINA RESULT:     -11.2      0.000      0.000
REMARK SMILES CCOc1ccc(-c2nc(C(=O)NCCCCNC(=O)c3ccc(-c4c5nc(c(-c6c(F)cc(S(=O)(=O)[O-])cc6F)c6ccc([nH]6)c(-c6c(F)cc(S(=O)(=O)[O-])cc6F)c6nc(c(-c7c(F)cc(S(=O)(=O)[O-])cc7F)c7ccc4[nH]7)C=C6)C=C5)cc3)cc(=O)[nH]2)cc1
REMARK SMILES IDX 15 1 14 2 13 3 11 4 12 5 10 7 8 8 9 9 90 10 88 11 87 13
REMARK SMILES IDX 89 14 7 15 4 16 5 17 92 18 6 19 91 20 3 21 2 22 1 23 16 24
REMARK SMILES IDX 17 25 18 26 19 27 20 29 21 30 22 31 86 32 23 33 85 34 24 35
REMARK SMILES IDX 25 36 26 37 79 38 27 39 84 40 78 41 80 42 28 43 83 44 77 45
REMARK SMILES IDX 76 46 29 48 63 49 42 50 62 51 43 52 46 53 61 54 81 55 44 56
REMARK SMILES IDX 45 57 60 59 82 60 47 61 30 62 31 63 40 64 32 65 33 66 39 67
REMARK SMILES IDX 41 68 34 69 35 70 36 71 37 72 38 73 64 74 65 75 74 76 66 77
REMARK SMILES IDX 67 78 73 79 75 80 68 81 69 82 70 83 71 84 72 85 48 86 49 87
REMARK SMILES IDX 58 88 50 89 51 90 57 91 59 92 52 93 53 94 54 95 55 96 56 97
REMARK H PARENT 13 6 90 12 18 28 80 47 46 58
REMARK Flexibility Score: inf
ROOT
ATOM      1  C   UNL A   1      35.655  21.505  25.516  1.00  0.00     0.023 C 
ENDROOT
BRANCH   1   2
ATOM      2  C   UNL A   1      34.284  20.844  25.569  1.00  0.00     0.116 C 
BRANCH   2   3
ATOM      3  N   UNL A   1      33.519  20.978  24.344  1.00  0.00    -0.351 N 
ATOM      4  C   UNL A   1      32.462  21.765  23.984  1.00  0.00     0.270 C 
ATOM      5  O   UNL A   1      32.035  21.624  22.834  1.00  0.00    -0.268 OA
ATOM      6  H   UNL A   1      33.823  20.378  23.625  1.00  0.00     0.163 HD
BRANCH   4   7
ATOM      7  C   UNL A   1      31.782  22.738  24.932  1.00  0.00     0.136 A 
ATOM      8  C   UNL A   1      31.643  24.918  25.638  1.00  0.00     0.141 A 
ATOM      9  N   UNL A   1      32.097  24.078  24.766  1.00  0.00    -0.225 NA
ATOM     10  N   UNL A   1      30.744  24.566  26.609  1.00  0.00    -0.306 N 
ATOM     11  C   UNL A   1      30.361  23.278  26.797  1.00  0.00     0.251 A 
ATOM     12  H   UNL A   1      30.365  25.267  27.188  1.00  0.00     0.171 HD
ATOM     13  C   UNL A   1      31.062  22.293  25.970  1.00  0.00     0.105 A 
ATOM     14  O   UNL A   1      29.500  22.949  27.596  1.00  0.00    -0.269 OA
BRANCH   8  15
ATOM     15  C   UNL A   1      32.087  26.329  25.664  1.00  0.00     0.018 A 
ATOM     16  C   UNL A   1      32.894  28.988  25.818  1.00  0.00     0.119 A 
ATOM     17  C   UNL A   1      31.536  28.688  25.762  1.00  0.00     0.047 A 
ATOM     18  C   UNL A   1      33.846  27.968  25.856  1.00  0.00     0.047 A 
ATOM     19  C   UNL A   1      31.130  27.356  25.682  1.00  0.00     0.016 A 
ATOM     20  C   UNL A   1      33.444  26.633  25.772  1.00  0.00     0.016 A 
BRANCH  16  21
ATOM     21  O   UNL A   1      33.261  30.297  25.964  1.00  0.00    -0.494 OA
BRANCH  21  22
ATOM     22  C   UNL A   1      33.326  30.700  27.337  1.00  0.00     0.226 C 
ATOM     23  C   UNL A   1      34.756  30.991  27.761  1.00  0.00     0.049 C 
ENDBRANCH  21  22
ENDBRANCH  16  21
ENDBRANCH   8  15
ENDBRANCH   4   7
ENDBRANCH   2   3
ENDBRANCH   1   2
BRANCH   1  24
ATOM     24  C   UNL A   1      35.680  22.965  25.083  1.00  0.00     0.023 C 
BRANCH  24  25
ATOM     25  C   UNL A   1      36.990  23.707  25.319  1.00  0.00     0.116 C 
BRANCH  25  26
ATOM     26  N   UNL A   1      38.148  22.833  25.456  1.00  0.00    -0.352 N 
ATOM     27  C   UNL A   1      39.346  23.072  26.089  1.00  0.00     0.251 C 
ATOM     28  H   UNL A   1      38.060  21.946  25.038  1.00  0.00     0.163 HD
ATOM     29  O   UNL A   1      40.251  22.246  26.029  1.00  0.00    -0.269 OA
BRANCH  27  30
ATOM     30  C   UNL A   1      39.545  24.348  26.806  1.00  0.00     0.039 A 
ATOM     31  C   UNL A   1      39.025  24.489  28.095  1.00  0.00     0.014 A 
ATOM     32  C   UNL A   1      40.294  25.378  26.230  1.00  0.00     0.014 A 
ATOM     33  C   UNL A   1      39.328  25.633  28.836  1.00  0.00     0.010 A 
ATOM     34  C   UNL A   1      40.669  26.472  27.003  1.00  0.00     0.010 A 
ATOM     35  C   UNL A   1      40.190  26.612  28.314  1.00  0.00    -0.014 A 
BRANCH  35  36
ATOM     36  C   UNL A   1      40.603  27.787  29.123  1.00  0.00     0.031 A 
ATOM     37  C   UNL A   1      41.923  27.780  29.845  1.00  0.00     0.074 A 
ATOM     38  C   UNL A   1      39.762  28.833  29.261  1.00  0.00     0.049 A 
ATOM     39  N   UNL A   1      42.433  28.680  30.645  1.00  0.00    -0.248 NA
ATOM     40  C   UNL A   1      42.770  26.588  29.669  1.00  0.00     0.031 C 
ATOM     41  C   UNL A   1      38.430  28.933  28.660  1.00  0.00     0.029 A 
ATOM     42  N   UNL A   1      39.897  30.008  29.957  1.00  0.00    -0.354 N 
ATOM     43  C   UNL A   1      43.649  28.162  31.073  1.00  0.00     0.074 A 
ATOM     44  C   UNL A   1      43.771  26.841  30.498  1.00  0.00     0.031 C 
ATOM     45  C   UNL A   1      37.883  30.115  28.991  1.00  0.00     0.029 A 
ATOM     46  C   UNL A   1      38.804  30.839  29.860  1.00  0.00     0.049 A 
ATOM     47  H   UNL A   1      40.701  30.235  30.479  1.00  0.00     0.167 HD
ATOM     48  C   UNL A   1      44.593  28.746  31.849  1.00  0.00     0.037 A 
ATOM     49  C   UNL A   1      38.568  32.044  30.415  1.00  0.00     0.037 A 
ATOM     50  C   UNL A   1      44.472  30.069  32.402  1.00  0.00     0.049 A 
ATOM     51  C   UNL A   1      39.630  32.672  31.279  1.00  0.00     0.074 A 
ATOM     52  C   UNL A   1      45.393  30.773  33.156  1.00  0.00     0.029 A 
ATOM     53  N   UNL A   1      43.361  30.889  32.263  1.00  0.00    -0.354 N 
ATOM     54  N   UNL A   1      40.806  32.196  31.615  1.00  0.00    -0.248 NA
ATOM     55  C   UNL A   1      39.339  34.001  31.829  1.00  0.00     0.031 C 
ATOM     56  C   UNL A   1      44.819  31.996  33.518  1.00  0.00     0.029 A 
ATOM     57  C   UNL A   1      43.564  32.081  32.937  1.00  0.00     0.049 A 
ATOM     58  H   UNL A   1      42.547  30.656  31.759  1.00  0.00     0.167 HD
ATOM     59  C   UNL A   1      41.406  33.180  32.394  1.00  0.00     0.074 A 
ATOM     60  C   UNL A   1      40.469  34.282  32.465  1.00  0.00     0.031 C 
ATOM     61  C   UNL A   1      42.623  33.173  32.993  1.00  0.00     0.037 A 
BRANCH  48  62
ATOM     62  C   UNL A   1      45.841  27.956  32.142  1.00  0.00     0.058 A 
ATOM     63  C   UNL A   1      45.957  27.160  33.295  1.00  0.00     0.135 A 
ATOM     64  C   UNL A   1      46.924  27.969  31.248  1.00  0.00     0.135 A 
ATOM     65  F   UNL A   1      44.960  27.121  34.193  1.00  0.00    -0.206 F 
ATOM     66  C   UNL A   1      47.111  26.433  33.566  1.00  0.00     0.059 A 
ATOM     67  C   UNL A   1      48.076  27.223  31.483  1.00  0.00     0.059 A 
ATOM     68  F   UNL A   1      46.870  28.712  30.132  1.00  0.00    -0.206 F 
ATOM     69  C   UNL A   1      48.165  26.470  32.652  1.00  0.00     0.060 A 
BRANCH  69  70
ATOM     70  S   UNL A   1      49.652  25.514  33.017  1.00  0.00     0.124 S 
ATOM     71  O   UNL A   1      50.259  26.313  34.079  1.00  0.00    -0.237 OA
ATOM     72  O   UNL A   1      49.101  24.228  33.430  1.00  0.00    -0.237 OA
ATOM     73  O   UNL A   1      50.373  25.507  31.749  1.00  0.00    -0.744 OA
ENDBRANCH  69  70
ENDBRANCH  48  62
BRANCH  49  74
ATOM     74  C   UNL A   1      37.282  32.745  30.153  1.00  0.00     0.058 A 
ATOM     75  C   UNL A   1      36.158  32.528  30.966  1.00  0.00     0.135 A 
ATOM     76  C   UNL A   1      37.152  33.657  29.095  1.00  0.00     0.135 A 
ATOM     77  F   UNL A   1      36.228  31.660  31.987  1.00  0.00    -0.206 F 
ATOM     78  C   UNL A   1      34.948  33.173  30.728  1.00  0.00     0.059 A 
ATOM     79  C   UNL A   1      35.961  34.336  28.854  1.00  0.00     0.059 A 
ATOM     80  F   UNL A   1      38.199  33.916  28.297  1.00  0.00    -0.206 F 
ATOM     81  C   UNL A   1      34.861  34.080  29.671  1.00  0.00     0.060 A 
BRANCH  81  82
ATOM     82  S   UNL A   1      33.300  34.947  29.401  1.00  0.00     0.124 S 
ATOM     83  O   UNL A   1      32.738  34.966  30.747  1.00  0.00    -0.237 OA
ATOM     84  O   UNL A   1      33.753  36.234  28.881  1.00  0.00    -0.237 OA
ATOM     85  O   UNL A   1      32.606  34.099  28.438  1.00  0.00    -0.744 OA
ENDBRANCH  81  82
ENDBRANCH  49  74
BRANCH  61  86
ATOM     86  C   UNL A   1      43.032  34.409  33.747  1.00  0.00     0.058 A 
ATOM     87  C   UNL A   1      42.907  34.503  35.142  1.00  0.00     0.135 A 
ATOM     88  C   UNL A   1      43.606  35.496  33.067  1.00  0.00     0.135 A 
ATOM     89  F   UNL A   1      42.359  33.496  35.841  1.00  0.00    -0.206 F 
ATOM     90  C   UNL A   1      43.310  35.642  35.832  1.00  0.00     0.059 A 
ATOM     91  C   UNL A   1      44.046  36.631  33.741  1.00  0.00     0.059 A 
ATOM     92  F   UNL A   1      43.761  35.454  31.734  1.00  0.00    -0.206 F 
ATOM     93  C   UNL A   1      43.881  36.699  35.123  1.00  0.00     0.060 A 
BRANCH  93  94
ATOM     94  S   UNL A   1      44.427  38.158  36.036  1.00  0.00     0.124 S 
ATOM     95  O   UNL A   1      43.582  38.095  37.224  1.00  0.00    -0.237 OA
ATOM     96  O   UNL A   1      45.843  37.880  36.249  1.00  0.00    -0.237 OA
ATOM     97  O   UNL A   1      44.141  39.259  35.120  1.00  0.00    -0.744 OA
ENDBRANCH  93  94
ENDBRANCH  61  86
ENDBRANCH  35  36
ENDBRANCH  27  30
ENDBRANCH  25  26
ENDBRANCH  24  25
ENDBRANCH   1  24
TORSDOF 17
ENDMDL
MODEL 2
REMARK VINA RESULT:     -11.0      2.764      3.441
REMARK SMILES CCOc1ccc(-c2nc(C(=O)NCCCCNC(=O)c3ccc(-c4c5nc(c(-c6c(F)cc(S(=O)(=O)[O-])cc6F)c6ccc([nH]6)c(-c6c(F)cc(S(=O)(=O)[O-])cc6F)c6nc(c(-c7c(F)cc(S(=O)(=O)[O-])cc7F)c7ccc4[nH]7)C=C6)C=C5)cc3)cc(=O)[nH]2)cc1
REMARK SMILES IDX 15 1 14 2 13 3 11 4 12 5 10 7 8 8 9 9 90 10 88 11 87 13
REMARK SMILES IDX 89 14 7 15 4 16 5 17 92 18 6 19 91 20 3 21 2 22 1 23 16 24
REMARK SMILES IDX 17 25 18 26 19 27 20 29 21 30 22 31 86 32 23 33 85 34 24 35
REMARK SMILES IDX 25 36 26 37 79 38 27 39 84 40 78 41 80 42 28 43 83 44 77 45
REMARK SMILES IDX 76 46 29 48 63 49 42 50 62 51 43 52 46 53 61 54 81 55 44 56
REMARK SMILES IDX 45 57 60 59 82 60 47 61 30 62 31 63 40 64 32 65 33 66 39 67
REMARK SMILES IDX 41 68 34 69 35 70 36 71 37 72 38 73 64 74 65 75 74 76 66 77
REMARK SMILES IDX 67 78 73 79 75 80 68 81 69 82 70 83 71 84 72 85 48 86 49 87
REMARK SMILES IDX 58 88 50 89 51 90 57 91 59 92 52 93 53 94 54 95 55 96 56 97
REMARK H PARENT 13 6 90 12 18 28 80 47 46 58
REMARK Flexibility Score: inf
ROOT
ATOM      1  C   UNL A   1      36.986  22.585  25.377  1.00  0.00     0.023 C 
ENDROOT
BRANCH   1   2
ATOM      2  C   UNL A   1      35.588  22.252  25.881  1.00  0.00     0.116 C 
BRANCH   2   3
ATOM      3  N   UNL A   1      34.703  21.730  24.856  1.00  0.00    -0.351 N 
ATOM      4  C   UNL A   1      33.392  21.959  24.549  1.00  0.00     0.270 C 
ATOM      5  O   UNL A   1      32.932  21.332  23.590  1.00  0.00    -0.268 OA
ATOM      6  H   UNL A   1      35.137  21.078  24.259  1.00  0.00     0.163 HD
BRANCH   4   7
ATOM      7  C   UNL A   1      32.495  22.887  25.349  1.00  0.00     0.136 A 
ATOM      8  C   UNL A   1      32.090  25.055  25.988  1.00  0.00     0.141 A 
ATOM      9  N   UNL A   1      32.744  24.244  25.221  1.00  0.00    -0.225 NA
ATOM     10  N   UNL A   1      31.061  24.646  26.793  1.00  0.00    -0.306 N 
ATOM     11  C   UNL A   1      30.737  23.335  26.930  1.00  0.00     0.251 A 
ATOM     12  H   UNL A   1      30.542  25.321  27.286  1.00  0.00     0.171 HD
ATOM     13  C   UNL A   1      31.635  22.398  26.253  1.00  0.00     0.105 A 
ATOM     14  O   UNL A   1      29.773  22.951  27.573  1.00  0.00    -0.269 OA
BRANCH   8  15
ATOM     15  C   UNL A   1      32.430  26.493  26.070  1.00  0.00     0.018 A 
ATOM     16  C   UNL A   1      33.067  29.189  26.333  1.00  0.00     0.119 A 
ATOM     17  C   UNL A   1      31.766  28.766  26.588  1.00  0.00     0.047 A 
ATOM     18  C   UNL A   1      34.062  28.266  26.004  1.00  0.00     0.047 A 
ATOM     19  C   UNL A   1      31.444  27.416  26.454  1.00  0.00     0.016 A 
ATOM     20  C   UNL A   1      33.743  26.914  25.865  1.00  0.00     0.016 A 
BRANCH  16  21
ATOM     21  O   UNL A   1      33.370  30.506  26.537  1.00  0.00    -0.494 OA
BRANCH  21  22
ATOM     22  C   UNL A   1      34.625  30.684  27.204  1.00  0.00     0.226 C 
ATOM     23  C   UNL A   1      34.442  31.337  28.565  1.00  0.00     0.049 C 
ENDBRANCH  21  22
ENDBRANCH  16  21
ENDBRANCH   8  15
ENDBRANCH   4   7
ENDBRANCH   2   3
ENDBRANCH   1   2
BRANCH   1  24
ATOM     24  C   UNL A   1      37.568  23.914  25.842  1.00  0.00     0.023 C 
BRANCH  24  25
ATOM     25  C   UNL A   1      38.676  23.828  26.884  1.00  0.00     0.116 C 
BRANCH  25  26
ATOM     26  N   UNL A   1      40.018  23.941  26.331  1.00  0.00    -0.352 N 
ATOM     27  C   UNL A   1      40.972  24.907  26.555  1.00  0.00     0.251 C 
ATOM     28  H   UNL A   1      40.281  23.225  25.708  1.00  0.00     0.163 HD
ATOM     29  O   UNL A   1      42.027  24.891  25.928  1.00  0.00    -0.269 OA
BRANCH  27  30
ATOM     30  C   UNL A   1      40.697  25.985  27.528  1.00  0.00     0.039 A 
ATOM     31  C   UNL A   1      39.733  25.775  28.516  1.00  0.00     0.014 A 
ATOM     32  C   UNL A   1      41.431  27.173  27.500  1.00  0.00     0.014 A 
ATOM     33  C   UNL A   1      39.565  26.725  29.525  1.00  0.00     0.010 A 
ATOM     34  C   UNL A   1      41.326  28.073  28.554  1.00  0.00     0.010 A 
ATOM     35  C   UNL A   1      40.392  27.860  29.579  1.00  0.00    -0.014 A 
BRANCH  35  36
ATOM     36  C   UNL A   1      40.295  28.832  30.698  1.00  0.00     0.031 A 
ATOM     37  C   UNL A   1      41.162  28.668  31.917  1.00  0.00     0.074 A 
ATOM     38  C   UNL A   1      39.383  29.825  30.645  1.00  0.00     0.049 A 
ATOM     39  N   UNL A   1      41.184  29.374  33.017  1.00  0.00    -0.248 NA
ATOM     40  C   UNL A   1      42.111  27.541  31.911  1.00  0.00     0.031 C 
ATOM     41  C   UNL A   1      38.444  30.053  29.544  1.00  0.00     0.029 A 
ATOM     42  N   UNL A   1      39.087  30.821  31.541  1.00  0.00    -0.354 N 
ATOM     43  C   UNL A   1      42.135  28.775  33.834  1.00  0.00     0.074 A 
ATOM     44  C   UNL A   1      42.621  27.609  33.131  1.00  0.00     0.031 C 
ATOM     45  C   UNL A   1      37.697  31.136  29.818  1.00  0.00     0.029 A 
ATOM     46  C   UNL A   1      38.073  31.654  31.129  1.00  0.00     0.049 A 
ATOM     47  H   UNL A   1      39.558  30.929  32.399  1.00  0.00     0.167 HD
ATOM     48  C   UNL A   1      42.585  29.176  35.046  1.00  0.00     0.037 A 
ATOM     49  C   UNL A   1      37.504  32.711  31.741  1.00  0.00     0.037 A 
ATOM     50  C   UNL A   1      42.109  30.349  35.731  1.00  0.00     0.049 A 
ATOM     51  C   UNL A   1      38.017  33.137  33.091  1.00  0.00     0.074 A 
ATOM     52  C   UNL A   1      42.536  30.873  36.938  1.00  0.00     0.029 A 
ATOM     53  N   UNL A   1      41.097  31.180  35.272  1.00  0.00    -0.354 N 
ATOM     54  N   UNL A   1      38.968  32.599  33.819  1.00  0.00    -0.248 NA
ATOM     55  C   UNL A   1      37.390  34.316  33.700  1.00  0.00     0.031 C 
ATOM     56  C   UNL A   1      41.748  31.990  37.234  1.00  0.00     0.029 A 
ATOM     57  C   UNL A   1      40.870  32.198  36.183  1.00  0.00     0.049 A 
ATOM     58  H   UNL A   1      40.611  31.062  34.424  1.00  0.00     0.167 HD
ATOM     59  C   UNL A   1      39.071  33.391  34.957  1.00  0.00     0.074 A 
ATOM     60  C   UNL A   1      38.097  34.453  34.814  1.00  0.00     0.031 C 
ATOM     61  C   UNL A   1      39.899  33.253  36.023  1.00  0.00     0.037 A 
BRANCH  48  62
ATOM     62  C   UNL A   1      43.649  28.341  35.707  1.00  0.00     0.058 A 
ATOM     63  C   UNL A   1      43.326  27.313  36.610  1.00  0.00     0.135 A 
ATOM     64  C   UNL A   1      45.007  28.547  35.414  1.00  0.00     0.135 A 
ATOM     65  F   UNL A   1      42.046  27.081  36.940  1.00  0.00    -0.206 F 
ATOM     66  C   UNL A   1      44.310  26.544  37.221  1.00  0.00     0.059 A 
ATOM     67  C   UNL A   1      46.006  27.767  35.989  1.00  0.00     0.059 A 
ATOM     68  F   UNL A   1      45.375  29.515  34.561  1.00  0.00    -0.206 F 
ATOM     69  C   UNL A   1      45.648  26.778  36.903  1.00  0.00     0.060 A 
BRANCH  69  70
ATOM     70  S   UNL A   1      46.911  25.765  37.701  1.00  0.00     0.124 S 
ATOM     71  O   UNL A   1      48.035  26.695  37.762  1.00  0.00    -0.237 OA
ATOM     72  O   UNL A   1      46.288  25.441  38.980  1.00  0.00    -0.237 OA
ATOM     73  O   UNL A   1      47.076  24.641  36.785  1.00  0.00    -0.744 OA
ENDBRANCH  69  70
ENDBRANCH  48  62
BRANCH  49  74
ATOM     74  C   UNL A   1      36.400  33.453  31.074  1.00  0.00     0.058 A 
ATOM     75  C   UNL A   1      36.637  34.238  29.935  1.00  0.00     0.135 A 
ATOM     76  C   UNL A   1      35.082  33.382  31.552  1.00  0.00     0.135 A 
ATOM     77  F   UNL A   1      37.880  34.344  29.442  1.00  0.00    -0.206 F 
ATOM     78  C   UNL A   1      35.614  34.942  29.306  1.00  0.00     0.059 A 
ATOM     79  C   UNL A   1      34.037  34.054  30.924  1.00  0.00     0.059 A 
ATOM     80  F   UNL A   1      34.795  32.632  32.628  1.00  0.00    -0.206 F 
ATOM     81  C   UNL A   1      34.315  34.839  29.806  1.00  0.00     0.060 A 
BRANCH  81  82
ATOM     82  S   UNL A   1      32.988  35.717  28.954  1.00  0.00     0.124 S 
ATOM     83  O   UNL A   1      32.199  36.217  30.074  1.00  0.00    -0.237 OA
ATOM     84  O   UNL A   1      33.725  36.722  28.194  1.00  0.00    -0.237 OA
ATOM     85  O   UNL A   1      32.356  34.674  28.152  1.00  0.00    -0.744 OA
ENDBRANCH  81  82
ENDBRANCH  49  74
BRANCH  61  86
ATOM     86  C   UNL A   1      39.818  34.297  37.103  1.00  0.00     0.058 A 
ATOM     87  C   UNL A   1      39.015  34.127  38.242  1.00  0.00     0.135 A 
ATOM     88  C   UNL A   1      40.597  35.464  37.022  1.00  0.00     0.135 A 
ATOM     89  F   UNL A   1      38.245  33.033  38.368  1.00  0.00    -0.206 F 
ATOM     90  C   UNL A   1      38.964  35.087  39.246  1.00  0.00     0.059 A 
ATOM     91  C   UNL A   1      40.587  36.422  38.030  1.00  0.00     0.059 A 
ATOM     92  F   UNL A   1      41.393  35.672  35.961  1.00  0.00    -0.206 F 
ATOM     93  C   UNL A   1      39.757  36.231  39.133  1.00  0.00     0.060 A 
BRANCH  93  94
ATOM     94  S   UNL A   1      39.705  37.454  40.458  1.00  0.00     0.124 S 
ATOM     95  O   UNL A   1      41.108  37.843  40.556  1.00  0.00    -0.237 OA
ATOM     96  O   UNL A   1      38.803  38.465  39.915  1.00  0.00    -0.237 OA
ATOM     97  O   UNL A   1      39.181  36.702  41.595  1.00  0.00    -0.744 OA
ENDBRANCH  93  94
ENDBRANCH  61  86
ENDBRANCH  35  36
ENDBRANCH  27  30
ENDBRANCH  25  26
ENDBRANCH  24  25
ENDBRANCH   1  24
TORSDOF 17
ENDMDL
MODEL 3
REMARK VINA RESULT:     -10.8      3.358      6.580
REMARK SMILES CCOc1ccc(-c2nc(C(=O)NCCCCNC(=O)c3ccc(-c4c5nc(c(-c6c(F)cc(S(=O)(=O)[O-])cc6F)c6ccc([nH]6)c(-c6c(F)cc(S(=O)(=O)[O-])cc6F)c6nc(c(-c7c(F)cc(S(=O)(=O)[O-])cc7F)c7ccc4[nH]7)C=C6)C=C5)cc3)cc(=O)[nH]2)cc1
REMARK SMILES IDX 15 1 14 2 13 3 11 4 12 5 10 7 8 8 9 9 90 10 88 11 87 13
REMARK SMILES IDX 89 14 7 15 4 16 5 17 92 18 6 19 91 20 3 21 2 22 1 23 16 24
REMARK SMILES IDX 17 25 18 26 19 27 20 29 21 30 22 31 86 32 23 33 85 34 24 35
REMARK SMILES IDX 25 36 26 37 79 38 27 39 84 40 78 41 80 42 28 43 83 44 77 45
REMARK SMILES IDX 76 46 29 48 63 49 42 50 62 51 43 52 46 53 61 54 81 55 44 56
REMARK SMILES IDX 45 57 60 59 82 60 47 61 30 62 31 63 40 64 32 65 33 66 39 67
REMARK SMILES IDX 41 68 34 69 35 70 36 71 37 72 38 73 64 74 65 75 74 76 66 77
REMARK SMILES IDX 67 78 73 79 75 80 68 81 69 82 70 83 71 84 72 85 48 86 49 87
REMARK SMILES IDX 58 88 50 89 51 90 57 91 59 92 52 93 53 94 54 95 55 96 56 97
REMARK H PARENT 13 6 90 12 18 28 80 47 46 58
REMARK Flexibility Score: inf
ROOT
ATOM      1  C   UNL A   1      43.082  22.971  24.985  1.00  0.00     0.023 C 
ENDROOT
BRANCH   1   2
ATOM      2  C   UNL A   1      43.700  24.154  25.719  1.00  0.00     0.116 C 
BRANCH   2   3
ATOM      3  N   UNL A   1      45.045  23.907  26.204  1.00  0.00    -0.351 N 
ATOM      4  C   UNL A   1      46.160  24.689  26.307  1.00  0.00     0.270 C 
ATOM      5  O   UNL A   1      47.169  24.153  26.774  1.00  0.00    -0.268 OA
ATOM      6  H   UNL A   1      45.182  22.985  26.525  1.00  0.00     0.163 HD
BRANCH   4   7
ATOM      7  C   UNL A   1      46.216  26.132  25.836  1.00  0.00     0.136 A 
ATOM      8  C   UNL A   1      45.660  28.308  26.310  1.00  0.00     0.141 A 
ATOM      9  N   UNL A   1      45.753  27.087  26.726  1.00  0.00    -0.225 NA
ATOM     10  N   UNL A   1      46.148  28.717  25.098  1.00  0.00    -0.306 N 
ATOM     11  C   UNL A   1      46.655  27.838  24.196  1.00  0.00     0.251 A 
ATOM     12  H   UNL A   1      46.130  29.675  24.873  1.00  0.00     0.171 HD
ATOM     13  C   UNL A   1      46.533  26.426  24.568  1.00  0.00     0.105 A 
ATOM     14  O   UNL A   1      47.172  28.184  23.147  1.00  0.00    -0.269 OA
BRANCH   8  15
ATOM     15  C   UNL A   1      44.991  29.356  27.113  1.00  0.00     0.018 A 
ATOM     16  C   UNL A   1      43.695  31.247  28.691  1.00  0.00     0.119 A 
ATOM     17  C   UNL A   1      42.947  30.441  27.837  1.00  0.00     0.047 A 
ATOM     18  C   UNL A   1      45.076  31.075  28.801  1.00  0.00     0.047 A 
ATOM     19  C   UNL A   1      43.595  29.494  27.044  1.00  0.00     0.016 A 
ATOM     20  C   UNL A   1      45.729  30.131  28.006  1.00  0.00     0.016 A 
BRANCH  16  21
ATOM     21  O   UNL A   1      43.028  32.119  29.504  1.00  0.00    -0.494 OA
BRANCH  21  22
ATOM     22  C   UNL A   1      43.546  33.452  29.422  1.00  0.00     0.226 C 
ATOM     23  C   UNL A   1      42.498  34.422  28.901  1.00  0.00     0.049 C 
ENDBRANCH  21  22
ENDBRANCH  16  21
ENDBRANCH   8  15
ENDBRANCH   4   7
ENDBRANCH   2   3
ENDBRANCH   1   2
BRANCH   1  24
ATOM     24  C   UNL A   1      42.554  21.840  25.858  1.00  0.00     0.023 C 
BRANCH  24  25
ATOM     25  C   UNL A   1      41.374  22.188  26.757  1.00  0.00     0.116 C 
BRANCH  25  26
ATOM     26  N   UNL A   1      40.090  22.194  26.070  1.00  0.00    -0.352 N 
ATOM     27  C   UNL A   1      39.108  23.159  26.072  1.00  0.00     0.251 C 
ATOM     28  H   UNL A   1      39.897  21.396  25.527  1.00  0.00     0.163 HD
ATOM     29  O   UNL A   1      38.041  22.955  25.502  1.00  0.00    -0.269 OA
BRANCH  27  30
ATOM     30  C   UNL A   1      39.337  24.423  26.801  1.00  0.00     0.039 A 
ATOM     31  C   UNL A   1      38.798  24.574  28.081  1.00  0.00     0.014 A 
ATOM     32  C   UNL A   1      40.129  25.431  26.247  1.00  0.00     0.014 A 
ATOM     33  C   UNL A   1      39.124  25.702  28.836  1.00  0.00     0.010 A 
ATOM     34  C   UNL A   1      40.526  26.507  27.033  1.00  0.00     0.010 A 
ATOM     35  C   UNL A   1      40.028  26.655  28.337  1.00  0.00    -0.014 A 
BRANCH  35  36
ATOM     36  C   UNL A   1      40.464  27.811  29.162  1.00  0.00     0.031 A 
ATOM     37  C   UNL A   1      41.785  27.767  29.881  1.00  0.00     0.074 A 
ATOM     38  C   UNL A   1      39.644  28.871  29.315  1.00  0.00     0.049 A 
ATOM     39  N   UNL A   1      42.314  28.647  30.692  1.00  0.00    -0.248 NA
ATOM     40  C   UNL A   1      42.609  26.562  29.688  1.00  0.00     0.031 C 
ATOM     41  C   UNL A   1      38.313  29.004  28.717  1.00  0.00     0.029 A 
ATOM     42  N   UNL A   1      39.803  30.033  30.027  1.00  0.00    -0.354 N 
ATOM     43  C   UNL A   1      43.520  28.099  31.111  1.00  0.00     0.074 A 
ATOM     44  C   UNL A   1      43.616  26.784  30.518  1.00  0.00     0.031 C 
ATOM     45  C   UNL A   1      37.790  30.192  29.065  1.00  0.00     0.029 A 
ATOM     46  C   UNL A   1      38.726  30.886  29.943  1.00  0.00     0.049 A 
ATOM     47  H   UNL A   1      40.611  30.237  30.550  1.00  0.00     0.167 HD
ATOM     48  C   UNL A   1      44.476  28.654  31.894  1.00  0.00     0.037 A 
ATOM     49  C   UNL A   1      38.514  32.087  30.515  1.00  0.00     0.037 A 
ATOM     50  C   UNL A   1      44.381  29.971  32.465  1.00  0.00     0.049 A 
ATOM     51  C   UNL A   1      39.589  32.683  31.386  1.00  0.00     0.074 A 
ATOM     52  C   UNL A   1      45.317  30.647  33.228  1.00  0.00     0.029 A 
ATOM     53  N   UNL A   1      43.286  30.814  32.339  1.00  0.00    -0.354 N 
ATOM     54  N   UNL A   1      40.756  32.179  31.714  1.00  0.00    -0.248 NA
ATOM     55  C   UNL A   1      39.325  34.010  31.955  1.00  0.00     0.031 C 
ATOM     56  C   UNL A   1      44.767  31.876  33.608  1.00  0.00     0.029 A 
ATOM     57  C   UNL A   1      43.513  31.992  33.030  1.00  0.00     0.049 A 
ATOM     58  H   UNL A   1      42.467  30.604  31.834  1.00  0.00     0.167 HD
ATOM     59  C   UNL A   1      41.376  33.141  32.505  1.00  0.00     0.074 A 
ATOM     60  C   UNL A   1      40.461  34.260  32.593  1.00  0.00     0.031 C 
ATOM     61  C   UNL A   1      42.593  33.102  33.103  1.00  0.00     0.037 A 
BRANCH  48  62
ATOM     62  C   UNL A   1      45.709  27.836  32.175  1.00  0.00     0.058 A 
ATOM     63  C   UNL A   1      45.750  26.898  33.221  1.00  0.00     0.135 A 
ATOM     64  C   UNL A   1      46.853  27.967  31.372  1.00  0.00     0.135 A 
ATOM     65  F   UNL A   1      44.691  26.741  34.031  1.00  0.00    -0.206 F 
ATOM     66  C   UNL A   1      46.890  26.145  33.480  1.00  0.00     0.059 A 
ATOM     67  C   UNL A   1      47.994  27.200  31.593  1.00  0.00     0.059 A 
ATOM     68  F   UNL A   1      46.872  28.847  30.360  1.00  0.00    -0.206 F 
ATOM     69  C   UNL A   1      48.007  26.302  32.659  1.00  0.00     0.060 A 
BRANCH  69  70
ATOM     70  S   UNL A   1      49.475  25.312  33.007  1.00  0.00     0.124 S 
ATOM     71  O   UNL A   1      49.872  24.898  31.664  1.00  0.00    -0.237 OA
ATOM     72  O   UNL A   1      50.355  26.277  33.658  1.00  0.00    -0.237 OA
ATOM     73  O   UNL A   1      48.972  24.246  33.867  1.00  0.00    -0.744 OA
ENDBRANCH  69  70
ENDBRANCH  48  62
BRANCH  49  74
ATOM     74  C   UNL A   1      37.241  32.817  30.265  1.00  0.00     0.058 A 
ATOM     75  C   UNL A   1      37.099  33.672  29.162  1.00  0.00     0.135 A 
ATOM     76  C   UNL A   1      36.135  32.664  31.116  1.00  0.00     0.135 A 
ATOM     77  F   UNL A   1      38.129  33.858  28.322  1.00  0.00    -0.206 F 
ATOM     78  C   UNL A   1      35.916  34.365  28.921  1.00  0.00     0.059 A 
ATOM     79  C   UNL A   1      34.932  33.323  30.881  1.00  0.00     0.059 A 
ATOM     80  F   UNL A   1      36.210  31.844  32.177  1.00  0.00    -0.206 F 
ATOM     81  C   UNL A   1      34.836  34.180  29.785  1.00  0.00     0.060 A 
BRANCH  81  82
ATOM     82  S   UNL A   1      33.290  35.045  29.436  1.00  0.00     0.124 S 
ATOM     83  O   UNL A   1      32.706  34.198  28.402  1.00  0.00    -0.237 OA
ATOM     84  O   UNL A   1      32.625  35.017  30.735  1.00  0.00    -0.237 OA
ATOM     85  O   UNL A   1      33.735  36.364  28.996  1.00  0.00    -0.744 OA
ENDBRANCH  81  82
ENDBRANCH  49  74
BRANCH  61  86
ATOM     86  C   UNL A   1      43.027  34.319  33.873  1.00  0.00     0.058 A 
ATOM     87  C   UNL A   1      42.971  34.370  35.275  1.00  0.00     0.135 A 
ATOM     88  C   UNL A   1      43.556  35.433  33.199  1.00  0.00     0.135 A 
ATOM     89  F   UNL A   1      42.468  33.336  35.969  1.00  0.00    -0.206 F 
ATOM     90  C   UNL A   1      43.396  35.491  35.979  1.00  0.00     0.059 A 
ATOM     91  C   UNL A   1      44.018  36.552  33.885  1.00  0.00     0.059 A 
ATOM     92  F   UNL A   1      43.645  35.433  31.859  1.00  0.00    -0.206 F 
ATOM     93  C   UNL A   1      43.921  36.576  35.275  1.00  0.00     0.060 A 
BRANCH  93  94
ATOM     94  S   UNL A   1      44.497  38.013  36.204  1.00  0.00     0.124 S 
ATOM     95  O   UNL A   1      45.891  37.660  36.456  1.00  0.00    -0.237 OA
ATOM     96  O   UNL A   1      44.280  39.103  35.259  1.00  0.00    -0.237 OA
ATOM     97  O   UNL A   1      43.631  38.028  37.379  1.00  0.00    -0.744 OA
ENDBRANCH  93  94
ENDBRANCH  61  86
ENDBRANCH  35  36
ENDBRANCH  27  30
ENDBRANCH  25  26
ENDBRANCH  24  25
ENDBRANCH   1  24
TORSDOF 17
ENDMDL
