MODEL 1
REMARK VINA RESULT:     -10.6      0.000      0.000
REMARK SMILES NC(=O)C[C@@H](NC(=O)c1ccc(CO)cc1)C(=O)NCCCCNC(=O)c1ccc(-c2c3nc(c(-c4c(F)cc(S(=O)(=O)[O-])cc4F)c4ccc([nH]4)c(-c4c(F)cc(S(=O)(=O)[O-])cc4F)c4nc(c(-c5c(F)cc(S(=O)(=O)[O-])cc5F)c5ccc2[nH]5)C=C4)C=C3)cc1
REMARK SMILES IDX 21 1 20 2 19 3 17 4 18 5 5 7 4 8 2 9 1 10 3 13 6 14 7 15
REMARK SMILES IDX 8 17 9 18 10 19 16 20 11 21 15 22 12 23 13 24 14 25 22 27
REMARK SMILES IDX 23 28 24 29 25 30 26 32 27 33 28 34 92 35 29 36 91 37 30 38
REMARK SMILES IDX 31 39 32 40 85 41 33 42 90 43 84 44 86 45 34 46 89 47 83 48
REMARK SMILES IDX 82 49 35 51 69 52 48 53 68 54 49 55 52 56 67 57 87 58 50 59
REMARK SMILES IDX 51 60 66 62 88 63 53 64 36 65 37 66 46 67 38 68 39 69 45 70
REMARK SMILES IDX 47 71 40 72 41 73 42 74 43 75 44 76 70 77 71 78 80 79 72 80
REMARK SMILES IDX 73 81 79 82 81 83 74 84 75 85 76 86 77 87 78 88 54 89 55 90
REMARK SMILES IDX 64 91 56 92 57 93 63 94 65 95 58 96 59 97 60 98 61 99 62 100
REMARK H PARENT 19 6 1 11 1 12 6 16 14 26 24 31 86 50 52 61
REMARK Flexibility Score: inf
ROOT
ATOM      1  C   UNL A   1      33.084  26.055  25.562  1.00  0.00     0.023 C 
ENDROOT
BRANCH   1   2
ATOM      2  C   UNL A   1      33.175  24.878  26.524  1.00  0.00     0.116 C 
BRANCH   2   3
ATOM      3  N   UNL A   1      31.939  24.120  26.506  1.00  0.00    -0.354 N 
ATOM      4  C   UNL A   1      31.661  22.923  25.920  1.00  0.00     0.243 C 
ATOM      5  O   UNL A   1      30.483  22.559  25.868  1.00  0.00    -0.273 OA
ATOM      6  H   UNL A   1      31.188  24.532  26.990  1.00  0.00     0.163 HD
BRANCH   4   7
ATOM      7  C   UNL A   1      32.760  22.109  25.220  1.00  0.00     0.180 C 
BRANCH   7   8
ATOM      8  C   UNL A   1      32.122  20.726  24.979  1.00  0.00     0.134 C 
BRANCH   8   9
ATOM      9  C   UNL A   1      33.038  19.565  25.237  1.00  0.00     0.220 C 
ATOM     10  N   UNL A   1      32.871  18.946  26.442  1.00  0.00    -0.370 N 
ATOM     11  H   UNL A   1      33.436  18.176  26.682  1.00  0.00     0.159 HD
ATOM     12  H   UNL A   1      32.187  19.270  27.071  1.00  0.00     0.159 HD
ATOM     13  O   UNL A   1      33.900  19.197  24.450  1.00  0.00    -0.275 OA
ENDBRANCH   8   9
ENDBRANCH   7   8
BRANCH   7  14
ATOM     14  N   UNL A   1      33.322  22.715  23.993  1.00  0.00    -0.340 N 
ATOM     15  C   UNL A   1      34.614  22.817  23.526  1.00  0.00     0.251 C 
ATOM     16  H   UNL A   1      32.647  23.121  23.401  1.00  0.00     0.164 HD
ATOM     17  O   UNL A   1      34.792  23.136  22.352  1.00  0.00    -0.269 OA
BRANCH  15  18
ATOM     18  C   UNL A   1      35.779  22.719  24.432  1.00  0.00     0.039 A 
ATOM     19  C   UNL A   1      36.436  21.484  24.516  1.00  0.00     0.014 A 
ATOM     20  C   UNL A   1      36.267  23.814  25.142  1.00  0.00     0.014 A 
ATOM     21  C   UNL A   1      37.653  21.382  25.195  1.00  0.00     0.007 A 
ATOM     22  C   UNL A   1      37.490  23.712  25.815  1.00  0.00     0.007 A 
ATOM     23  C   UNL A   1      38.213  22.509  25.810  1.00  0.00    -0.023 A 
BRANCH  23  24
ATOM     24  C   UNL A   1      39.578  22.424  26.445  1.00  0.00     0.191 C 
BRANCH  24  25
ATOM     25  O   UNL A   1      39.626  23.183  27.640  1.00  0.00    -0.392 OA
ATOM     26  H   UNL A   1      40.384  23.787  27.609  1.00  0.00     0.211 HD
ENDBRANCH  24  25
ENDBRANCH  23  24
ENDBRANCH  15  18
ENDBRANCH   7  14
ENDBRANCH   4   7
ENDBRANCH   2   3
ENDBRANCH   1   2
BRANCH   1  27
ATOM     27  C   UNL A   1      32.904  27.400  26.267  1.00  0.00     0.023 C 
BRANCH  27  28
ATOM     28  C   UNL A   1      34.173  28.242  26.351  1.00  0.00     0.116 C 
BRANCH  28  29
ATOM     29  N   UNL A   1      33.882  29.649  26.572  1.00  0.00    -0.352 N 
ATOM     30  C   UNL A   1      34.521  30.529  27.407  1.00  0.00     0.251 C 
ATOM     31  H   UNL A   1      33.129  30.018  26.056  1.00  0.00     0.163 HD
ATOM     32  O   UNL A   1      34.022  31.629  27.640  1.00  0.00    -0.269 OA
BRANCH  30  33
ATOM     33  C   UNL A   1      35.799  30.135  28.031  1.00  0.00     0.039 A 
ATOM     34  C   UNL A   1      36.994  30.417  27.367  1.00  0.00     0.014 A 
ATOM     35  C   UNL A   1      35.812  29.500  29.276  1.00  0.00     0.014 A 
ATOM     36  C   UNL A   1      38.208  30.088  27.973  1.00  0.00     0.010 A 
ATOM     37  C   UNL A   1      37.022  29.256  29.915  1.00  0.00     0.010 A 
ATOM     38  C   UNL A   1      38.233  29.525  29.260  1.00  0.00    -0.014 A 
BRANCH  38  39
ATOM     39  C   UNL A   1      39.517  29.163  29.912  1.00  0.00     0.031 A 
ATOM     40  C   UNL A   1      39.987  29.936  31.117  1.00  0.00     0.074 A 
ATOM     41  C   UNL A   1      40.270  28.168  29.405  1.00  0.00     0.049 A 
ATOM     42  N   UNL A   1      41.086  29.794  31.812  1.00  0.00    -0.248 NA
ATOM     43  C   UNL A   1      39.122  31.031  31.586  1.00  0.00     0.031 C 
ATOM     44  C   UNL A   1      39.943  27.380  28.214  1.00  0.00     0.029 A 
ATOM     45  N   UNL A   1      41.469  27.651  29.825  1.00  0.00    -0.354 N 
ATOM     46  C   UNL A   1      41.048  30.782  32.788  1.00  0.00     0.074 A 
ATOM     47  C   UNL A   1      39.852  31.561  32.555  1.00  0.00     0.031 C 
ATOM     48  C   UNL A   1      40.901  26.459  28.021  1.00  0.00     0.029 A 
ATOM     49  C   UNL A   1      41.927  26.613  29.047  1.00  0.00     0.049 A 
ATOM     50  H   UNL A   1      41.957  27.990  30.611  1.00  0.00     0.167 HD
ATOM     51  C   UNL A   1      41.911  31.003  33.808  1.00  0.00     0.037 A 
ATOM     52  C   UNL A   1      43.048  25.872  29.150  1.00  0.00     0.037 A 
ATOM     53  C   UNL A   1      43.088  30.209  34.045  1.00  0.00     0.049 A 
ATOM     54  C   UNL A   1      43.996  26.139  30.289  1.00  0.00     0.074 A 
ATOM     55  C   UNL A   1      44.008  30.319  35.074  1.00  0.00     0.029 A 
ATOM     56  N   UNL A   1      43.509  29.156  33.244  1.00  0.00    -0.354 N 
ATOM     57  N   UNL A   1      43.914  27.039  31.239  1.00  0.00    -0.248 NA
ATOM     58  C   UNL A   1      45.183  25.278  30.378  1.00  0.00     0.031 C 
ATOM     59  C   UNL A   1      45.010  29.366  34.867  1.00  0.00     0.029 A 
ATOM     60  C   UNL A   1      44.683  28.620  33.746  1.00  0.00     0.049 A 
ATOM     61  H   UNL A   1      43.042  28.839  32.438  1.00  0.00     0.167 HD
ATOM     62  C   UNL A   1      45.016  26.828  32.062  1.00  0.00     0.074 A 
ATOM     63  C   UNL A   1      45.744  25.709  31.499  1.00  0.00     0.031 C 
ATOM     64  C   UNL A   1      45.388  27.495  33.183  1.00  0.00     0.037 A 
BRANCH  51  65
ATOM     65  C   UNL A   1      41.611  32.143  34.744  1.00  0.00     0.058 A 
ATOM     66  C   UNL A   1      40.805  31.972  35.883  1.00  0.00     0.135 A 
ATOM     67  C   UNL A   1      42.159  33.416  34.520  1.00  0.00     0.135 A 
ATOM     68  F   UNL A   1      40.240  30.780  36.139  1.00  0.00    -0.206 F 
ATOM     69  C   UNL A   1      40.527  33.027  36.744  1.00  0.00     0.059 A 
ATOM     70  C   UNL A   1      41.920  34.479  35.386  1.00  0.00     0.059 A 
ATOM     71  F   UNL A   1      42.935  33.639  33.447  1.00  0.00    -0.206 F 
ATOM     72  C   UNL A   1      41.091  34.277  36.488  1.00  0.00     0.060 A 
BRANCH  72  73
ATOM     73  S   UNL A   1      40.726  35.633  37.622  1.00  0.00     0.124 S 
ATOM     74  O   UNL A   1      40.073  34.927  38.720  1.00  0.00    -0.237 OA
ATOM     75  O   UNL A   1      42.055  36.163  37.911  1.00  0.00    -0.237 OA
ATOM     76  O   UNL A   1      39.861  36.510  36.839  1.00  0.00    -0.744 OA
ENDBRANCH  72  73
ENDBRANCH  51  65
BRANCH  52  77
ATOM     77  C   UNL A   1      43.318  24.787  28.167  1.00  0.00     0.058 A 
ATOM     78  C   UNL A   1      43.979  25.053  26.959  1.00  0.00     0.135 A 
ATOM     79  C   UNL A   1      42.922  23.463  28.416  1.00  0.00     0.135 A 
ATOM     80  F   UNL A   1      44.374  26.303  26.672  1.00  0.00    -0.206 F 
ATOM     81  C   UNL A   1      44.217  24.053  26.022  1.00  0.00     0.059 A 
ATOM     82  C   UNL A   1      43.176  22.441  27.508  1.00  0.00     0.059 A 
ATOM     83  F   UNL A   1      42.304  23.151  29.565  1.00  0.00    -0.206 F 
ATOM     84  C   UNL A   1      43.814  22.748  26.307  1.00  0.00     0.060 A 
BRANCH  84  85
ATOM     85  S   UNL A   1      44.163  21.451  25.101  1.00  0.00     0.124 S 
ATOM     86  O   UNL A   1      43.081  20.507  25.362  1.00  0.00    -0.237 OA
ATOM     87  O   UNL A   1      44.086  22.179  23.838  1.00  0.00    -0.237 OA
ATOM     88  O   UNL A   1      45.501  20.998  25.473  1.00  0.00    -0.744 OA
ENDBRANCH  84  85
ENDBRANCH  52  77
BRANCH  64  89
ATOM     89  C   UNL A   1      46.606  26.997  33.913  1.00  0.00     0.058 A 
ATOM     90  C   UNL A   1      47.895  27.471  33.626  1.00  0.00     0.135 A 
ATOM     91  C   UNL A   1      46.470  26.057  34.950  1.00  0.00     0.135 A 
ATOM     92  F   UNL A   1      48.083  28.367  32.644  1.00  0.00    -0.206 F 
ATOM     93  C   UNL A   1      49.011  27.004  34.314  1.00  0.00     0.059 A 
ATOM     94  C   UNL A   1      47.567  25.602  35.673  1.00  0.00     0.059 A 
ATOM     95  F   UNL A   1      45.258  25.580  35.276  1.00  0.00    -0.206 F 
ATOM     96  C   UNL A   1      48.836  26.069  35.337  1.00  0.00     0.060 A 
BRANCH  96  97
ATOM     97  S   UNL A   1      50.289  25.484  36.233  1.00  0.00     0.124 S 
ATOM     98  O   UNL A   1      50.106  24.038  36.177  1.00  0.00    -0.237 OA
ATOM     99  O   UNL A   1      51.386  26.016  35.430  1.00  0.00    -0.237 OA
ATOM    100  O   UNL A   1      50.139  26.085  37.555  1.00  0.00    -0.744 OA
ENDBRANCH  96  97
ENDBRANCH  64  89
ENDBRANCH  38  39
ENDBRANCH  30  33
ENDBRANCH  28  29
ENDBRANCH  27  28
ENDBRANCH   1  27
TORSDOF 20
ENDMDL
MODEL 2
REMARK VINA RESULT:     -10.6      1.411      2.932
REMARK SMILES NC(=O)C[C@@H](NC(=O)c1ccc(CO)cc1)C(=O)NCCCCNC(=O)c1ccc(-c2c3nc(c(-c4c(F)cc(S(=O)(=O)[O-])cc4F)c4ccc([nH]4)c(-c4c(F)cc(S(=O)(=O)[O-])cc4F)c4nc(c(-c5c(F)cc(S(=O)(=O)[O-])cc5F)c5ccc2[nH]5)C=C4)C=C3)cc1
REMARK SMILES IDX 21 1 20 2 19 3 17 4 18 5 5 7 4 8 2 9 1 10 3 13 6 14 7 15
REMARK SMILES IDX 8 17 9 18 10 19 16 20 11 21 15 22 12 23 13 24 14 25 22 27
REMARK SMILES IDX 23 28 24 29 25 30 26 32 27 33 28 34 92 35 29 36 91 37 30 38
REMARK SMILES IDX 31 39 32 40 85 41 33 42 90 43 84 44 86 45 34 46 89 47 83 48
REMARK SMILES IDX 82 49 35 51 69 52 48 53 68 54 49 55 52 56 67 57 87 58 50 59
REMARK SMILES IDX 51 60 66 62 88 63 53 64 36 65 37 66 46 67 38 68 39 69 45 70
REMARK SMILES IDX 47 71 40 72 41 73 42 74 43 75 44 76 70 77 71 78 80 79 72 80
REMARK SMILES IDX 73 81 79 82 81 83 74 84 75 85 76 86 77 87 78 88 54 89 55 90
REMARK SMILES IDX 64 91 56 92 57 93 63 94 65 95 58 96 59 97 60 98 61 99 62 100
REMARK H PARENT 19 6 1 11 1 12 6 16 14 26 24 31 86 50 52 61
REMARK Flexibility Score: inf
ROOT
ATOM      1  C   UNL A   1      32.136  27.563  26.819  1.00  0.00     0.023 C 
ENDROOT
BRANCH   1   2
ATOM      2  C   UNL A   1      31.525  26.430  26.006  1.00  0.00     0.116 C 
BRANCH   2   3
ATOM      3  N   UNL A   1      31.258  25.288  26.859  1.00  0.00    -0.354 N 
ATOM      4  C   UNL A   1      31.874  24.075  26.908  1.00  0.00     0.243 C 
ATOM      5  O   UNL A   1      31.350  23.183  27.581  1.00  0.00    -0.273 OA
ATOM      6  H   UNL A   1      30.521  25.409  27.500  1.00  0.00     0.163 HD
BRANCH   4   7
ATOM      7  C   UNL A   1      33.107  23.778  26.042  1.00  0.00     0.180 C 
BRANCH   7   8
ATOM      8  C   UNL A   1      34.102  23.100  27.007  1.00  0.00     0.134 C 
BRANCH   8   9
ATOM      9  C   UNL A   1      34.361  21.650  26.716  1.00  0.00     0.220 C 
ATOM     10  N   UNL A   1      33.558  20.769  27.382  1.00  0.00    -0.370 N 
ATOM     11  H   UNL A   1      33.669  19.800  27.242  1.00  0.00     0.159 HD
ATOM     12  H   UNL A   1      32.869  21.102  28.001  1.00  0.00     0.159 HD
ATOM     13  O   UNL A   1      35.241  21.260  25.962  1.00  0.00    -0.275 OA
ENDBRANCH   8   9
ENDBRANCH   7   8
BRANCH   7  14
ATOM     14  N   UNL A   1      32.854  22.990  24.816  1.00  0.00    -0.340 N 
ATOM     15  C   UNL A   1      32.847  23.340  23.483  1.00  0.00     0.251 C 
ATOM     16  H   UNL A   1      32.655  22.041  24.984  1.00  0.00     0.164 HD
ATOM     17  O   UNL A   1      32.867  22.445  22.640  1.00  0.00    -0.269 OA
BRANCH  15  18
ATOM     18  C   UNL A   1      32.648  24.739  23.046  1.00  0.00     0.039 A 
ATOM     19  C   UNL A   1      31.347  25.137  22.707  1.00  0.00     0.014 A 
ATOM     20  C   UNL A   1      33.686  25.669  23.021  1.00  0.00     0.014 A 
ATOM     21  C   UNL A   1      31.063  26.485  22.481  1.00  0.00     0.007 A 
ATOM     22  C   UNL A   1      33.398  27.020  22.802  1.00  0.00     0.007 A 
ATOM     23  C   UNL A   1      32.080  27.445  22.574  1.00  0.00    -0.023 A 
BRANCH  23  24
ATOM     24  C   UNL A   1      31.750  28.910  22.440  1.00  0.00     0.191 C 
BRANCH  24  25
ATOM     25  O   UNL A   1      32.382  29.663  23.461  1.00  0.00    -0.392 OA
ATOM     26  H   UNL A   1      31.836  30.436  23.677  1.00  0.00     0.211 HD
ENDBRANCH  24  25
ENDBRANCH  23  24
ENDBRANCH  15  18
ENDBRANCH   7  14
ENDBRANCH   4   7
ENDBRANCH   2   3
ENDBRANCH   1   2
BRANCH   1  27
ATOM     27  C   UNL A   1      33.665  27.573  26.791  1.00  0.00     0.023 C 
BRANCH  27  28
ATOM     28  C   UNL A   1      34.272  28.689  25.948  1.00  0.00     0.116 C 
BRANCH  28  29
ATOM     29  N   UNL A   1      33.783  30.001  26.341  1.00  0.00    -0.352 N 
ATOM     30  C   UNL A   1      34.226  30.804  27.361  1.00  0.00     0.251 C 
ATOM     31  H   UNL A   1      33.038  30.359  25.806  1.00  0.00     0.163 HD
ATOM     32  O   UNL A   1      33.570  31.788  27.698  1.00  0.00    -0.269 OA
BRANCH  30  33
ATOM     33  C   UNL A   1      35.483  30.463  28.054  1.00  0.00     0.039 A 
ATOM     34  C   UNL A   1      35.432  29.690  29.215  1.00  0.00     0.014 A 
ATOM     35  C   UNL A   1      36.711  30.899  27.545  1.00  0.00     0.014 A 
ATOM     36  C   UNL A   1      36.621  29.326  29.848  1.00  0.00     0.010 A 
ATOM     37  C   UNL A   1      37.895  30.460  28.127  1.00  0.00     0.010 A 
ATOM     38  C   UNL A   1      37.862  29.690  29.298  1.00  0.00    -0.014 A 
BRANCH  38  39
ATOM     39  C   UNL A   1      39.134  29.315  29.967  1.00  0.00     0.031 A 
ATOM     40  C   UNL A   1      39.557  30.031  31.223  1.00  0.00     0.074 A 
ATOM     41  C   UNL A   1      39.918  28.360  29.431  1.00  0.00     0.049 A 
ATOM     42  N   UNL A   1      40.639  29.870  31.941  1.00  0.00    -0.248 NA
ATOM     43  C   UNL A   1      38.660  31.086  31.724  1.00  0.00     0.031 C 
ATOM     44  C   UNL A   1      39.638  27.630  28.192  1.00  0.00     0.029 A 
ATOM     45  N   UNL A   1      41.113  27.839  29.858  1.00  0.00    -0.354 N 
ATOM     46  C   UNL A   1      40.556  30.804  32.966  1.00  0.00     0.074 A 
ATOM     47  C   UNL A   1      39.354  31.576  32.739  1.00  0.00     0.031 C 
ATOM     48  C   UNL A   1      40.616  26.735  27.979  1.00  0.00     0.029 A 
ATOM     49  C   UNL A   1      41.610  26.851  29.040  1.00  0.00     0.049 A 
ATOM     50  H   UNL A   1      41.573  28.145  30.674  1.00  0.00     0.167 HD
ATOM     51  C   UNL A   1      41.387  30.985  34.020  1.00  0.00     0.037 A 
ATOM     52  C   UNL A   1      42.741  26.124  29.137  1.00  0.00     0.037 A 
ATOM     53  C   UNL A   1      42.570  30.198  34.250  1.00  0.00     0.049 A 
ATOM     54  C   UNL A   1      43.652  26.345  30.315  1.00  0.00     0.074 A 
ATOM     55  C   UNL A   1      43.458  30.269  35.309  1.00  0.00     0.029 A 
ATOM     56  N   UNL A   1      43.031  29.196  33.408  1.00  0.00    -0.354 N 
ATOM     57  N   UNL A   1      43.528  27.193  31.308  1.00  0.00    -0.248 NA
ATOM     58  C   UNL A   1      44.851  25.500  30.393  1.00  0.00     0.031 C 
ATOM     59  C   UNL A   1      44.483  29.344  35.082  1.00  0.00     0.029 A 
ATOM     60  C   UNL A   1      44.200  28.653  33.915  1.00  0.00     0.049 A 
ATOM     61  H   UNL A   1      42.593  28.914  32.573  1.00  0.00     0.167 HD
ATOM     62  C   UNL A   1      44.610  26.956  32.150  1.00  0.00     0.074 A 
ATOM     63  C   UNL A   1      45.372  25.880  31.551  1.00  0.00     0.031 C 
ATOM     64  C   UNL A   1      44.940  27.570  33.314  1.00  0.00     0.037 A 
BRANCH  51  65
ATOM     65  C   UNL A   1      41.041  32.070  35.005  1.00  0.00     0.058 A 
ATOM     66  C   UNL A   1      40.161  31.842  36.077  1.00  0.00     0.135 A 
ATOM     67  C   UNL A   1      41.619  33.345  34.897  1.00  0.00     0.135 A 
ATOM     68  F   UNL A   1      39.565  30.647  36.220  1.00  0.00    -0.206 F 
ATOM     69  C   UNL A   1      39.840  32.846  36.983  1.00  0.00     0.059 A 
ATOM     70  C   UNL A   1      41.338  34.356  35.812  1.00  0.00     0.059 A 
ATOM     71  F   UNL A   1      42.466  33.621  33.893  1.00  0.00    -0.206 F 
ATOM     72  C   UNL A   1      40.436  34.100  36.843  1.00  0.00     0.060 A 
BRANCH  72  73
ATOM     73  S   UNL A   1      40.016  35.389  38.034  1.00  0.00     0.124 S 
ATOM     74  O   UNL A   1      39.859  36.551  37.164  1.00  0.00    -0.237 OA
ATOM     75  O   UNL A   1      38.787  34.874  38.630  1.00  0.00    -0.237 OA
ATOM     76  O   UNL A   1      41.173  35.424  38.922  1.00  0.00    -0.744 OA
ENDBRANCH  72  73
ENDBRANCH  51  65
BRANCH  52  77
ATOM     77  C   UNL A   1      43.056  25.096  28.108  1.00  0.00     0.058 A 
ATOM     78  C   UNL A   1      42.663  23.760  28.274  1.00  0.00     0.135 A 
ATOM     79  C   UNL A   1      43.756  25.428  26.936  1.00  0.00     0.135 A 
ATOM     80  F   UNL A   1      41.996  23.390  29.378  1.00  0.00    -0.206 F 
ATOM     81  C   UNL A   1      42.972  22.785  27.332  1.00  0.00     0.059 A 
ATOM     82  C   UNL A   1      44.050  24.477  25.965  1.00  0.00     0.059 A 
ATOM     83  F   UNL A   1      44.138  26.696  26.718  1.00  0.00    -0.206 F 
ATOM     84  C   UNL A   1      43.664  23.154  26.177  1.00  0.00     0.060 A 
BRANCH  84  85
ATOM     85  S   UNL A   1      44.025  21.888  24.942  1.00  0.00     0.124 S 
ATOM     86  O   UNL A   1      45.428  21.601  25.216  1.00  0.00    -0.237 OA
ATOM     87  O   UNL A   1      43.075  20.837  25.295  1.00  0.00    -0.237 OA
ATOM     88  O   UNL A   1      43.754  22.567  23.677  1.00  0.00    -0.744 OA
ENDBRANCH  84  85
ENDBRANCH  52  77
BRANCH  64  89
ATOM     89  C   UNL A   1      46.145  27.053  34.053  1.00  0.00     0.058 A 
ATOM     90  C   UNL A   1      46.055  26.020  34.998  1.00  0.00     0.135 A 
ATOM     91  C   UNL A   1      47.419  27.577  33.775  1.00  0.00     0.135 A 
ATOM     92  F   UNL A   1      44.862  25.484  35.304  1.00  0.00    -0.206 F 
ATOM     93  C   UNL A   1      47.180  25.549  35.669  1.00  0.00     0.059 A 
ATOM     94  C   UNL A   1      48.561  27.099  34.409  1.00  0.00     0.059 A 
ATOM     95  F   UNL A   1      47.565  28.557  32.869  1.00  0.00    -0.206 F 
ATOM     96  C   UNL A   1      48.429  26.096  35.367  1.00  0.00     0.060 A 
BRANCH  96  97
ATOM     97  S   UNL A   1      49.882  25.465  36.232  1.00  0.00     0.124 S 
ATOM     98  O   UNL A   1      50.819  25.273  35.131  1.00  0.00    -0.237 OA
ATOM     99  O   UNL A   1      50.196  26.555  37.150  1.00  0.00    -0.237 OA
ATOM    100  O   UNL A   1      49.397  24.242  36.864  1.00  0.00    -0.744 OA
ENDBRANCH  96  97
ENDBRANCH  64  89
ENDBRANCH  38  39
ENDBRANCH  30  33
ENDBRANCH  28  29
ENDBRANCH  27  28
ENDBRANCH   1  27
TORSDOF 20
ENDMDL
MODEL 3
REMARK VINA RESULT:     -10.5      4.522      9.994
REMARK SMILES NC(=O)C[C@@H](NC(=O)c1ccc(CO)cc1)C(=O)NCCCCNC(=O)c1ccc(-c2c3nc(c(-c4c(F)cc(S(=O)(=O)[O-])cc4F)c4ccc([nH]4)c(-c4c(F)cc(S(=O)(=O)[O-])cc4F)c4nc(c(-c5c(F)cc(S(=O)(=O)[O-])cc5F)c5ccc2[nH]5)C=C4)C=C3)cc1
REMARK SMILES IDX 21 1 20 2 19 3 17 4 18 5 5 7 4 8 2 9 1 10 3 13 6 14 7 15
REMARK SMILES IDX 8 17 9 18 10 19 16 20 11 21 15 22 12 23 13 24 14 25 22 27
REMARK SMILES IDX 23 28 24 29 25 30 26 32 27 33 28 34 92 35 29 36 91 37 30 38
REMARK SMILES IDX 31 39 32 40 85 41 33 42 90 43 84 44 86 45 34 46 89 47 83 48
REMARK SMILES IDX 82 49 35 51 69 52 48 53 68 54 49 55 52 56 67 57 87 58 50 59
REMARK SMILES IDX 51 60 66 62 88 63 53 64 36 65 37 66 46 67 38 68 39 69 45 70
REMARK SMILES IDX 47 71 40 72 41 73 42 74 43 75 44 76 70 77 71 78 80 79 72 80
REMARK SMILES IDX 73 81 79 82 81 83 74 84 75 85 76 86 77 87 78 88 54 89 55 90
REMARK SMILES IDX 64 91 56 92 57 93 63 94 65 95 58 96 59 97 60 98 61 99 62 100
REMARK H PARENT 19 6 1 11 1 12 6 16 14 26 24 31 86 50 52 61
REMARK Flexibility Score: inf
ROOT
ATOM      1  C   UNL A   1      34.605  24.008  24.120  1.00  0.00     0.023 C 
ENDROOT
BRANCH   1   2
ATOM      2  C   UNL A   1      34.104  25.421  23.854  1.00  0.00     0.116 C 
BRANCH   2   3
ATOM      3  N   UNL A   1      33.380  25.467  22.598  1.00  0.00    -0.354 N 
ATOM      4  C   UNL A   1      32.257  26.161  22.266  1.00  0.00     0.243 C 
ATOM      5  O   UNL A   1      31.704  25.895  21.195  1.00  0.00    -0.273 OA
ATOM      6  H   UNL A   1      33.758  24.914  21.877  1.00  0.00     0.163 HD
BRANCH   4   7
ATOM      7  C   UNL A   1      31.615  27.147  23.252  1.00  0.00     0.180 C 
BRANCH   7   8
ATOM      8  C   UNL A   1      30.436  27.762  22.471  1.00  0.00     0.134 C 
BRANCH   8   9
ATOM      9  C   UNL A   1      30.330  29.257  22.578  1.00  0.00     0.220 C 
ATOM     10  N   UNL A   1      30.975  29.959  21.602  1.00  0.00    -0.370 N 
ATOM     11  H   UNL A   1      30.950  30.944  21.605  1.00  0.00     0.159 HD
ATOM     12  H   UNL A   1      31.465  29.482  20.893  1.00  0.00     0.159 HD
ATOM     13  O   UNL A   1      29.738  29.828  23.483  1.00  0.00    -0.275 OA
ENDBRANCH   8   9
ENDBRANCH   7   8
BRANCH   7  14
ATOM     14  N   UNL A   1      31.215  26.578  24.558  1.00  0.00    -0.340 N 
ATOM     15  C   UNL A   1      31.307  27.069  25.842  1.00  0.00     0.251 C 
ATOM     16  H   UNL A   1      30.808  25.683  24.498  1.00  0.00     0.164 HD
ATOM     17  O   UNL A   1      30.665  26.514  26.731  1.00  0.00    -0.269 OA
BRANCH  15  18
ATOM     18  C   UNL A   1      32.276  28.126  26.204  1.00  0.00     0.039 A 
ATOM     19  C   UNL A   1      31.818  29.451  26.224  1.00  0.00     0.014 A 
ATOM     20  C   UNL A   1      33.589  27.841  26.576  1.00  0.00     0.014 A 
ATOM     21  C   UNL A   1      32.625  30.464  26.746  1.00  0.00     0.007 A 
ATOM     22  C   UNL A   1      34.393  28.856  27.106  1.00  0.00     0.007 A 
ATOM     23  C   UNL A   1      33.903  30.165  27.236  1.00  0.00    -0.023 A 
BRANCH  23  24
ATOM     24  C   UNL A   1      34.727  31.238  27.902  1.00  0.00     0.191 C 
BRANCH  24  25
ATOM     25  O   UNL A   1      33.896  32.259  28.427  1.00  0.00    -0.392 OA
ATOM     26  H   UNL A   1      33.913  32.224  29.396  1.00  0.00     0.211 HD
ENDBRANCH  24  25
ENDBRANCH  23  24
ENDBRANCH  15  18
ENDBRANCH   7  14
ENDBRANCH   4   7
ENDBRANCH   2   3
ENDBRANCH   1   2
BRANCH   1  27
ATOM     27  C   UNL A   1      36.120  23.928  24.308  1.00  0.00     0.023 C 
BRANCH  27  28
ATOM     28  C   UNL A   1      36.568  23.771  25.757  1.00  0.00     0.116 C 
BRANCH  28  29
ATOM     29  N   UNL A   1      37.405  22.596  25.947  1.00  0.00    -0.352 N 
ATOM     30  C   UNL A   1      38.731  22.543  26.290  1.00  0.00     0.251 C 
ATOM     31  H   UNL A   1      36.960  21.728  25.812  1.00  0.00     0.163 HD
ATOM     32  O   UNL A   1      39.345  21.481  26.204  1.00  0.00    -0.269 OA
BRANCH  30  33
ATOM     33  C   UNL A   1      39.409  23.770  26.746  1.00  0.00     0.039 A 
ATOM     34  C   UNL A   1      39.839  24.701  25.799  1.00  0.00     0.014 A 
ATOM     35  C   UNL A   1      39.606  24.005  28.111  1.00  0.00     0.014 A 
ATOM     36  C   UNL A   1      40.440  25.886  26.227  1.00  0.00     0.010 A 
ATOM     37  C   UNL A   1      40.122  25.223  28.536  1.00  0.00     0.010 A 
ATOM     38  C   UNL A   1      40.567  26.166  27.598  1.00  0.00    -0.014 A 
BRANCH  38  39
ATOM     39  C   UNL A   1      41.211  27.420  28.066  1.00  0.00     0.031 A 
ATOM     40  C   UNL A   1      42.705  27.582  27.950  1.00  0.00     0.074 A 
ATOM     41  C   UNL A   1      40.463  28.393  28.620  1.00  0.00     0.049 A 
ATOM     42  N   UNL A   1      43.458  28.584  28.320  1.00  0.00    -0.248 NA
ATOM     43  C   UNL A   1      43.453  26.457  27.364  1.00  0.00     0.031 C 
ATOM     44  C   UNL A   1      39.014  28.332  28.831  1.00  0.00     0.029 A 
ATOM     45  N   UNL A   1      40.816  29.624  29.111  1.00  0.00    -0.354 N 
ATOM     46  C   UNL A   1      44.762  28.209  28.023  1.00  0.00     0.074 A 
ATOM     47  C   UNL A   1      44.706  26.859  27.505  1.00  0.00     0.031 C 
ATOM     48  C   UNL A   1      38.601  29.487  29.376  1.00  0.00     0.029 A 
ATOM     49  C   UNL A   1      39.754  30.355  29.590  1.00  0.00     0.049 A 
ATOM     50  H   UNL A   1      41.744  29.954  29.120  1.00  0.00     0.167 HD
ATOM     51  C   UNL A   1      45.902  28.931  28.139  1.00  0.00     0.037 A 
ATOM     52  C   UNL A   1      39.716  31.585  30.140  1.00  0.00     0.037 A 
ATOM     53  C   UNL A   1      45.946  30.281  28.636  1.00  0.00     0.049 A 
ATOM     54  C   UNL A   1      40.997  32.368  30.264  1.00  0.00     0.074 A 
ATOM     55  C   UNL A   1      47.041  31.119  28.755  1.00  0.00     0.029 A 
ATOM     56  N   UNL A   1      44.847  30.993  29.096  1.00  0.00    -0.354 N 
ATOM     57  N   UNL A   1      42.214  32.019  29.922  1.00  0.00    -0.248 NA
ATOM     58  C   UNL A   1      40.896  33.717  30.835  1.00  0.00     0.031 C 
ATOM     59  C   UNL A   1      46.613  32.318  29.332  1.00  0.00     0.029 A 
ATOM     60  C   UNL A   1      45.240  32.252  29.515  1.00  0.00     0.049 A 
ATOM     61  H   UNL A   1      43.924  30.651  29.122  1.00  0.00     0.167 HD
ATOM     62  C   UNL A   1      43.018  33.121  30.199  1.00  0.00     0.074 A 
ATOM     63  C   UNL A   1      42.145  34.148  30.729  1.00  0.00     0.031 C 
ATOM     64  C   UNL A   1      44.355  33.270  30.026  1.00  0.00     0.037 A 
BRANCH  51  65
ATOM     65  C   UNL A   1      47.190  28.276  27.717  1.00  0.00     0.058 A 
ATOM     66  C   UNL A   1      47.977  27.541  28.620  1.00  0.00     0.135 A 
ATOM     67  C   UNL A   1      47.631  28.357  26.387  1.00  0.00     0.135 A 
ATOM     68  F   UNL A   1      47.613  27.444  29.910  1.00  0.00    -0.206 F 
ATOM     69  C   UNL A   1      49.167  26.939  28.229  1.00  0.00     0.059 A 
ATOM     70  C   UNL A   1      48.803  27.735  25.964  1.00  0.00     0.059 A 
ATOM     71  F   UNL A   1      46.922  29.047  25.479  1.00  0.00    -0.206 F 
ATOM     72  C   UNL A   1      49.572  27.041  26.897  1.00  0.00     0.060 A 
BRANCH  72  73
ATOM     73  S   UNL A   1      51.115  26.246  26.404  1.00  0.00     0.124 S 
ATOM     74  O   UNL A   1      51.003  24.952  27.071  1.00  0.00    -0.237 OA
ATOM     75  O   UNL A   1      51.002  26.221  24.949  1.00  0.00    -0.237 OA
ATOM     76  O   UNL A   1      52.142  27.136  26.935  1.00  0.00    -0.744 OA
ENDBRANCH  72  73
ENDBRANCH  51  65
BRANCH  52  77
ATOM     77  C   UNL A   1      38.419  32.164  30.584  1.00  0.00     0.058 A 
ATOM     78  C   UNL A   1      37.686  33.022  29.750  1.00  0.00     0.135 A 
ATOM     79  C   UNL A   1      37.885  31.871  31.849  1.00  0.00     0.135 A 
ATOM     80  F   UNL A   1      38.157  33.336  28.533  1.00  0.00    -0.206 F 
ATOM     81  C   UNL A   1      36.485  33.589  30.161  1.00  0.00     0.059 A 
ATOM     82  C   UNL A   1      36.670  32.402  32.270  1.00  0.00     0.059 A 
ATOM     83  F   UNL A   1      38.535  31.041  32.678  1.00  0.00    -0.206 F 
ATOM     84  C   UNL A   1      35.982  33.270  31.423  1.00  0.00     0.060 A 
BRANCH  84  85
ATOM     85  S   UNL A   1      34.402  33.980  31.931  1.00  0.00     0.124 S 
ATOM     86  O   UNL A   1      34.835  35.146  32.693  1.00  0.00    -0.237 OA
ATOM     87  O   UNL A   1      33.764  34.255  30.647  1.00  0.00    -0.237 OA
ATOM     88  O   UNL A   1      33.787  32.908  32.709  1.00  0.00    -0.744 OA
ENDBRANCH  84  85
ENDBRANCH  52  77
BRANCH  64  89
ATOM     89  C   UNL A   1      44.951  34.613  30.355  1.00  0.00     0.058 A 
ATOM     90  C   UNL A   1      45.030  35.647  29.410  1.00  0.00     0.135 A 
ATOM     91  C   UNL A   1      45.412  34.879  31.656  1.00  0.00     0.135 A 
ATOM     92  F   UNL A   1      44.606  35.446  28.151  1.00  0.00    -0.206 F 
ATOM     93  C   UNL A   1      45.579  36.885  29.730  1.00  0.00     0.059 A 
ATOM     94  C   UNL A   1      45.933  36.119  32.008  1.00  0.00     0.059 A 
ATOM     95  F   UNL A   1      45.347  33.931  32.604  1.00  0.00    -0.206 F 
ATOM     96  C   UNL A   1      46.028  37.111  31.033  1.00  0.00     0.060 A 
BRANCH  96  97
ATOM     97  S   UNL A   1      46.722  38.726  31.441  1.00  0.00     0.124 S 
ATOM     98  O   UNL A   1      48.087  38.593  30.944  1.00  0.00    -0.237 OA
ATOM     99  O   UNL A   1      45.860  39.634  30.692  1.00  0.00    -0.237 OA
ATOM    100  O   UNL A   1      46.587  38.798  32.893  1.00  0.00    -0.744 OA
ENDBRANCH  96  97
ENDBRANCH  64  89
ENDBRANCH  38  39
ENDBRANCH  30  33
ENDBRANCH  28  29
ENDBRANCH  27  28
ENDBRANCH   1  27
TORSDOF 20
ENDMDL
