MODEL 1
REMARK VINA RESULT:     -10.8      0.000      0.000
REMARK SMILES CCCCCn1c(SCC(=O)NCCCCNC(=O)c2ccc(-c3c4nc(c(-c5c(F)cc(S(=O)(=O)[O-])cc5F)c5ccc([nH]5)c(-c5c(F)cc(S(=O)(=O)[O-])cc5F)c5nc(c(-c6c(F)cc(S(=O)(=O)[O-])cc6F)c6ccc3[nH]6)C=C5)C=C4)cc2)nc2ccccc2c1=O
REMARK SMILES IDX 13 1 12 2 10 3 11 4 9 6 8 7 7 8 6 9 93 10 86 11 92 12 94 13
REMARK SMILES IDX 87 14 91 15 88 16 90 17 89 18 5 19 4 20 3 21 2 22 1 23 14 24
REMARK SMILES IDX 15 25 16 26 17 27 18 28 19 30 20 31 21 32 85 33 22 34 84 35
REMARK SMILES IDX 23 36 24 37 25 38 78 39 26 40 83 41 77 42 79 43 27 44 82 45
REMARK SMILES IDX 76 46 75 47 28 49 62 50 41 51 61 52 42 53 45 54 60 55 80 56
REMARK SMILES IDX 43 57 44 58 59 60 81 61 46 62 29 63 30 64 39 65 31 66 32 67
REMARK SMILES IDX 38 68 40 69 33 70 34 71 35 72 36 73 37 74 63 75 64 76 73 77
REMARK SMILES IDX 65 78 66 79 72 80 74 81 67 82 68 83 69 84 70 85 71 86 47 87
REMARK SMILES IDX 48 88 57 89 49 90 50 91 56 92 58 93 51 94 52 95 53 96 54 97
REMARK SMILES IDX 55 98
REMARK H PARENT 12 5 17 29 79 48 45 59
REMARK Flexibility Score: inf
ROOT
ATOM      1  C   UNL A   1      32.325  27.632  23.703  1.00  0.00     0.116 C 
ENDROOT
BRANCH   1   2
ATOM      2  N   UNL A   1      32.961  26.924  22.605  1.00  0.00    -0.355 N 
ATOM      3  C   UNL A   1      32.718  25.697  22.059  1.00  0.00     0.230 C 
ATOM      4  O   UNL A   1      33.290  25.438  20.993  1.00  0.00    -0.274 OA
ATOM      5  H   UNL A   1      33.698  27.416  22.179  1.00  0.00     0.163 HD
BRANCH   3   6
ATOM      6  C   UNL A   1      31.761  24.677  22.653  1.00  0.00     0.178 C 
BRANCH   6   7
ATOM      7  S   UNL A   1      32.145  24.094  24.279  1.00  0.00    -0.078 SA
BRANCH   7   8
ATOM      8  C   UNL A   1      33.019  22.595  24.424  1.00  0.00     0.171 A 
ATOM      9  N   UNL A   1      34.098  22.296  25.245  1.00  0.00    -0.287 N 
ATOM     10  C   UNL A   1      34.665  21.008  25.207  1.00  0.00     0.262 A 
ATOM     11  N   UNL A   1      32.452  21.708  23.667  1.00  0.00    -0.224 NA
ATOM     12  C   UNL A   1      33.960  19.976  24.439  1.00  0.00     0.066 A 
ATOM     13  O   UNL A   1      35.709  20.687  25.772  1.00  0.00    -0.269 OA
ATOM     14  C   UNL A   1      32.870  20.385  23.691  1.00  0.00     0.079 A 
ATOM     15  C   UNL A   1      34.342  18.630  24.485  1.00  0.00     0.016 A 
ATOM     16  C   UNL A   1      32.147  19.430  22.972  1.00  0.00     0.029 A 
ATOM     17  C   UNL A   1      33.610  17.681  23.771  1.00  0.00     0.001 A 
ATOM     18  C   UNL A   1      32.511  18.082  23.013  1.00  0.00     0.002 A 
BRANCH   9  19
ATOM     19  C   UNL A   1      34.768  23.201  26.171  1.00  0.00     0.128 C 
BRANCH  19  20
ATOM     20  C   UNL A   1      35.681  24.231  25.502  1.00  0.00     0.022 C 
BRANCH  20  21
ATOM     21  C   UNL A   1      37.059  23.754  25.049  1.00  0.00     0.002 C 
BRANCH  21  22
ATOM     22  C   UNL A   1      38.151  23.814  26.123  1.00  0.00    -0.003 C 
ATOM     23  C   UNL A   1      38.889  22.507  26.384  1.00  0.00     0.004 C 
ENDBRANCH  21  22
ENDBRANCH  20  21
ENDBRANCH  19  20
ENDBRANCH   9  19
ENDBRANCH   7   8
ENDBRANCH   6   7
ENDBRANCH   3   6
ENDBRANCH   1   2
BRANCH   1  24
ATOM     24  C   UNL A   1      33.287  28.260  24.718  1.00  0.00     0.023 C 
BRANCH  24  25
ATOM     25  C   UNL A   1      32.784  28.431  26.150  1.00  0.00     0.023 C 
BRANCH  25  26
ATOM     26  C   UNL A   1      33.834  28.623  27.236  1.00  0.00     0.116 C 
BRANCH  26  27
ATOM     27  N   UNL A   1      33.845  29.952  27.825  1.00  0.00    -0.352 N 
ATOM     28  C   UNL A   1      34.856  30.663  28.428  1.00  0.00     0.251 C 
ATOM     29  H   UNL A   1      32.981  30.423  27.785  1.00  0.00     0.163 HD
ATOM     30  O   UNL A   1      34.602  31.779  28.882  1.00  0.00    -0.269 OA
BRANCH  28  31
ATOM     31  C   UNL A   1      36.219  30.100  28.588  1.00  0.00     0.039 A 
ATOM     32  C   UNL A   1      36.641  29.495  29.772  1.00  0.00     0.014 A 
ATOM     33  C   UNL A   1      37.104  30.177  27.504  1.00  0.00     0.014 A 
ATOM     34  C   UNL A   1      37.981  29.143  29.935  1.00  0.00     0.010 A 
ATOM     35  C   UNL A   1      38.427  29.742  27.640  1.00  0.00     0.010 A 
ATOM     36  C   UNL A   1      38.895  29.275  28.877  1.00  0.00    -0.014 A 
BRANCH  36  37
ATOM     37  C   UNL A   1      40.330  28.940  29.096  1.00  0.00     0.031 A 
ATOM     38  C   UNL A   1      40.876  27.595  28.688  1.00  0.00     0.074 A 
ATOM     39  C   UNL A   1      41.159  29.870  29.610  1.00  0.00     0.049 A 
ATOM     40  N   UNL A   1      42.106  27.150  28.759  1.00  0.00    -0.248 NA
ATOM     41  C   UNL A   1      39.923  26.617  28.138  1.00  0.00     0.031 C 
ATOM     42  C   UNL A   1      40.756  31.206  30.054  1.00  0.00     0.029 A 
ATOM     43  N   UNL A   1      42.516  29.847  29.823  1.00  0.00    -0.354 N 
ATOM     44  C   UNL A   1      42.071  25.846  28.280  1.00  0.00     0.074 A 
ATOM     45  C   UNL A   1      40.694  25.555  27.949  1.00  0.00     0.031 C 
ATOM     46  C   UNL A   1      41.844  31.890  30.438  1.00  0.00     0.029 A 
ATOM     47  C   UNL A   1      43.018  31.029  30.314  1.00  0.00     0.049 A 
ATOM     48  H   UNL A   1      43.076  29.057  29.641  1.00  0.00     0.167 HD
ATOM     49  C   UNL A   1      43.096  24.974  28.113  1.00  0.00     0.037 A 
ATOM     50  C   UNL A   1      44.278  31.384  30.633  1.00  0.00     0.037 A 
ATOM     51  C   UNL A   1      44.474  25.274  28.403  1.00  0.00     0.049 A 
ATOM     52  C   UNL A   1      45.394  30.395  30.452  1.00  0.00     0.074 A 
ATOM     53  C   UNL A   1      45.584  24.470  28.212  1.00  0.00     0.029 A 
ATOM     54  N   UNL A   1      44.930  26.468  28.940  1.00  0.00    -0.354 N 
ATOM     55  N   UNL A   1      45.341  29.178  29.968  1.00  0.00    -0.248 NA
ATOM     56  C   UNL A   1      46.737  30.820  30.873  1.00  0.00     0.031 C 
ATOM     57  C   UNL A   1      46.709  25.164  28.669  1.00  0.00     0.029 A 
ATOM     58  C   UNL A   1      46.303  26.413  29.111  1.00  0.00     0.049 A 
ATOM     59  H   UNL A   1      44.362  27.239  29.166  1.00  0.00     0.167 HD
ATOM     60  C   UNL A   1      46.641  28.692  30.024  1.00  0.00     0.074 A 
ATOM     61  C   UNL A   1      47.464  29.752  30.569  1.00  0.00     0.031 C 
ATOM     62  C   UNL A   1      47.109  27.473  29.661  1.00  0.00     0.037 A 
BRANCH  49  63
ATOM     63  C   UNL A   1      42.776  23.604  27.585  1.00  0.00     0.058 A 
ATOM     64  C   UNL A   1      42.837  23.313  26.213  1.00  0.00     0.135 A 
ATOM     65  C   UNL A   1      42.476  22.552  28.465  1.00  0.00     0.135 A 
ATOM     66  F   UNL A   1      43.106  24.287  25.328  1.00  0.00    -0.206 F 
ATOM     67  C   UNL A   1      42.601  22.030  25.732  1.00  0.00     0.059 A 
ATOM     68  C   UNL A   1      42.255  21.256  28.007  1.00  0.00     0.059 A 
ATOM     69  F   UNL A   1      42.405  22.777  29.787  1.00  0.00    -0.206 F 
ATOM     70  C   UNL A   1      42.312  21.007  26.636  1.00  0.00     0.060 A 
BRANCH  70  71
ATOM     71  S   UNL A   1      42.030  19.343  25.994  1.00  0.00     0.124 S 
ATOM     72  O   UNL A   1      42.872  19.346  24.801  1.00  0.00    -0.237 OA
ATOM     73  O   UNL A   1      42.494  18.502  27.092  1.00  0.00    -0.237 OA
ATOM     74  O   UNL A   1      40.592  19.312  25.747  1.00  0.00    -0.744 OA
ENDBRANCH  70  71
ENDBRANCH  49  63
BRANCH  50  75
ATOM     75  C   UNL A   1      44.543  32.749  31.156  1.00  0.00     0.058 A 
ATOM     76  C   UNL A   1      44.851  33.807  30.290  1.00  0.00     0.135 A 
ATOM     77  C   UNL A   1      44.455  33.029  32.529  1.00  0.00     0.135 A 
ATOM     78  F   UNL A   1      44.953  33.585  28.970  1.00  0.00    -0.206 F 
ATOM     79  C   UNL A   1      45.061  35.097  30.765  1.00  0.00     0.059 A 
ATOM     80  C   UNL A   1      44.640  34.314  33.026  1.00  0.00     0.059 A 
ATOM     81  F   UNL A   1      44.150  32.050  33.396  1.00  0.00    -0.206 F 
ATOM     82  C   UNL A   1      44.948  35.342  32.135  1.00  0.00     0.060 A 
BRANCH  82  83
ATOM     83  S   UNL A   1      45.150  37.034  32.734  1.00  0.00     0.124 S 
ATOM     84  O   UNL A   1      45.506  36.809  34.130  1.00  0.00    -0.237 OA
ATOM     85  O   UNL A   1      46.217  37.539  31.876  1.00  0.00    -0.237 OA
ATOM     86  O   UNL A   1      43.837  37.629  32.504  1.00  0.00    -0.744 OA
ENDBRANCH  82  83
ENDBRANCH  50  75
BRANCH  62  87
ATOM     87  C   UNL A   1      48.574  27.203  29.847  1.00  0.00     0.058 A 
ATOM     88  C   UNL A   1      49.512  27.602  28.884  1.00  0.00     0.135 A 
ATOM     89  C   UNL A   1      49.051  26.630  31.036  1.00  0.00     0.135 A 
ATOM     90  F   UNL A   1      49.104  28.147  27.728  1.00  0.00    -0.206 F 
ATOM     91  C   UNL A   1      50.878  27.445  29.095  1.00  0.00     0.059 A 
ATOM     92  C   UNL A   1      50.415  26.480  31.276  1.00  0.00     0.059 A 
ATOM     93  F   UNL A   1      48.193  26.238  31.990  1.00  0.00    -0.206 F 
ATOM     94  C   UNL A   1      51.320  26.890  30.298  1.00  0.00     0.060 A 
BRANCH  94  95
ATOM     95  S   UNL A   1      53.098  26.758  30.586  1.00  0.00     0.124 S 
ATOM     96  O   UNL A   1      53.578  26.329  29.277  1.00  0.00    -0.237 OA
ATOM     97  O   UNL A   1      53.453  28.119  30.976  1.00  0.00    -0.237 OA
ATOM     98  O   UNL A   1      53.196  25.762  31.648  1.00  0.00    -0.744 OA
ENDBRANCH  94  95
ENDBRANCH  62  87
ENDBRANCH  36  37
ENDBRANCH  28  31
ENDBRANCH  26  27
ENDBRANCH  25  26
ENDBRANCH  24  25
ENDBRANCH   1  24
TORSDOF 20
ENDMDL
MODEL 2
REMARK VINA RESULT:     -10.4      3.023      9.075
REMARK SMILES CCCCCn1c(SCC(=O)NCCCCNC(=O)c2ccc(-c3c4nc(c(-c5c(F)cc(S(=O)(=O)[O-])cc5F)c5ccc([nH]5)c(-c5c(F)cc(S(=O)(=O)[O-])cc5F)c5nc(c(-c6c(F)cc(S(=O)(=O)[O-])cc6F)c6ccc3[nH]6)C=C5)C=C4)cc2)nc2ccccc2c1=O
REMARK SMILES IDX 13 1 12 2 10 3 11 4 9 6 8 7 7 8 6 9 93 10 86 11 92 12 94 13
REMARK SMILES IDX 87 14 91 15 88 16 90 17 89 18 5 19 4 20 3 21 2 22 1 23 14 24
REMARK SMILES IDX 15 25 16 26 17 27 18 28 19 30 20 31 21 32 85 33 22 34 84 35
REMARK SMILES IDX 23 36 24 37 25 38 78 39 26 40 83 41 77 42 79 43 27 44 82 45
REMARK SMILES IDX 76 46 75 47 28 49 62 50 41 51 61 52 42 53 45 54 60 55 80 56
REMARK SMILES IDX 43 57 44 58 59 60 81 61 46 62 29 63 30 64 39 65 31 66 32 67
REMARK SMILES IDX 38 68 40 69 33 70 34 71 35 72 36 73 37 74 63 75 64 76 73 77
REMARK SMILES IDX 65 78 66 79 72 80 74 81 67 82 68 83 69 84 70 85 71 86 47 87
REMARK SMILES IDX 48 88 57 89 49 90 50 91 56 92 58 93 51 94 52 95 53 96 54 97
REMARK SMILES IDX 55 98
REMARK H PARENT 12 5 17 29 79 48 45 59
REMARK Flexibility Score: inf
ROOT
ATOM      1  C   UNL A   1      34.937  31.330  28.174  1.00  0.00     0.116 C 
ENDROOT
BRANCH   1   2
ATOM      2  N   UNL A   1      33.626  30.839  27.785  1.00  0.00    -0.355 N 
ATOM      3  C   UNL A   1      33.252  29.792  26.993  1.00  0.00     0.230 C 
ATOM      4  O   UNL A   1      32.053  29.487  27.003  1.00  0.00    -0.274 OA
ATOM      5  H   UNL A   1      32.874  31.353  28.156  1.00  0.00     0.163 HD
BRANCH   3   6
ATOM      6  C   UNL A   1      34.220  28.965  26.163  1.00  0.00     0.178 C 
BRANCH   6   7
ATOM      7  S   UNL A   1      33.499  27.748  25.100  1.00  0.00    -0.078 SA
BRANCH   7   8
ATOM      8  C   UNL A   1      33.159  26.177  25.770  1.00  0.00     0.171 A 
ATOM      9  N   UNL A   1      31.942  25.661  26.193  1.00  0.00    -0.287 N 
ATOM     10  C   UNL A   1      31.884  24.353  26.711  1.00  0.00     0.262 A 
ATOM     11  N   UNL A   1      34.249  25.475  25.760  1.00  0.00    -0.224 NA
ATOM     12  C   UNL A   1      33.086  23.521  26.597  1.00  0.00     0.066 A 
ATOM     13  O   UNL A   1      30.896  23.858  27.253  1.00  0.00    -0.269 OA
ATOM     14  C   UNL A   1      34.232  24.135  26.122  1.00  0.00     0.079 A 
ATOM     15  C   UNL A   1      33.076  22.158  26.918  1.00  0.00     0.016 A 
ATOM     16  C   UNL A   1      35.392  23.373  25.963  1.00  0.00     0.029 A 
ATOM     17  C   UNL A   1      34.236  21.402  26.749  1.00  0.00     0.001 A 
ATOM     18  C   UNL A   1      35.396  22.011  26.271  1.00  0.00     0.002 A 
BRANCH   9  19
ATOM     19  C   UNL A   1      30.654  26.344  26.191  1.00  0.00     0.128 C 
BRANCH  19  20
ATOM     20  C   UNL A   1      29.732  25.954  25.034  1.00  0.00     0.022 C 
BRANCH  20  21
ATOM     21  C   UNL A   1      30.205  26.283  23.619  1.00  0.00     0.002 C 
BRANCH  21  22
ATOM     22  C   UNL A   1      30.914  25.137  22.890  1.00  0.00    -0.003 C 
ATOM     23  C   UNL A   1      30.665  23.744  23.454  1.00  0.00     0.004 C 
ENDBRANCH  21  22
ENDBRANCH  20  21
ENDBRANCH  19  20
ENDBRANCH   9  19
ENDBRANCH   7   8
ENDBRANCH   6   7
ENDBRANCH   3   6
ENDBRANCH   1   2
BRANCH   1  24
ATOM     24  C   UNL A   1      34.953  32.742  28.772  1.00  0.00     0.023 C 
BRANCH  24  25
ATOM     25  C   UNL A   1      36.306  33.441  28.888  1.00  0.00     0.023 C 
BRANCH  25  26
ATOM     26  C   UNL A   1      37.103  33.202  30.163  1.00  0.00     0.116 C 
BRANCH  26  27
ATOM     27  N   UNL A   1      36.535  32.191  31.040  1.00  0.00    -0.352 N 
ATOM     28  C   UNL A   1      36.957  30.917  31.339  1.00  0.00     0.251 C 
ATOM     29  H   UNL A   1      35.707  32.465  31.497  1.00  0.00     0.163 HD
ATOM     30  O   UNL A   1      36.274  30.234  32.102  1.00  0.00    -0.269 OA
BRANCH  28  31
ATOM     31  C   UNL A   1      38.178  30.335  30.728  1.00  0.00     0.039 A 
ATOM     32  C   UNL A   1      39.244  29.866  31.495  1.00  0.00     0.014 A 
ATOM     33  C   UNL A   1      38.250  30.252  29.331  1.00  0.00     0.014 A 
ATOM     34  C   UNL A   1      40.438  29.495  30.877  1.00  0.00     0.010 A 
ATOM     35  C   UNL A   1      39.419  29.796  28.710  1.00  0.00     0.010 A 
ATOM     36  C   UNL A   1      40.547  29.469  29.477  1.00  0.00    -0.014 A 
BRANCH  36  37
ATOM     37  C   UNL A   1      41.849  29.119  28.844  1.00  0.00     0.031 A 
ATOM     38  C   UNL A   1      42.956  30.138  28.748  1.00  0.00     0.074 A 
ATOM     39  C   UNL A   1      42.057  27.862  28.405  1.00  0.00     0.049 A 
ATOM     40  N   UNL A   1      44.169  29.994  28.275  1.00  0.00    -0.248 NA
ATOM     41  C   UNL A   1      42.669  31.496  29.239  1.00  0.00     0.031 C 
ATOM     42  C   UNL A   1      41.066  26.785  28.429  1.00  0.00     0.029 A 
ATOM     43  N   UNL A   1      43.177  27.268  27.876  1.00  0.00    -0.354 N 
ATOM     44  C   UNL A   1      44.779  31.236  28.396  1.00  0.00     0.074 A 
ATOM     45  C   UNL A   1      43.796  32.136  28.958  1.00  0.00     0.031 C 
ATOM     46  C   UNL A   1      41.634  25.653  27.987  1.00  0.00     0.029 A 
ATOM     47  C   UNL A   1      43.015  25.930  27.602  1.00  0.00     0.049 A 
ATOM     48  H   UNL A   1      44.017  27.754  27.709  1.00  0.00     0.167 HD
ATOM     49  C   UNL A   1      46.048  31.594  28.083  1.00  0.00     0.037 A 
ATOM     50  C   UNL A   1      43.875  25.026  27.094  1.00  0.00     0.037 A 
ATOM     51  C   UNL A   1      47.042  30.692  27.561  1.00  0.00     0.049 A 
ATOM     52  C   UNL A   1      45.273  25.451  26.743  1.00  0.00     0.074 A 
ATOM     53  C   UNL A   1      48.369  30.955  27.267  1.00  0.00     0.029 A 
ATOM     54  N   UNL A   1      46.821  29.358  27.257  1.00  0.00    -0.354 N 
ATOM     55  N   UNL A   1      45.837  26.624  26.895  1.00  0.00    -0.248 NA
ATOM     56  C   UNL A   1      46.147  24.435  26.139  1.00  0.00     0.031 C 
ATOM     57  C   UNL A   1      48.941  29.788  26.751  1.00  0.00     0.029 A 
ATOM     58  C   UNL A   1      47.980  28.791  26.756  1.00  0.00     0.049 A 
ATOM     59  H   UNL A   1      45.966  28.884  27.379  1.00  0.00     0.167 HD
ATOM     60  C   UNL A   1      47.131  26.489  26.408  1.00  0.00     0.074 A 
ATOM     61  C   UNL A   1      47.275  25.114  25.975  1.00  0.00     0.031 C 
ATOM     62  C   UNL A   1      48.109  27.423  26.322  1.00  0.00     0.037 A 
BRANCH  49  63
ATOM     63  C   UNL A   1      46.451  33.026  28.301  1.00  0.00     0.058 A 
ATOM     64  C   UNL A   1      47.035  33.449  29.505  1.00  0.00     0.135 A 
ATOM     65  C   UNL A   1      46.319  33.969  27.269  1.00  0.00     0.135 A 
ATOM     66  F   UNL A   1      47.171  32.590  30.528  1.00  0.00    -0.206 F 
ATOM     67  C   UNL A   1      47.463  34.760  29.683  1.00  0.00     0.059 A 
ATOM     68  C   UNL A   1      46.758  35.281  27.418  1.00  0.00     0.059 A 
ATOM     69  F   UNL A   1      45.767  33.615  26.097  1.00  0.00    -0.206 F 
ATOM     70  C   UNL A   1      47.322  35.669  28.633  1.00  0.00     0.060 A 
BRANCH  70  71
ATOM     71  S   UNL A   1      47.904  37.361  28.874  1.00  0.00     0.124 S 
ATOM     72  O   UNL A   1      47.606  37.572  30.288  1.00  0.00    -0.237 OA
ATOM     73  O   UNL A   1      49.320  37.256  28.536  1.00  0.00    -0.237 OA
ATOM     74  O   UNL A   1      47.094  38.138  27.940  1.00  0.00    -0.744 OA
ENDBRANCH  70  71
ENDBRANCH  49  63
BRANCH  50  75
ATOM     75  C   UNL A   1      43.429  23.624  26.893  1.00  0.00     0.058 A 
ATOM     76  C   UNL A   1      43.286  22.749  27.978  1.00  0.00     0.135 A 
ATOM     77  C   UNL A   1      43.100  23.144  25.615  1.00  0.00     0.135 A 
ATOM     78  F   UNL A   1      43.596  23.161  29.217  1.00  0.00    -0.206 F 
ATOM     79  C   UNL A   1      42.830  21.446  27.806  1.00  0.00     0.059 A 
ATOM     80  C   UNL A   1      42.622  21.853  25.420  1.00  0.00     0.059 A 
ATOM     81  F   UNL A   1      43.209  23.949  24.547  1.00  0.00    -0.206 F 
ATOM     82  C   UNL A   1      42.495  21.009  26.523  1.00  0.00     0.060 A 
BRANCH  82  83
ATOM     83  S   UNL A   1      41.834  19.341  26.319  1.00  0.00     0.124 S 
ATOM     84  O   UNL A   1      42.576  18.873  25.153  1.00  0.00    -0.237 OA
ATOM     85  O   UNL A   1      42.182  18.714  27.590  1.00  0.00    -0.237 OA
ATOM     86  O   UNL A   1      40.408  19.569  26.112  1.00  0.00    -0.744 OA
ENDBRANCH  82  83
ENDBRANCH  50  75
BRANCH  62  87
ATOM     87  C   UNL A   1      49.423  27.005  25.729  1.00  0.00     0.058 A 
ATOM     88  C   UNL A   1      49.707  27.221  24.373  1.00  0.00     0.135 A 
ATOM     89  C   UNL A   1      50.439  26.476  26.540  1.00  0.00     0.135 A 
ATOM     90  F   UNL A   1      48.766  27.716  23.555  1.00  0.00    -0.206 F 
ATOM     91  C   UNL A   1      50.958  26.927  23.839  1.00  0.00     0.059 A 
ATOM     92  C   UNL A   1      51.704  26.193  26.031  1.00  0.00     0.059 A 
ATOM     93  F   UNL A   1      50.218  26.259  27.846  1.00  0.00    -0.206 F 
ATOM     94  C   UNL A   1      51.953  26.421  24.678  1.00  0.00     0.060 A 
BRANCH  94  95
ATOM     95  S   UNL A   1      53.592  26.113  23.986  1.00  0.00     0.124 S 
ATOM     96  O   UNL A   1      53.299  26.031  22.560  1.00  0.00    -0.237 OA
ATOM     97  O   UNL A   1      54.338  27.292  24.413  1.00  0.00    -0.237 OA
ATOM     98  O   UNL A   1      53.996  24.860  24.617  1.00  0.00    -0.744 OA
ENDBRANCH  94  95
ENDBRANCH  62  87
ENDBRANCH  36  37
ENDBRANCH  28  31
ENDBRANCH  26  27
ENDBRANCH  25  26
ENDBRANCH  24  25
ENDBRANCH   1  24
TORSDOF 20
ENDMDL
MODEL 3
REMARK VINA RESULT:     -10.3      2.904      9.253
REMARK SMILES CCCCCn1c(SCC(=O)NCCCCNC(=O)c2ccc(-c3c4nc(c(-c5c(F)cc(S(=O)(=O)[O-])cc5F)c5ccc([nH]5)c(-c5c(F)cc(S(=O)(=O)[O-])cc5F)c5nc(c(-c6c(F)cc(S(=O)(=O)[O-])cc6F)c6ccc3[nH]6)C=C5)C=C4)cc2)nc2ccccc2c1=O
REMARK SMILES IDX 13 1 12 2 10 3 11 4 9 6 8 7 7 8 6 9 93 10 86 11 92 12 94 13
REMARK SMILES IDX 87 14 91 15 88 16 90 17 89 18 5 19 4 20 3 21 2 22 1 23 14 24
REMARK SMILES IDX 15 25 16 26 17 27 18 28 19 30 20 31 21 32 85 33 22 34 84 35
REMARK SMILES IDX 23 36 24 37 25 38 78 39 26 40 83 41 77 42 79 43 27 44 82 45
REMARK SMILES IDX 76 46 75 47 28 49 62 50 41 51 61 52 42 53 45 54 60 55 80 56
REMARK SMILES IDX 43 57 44 58 59 60 81 61 46 62 29 63 30 64 39 65 31 66 32 67
REMARK SMILES IDX 38 68 40 69 33 70 34 71 35 72 36 73 37 74 63 75 64 76 73 77
REMARK SMILES IDX 65 78 66 79 72 80 74 81 67 82 68 83 69 84 70 85 71 86 47 87
REMARK SMILES IDX 48 88 57 89 49 90 50 91 56 92 58 93 51 94 52 95 53 96 54 97
REMARK SMILES IDX 55 98
REMARK H PARENT 12 5 17 29 79 48 45 59
REMARK Flexibility Score: inf
ROOT
ATOM      1  C   UNL A   1      33.598  32.165  27.764  1.00  0.00     0.116 C 
ENDROOT
BRANCH   1   2
ATOM      2  N   UNL A   1      34.215  30.854  27.873  1.00  0.00    -0.355 N 
ATOM      3  C   UNL A   1      33.838  29.634  27.390  1.00  0.00     0.230 C 
ATOM      4  O   UNL A   1      34.671  28.722  27.468  1.00  0.00    -0.274 OA
ATOM      5  H   UNL A   1      35.054  30.843  28.387  1.00  0.00     0.163 HD
BRANCH   3   6
ATOM      6  C   UNL A   1      32.498  29.359  26.728  1.00  0.00     0.178 C 
BRANCH   6   7
ATOM      7  S   UNL A   1      32.507  29.243  24.962  1.00  0.00    -0.078 SA
BRANCH   7   8
ATOM      8  C   UNL A   1      32.623  27.659  24.248  1.00  0.00     0.171 A 
ATOM      9  N   UNL A   1      31.985  27.168  23.118  1.00  0.00    -0.287 N 
ATOM     10  C   UNL A   1      32.219  25.841  22.708  1.00  0.00     0.262 A 
ATOM     11  N   UNL A   1      33.496  26.967  24.913  1.00  0.00    -0.224 NA
ATOM     12  C   UNL A   1      33.285  25.097  23.386  1.00  0.00     0.066 A 
ATOM     13  O   UNL A   1      31.593  25.263  21.820  1.00  0.00    -0.269 OA
ATOM     14  C   UNL A   1      33.880  25.705  24.477  1.00  0.00     0.079 A 
ATOM     15  C   UNL A   1      33.713  23.842  22.935  1.00  0.00     0.016 A 
ATOM     16  C   UNL A   1      34.924  25.048  25.132  1.00  0.00     0.029 A 
ATOM     17  C   UNL A   1      34.761  23.195  23.590  1.00  0.00     0.001 A 
ATOM     18  C   UNL A   1      35.367  23.800  24.690  1.00  0.00     0.002 A 
BRANCH   9  19
ATOM     19  C   UNL A   1      31.035  27.881  22.272  1.00  0.00     0.128 C 
BRANCH  19  20
ATOM     20  C   UNL A   1      29.743  28.295  22.980  1.00  0.00     0.022 C 
BRANCH  20  21
ATOM     21  C   UNL A   1      29.378  29.778  22.960  1.00  0.00     0.002 C 
BRANCH  21  22
ATOM     22  C   UNL A   1      27.898  30.084  23.213  1.00  0.00    -0.003 C 
ATOM     23  C   UNL A   1      27.550  31.558  23.381  1.00  0.00     0.004 C 
ENDBRANCH  21  22
ENDBRANCH  20  21
ENDBRANCH  19  20
ENDBRANCH   9  19
ENDBRANCH   7   8
ENDBRANCH   6   7
ENDBRANCH   3   6
ENDBRANCH   1   2
BRANCH   1  24
ATOM     24  C   UNL A   1      34.474  33.337  28.220  1.00  0.00     0.023 C 
BRANCH  24  25
ATOM     25  C   UNL A   1      35.988  33.161  28.127  1.00  0.00     0.023 C 
BRANCH  25  26
ATOM     26  C   UNL A   1      36.761  33.095  29.437  1.00  0.00     0.116 C 
BRANCH  26  27
ATOM     27  N   UNL A   1      36.203  32.171  30.411  1.00  0.00    -0.352 N 
ATOM     28  C   UNL A   1      36.655  30.952  30.859  1.00  0.00     0.251 C 
ATOM     29  H   UNL A   1      35.358  32.469  30.820  1.00  0.00     0.163 HD
ATOM     30  O   UNL A   1      35.976  30.338  31.681  1.00  0.00    -0.269 OA
BRANCH  28  31
ATOM     31  C   UNL A   1      37.905  30.344  30.340  1.00  0.00     0.039 A 
ATOM     32  C   UNL A   1      38.940  29.935  31.180  1.00  0.00     0.014 A 
ATOM     33  C   UNL A   1      38.038  30.172  28.955  1.00  0.00     0.014 A 
ATOM     34  C   UNL A   1      40.161  29.536  30.637  1.00  0.00     0.010 A 
ATOM     35  C   UNL A   1      39.234  29.688  28.415  1.00  0.00     0.010 A 
ATOM     36  C   UNL A   1      40.330  29.422  29.248  1.00  0.00    -0.014 A 
BRANCH  36  37
ATOM     37  C   UNL A   1      41.661  29.043  28.695  1.00  0.00     0.031 A 
ATOM     38  C   UNL A   1      42.786  30.046  28.645  1.00  0.00     0.074 A 
ATOM     39  C   UNL A   1      41.876  27.776  28.288  1.00  0.00     0.049 A 
ATOM     40  N   UNL A   1      44.021  29.878  28.243  1.00  0.00    -0.248 NA
ATOM     41  C   UNL A   1      42.491  31.415  29.097  1.00  0.00     0.031 C 
ATOM     42  C   UNL A   1      40.869  26.713  28.274  1.00  0.00     0.029 A 
ATOM     43  N   UNL A   1      43.015  27.159  27.833  1.00  0.00    -0.354 N 
ATOM     44  C   UNL A   1      44.641  31.114  28.378  1.00  0.00     0.074 A 
ATOM     45  C   UNL A   1      43.641  32.036  28.870  1.00  0.00     0.031 C 
ATOM     46  C   UNL A   1      41.445  25.566  27.883  1.00  0.00     0.029 A 
ATOM     47  C   UNL A   1      42.850  25.819  27.571  1.00  0.00     0.049 A 
ATOM     48  H   UNL A   1      43.870  27.632  27.705  1.00  0.00     0.167 HD
ATOM     49  C   UNL A   1      45.931  31.450  28.131  1.00  0.00     0.037 A 
ATOM     50  C   UNL A   1      43.724  24.895  27.127  1.00  0.00     0.037 A 
ATOM     51  C   UNL A   1      46.939  30.526  27.680  1.00  0.00     0.049 A 
ATOM     52  C   UNL A   1      45.145  25.296  26.848  1.00  0.00     0.074 A 
ATOM     53  C   UNL A   1      48.284  30.767  27.457  1.00  0.00     0.029 A 
ATOM     54  N   UNL A   1      46.716  29.190  27.386  1.00  0.00    -0.354 N 
ATOM     55  N   UNL A   1      45.716  26.464  27.013  1.00  0.00    -0.248 NA
ATOM     56  C   UNL A   1      46.037  24.258  26.310  1.00  0.00     0.031 C 
ATOM     57  C   UNL A   1      48.868  29.584  26.993  1.00  0.00     0.029 A 
ATOM     58  C   UNL A   1      47.894  28.599  26.959  1.00  0.00     0.049 A 
ATOM     59  H   UNL A   1      45.850  28.730  27.468  1.00  0.00     0.167 HD
ATOM     60  C   UNL A   1      47.033  26.303  26.601  1.00  0.00     0.074 A 
ATOM     61  C   UNL A   1      47.182  24.920  26.199  1.00  0.00     0.031 C 
ATOM     62  C   UNL A   1      48.027  27.223  26.555  1.00  0.00     0.037 A 
BRANCH  49  63
ATOM     63  C   UNL A   1      46.341  32.880  28.348  1.00  0.00     0.058 A 
ATOM     64  C   UNL A   1      46.862  33.315  29.576  1.00  0.00     0.135 A 
ATOM     65  C   UNL A   1      46.280  33.806  27.295  1.00  0.00     0.135 A 
ATOM     66  F   UNL A   1      46.928  32.472  30.619  1.00  0.00    -0.206 F 
ATOM     67  C   UNL A   1      47.298  34.623  29.757  1.00  0.00     0.059 A 
ATOM     68  C   UNL A   1      46.729  35.115  27.448  1.00  0.00     0.059 A 
ATOM     69  F   UNL A   1      45.791  33.440  26.100  1.00  0.00    -0.206 F 
ATOM     70  C   UNL A   1      47.229  35.516  28.686  1.00  0.00     0.060 A 
BRANCH  70  71
ATOM     71  S   UNL A   1      47.821  37.204  28.932  1.00  0.00     0.124 S 
ATOM     72  O   UNL A   1      46.804  37.975  28.223  1.00  0.00    -0.237 OA
ATOM     73  O   UNL A   1      47.810  37.331  30.386  1.00  0.00    -0.237 OA
ATOM     74  O   UNL A   1      49.144  37.196  28.316  1.00  0.00    -0.744 OA
ENDBRANCH  70  71
ENDBRANCH  49  63
BRANCH  50  75
ATOM     75  C   UNL A   1      43.270  23.496  26.924  1.00  0.00     0.058 A 
ATOM     76  C   UNL A   1      43.056  22.987  25.635  1.00  0.00     0.135 A 
ATOM     77  C   UNL A   1      43.079  22.630  28.012  1.00  0.00     0.135 A 
ATOM     78  F   UNL A   1      43.219  23.779  24.565  1.00  0.00    -0.206 F 
ATOM     79  C   UNL A   1      42.670  21.666  25.431  1.00  0.00     0.059 A 
ATOM     80  C   UNL A   1      42.714  21.301  27.833  1.00  0.00     0.059 A 
ATOM     81  F   UNL A   1      43.284  23.070  29.264  1.00  0.00    -0.206 F 
ATOM     82  C   UNL A   1      42.507  20.829  26.537  1.00  0.00     0.060 A 
BRANCH  82  83
ATOM     83  S   UNL A   1      42.077  19.097  26.259  1.00  0.00     0.124 S 
ATOM     84  O   UNL A   1      42.312  18.522  27.578  1.00  0.00    -0.237 OA
ATOM     85  O   UNL A   1      40.682  19.189  25.842  1.00  0.00    -0.237 OA
ATOM     86  O   UNL A   1      43.009  18.685  25.214  1.00  0.00    -0.744 OA
ENDBRANCH  82  83
ENDBRANCH  50  75
BRANCH  62  87
ATOM     87  C   UNL A   1      49.367  26.778  26.044  1.00  0.00     0.058 A 
ATOM     88  C   UNL A   1      49.730  26.969  24.703  1.00  0.00     0.135 A 
ATOM     89  C   UNL A   1      50.328  26.247  26.919  1.00  0.00     0.135 A 
ATOM     90  F   UNL A   1      48.844  27.465  23.827  1.00  0.00    -0.206 F 
ATOM     91  C   UNL A   1      51.005  26.650  24.245  1.00  0.00     0.059 A 
ATOM     92  C   UNL A   1      51.614  25.939  26.486  1.00  0.00     0.059 A 
ATOM     93  F   UNL A   1      50.030  26.053  28.213  1.00  0.00    -0.206 F 
ATOM     94  C   UNL A   1      51.943  26.143  25.146  1.00  0.00     0.060 A 
BRANCH  94  95
ATOM     95  S   UNL A   1      53.613  25.802  24.553  1.00  0.00     0.124 S 
ATOM     96  O   UNL A   1      54.416  26.649  25.427  1.00  0.00    -0.237 OA
ATOM     97  O   UNL A   1      53.736  24.365  24.776  1.00  0.00    -0.237 OA
ATOM     98  O   UNL A   1      53.566  26.211  23.152  1.00  0.00    -0.744 OA
ENDBRANCH  94  95
ENDBRANCH  62  87
ENDBRANCH  36  37
ENDBRANCH  28  31
ENDBRANCH  26  27
ENDBRANCH  25  26
ENDBRANCH  24  25
ENDBRANCH   1  24
TORSDOF 20
ENDMDL
