MODEL 1
REMARK VINA RESULT:     -11.9      0.000      0.000
REMARK SMILES O=C(COc1ccc([N+](=O)[O-])cc1)Nc1ccc(C(=O)NCCCCNC(=O)c2ccc(-c3c4nc(c(-c5c(F)cc(S(=O)(=O)[O-])cc5F)c5ccc([nH]5)c(-c5c(F)cc(S(=O)(=O)[O-])cc5F)c5nc(c(-c6c(F)cc(S(=O)(=O)[O-])cc6F)c6ccc3[nH]6)C=C5)C=C4)cc2)c(O)c1
REMARK SMILES IDX 22 1 21 2 19 3 20 4 18 6 15 7 16 8 97 9 17 10 95 11 14 12
REMARK SMILES IDX 1 13 2 14 3 16 4 17 5 18 6 19 13 20 7 21 12 22 8 23 9 24
REMARK SMILES IDX 10 25 11 26 96 27 23 29 24 30 25 31 26 32 27 33 28 35 29 36
REMARK SMILES IDX 30 37 94 38 31 39 93 40 32 41 33 42 34 43 87 44 35 45 92 46
REMARK SMILES IDX 86 47 88 48 36 49 91 50 85 51 84 52 37 54 71 55 50 56 70 57
REMARK SMILES IDX 51 58 54 59 69 60 89 61 52 62 53 63 68 65 90 66 55 67 38 68
REMARK SMILES IDX 39 69 48 70 40 71 41 72 47 73 49 74 42 75 43 76 44 77 45 78
REMARK SMILES IDX 46 79 72 80 73 81 82 82 74 83 75 84 81 85 83 86 76 87 77 88
REMARK SMILES IDX 78 89 79 90 80 91 56 92 57 93 66 94 58 95 59 96 65 97 67 98
REMARK SMILES IDX 60 99 61 100 62 101 63 102 64 103
REMARK H PARENT 21 5 14 15 96 28 26 34 88 53 54 64
REMARK Flexibility Score: inf
ROOT
ATOM      1  C   UNL A   1      38.792  21.887  25.872  1.00  0.00     0.116 C 
ENDROOT
BRANCH   1   2
ATOM      2  N   UNL A   1      38.020  20.750  25.416  1.00  0.00    -0.352 N 
ATOM      3  C   UNL A   1      36.707  20.633  25.034  1.00  0.00     0.255 C 
ATOM      4  O   UNL A   1      36.315  19.507  24.717  1.00  0.00    -0.269 OA
ATOM      5  H   UNL A   1      38.529  19.908  25.371  1.00  0.00     0.163 HD
BRANCH   3   6
ATOM      6  C   UNL A   1      35.756  21.776  24.882  1.00  0.00     0.081 A 
ATOM      7  C   UNL A   1      33.795  23.828  24.853  1.00  0.00     0.045 A 
ATOM      8  C   UNL A   1      33.905  22.983  25.955  1.00  0.00     0.027 A 
ATOM      9  C   UNL A   1      34.706  23.695  23.813  1.00  0.00     0.073 A 
ATOM     10  C   UNL A   1      34.862  21.958  25.957  1.00  0.00     0.020 A 
ATOM     11  C   UNL A   1      35.691  22.704  23.839  1.00  0.00     0.130 A 
BRANCH   7  12
ATOM     12  N   UNL A   1      32.762  24.780  24.828  1.00  0.00    -0.323 N 
ATOM     13  O   UNL A   1      33.968  26.739  25.239  1.00  0.00    -0.271 OA
ATOM     14  C   UNL A   1      32.919  26.150  24.990  1.00  0.00     0.262 C 
ATOM     15  H   UNL A   1      31.846  24.447  24.683  1.00  0.00     0.170 HD
BRANCH  14  16
ATOM     16  C   UNL A   1      31.629  26.938  24.781  1.00  0.00     0.329 C 
BRANCH  16  17
ATOM     17  O   UNL A   1      30.851  26.570  23.650  1.00  0.00    -0.484 OA
BRANCH  17  18
ATOM     18  C   UNL A   1      30.050  27.557  23.143  1.00  0.00     0.120 A 
ATOM     19  C   UNL A   1      30.710  28.587  22.471  1.00  0.00     0.053 A 
ATOM     20  C   UNL A   1      28.676  27.645  23.382  1.00  0.00     0.053 A 
ATOM     21  C   UNL A   1      30.007  29.714  22.045  1.00  0.00     0.089 A 
ATOM     22  C   UNL A   1      27.966  28.781  22.981  1.00  0.00     0.089 A 
ATOM     23  C   UNL A   1      28.637  29.817  22.322  1.00  0.00     0.269 A 
BRANCH  23  24
ATOM     24  N   UNL A   1      27.909  31.038  21.955  1.00  0.00     0.062 N 
ATOM     25  O   UNL A   1      27.985  31.419  20.778  1.00  0.00    -0.258 OA
ATOM     26  O   UNL A   1      27.274  31.619  22.845  1.00  0.00    -0.258 OA
ENDBRANCH  23  24
ENDBRANCH  17  18
ENDBRANCH  16  17
ENDBRANCH  14  16
ENDBRANCH   7  12
BRANCH  11  27
ATOM     27  O   UNL A   1      36.602  22.749  22.829  1.00  0.00    -0.507 OA
ATOM     28  H   UNL A   1      37.025  23.557  22.616  1.00  0.00     0.293 HD
ENDBRANCH  11  27
ENDBRANCH   3   6
ENDBRANCH   1   2
BRANCH   1  29
ATOM     29  C   UNL A   1      40.235  21.469  26.178  1.00  0.00     0.023 C 
BRANCH  29  30
ATOM     30  C   UNL A   1      40.725  21.788  27.584  1.00  0.00     0.023 C 
BRANCH  30  31
ATOM     31  C   UNL A   1      41.435  23.124  27.711  1.00  0.00     0.116 C 
BRANCH  31  32
ATOM     32  N   UNL A   1      41.515  23.865  26.458  1.00  0.00    -0.352 N 
ATOM     33  C   UNL A   1      41.413  25.222  26.273  1.00  0.00     0.251 C 
ATOM     34  H   UNL A   1      41.660  23.328  25.647  1.00  0.00     0.163 HD
ATOM     35  O   UNL A   1      41.410  25.696  25.140  1.00  0.00    -0.269 OA
BRANCH  33  36
ATOM     36  C   UNL A   1      41.261  26.094  27.455  1.00  0.00     0.039 A 
ATOM     37  C   UNL A   1      42.260  27.025  27.742  1.00  0.00     0.014 A 
ATOM     38  C   UNL A   1      40.107  26.026  28.242  1.00  0.00     0.014 A 
ATOM     39  C   UNL A   1      42.075  27.926  28.792  1.00  0.00     0.010 A 
ATOM     40  C   UNL A   1      39.885  26.981  29.224  1.00  0.00     0.010 A 
ATOM     41  C   UNL A   1      40.876  27.926  29.523  1.00  0.00    -0.014 A 
BRANCH  41  42
ATOM     42  C   UNL A   1      40.659  28.868  30.647  1.00  0.00     0.031 A 
ATOM     43  C   UNL A   1      41.508  28.748  31.884  1.00  0.00     0.074 A 
ATOM     44  C   UNL A   1      39.674  29.784  30.579  1.00  0.00     0.049 A 
ATOM     45  N   UNL A   1      41.444  29.428  33.000  1.00  0.00    -0.248 NA
ATOM     46  C   UNL A   1      42.543  27.701  31.880  1.00  0.00     0.031 C 
ATOM     47  C   UNL A   1      38.751  29.957  29.455  1.00  0.00     0.029 A 
ATOM     48  N   UNL A   1      39.282  30.742  31.479  1.00  0.00    -0.354 N 
ATOM     49  C   UNL A   1      42.413  28.879  33.831  1.00  0.00     0.074 A 
ATOM     50  C   UNL A   1      43.005  27.769  33.118  1.00  0.00     0.031 C 
ATOM     51  C   UNL A   1      37.923  30.981  29.718  1.00  0.00     0.029 A 
ATOM     52  C   UNL A   1      38.236  31.517  31.040  1.00  0.00     0.049 A 
ATOM     53  H   UNL A   1      39.710  30.863  32.357  1.00  0.00     0.167 HD
ATOM     54  C   UNL A   1      42.801  29.283  35.064  1.00  0.00     0.037 A 
ATOM     55  C   UNL A   1      37.607  32.549  31.636  1.00  0.00     0.037 A 
ATOM     56  C   UNL A   1      42.234  30.413  35.748  1.00  0.00     0.049 A 
ATOM     57  C   UNL A   1      38.076  33.003  32.992  1.00  0.00     0.074 A 
ATOM     58  C   UNL A   1      42.582  30.939  36.980  1.00  0.00     0.029 A 
ATOM     59  N   UNL A   1      41.205  31.200  35.252  1.00  0.00    -0.354 N 
ATOM     60  N   UNL A   1      39.028  32.504  33.744  1.00  0.00    -0.248 NA
ATOM     61  C   UNL A   1      37.394  34.165  33.576  1.00  0.00     0.031 C 
ATOM     62  C   UNL A   1      41.745  32.029  37.239  1.00  0.00     0.029 A 
ATOM     63  C   UNL A   1      40.903  32.207  36.152  1.00  0.00     0.049 A 
ATOM     64  H   UNL A   1      40.756  31.063  34.386  1.00  0.00     0.167 HD
ATOM     65  C   UNL A   1      39.086  33.316  34.872  1.00  0.00     0.074 A 
ATOM     66  C   UNL A   1      38.074  34.339  34.701  1.00  0.00     0.031 C 
ATOM     67  C   UNL A   1      39.905  33.227  35.949  1.00  0.00     0.037 A 
BRANCH  54  68
ATOM     68  C   UNL A   1      43.900  28.503  35.732  1.00  0.00     0.058 A 
ATOM     69  C   UNL A   1      43.618  27.440  36.607  1.00  0.00     0.135 A 
ATOM     70  C   UNL A   1      45.247  28.818  35.498  1.00  0.00     0.135 A 
ATOM     71  F   UNL A   1      42.347  27.109  36.881  1.00  0.00    -0.206 F 
ATOM     72  C   UNL A   1      44.632  26.745  37.257  1.00  0.00     0.059 A 
ATOM     73  C   UNL A   1      46.279  28.116  36.114  1.00  0.00     0.059 A 
ATOM     74  F   UNL A   1      45.573  29.825  34.672  1.00  0.00    -0.206 F 
ATOM     75  C   UNL A   1      45.960  27.094  37.008  1.00  0.00     0.060 A 
BRANCH  75  76
ATOM     76  S   UNL A   1      47.264  26.190  37.868  1.00  0.00     0.124 S 
ATOM     77  O   UNL A   1      46.627  24.895  38.082  1.00  0.00    -0.237 OA
ATOM     78  O   UNL A   1      48.353  26.208  36.896  1.00  0.00    -0.237 OA
ATOM     79  O   UNL A   1      47.491  26.985  39.071  1.00  0.00    -0.744 OA
ENDBRANCH  75  76
ENDBRANCH  54  68
BRANCH  55  80
ATOM     80  C   UNL A   1      36.508  33.259  30.930  1.00  0.00     0.058 A 
ATOM     81  C   UNL A   1      36.779  34.095  29.837  1.00  0.00     0.135 A 
ATOM     82  C   UNL A   1      35.168  33.111  31.323  1.00  0.00     0.135 A 
ATOM     83  F   UNL A   1      38.044  34.271  29.426  1.00  0.00    -0.206 F 
ATOM     84  C   UNL A   1      35.767  34.775  29.169  1.00  0.00     0.059 A 
ATOM     85  C   UNL A   1      34.136  33.762  30.656  1.00  0.00     0.059 A 
ATOM     86  F   UNL A   1      34.854  32.308  32.352  1.00  0.00    -0.206 F 
ATOM     87  C   UNL A   1      34.446  34.602  29.586  1.00  0.00     0.060 A 
BRANCH  87  88
ATOM     88  S   UNL A   1      33.134  35.456  28.685  1.00  0.00     0.124 S 
ATOM     89  O   UNL A   1      33.899  36.381  27.859  1.00  0.00    -0.237 OA
ATOM     90  O   UNL A   1      32.481  34.358  27.979  1.00  0.00    -0.237 OA
ATOM     91  O   UNL A   1      32.341  36.066  29.749  1.00  0.00    -0.744 OA
ENDBRANCH  87  88
ENDBRANCH  55  80
BRANCH  67  92
ATOM     92  C   UNL A   1      39.780  34.293  37.001  1.00  0.00     0.058 A 
ATOM     93  C   UNL A   1      38.959  34.130  38.126  1.00  0.00     0.135 A 
ATOM     94  C   UNL A   1      40.532  35.475  36.899  1.00  0.00     0.135 A 
ATOM     95  F   UNL A   1      38.218  33.020  38.267  1.00  0.00    -0.206 F 
ATOM     96  C   UNL A   1      38.867  35.114  39.105  1.00  0.00     0.059 A 
ATOM     97  C   UNL A   1      40.475  36.461  37.878  1.00  0.00     0.059 A 
ATOM     98  F   UNL A   1      41.341  35.674  35.847  1.00  0.00    -0.206 F 
ATOM     99  C   UNL A   1      39.629  36.277  38.971  1.00  0.00     0.060 A 
BRANCH  99 100
ATOM    100  S   UNL A   1      39.523  37.536  40.259  1.00  0.00     0.124 S 
ATOM    101  O   UNL A   1      38.942  36.778  41.363  1.00  0.00    -0.237 OA
ATOM    102  O   UNL A   1      40.917  37.934  40.427  1.00  0.00    -0.237 OA
ATOM    103  O   UNL A   1      38.656  38.552  39.670  1.00  0.00    -0.744 OA
ENDBRANCH  99 100
ENDBRANCH  67  92
ENDBRANCH  41  42
ENDBRANCH  33  36
ENDBRANCH  31  32
ENDBRANCH  30  31
ENDBRANCH  29  30
ENDBRANCH   1  29
TORSDOF 20
ENDMDL
MODEL 2
REMARK VINA RESULT:     -11.1      5.889     13.930
REMARK SMILES O=C(COc1ccc([N+](=O)[O-])cc1)Nc1ccc(C(=O)NCCCCNC(=O)c2ccc(-c3c4nc(c(-c5c(F)cc(S(=O)(=O)[O-])cc5F)c5ccc([nH]5)c(-c5c(F)cc(S(=O)(=O)[O-])cc5F)c5nc(c(-c6c(F)cc(S(=O)(=O)[O-])cc6F)c6ccc3[nH]6)C=C5)C=C4)cc2)c(O)c1
REMARK SMILES IDX 22 1 21 2 19 3 20 4 18 6 15 7 16 8 97 9 17 10 95 11 14 12
REMARK SMILES IDX 1 13 2 14 3 16 4 17 5 18 6 19 13 20 7 21 12 22 8 23 9 24
REMARK SMILES IDX 10 25 11 26 96 27 23 29 24 30 25 31 26 32 27 33 28 35 29 36
REMARK SMILES IDX 30 37 94 38 31 39 93 40 32 41 33 42 34 43 87 44 35 45 92 46
REMARK SMILES IDX 86 47 88 48 36 49 91 50 85 51 84 52 37 54 71 55 50 56 70 57
REMARK SMILES IDX 51 58 54 59 69 60 89 61 52 62 53 63 68 65 90 66 55 67 38 68
REMARK SMILES IDX 39 69 48 70 40 71 41 72 47 73 49 74 42 75 43 76 44 77 45 78
REMARK SMILES IDX 46 79 72 80 73 81 82 82 74 83 75 84 81 85 83 86 76 87 77 88
REMARK SMILES IDX 78 89 79 90 80 91 56 92 57 93 66 94 58 95 59 96 65 97 67 98
REMARK SMILES IDX 60 99 61 100 62 101 63 102 64 103
REMARK H PARENT 21 5 14 15 96 28 26 34 88 53 54 64
REMARK Flexibility Score: inf
ROOT
ATOM      1  C   UNL A   1      45.050  22.291  35.260  1.00  0.00     0.116 C 
ENDROOT
BRANCH   1   2
ATOM      2  N   UNL A   1      46.170  21.567  34.698  1.00  0.00    -0.352 N 
ATOM      3  C   UNL A   1      46.906  20.510  35.175  1.00  0.00     0.255 C 
ATOM      4  O   UNL A   1      47.840  20.117  34.471  1.00  0.00    -0.269 OA
ATOM      5  H   UNL A   1      46.457  21.891  33.813  1.00  0.00     0.163 HD
BRANCH   3   6
ATOM      6  C   UNL A   1      46.597  19.748  36.423  1.00  0.00     0.081 A 
ATOM      7  C   UNL A   1      46.282  18.433  38.918  1.00  0.00     0.045 A 
ATOM      8  C   UNL A   1      47.215  19.457  38.782  1.00  0.00     0.027 A 
ATOM      9  C   UNL A   1      45.464  18.124  37.839  1.00  0.00     0.073 A 
ATOM     10  C   UNL A   1      47.382  20.092  37.543  1.00  0.00     0.020 A 
ATOM     11  C   UNL A   1      45.598  18.791  36.618  1.00  0.00     0.130 A 
BRANCH   7  12
ATOM     12  N   UNL A   1      46.205  17.742  40.138  1.00  0.00    -0.323 N 
ATOM     13  O   UNL A   1      44.777  19.146  41.343  1.00  0.00    -0.271 OA
ATOM     14  C   UNL A   1      45.448  18.122  41.239  1.00  0.00     0.262 C 
ATOM     15  H   UNL A   1      46.734  16.915  40.222  1.00  0.00     0.170 HD
BRANCH  14  16
ATOM     16  C   UNL A   1      45.465  17.099  42.371  1.00  0.00     0.329 C 
BRANCH  16  17
ATOM     17  O   UNL A   1      44.238  16.921  43.066  1.00  0.00    -0.484 OA
BRANCH  17  18
ATOM     18  C   UNL A   1      43.408  15.961  42.553  1.00  0.00     0.120 A 
ATOM     19  C   UNL A   1      43.087  14.914  43.419  1.00  0.00     0.053 A 
ATOM     20  C   UNL A   1      43.003  15.914  41.217  1.00  0.00     0.053 A 
ATOM     21  C   UNL A   1      42.371  13.810  42.954  1.00  0.00     0.089 A 
ATOM     22  C   UNL A   1      42.305  14.802  40.735  1.00  0.00     0.089 A 
ATOM     23  C   UNL A   1      42.001  13.748  41.604  1.00  0.00     0.269 A 
BRANCH  23  24
ATOM     24  N   UNL A   1      41.324  12.552  41.089  1.00  0.00     0.062 N 
ATOM     25  O   UNL A   1      41.403  12.326  39.873  1.00  0.00    -0.258 OA
ATOM     26  O   UNL A   1      40.704  11.848  41.898  1.00  0.00    -0.258 OA
ENDBRANCH  23  24
ENDBRANCH  17  18
ENDBRANCH  16  17
ENDBRANCH  14  16
ENDBRANCH   7  12
BRANCH  11  27
ATOM     27  O   UNL A   1      44.663  18.493  35.675  1.00  0.00    -0.507 OA
ATOM     28  H   UNL A   1      44.810  18.728  34.780  1.00  0.00     0.293 HD
ENDBRANCH  11  27
ENDBRANCH   3   6
ENDBRANCH   1   2
BRANCH   1  29
ATOM     29  C   UNL A   1      45.432  23.752  35.525  1.00  0.00     0.023 C 
BRANCH  29  30
ATOM     30  C   UNL A   1      46.444  23.973  36.642  1.00  0.00     0.023 C 
BRANCH  30  31
ATOM     31  C   UNL A   1      47.498  25.021  36.332  1.00  0.00     0.116 C 
BRANCH  31  32
ATOM     32  N   UNL A   1      47.996  25.716  37.512  1.00  0.00    -0.352 N 
ATOM     33  C   UNL A   1      47.613  26.945  37.992  1.00  0.00     0.251 C 
ATOM     34  H   UNL A   1      48.691  25.248  38.028  1.00  0.00     0.163 HD
ATOM     35  O   UNL A   1      48.192  27.444  38.953  1.00  0.00    -0.269 OA
BRANCH  33  36
ATOM     36  C   UNL A   1      46.529  27.673  37.303  1.00  0.00     0.039 A 
ATOM     37  C   UNL A   1      46.861  28.670  36.384  1.00  0.00     0.014 A 
ATOM     38  C   UNL A   1      45.192  27.331  37.526  1.00  0.00     0.014 A 
ATOM     39  C   UNL A   1      45.849  29.289  35.649  1.00  0.00     0.010 A 
ATOM     40  C   UNL A   1      44.198  27.880  36.729  1.00  0.00     0.010 A 
ATOM     41  C   UNL A   1      44.514  28.880  35.798  1.00  0.00    -0.014 A 
BRANCH  41  42
ATOM     42  C   UNL A   1      43.420  29.526  35.034  1.00  0.00     0.031 A 
ATOM     43  C   UNL A   1      43.104  29.041  33.644  1.00  0.00     0.074 A 
ATOM     44  C   UNL A   1      42.757  30.573  35.560  1.00  0.00     0.049 A 
ATOM     45  N   UNL A   1      42.233  29.503  32.785  1.00  0.00    -0.248 NA
ATOM     46  C   UNL A   1      43.898  27.908  33.140  1.00  0.00     0.031 C 
ATOM     47  C   UNL A   1      43.013  31.167  36.874  1.00  0.00     0.029 A 
ATOM     48  N   UNL A   1      41.731  31.327  35.051  1.00  0.00    -0.354 N 
ATOM     49  C   UNL A   1      42.388  28.731  31.640  1.00  0.00     0.074 A 
ATOM     50  C   UNL A   1      43.481  27.817  31.888  1.00  0.00     0.031 C 
ATOM     51  C   UNL A   1      42.145  32.171  37.081  1.00  0.00     0.029 A 
ATOM     52  C   UNL A   1      41.292  32.311  35.904  1.00  0.00     0.049 A 
ATOM     53  H   UNL A   1      41.344  31.177  34.158  1.00  0.00     0.167 HD
ATOM     54  C   UNL A   1      41.665  28.756  30.495  1.00  0.00     0.037 A 
ATOM     55  C   UNL A   1      40.306  33.217  35.754  1.00  0.00     0.037 A 
ATOM     56  C   UNL A   1      40.554  29.642  30.273  1.00  0.00     0.049 A 
ATOM     57  C   UNL A   1      39.493  33.207  34.488  1.00  0.00     0.074 A 
ATOM     58  C   UNL A   1      39.722  29.722  29.170  1.00  0.00     0.029 A 
ATOM     59  N   UNL A   1      40.112  30.595  31.179  1.00  0.00    -0.354 N 
ATOM     60  N   UNL A   1      39.620  32.436  33.433  1.00  0.00    -0.248 NA
ATOM     61  C   UNL A   1      38.396  34.178  34.395  1.00  0.00     0.031 C 
ATOM     62  C   UNL A   1      38.794  30.743  29.400  1.00  0.00     0.029 A 
ATOM     63  C   UNL A   1      39.021  31.270  30.661  1.00  0.00     0.049 A 
ATOM     64  H   UNL A   1      40.516  30.766  32.061  1.00  0.00     0.167 HD
ATOM     65  C   UNL A   1      38.595  32.804  32.568  1.00  0.00     0.074 A 
ATOM     66  C   UNL A   1      37.856  33.863  33.225  1.00  0.00     0.031 C 
ATOM     67  C   UNL A   1      38.289  32.308  31.344  1.00  0.00     0.037 A 
BRANCH  54  68
ATOM     68  C   UNL A   1      42.050  27.785  29.414  1.00  0.00     0.058 A 
ATOM     69  C   UNL A   1      43.215  27.961  28.650  1.00  0.00     0.135 A 
ATOM     70  C   UNL A   1      41.248  26.667  29.136  1.00  0.00     0.135 A 
ATOM     71  F   UNL A   1      44.009  29.023  28.861  1.00  0.00    -0.206 F 
ATOM     72  C   UNL A   1      43.551  27.086  27.622  1.00  0.00     0.059 A 
ATOM     73  C   UNL A   1      41.579  25.762  28.132  1.00  0.00     0.059 A 
ATOM     74  F   UNL A   1      40.121  26.452  29.835  1.00  0.00    -0.206 F 
ATOM     75  C   UNL A   1      42.723  25.992  27.368  1.00  0.00     0.060 A 
BRANCH  75  76
ATOM     76  S   UNL A   1      43.165  24.872  26.023  1.00  0.00     0.124 S 
ATOM     77  O   UNL A   1      44.031  23.920  26.710  1.00  0.00    -0.237 OA
ATOM     78  O   UNL A   1      41.865  24.357  25.602  1.00  0.00    -0.237 OA
ATOM     79  O   UNL A   1      43.830  25.744  25.060  1.00  0.00    -0.744 OA
ENDBRANCH  75  76
ENDBRANCH  54  68
BRANCH  55  80
ATOM     80  C   UNL A   1      39.997  34.169  36.853  1.00  0.00     0.058 A 
ATOM     81  C   UNL A   1      39.235  33.765  37.960  1.00  0.00     0.135 A 
ATOM     82  C   UNL A   1      40.460  35.494  36.828  1.00  0.00     0.135 A 
ATOM     83  F   UNL A   1      38.766  32.509  38.028  1.00  0.00    -0.206 F 
ATOM     84  C   UNL A   1      38.926  34.642  38.994  1.00  0.00     0.059 A 
ATOM     85  C   UNL A   1      40.185  36.384  37.862  1.00  0.00     0.059 A 
ATOM     86  F   UNL A   1      41.209  35.925  35.801  1.00  0.00    -0.206 F 
ATOM     87  C   UNL A   1      39.407  35.951  38.936  1.00  0.00     0.060 A 
BRANCH  87  88
ATOM     88  S   UNL A   1      39.036  37.071  40.304  1.00  0.00     0.124 S 
ATOM     89  O   UNL A   1      40.358  37.269  40.887  1.00  0.00    -0.237 OA
ATOM     90  O   UNL A   1      38.463  38.222  39.612  1.00  0.00    -0.237 OA
ATOM     91  O   UNL A   1      38.095  36.306  41.116  1.00  0.00    -0.744 OA
ENDBRANCH  87  88
ENDBRANCH  55  80
BRANCH  67  92
ATOM     92  C   UNL A   1      37.074  32.865  30.658  1.00  0.00     0.058 A 
ATOM     93  C   UNL A   1      35.788  32.366  30.910  1.00  0.00     0.135 A 
ATOM     94  C   UNL A   1      37.199  33.946  29.771  1.00  0.00     0.135 A 
ATOM     95  F   UNL A   1      35.616  31.331  31.747  1.00  0.00    -0.206 F 
ATOM     96  C   UNL A   1      34.667  32.903  30.286  1.00  0.00     0.059 A 
ATOM     97  C   UNL A   1      36.090  34.516  29.155  1.00  0.00     0.059 A 
ATOM     98  F   UNL A   1      38.408  34.467  29.505  1.00  0.00    -0.206 F 
ATOM     99  C   UNL A   1      34.828  33.979  29.409  1.00  0.00     0.060 A 
BRANCH  99 100
ATOM    100  S   UNL A   1      33.365  34.686  28.625  1.00  0.00     0.124 S 
ATOM    101  O   UNL A   1      32.947  33.598  27.747  1.00  0.00    -0.237 OA
ATOM    102  O   UNL A   1      32.494  34.952  29.766  1.00  0.00    -0.237 OA
ATOM    103  O   UNL A   1      33.883  35.874  27.951  1.00  0.00    -0.744 OA
ENDBRANCH  99 100
ENDBRANCH  67  92
ENDBRANCH  41  42
ENDBRANCH  33  36
ENDBRANCH  31  32
ENDBRANCH  30  31
ENDBRANCH  29  30
ENDBRANCH   1  29
TORSDOF 20
ENDMDL
MODEL 3
REMARK VINA RESULT:     -11.0      9.616     15.283
REMARK SMILES O=C(COc1ccc([N+](=O)[O-])cc1)Nc1ccc(C(=O)NCCCCNC(=O)c2ccc(-c3c4nc(c(-c5c(F)cc(S(=O)(=O)[O-])cc5F)c5ccc([nH]5)c(-c5c(F)cc(S(=O)(=O)[O-])cc5F)c5nc(c(-c6c(F)cc(S(=O)(=O)[O-])cc6F)c6ccc3[nH]6)C=C5)C=C4)cc2)c(O)c1
REMARK SMILES IDX 22 1 21 2 19 3 20 4 18 6 15 7 16 8 97 9 17 10 95 11 14 12
REMARK SMILES IDX 1 13 2 14 3 16 4 17 5 18 6 19 13 20 7 21 12 22 8 23 9 24
REMARK SMILES IDX 10 25 11 26 96 27 23 29 24 30 25 31 26 32 27 33 28 35 29 36
REMARK SMILES IDX 30 37 94 38 31 39 93 40 32 41 33 42 34 43 87 44 35 45 92 46
REMARK SMILES IDX 86 47 88 48 36 49 91 50 85 51 84 52 37 54 71 55 50 56 70 57
REMARK SMILES IDX 51 58 54 59 69 60 89 61 52 62 53 63 68 65 90 66 55 67 38 68
REMARK SMILES IDX 39 69 48 70 40 71 41 72 47 73 49 74 42 75 43 76 44 77 45 78
REMARK SMILES IDX 46 79 72 80 73 81 82 82 74 83 75 84 81 85 83 86 76 87 77 88
REMARK SMILES IDX 78 89 79 90 80 91 56 92 57 93 66 94 58 95 59 96 65 97 67 98
REMARK SMILES IDX 60 99 61 100 62 101 63 102 64 103
REMARK H PARENT 21 5 14 15 96 28 26 34 88 53 54 64
REMARK Flexibility Score: inf
ROOT
ATOM      1  C   UNL A   1      42.813  37.770  26.995  1.00  0.00     0.116 C 
ENDROOT
BRANCH   1   2
ATOM      2  N   UNL A   1      42.678  38.815  27.987  1.00  0.00    -0.352 N 
ATOM      3  C   UNL A   1      42.706  40.184  27.881  1.00  0.00     0.255 C 
ATOM      4  O   UNL A   1      42.591  40.828  28.927  1.00  0.00    -0.269 OA
ATOM      5  H   UNL A   1      42.540  38.485  28.905  1.00  0.00     0.163 HD
BRANCH   3   6
ATOM      6  C   UNL A   1      42.767  40.940  26.593  1.00  0.00     0.081 A 
ATOM      7  C   UNL A   1      43.153  42.513  24.263  1.00  0.00     0.045 A 
ATOM      8  C   UNL A   1      44.171  42.403  25.207  1.00  0.00     0.027 A 
ATOM      9  C   UNL A   1      41.986  41.782  24.446  1.00  0.00     0.073 A 
ATOM     10  C   UNL A   1      43.969  41.640  26.367  1.00  0.00     0.020 A 
ATOM     11  C   UNL A   1      41.806  40.984  25.579  1.00  0.00     0.130 A 
BRANCH   7  12
ATOM     12  N   UNL A   1      43.339  43.364  23.161  1.00  0.00    -0.323 N 
ATOM     13  O   UNL A   1      44.620  41.996  21.765  1.00  0.00    -0.271 OA
ATOM     14  C   UNL A   1      44.022  43.044  21.996  1.00  0.00     0.262 C 
ATOM     15  H   UNL A   1      42.952  44.268  23.220  1.00  0.00     0.170 HD
BRANCH  14  16
ATOM     16  C   UNL A   1      43.942  44.130  20.926  1.00  0.00     0.329 C 
BRANCH  16  17
ATOM     17  O   UNL A   1      43.722  43.678  19.596  1.00  0.00    -0.484 OA
BRANCH  17  18
ATOM     18  C   UNL A   1      43.310  44.638  18.712  1.00  0.00     0.120 A 
ATOM     19  C   UNL A   1      44.328  45.318  18.041  1.00  0.00     0.053 A 
ATOM     20  C   UNL A   1      41.981  45.044  18.564  1.00  0.00     0.053 A 
ATOM     21  C   UNL A   1      44.028  46.413  17.229  1.00  0.00     0.089 A 
ATOM     22  C   UNL A   1      41.672  46.155  17.772  1.00  0.00     0.089 A 
ATOM     23  C   UNL A   1      42.699  46.842  17.116  1.00  0.00     0.269 A 
BRANCH  23  24
ATOM     24  N   UNL A   1      42.386  48.044  16.334  1.00  0.00     0.062 N 
ATOM     25  O   UNL A   1      43.207  48.973  16.355  1.00  0.00    -0.258 OA
ATOM     26  O   UNL A   1      41.316  48.063  15.711  1.00  0.00    -0.258 OA
ENDBRANCH  23  24
ENDBRANCH  17  18
ENDBRANCH  16  17
ENDBRANCH  14  16
ENDBRANCH   7  12
BRANCH  11  27
ATOM     27  O   UNL A   1      40.680  40.220  25.591  1.00  0.00    -0.507 OA
ATOM     28  H   UNL A   1      39.838  40.628  25.572  1.00  0.00     0.293 HD
ENDBRANCH  11  27
ENDBRANCH   3   6
ENDBRANCH   1   2
BRANCH   1  29
ATOM     29  C   UNL A   1      44.032  36.893  27.301  1.00  0.00     0.023 C 
BRANCH  29  30
ATOM     30  C   UNL A   1      45.268  37.636  27.788  1.00  0.00     0.023 C 
BRANCH  30  31
ATOM     31  C   UNL A   1      45.649  37.338  29.228  1.00  0.00     0.116 C 
BRANCH  31  32
ATOM     32  N   UNL A   1      47.072  37.493  29.501  1.00  0.00    -0.352 N 
ATOM     33  C   UNL A   1      48.035  36.514  29.542  1.00  0.00     0.251 C 
ATOM     34  H   UNL A   1      47.381  38.410  29.677  1.00  0.00     0.163 HD
ATOM     35  O   UNL A   1      49.185  36.788  29.876  1.00  0.00    -0.269 OA
BRANCH  33  36
ATOM     36  C   UNL A   1      47.653  35.124  29.223  1.00  0.00     0.039 A 
ATOM     37  C   UNL A   1      47.445  34.224  30.269  1.00  0.00     0.014 A 
ATOM     38  C   UNL A   1      47.449  34.731  27.897  1.00  0.00     0.014 A 
ATOM     39  C   UNL A   1      46.978  32.939  29.984  1.00  0.00     0.010 A 
ATOM     40  C   UNL A   1      46.899  33.487  27.625  1.00  0.00     0.010 A 
ATOM     41  C   UNL A   1      46.678  32.571  28.663  1.00  0.00    -0.014 A 
BRANCH  41  42
ATOM     42  C   UNL A   1      46.189  31.211  28.334  1.00  0.00     0.031 A 
ATOM     43  C   UNL A   1      47.164  30.175  27.842  1.00  0.00     0.074 A 
ATOM     44  C   UNL A   1      44.876  30.926  28.424  1.00  0.00     0.049 A 
ATOM     45  N   UNL A   1      46.939  28.950  27.444  1.00  0.00    -0.248 NA
ATOM     46  C   UNL A   1      48.576  30.583  27.750  1.00  0.00     0.031 C 
ATOM     47  C   UNL A   1      43.830  31.865  28.836  1.00  0.00     0.029 A 
ATOM     48  N   UNL A   1      44.195  29.763  28.171  1.00  0.00    -0.354 N 
ATOM     49  C   UNL A   1      48.172  28.452  27.040  1.00  0.00     0.074 A 
ATOM     50  C   UNL A   1      49.129  29.527  27.177  1.00  0.00     0.031 C 
ATOM     51  C   UNL A   1      42.646  31.232  28.839  1.00  0.00     0.029 A 
ATOM     52  C   UNL A   1      42.844  29.852  28.402  1.00  0.00     0.049 A 
ATOM     53  H   UNL A   1      44.635  28.940  27.855  1.00  0.00     0.167 HD
ATOM     54  C   UNL A   1      48.487  27.202  26.625  1.00  0.00     0.037 A 
ATOM     55  C   UNL A   1      41.877  28.921  28.282  1.00  0.00     0.037 A 
ATOM     56  C   UNL A   1      47.535  26.129  26.531  1.00  0.00     0.049 A 
ATOM     57  C   UNL A   1      42.254  27.530  27.851  1.00  0.00     0.074 A 
ATOM     58  C   UNL A   1      47.754  24.812  26.166  1.00  0.00     0.029 A 
ATOM     59  N   UNL A   1      46.183  26.247  26.815  1.00  0.00    -0.354 N 
ATOM     60  N   UNL A   1      43.434  27.061  27.521  1.00  0.00    -0.248 NA
ATOM     61  C   UNL A   1      41.173  26.539  27.787  1.00  0.00     0.031 C 
ATOM     62  C   UNL A   1      46.527  24.141  26.205  1.00  0.00     0.029 A 
ATOM     63  C   UNL A   1      45.552  25.029  26.633  1.00  0.00     0.049 A 
ATOM     64  H   UNL A   1      45.737  27.076  27.104  1.00  0.00     0.167 HD
ATOM     65  C   UNL A   1      43.244  25.710  27.248  1.00  0.00     0.074 A 
ATOM     66  C   UNL A   1      41.836  25.439  27.454  1.00  0.00     0.031 C 
ATOM     67  C   UNL A   1      44.152  24.779  26.866  1.00  0.00     0.037 A 
BRANCH  54  68
ATOM     68  C   UNL A   1      49.923  26.937  26.262  1.00  0.00     0.058 A 
ATOM     69  C   UNL A   1      50.390  27.100  24.948  1.00  0.00     0.135 A 
ATOM     70  C   UNL A   1      50.842  26.517  27.236  1.00  0.00     0.135 A 
ATOM     71  F   UNL A   1      49.549  27.482  23.973  1.00  0.00    -0.206 F 
ATOM     72  C   UNL A   1      51.707  26.816  24.603  1.00  0.00     0.059 A 
ATOM     73  C   UNL A   1      52.172  26.255  26.920  1.00  0.00     0.059 A 
ATOM     74  F   UNL A   1      50.448  26.343  28.508  1.00  0.00    -0.206 F 
ATOM     75  C   UNL A   1      52.589  26.388  25.596  1.00  0.00     0.060 A 
BRANCH  75  76
ATOM     76  S   UNL A   1      54.292  26.012  25.131  1.00  0.00     0.124 S 
ATOM     77  O   UNL A   1      54.135  25.641  23.729  1.00  0.00    -0.237 OA
ATOM     78  O   UNL A   1      54.974  27.278  25.379  1.00  0.00    -0.237 OA
ATOM     79  O   UNL A   1      54.656  24.922  26.031  1.00  0.00    -0.744 OA
ENDBRANCH  75  76
ENDBRANCH  54  68
BRANCH  55  80
ATOM     80  C   UNL A   1      40.471  29.259  28.630  1.00  0.00     0.058 A 
ATOM     81  C   UNL A   1      39.518  29.484  27.625  1.00  0.00     0.135 A 
ATOM     82  C   UNL A   1      40.049  29.354  29.965  1.00  0.00     0.135 A 
ATOM     83  F   UNL A   1      39.874  29.409  26.334  1.00  0.00    -0.206 F 
ATOM     84  C   UNL A   1      38.201  29.811  27.930  1.00  0.00     0.059 A 
ATOM     85  C   UNL A   1      38.732  29.655  30.294  1.00  0.00     0.059 A 
ATOM     86  F   UNL A   1      40.918  29.129  30.963  1.00  0.00    -0.206 F 
ATOM     87  C   UNL A   1      37.816  29.893  29.269  1.00  0.00     0.060 A 
BRANCH  87  88
ATOM     88  S   UNL A   1      36.093  30.276  29.653  1.00  0.00     0.124 S 
ATOM     89  O   UNL A   1      35.390  29.555  28.599  1.00  0.00    -0.237 OA
ATOM     90  O   UNL A   1      35.952  29.733  31.002  1.00  0.00    -0.237 OA
ATOM     91  O   UNL A   1      36.046  31.732  29.565  1.00  0.00    -0.744 OA
ENDBRANCH  87  88
ENDBRANCH  55  80
BRANCH  67  92
ATOM     92  C   UNL A   1      43.663  23.367  26.700  1.00  0.00     0.058 A 
ATOM     93  C   UNL A   1      43.476  22.793  25.435  1.00  0.00     0.135 A 
ATOM     94  C   UNL A   1      43.426  22.567  27.829  1.00  0.00     0.135 A 
ATOM     95  F   UNL A   1      43.686  23.519  24.325  1.00  0.00    -0.206 F 
ATOM     96  C   UNL A   1      43.044  21.479  25.292  1.00  0.00     0.059 A 
ATOM     97  C   UNL A   1      43.018  21.242  27.710  1.00  0.00     0.059 A 
ATOM     98  F   UNL A   1      43.602  23.066  29.063  1.00  0.00    -0.206 F 
ATOM     99  C   UNL A   1      42.817  20.711  26.437  1.00  0.00     0.060 A 
BRANCH  99 100
ATOM    100  S   UNL A   1      42.283  18.999  26.241  1.00  0.00     0.124 S 
ATOM    101  O   UNL A   1      40.908  19.170  25.784  1.00  0.00    -0.237 OA
ATOM    102  O   UNL A   1      43.223  18.487  25.248  1.00  0.00    -0.237 OA
ATOM    103  O   UNL A   1      42.434  18.441  27.582  1.00  0.00    -0.744 OA
ENDBRANCH  99 100
ENDBRANCH  67  92
ENDBRANCH  41  42
ENDBRANCH  33  36
ENDBRANCH  31  32
ENDBRANCH  30  31
ENDBRANCH  29  30
ENDBRANCH   1  29
TORSDOF 20
ENDMDL
