MODEL 1
REMARK VINA RESULT:     -12.0      0.000      0.000
REMARK SMILES Cc1ccc(C)n1-c1ccc(O)cc1C(=O)NCCCCNC(=O)c1ccc(-c2c3nc(c(-c4c(F)cc(S(=O)(=O)[O-])cc4F)c4ccc([nH]4)c(-c4c(F)cc(S(=O)(=O)[O-])cc4F)c4nc(c(-c5c(F)cc(S(=O)(=O)[O-])cc5F)c5ccc2[nH]5)C=C4)C=C3)cc1
REMARK SMILES IDX 20 1 19 2 18 3 17 4 15 5 16 6 14 8 8 9 9 10 10 11 13 12
REMARK SMILES IDX 11 13 7 14 1 15 2 16 3 17 4 18 5 19 6 20 12 21 21 23 22 24
REMARK SMILES IDX 23 25 24 27 25 28 26 29 90 30 27 31 89 32 28 33 29 34 30 35
REMARK SMILES IDX 83 36 31 37 88 38 82 39 84 40 32 41 87 42 81 43 80 44 33 46
REMARK SMILES IDX 67 47 46 48 66 49 47 50 50 51 65 52 85 53 48 54 49 55 64 57
REMARK SMILES IDX 86 58 51 59 34 60 35 61 44 62 36 63 37 64 43 65 45 66 38 67
REMARK SMILES IDX 39 68 40 69 41 70 42 71 68 72 69 73 78 74 70 75 71 76 77 77
REMARK SMILES IDX 79 78 72 79 73 80 74 81 75 82 76 83 52 84 53 85 62 86 54 87
REMARK SMILES IDX 55 88 61 89 63 90 56 91 57 92 58 93 59 94 60 95
REMARK H PARENT 17 7 12 22 22 26 84 45 50 56
REMARK Flexibility Score: inf
ROOT
ATOM      1  C   UNL A   1      37.867  21.949  25.509  1.00  0.00     0.023 C 
ENDROOT
BRANCH   1   2
ATOM      2  C   UNL A   1      37.099  22.689  24.398  1.00  0.00     0.023 C 
BRANCH   2   3
ATOM      3  C   UNL A   1      36.075  23.752  24.757  1.00  0.00     0.116 C 
BRANCH   3   4
ATOM      4  N   UNL A   1      35.297  23.613  25.955  1.00  0.00    -0.352 N 
ATOM      5  C   UNL A   1      34.411  22.615  26.308  1.00  0.00     0.253 C 
ATOM      6  O   UNL A   1      34.024  22.627  27.481  1.00  0.00    -0.269 OA
ATOM      7  H   UNL A   1      35.412  24.330  26.619  1.00  0.00     0.163 HD
BRANCH   5   8
ATOM      8  C   UNL A   1      33.794  21.597  25.380  1.00  0.00     0.067 A 
ATOM      9  C   UNL A   1      32.727  21.702  24.467  1.00  0.00     0.058 A 
ATOM     10  C   UNL A   1      32.279  20.576  23.733  1.00  0.00     0.031 A 
ATOM     11  C   UNL A   1      32.903  19.342  23.858  1.00  0.00     0.048 A 
ATOM     12  C   UNL A   1      34.413  20.324  25.470  1.00  0.00     0.062 A 
ATOM     13  C   UNL A   1      33.979  19.230  24.719  1.00  0.00     0.116 A 
BRANCH   9  14
ATOM     14  N   UNL A   1      32.060  22.903  24.136  1.00  0.00    -0.318 N 
ATOM     15  C   UNL A   1      30.530  22.908  26.180  1.00  0.00     0.065 C 
ATOM     16  C   UNL A   1      30.984  23.431  24.856  1.00  0.00     0.020 A 
ATOM     17  C   UNL A   1      30.550  24.564  24.197  1.00  0.00     0.023 A 
ATOM     18  C   UNL A   1      31.361  24.735  23.056  1.00  0.00     0.023 A 
ATOM     19  C   UNL A   1      32.290  23.708  23.030  1.00  0.00     0.020 A 
ATOM     20  C   UNL A   1      33.376  23.488  22.034  1.00  0.00     0.065 C 
ENDBRANCH   9  14
BRANCH  13  21
ATOM     21  O   UNL A   1      34.647  18.049  24.855  1.00  0.00    -0.508 OA
ATOM     22  H   UNL A   1      34.720  17.646  25.697  1.00  0.00     0.293 HD
ENDBRANCH  13  21
ENDBRANCH   5   8
ENDBRANCH   3   4
ENDBRANCH   2   3
ENDBRANCH   1   2
BRANCH   1  23
ATOM     23  C   UNL A   1      39.089  22.610  26.166  1.00  0.00     0.116 C 
BRANCH  23  24
ATOM     24  N   UNL A   1      40.331  21.919  25.889  1.00  0.00    -0.352 N 
ATOM     25  C   UNL A   1      41.620  22.319  26.188  1.00  0.00     0.251 C 
ATOM     26  H   UNL A   1      40.247  21.051  25.431  1.00  0.00     0.163 HD
ATOM     27  O   UNL A   1      42.537  21.533  25.962  1.00  0.00    -0.269 OA
BRANCH  25  28
ATOM     28  C   UNL A   1      41.908  23.718  26.651  1.00  0.00     0.039 A 
ATOM     29  C   UNL A   1      41.830  23.971  28.012  1.00  0.00     0.014 A 
ATOM     30  C   UNL A   1      42.085  24.821  25.800  1.00  0.00     0.014 A 
ATOM     31  C   UNL A   1      41.966  25.294  28.505  1.00  0.00     0.010 A 
ATOM     32  C   UNL A   1      42.138  26.180  26.305  1.00  0.00     0.010 A 
ATOM     33  C   UNL A   1      42.056  26.472  27.680  1.00  0.00    -0.014 A 
BRANCH  33  34
ATOM     34  C   UNL A   1      41.459  27.800  28.327  1.00  0.00     0.031 A 
ATOM     35  C   UNL A   1      42.676  28.657  28.480  1.00  0.00     0.074 A 
ATOM     36  C   UNL A   1      40.282  28.358  28.814  1.00  0.00     0.049 A 
ATOM     37  N   UNL A   1      43.729  28.222  29.120  1.00  0.00    -0.248 NA
ATOM     38  C   UNL A   1      42.930  29.795  27.591  1.00  0.00     0.031 C 
ATOM     39  C   UNL A   1      38.962  27.726  28.959  1.00  0.00     0.029 A 
ATOM     40  N   UNL A   1      39.980  29.665  29.304  1.00  0.00    -0.354 N 
ATOM     41  C   UNL A   1      44.685  29.192  28.975  1.00  0.00     0.074 A 
ATOM     42  C   UNL A   1      44.232  29.980  27.836  1.00  0.00     0.031 C 
ATOM     43  C   UNL A   1      38.010  28.625  29.356  1.00  0.00     0.029 A 
ATOM     44  C   UNL A   1      38.592  29.947  29.591  1.00  0.00     0.049 A 
ATOM     45  H   UNL A   1      40.683  30.341  29.441  1.00  0.00     0.167 HD
ATOM     46  C   UNL A   1      45.274  29.642  30.119  1.00  0.00     0.037 A 
ATOM     47  C   UNL A   1      37.975  31.110  30.053  1.00  0.00     0.037 A 
ATOM     48  C   UNL A   1      44.769  30.928  30.522  1.00  0.00     0.049 A 
ATOM     49  C   UNL A   1      39.029  31.877  30.734  1.00  0.00     0.074 A 
ATOM     50  C   UNL A   1      44.473  32.090  29.837  1.00  0.00     0.029 A 
ATOM     51  N   UNL A   1      44.031  30.961  31.689  1.00  0.00    -0.354 N 
ATOM     52  N   UNL A   1      39.482  31.541  31.901  1.00  0.00    -0.248 NA
ATOM     53  C   UNL A   1      39.553  33.124  30.182  1.00  0.00     0.031 C 
ATOM     54  C   UNL A   1      43.189  32.450  30.307  1.00  0.00     0.029 A 
ATOM     55  C   UNL A   1      42.919  31.745  31.475  1.00  0.00     0.049 A 
ATOM     56  H   UNL A   1      44.261  30.503  32.529  1.00  0.00     0.167 HD
ATOM     57  C   UNL A   1      40.647  32.232  31.989  1.00  0.00     0.074 A 
ATOM     58  C   UNL A   1      40.503  33.361  31.088  1.00  0.00     0.031 C 
ATOM     59  C   UNL A   1      41.758  31.525  32.299  1.00  0.00     0.037 A 
BRANCH  46  60
ATOM     60  C   UNL A   1      45.672  28.582  31.106  1.00  0.00     0.058 A 
ATOM     61  C   UNL A   1      47.021  28.458  31.449  1.00  0.00     0.135 A 
ATOM     62  C   UNL A   1      44.764  27.677  31.694  1.00  0.00     0.135 A 
ATOM     63  F   UNL A   1      47.925  29.324  30.962  1.00  0.00    -0.206 F 
ATOM     64  C   UNL A   1      47.460  27.452  32.305  1.00  0.00     0.059 A 
ATOM     65  C   UNL A   1      45.183  26.638  32.516  1.00  0.00     0.059 A 
ATOM     66  F   UNL A   1      43.441  27.822  31.509  1.00  0.00    -0.206 F 
ATOM     67  C   UNL A   1      46.538  26.535  32.817  1.00  0.00     0.060 A 
BRANCH  67  68
ATOM     68  S   UNL A   1      47.140  25.191  33.859  1.00  0.00     0.124 S 
ATOM     69  O   UNL A   1      48.429  24.869  33.234  1.00  0.00    -0.237 OA
ATOM     70  O   UNL A   1      47.246  25.860  35.161  1.00  0.00    -0.237 OA
ATOM     71  O   UNL A   1      46.128  24.169  33.739  1.00  0.00    -0.744 OA
ENDBRANCH  67  68
ENDBRANCH  46  60
BRANCH  47  72
ATOM     72  C   UNL A   1      36.613  31.840  30.269  1.00  0.00     0.058 A 
ATOM     73  C   UNL A   1      35.983  31.849  31.565  1.00  0.00     0.135 A 
ATOM     74  C   UNL A   1      36.133  32.850  29.423  1.00  0.00     0.135 A 
ATOM     75  F   UNL A   1      36.279  30.923  32.488  1.00  0.00    -0.206 F 
ATOM     76  C   UNL A   1      35.101  32.844  32.024  1.00  0.00     0.059 A 
ATOM     77  C   UNL A   1      35.206  33.846  29.853  1.00  0.00     0.059 A 
ATOM     78  F   UNL A   1      36.620  32.964  28.178  1.00  0.00    -0.206 F 
ATOM     79  C   UNL A   1      34.740  33.868  31.171  1.00  0.00     0.060 A 
BRANCH  79  80
ATOM     80  S   UNL A   1      33.787  35.265  31.851  1.00  0.00     0.124 S 
ATOM     81  O   UNL A   1      33.405  36.006  30.654  1.00  0.00    -0.237 OA
ATOM     82  O   UNL A   1      32.695  34.588  32.547  1.00  0.00    -0.237 OA
ATOM     83  O   UNL A   1      34.746  35.938  32.723  1.00  0.00    -0.744 OA
ENDBRANCH  79  80
ENDBRANCH  47  72
BRANCH  59  84
ATOM     84  C   UNL A   1      41.600  30.422  33.334  1.00  0.00     0.058 A 
ATOM     85  C   UNL A   1      41.769  30.555  34.733  1.00  0.00     0.135 A 
ATOM     86  C   UNL A   1      41.345  29.124  32.867  1.00  0.00     0.135 A 
ATOM     87  F   UNL A   1      41.916  31.755  35.311  1.00  0.00    -0.206 F 
ATOM     88  C   UNL A   1      41.785  29.454  35.593  1.00  0.00     0.059 A 
ATOM     89  C   UNL A   1      41.306  28.015  33.714  1.00  0.00     0.059 A 
ATOM     90  F   UNL A   1      41.127  28.922  31.558  1.00  0.00    -0.206 F 
ATOM     91  C   UNL A   1      41.573  28.183  35.071  1.00  0.00     0.060 A 
BRANCH  91  92
ATOM     92  S   UNL A   1      41.635  26.755  36.177  1.00  0.00     0.124 S 
ATOM     93  O   UNL A   1      41.064  25.703  35.341  1.00  0.00    -0.237 OA
ATOM     94  O   UNL A   1      43.061  26.624  36.459  1.00  0.00    -0.237 OA
ATOM     95  O   UNL A   1      40.803  27.165  37.304  1.00  0.00    -0.744 OA
ENDBRANCH  91  92
ENDBRANCH  59  84
ENDBRANCH  33  34
ENDBRANCH  25  28
ENDBRANCH  23  24
ENDBRANCH   1  23
TORSDOF 16
ENDMDL
MODEL 2
REMARK VINA RESULT:     -12.0      4.111      9.002
REMARK SMILES Cc1ccc(C)n1-c1ccc(O)cc1C(=O)NCCCCNC(=O)c1ccc(-c2c3nc(c(-c4c(F)cc(S(=O)(=O)[O-])cc4F)c4ccc([nH]4)c(-c4c(F)cc(S(=O)(=O)[O-])cc4F)c4nc(c(-c5c(F)cc(S(=O)(=O)[O-])cc5F)c5ccc2[nH]5)C=C4)C=C3)cc1
REMARK SMILES IDX 20 1 19 2 18 3 17 4 15 5 16 6 14 8 8 9 9 10 10 11 13 12
REMARK SMILES IDX 11 13 7 14 1 15 2 16 3 17 4 18 5 19 6 20 12 21 21 23 22 24
REMARK SMILES IDX 23 25 24 27 25 28 26 29 90 30 27 31 89 32 28 33 29 34 30 35
REMARK SMILES IDX 83 36 31 37 88 38 82 39 84 40 32 41 87 42 81 43 80 44 33 46
REMARK SMILES IDX 67 47 46 48 66 49 47 50 50 51 65 52 85 53 48 54 49 55 64 57
REMARK SMILES IDX 86 58 51 59 34 60 35 61 44 62 36 63 37 64 43 65 45 66 38 67
REMARK SMILES IDX 39 68 40 69 41 70 42 71 68 72 69 73 78 74 70 75 71 76 77 77
REMARK SMILES IDX 79 78 72 79 73 80 74 81 75 82 76 83 52 84 53 85 62 86 54 87
REMARK SMILES IDX 55 88 61 89 63 90 56 91 57 92 58 93 59 94 60 95
REMARK H PARENT 17 7 12 22 22 26 84 45 50 56
REMARK Flexibility Score: inf
ROOT
ATOM      1  C   UNL A   1      33.710  28.651  27.541  1.00  0.00     0.023 C 
ENDROOT
BRANCH   1   2
ATOM      2  C   UNL A   1      32.183  28.454  27.556  1.00  0.00     0.023 C 
BRANCH   2   3
ATOM      3  C   UNL A   1      31.513  27.609  26.486  1.00  0.00     0.116 C 
BRANCH   3   4
ATOM      4  N   UNL A   1      31.042  26.293  26.812  1.00  0.00    -0.352 N 
ATOM      5  C   UNL A   1      31.676  25.077  26.657  1.00  0.00     0.253 C 
ATOM      6  O   UNL A   1      31.133  24.112  27.203  1.00  0.00    -0.269 OA
ATOM      7  H   UNL A   1      30.139  26.252  27.201  1.00  0.00     0.163 HD
BRANCH   5   8
ATOM      8  C   UNL A   1      32.890  24.804  25.801  1.00  0.00     0.067 A 
ATOM      9  C   UNL A   1      33.177  25.144  24.465  1.00  0.00     0.058 A 
ATOM     10  C   UNL A   1      34.379  24.723  23.845  1.00  0.00     0.031 A 
ATOM     11  C   UNL A   1      35.333  23.996  24.546  1.00  0.00     0.048 A 
ATOM     12  C   UNL A   1      33.893  24.073  26.486  1.00  0.00     0.062 A 
ATOM     13  C   UNL A   1      35.086  23.688  25.871  1.00  0.00     0.116 A 
BRANCH   9  14
ATOM     14  N   UNL A   1      32.372  25.971  23.649  1.00  0.00    -0.318 N 
ATOM     15  C   UNL A   1      33.962  27.970  23.681  1.00  0.00     0.065 C 
ATOM     16  C   UNL A   1      32.665  27.305  23.350  1.00  0.00     0.020 A 
ATOM     17  C   UNL A   1      31.623  27.807  22.596  1.00  0.00     0.023 A 
ATOM     18  C   UNL A   1      30.675  26.776  22.432  1.00  0.00     0.023 A 
ATOM     19  C   UNL A   1      31.148  25.649  23.083  1.00  0.00     0.020 A 
ATOM     20  C   UNL A   1      30.509  24.305  23.157  1.00  0.00     0.065 C 
ENDBRANCH   9  14
BRANCH  13  21
ATOM     21  O   UNL A   1      36.003  23.004  26.613  1.00  0.00    -0.508 OA
ATOM     22  H   UNL A   1      35.723  22.329  27.199  1.00  0.00     0.293 HD
ENDBRANCH  13  21
ENDBRANCH   5   8
ENDBRANCH   3   4
ENDBRANCH   2   3
ENDBRANCH   1   2
BRANCH   1  23
ATOM     23  C   UNL A   1      34.307  29.981  27.055  1.00  0.00     0.116 C 
BRANCH  23  24
ATOM     24  N   UNL A   1      33.944  31.109  27.889  1.00  0.00    -0.352 N 
ATOM     25  C   UNL A   1      34.704  31.738  28.857  1.00  0.00     0.251 C 
ATOM     26  H   UNL A   1      33.042  31.475  27.747  1.00  0.00     0.163 HD
ATOM     27  O   UNL A   1      34.249  32.752  29.381  1.00  0.00    -0.269 OA
BRANCH  25  28
ATOM     28  C   UNL A   1      35.986  31.132  29.349  1.00  0.00     0.039 A 
ATOM     29  C   UNL A   1      37.119  31.309  28.570  1.00  0.00     0.014 A 
ATOM     30  C   UNL A   1      36.090  30.264  30.449  1.00  0.00     0.014 A 
ATOM     31  C   UNL A   1      38.333  30.659  28.910  1.00  0.00     0.010 A 
ATOM     32  C   UNL A   1      37.310  29.537  30.742  1.00  0.00     0.010 A 
ATOM     33  C   UNL A   1      38.476  29.689  29.966  1.00  0.00    -0.014 A 
BRANCH  33  34
ATOM     34  C   UNL A   1      39.595  28.581  29.722  1.00  0.00     0.031 A 
ATOM     35  C   UNL A   1      40.350  28.598  31.014  1.00  0.00     0.074 A 
ATOM     36  C   UNL A   1      40.099  27.715  28.757  1.00  0.00     0.049 A 
ATOM     37  N   UNL A   1      40.847  29.709  31.488  1.00  0.00    -0.248 NA
ATOM     38  C   UNL A   1      40.205  27.525  32.001  1.00  0.00     0.031 C 
ATOM     39  C   UNL A   1      39.693  27.577  27.351  1.00  0.00     0.029 A 
ATOM     40  N   UNL A   1      41.122  26.720  28.813  1.00  0.00    -0.354 N 
ATOM     41  C   UNL A   1      41.363  29.397  32.717  1.00  0.00     0.074 A 
ATOM     42  C   UNL A   1      40.716  28.141  33.073  1.00  0.00     0.031 C 
ATOM     43  C   UNL A   1      40.328  26.531  26.740  1.00  0.00     0.029 A 
ATOM     44  C   UNL A   1      41.283  25.887  27.643  1.00  0.00     0.049 A 
ATOM     45  H   UNL A   1      41.690  26.606  29.609  1.00  0.00     0.167 HD
ATOM     46  C   UNL A   1      42.656  29.763  32.945  1.00  0.00     0.037 A 
ATOM     47  C   UNL A   1      42.159  24.831  27.389  1.00  0.00     0.037 A 
ATOM     48  C   UNL A   1      43.561  28.648  32.856  1.00  0.00     0.049 A 
ATOM     49  C   UNL A   1      43.292  25.024  28.307  1.00  0.00     0.074 A 
ATOM     50  C   UNL A   1      43.513  27.345  33.313  1.00  0.00     0.029 A 
ATOM     51  N   UNL A   1      44.452  28.661  31.800  1.00  0.00    -0.354 N 
ATOM     52  N   UNL A   1      44.190  25.939  28.112  1.00  0.00    -0.248 NA
ATOM     53  C   UNL A   1      43.532  24.127  29.435  1.00  0.00     0.031 C 
ATOM     54  C   UNL A   1      43.885  26.572  32.189  1.00  0.00     0.029 A 
ATOM     55  C   UNL A   1      44.483  27.401  31.246  1.00  0.00     0.049 A 
ATOM     56  H   UNL A   1      44.974  29.438  31.496  1.00  0.00     0.167 HD
ATOM     57  C   UNL A   1      44.798  26.034  29.323  1.00  0.00     0.074 A 
ATOM     58  C   UNL A   1      44.573  24.759  29.977  1.00  0.00     0.031 C 
ATOM     59  C   UNL A   1      44.886  27.269  29.868  1.00  0.00     0.037 A 
BRANCH  46  60
ATOM     60  C   UNL A   1      43.029  31.147  32.498  1.00  0.00     0.058 A 
ATOM     61  C   UNL A   1      43.517  32.050  33.446  1.00  0.00     0.135 A 
ATOM     62  C   UNL A   1      42.892  31.606  31.171  1.00  0.00     0.135 A 
ATOM     63  F   UNL A   1      43.718  31.656  34.715  1.00  0.00    -0.206 F 
ATOM     64  C   UNL A   1      43.814  33.367  33.106  1.00  0.00     0.059 A 
ATOM     65  C   UNL A   1      43.140  32.927  30.815  1.00  0.00     0.059 A 
ATOM     66  F   UNL A   1      42.553  30.757  30.188  1.00  0.00    -0.206 F 
ATOM     67  C   UNL A   1      43.603  33.801  31.795  1.00  0.00     0.060 A 
BRANCH  67  68
ATOM     68  S   UNL A   1      43.919  35.531  31.394  1.00  0.00     0.124 S 
ATOM     69  O   UNL A   1      42.894  35.806  30.380  1.00  0.00    -0.237 OA
ATOM     70  O   UNL A   1      43.681  36.177  32.690  1.00  0.00    -0.237 OA
ATOM     71  O   UNL A   1      45.279  35.540  30.909  1.00  0.00    -0.744 OA
ENDBRANCH  67  68
ENDBRANCH  46  60
BRANCH  47  72
ATOM     72  C   UNL A   1      42.489  23.639  26.438  1.00  0.00     0.058 A 
ATOM     73  C   UNL A   1      43.511  23.764  25.431  1.00  0.00     0.135 A 
ATOM     74  C   UNL A   1      42.177  22.303  26.735  1.00  0.00     0.135 A 
ATOM     75  F   UNL A   1      43.901  24.967  24.984  1.00  0.00    -0.206 F 
ATOM     76  C   UNL A   1      44.252  22.695  24.899  1.00  0.00     0.059 A 
ATOM     77  C   UNL A   1      42.887  21.200  26.176  1.00  0.00     0.059 A 
ATOM     78  F   UNL A   1      41.237  22.026  27.650  1.00  0.00    -0.206 F 
ATOM     79  C   UNL A   1      43.960  21.407  25.303  1.00  0.00     0.060 A 
BRANCH  79  80
ATOM     80  S   UNL A   1      45.076  20.063  24.784  1.00  0.00     0.124 S 
ATOM     81  O   UNL A   1      46.396  20.612  25.074  1.00  0.00    -0.237 OA
ATOM     82  O   UNL A   1      44.653  18.957  25.639  1.00  0.00    -0.237 OA
ATOM     83  O   UNL A   1      44.768  19.895  23.366  1.00  0.00    -0.744 OA
ENDBRANCH  79  80
ENDBRANCH  47  72
BRANCH  59  84
ATOM     84  C   UNL A   1      45.190  28.418  28.918  1.00  0.00     0.058 A 
ATOM     85  C   UNL A   1      46.473  28.888  28.555  1.00  0.00     0.135 A 
ATOM     86  C   UNL A   1      44.102  29.144  28.410  1.00  0.00     0.135 A 
ATOM     87  F   UNL A   1      47.587  28.223  28.893  1.00  0.00    -0.206 F 
ATOM     88  C   UNL A   1      46.660  30.063  27.822  1.00  0.00     0.059 A 
ATOM     89  C   UNL A   1      44.264  30.292  27.632  1.00  0.00     0.059 A 
ATOM     90  F   UNL A   1      42.851  28.733  28.671  1.00  0.00    -0.206 F 
ATOM     91  C   UNL A   1      45.548  30.770  27.380  1.00  0.00     0.060 A 
BRANCH  91  92
ATOM     92  S   UNL A   1      45.789  32.311  26.468  1.00  0.00     0.124 S 
ATOM     93  O   UNL A   1      47.227  32.288  26.216  1.00  0.00    -0.237 OA
ATOM     94  O   UNL A   1      44.946  32.129  25.291  1.00  0.00    -0.237 OA
ATOM     95  O   UNL A   1      45.345  33.334  27.410  1.00  0.00    -0.744 OA
ENDBRANCH  91  92
ENDBRANCH  59  84
ENDBRANCH  33  34
ENDBRANCH  25  28
ENDBRANCH  23  24
ENDBRANCH   1  23
TORSDOF 16
ENDMDL
MODEL 3
REMARK VINA RESULT:     -11.9      5.417     11.460
REMARK SMILES Cc1ccc(C)n1-c1ccc(O)cc1C(=O)NCCCCNC(=O)c1ccc(-c2c3nc(c(-c4c(F)cc(S(=O)(=O)[O-])cc4F)c4ccc([nH]4)c(-c4c(F)cc(S(=O)(=O)[O-])cc4F)c4nc(c(-c5c(F)cc(S(=O)(=O)[O-])cc5F)c5ccc2[nH]5)C=C4)C=C3)cc1
REMARK SMILES IDX 20 1 19 2 18 3 17 4 15 5 16 6 14 8 8 9 9 10 10 11 13 12
REMARK SMILES IDX 11 13 7 14 1 15 2 16 3 17 4 18 5 19 6 20 12 21 21 23 22 24
REMARK SMILES IDX 23 25 24 27 25 28 26 29 90 30 27 31 89 32 28 33 29 34 30 35
REMARK SMILES IDX 83 36 31 37 88 38 82 39 84 40 32 41 87 42 81 43 80 44 33 46
REMARK SMILES IDX 67 47 46 48 66 49 47 50 50 51 65 52 85 53 48 54 49 55 64 57
REMARK SMILES IDX 86 58 51 59 34 60 35 61 44 62 36 63 37 64 43 65 45 66 38 67
REMARK SMILES IDX 39 68 40 69 41 70 42 71 68 72 69 73 78 74 70 75 71 76 77 77
REMARK SMILES IDX 79 78 72 79 73 80 74 81 75 82 76 83 52 84 53 85 62 86 54 87
REMARK SMILES IDX 55 88 61 89 63 90 56 91 57 92 58 93 59 94 60 95
REMARK H PARENT 17 7 12 22 22 26 84 45 50 56
REMARK Flexibility Score: inf
ROOT
ATOM      1  C   UNL A   1      34.552  33.020  31.155  1.00  0.00     0.023 C 
ENDROOT
BRANCH   1   2
ATOM      2  C   UNL A   1      34.663  33.955  32.374  1.00  0.00     0.023 C 
BRANCH   2   3
ATOM      3  C   UNL A   1      35.289  33.455  33.664  1.00  0.00     0.116 C 
BRANCH   3   4
ATOM      4  N   UNL A   1      36.308  34.235  34.308  1.00  0.00    -0.352 N 
ATOM      5  C   UNL A   1      37.589  34.518  33.882  1.00  0.00     0.253 C 
ATOM      6  O   UNL A   1      38.195  35.379  34.528  1.00  0.00    -0.269 OA
ATOM      7  H   UNL A   1      36.056  34.622  35.177  1.00  0.00     0.163 HD
BRANCH   5   8
ATOM      8  C   UNL A   1      38.345  33.805  32.787  1.00  0.00     0.067 A 
ATOM      9  C   UNL A   1      39.260  32.735  32.838  1.00  0.00     0.058 A 
ATOM     10  C   UNL A   1      39.900  32.262  31.666  1.00  0.00     0.031 A 
ATOM     11  C   UNL A   1      39.615  32.811  30.422  1.00  0.00     0.048 A 
ATOM     12  C   UNL A   1      38.074  34.329  31.498  1.00  0.00     0.062 A 
ATOM     13  C   UNL A   1      38.690  33.835  30.347  1.00  0.00     0.116 A 
BRANCH   9  14
ATOM     14  N   UNL A   1      39.573  31.993  33.999  1.00  0.00    -0.318 N 
ATOM     15  C   UNL A   1      41.353  33.611  34.855  1.00  0.00     0.065 C 
ATOM     16  C   UNL A   1      40.594  32.324  34.895  1.00  0.00     0.020 A 
ATOM     17  C   UNL A   1      40.649  31.336  35.858  1.00  0.00     0.023 A 
ATOM     18  C   UNL A   1      39.657  30.382  35.551  1.00  0.00     0.023 A 
ATOM     19  C   UNL A   1      38.998  30.798  34.406  1.00  0.00     0.020 A 
ATOM     20  C   UNL A   1      37.853  30.133  33.722  1.00  0.00     0.065 C 
ENDBRANCH   9  14
BRANCH  13  21
ATOM     21  O   UNL A   1      38.353  34.387  29.146  1.00  0.00    -0.508 OA
ATOM     22  H   UNL A   1      37.471  34.328  28.834  1.00  0.00     0.293 HD
ENDBRANCH  13  21
ENDBRANCH   5   8
ENDBRANCH   3   4
ENDBRANCH   2   3
ENDBRANCH   1   2
BRANCH   1  23
ATOM     23  C   UNL A   1      35.040  33.495  29.778  1.00  0.00     0.116 C 
BRANCH  23  24
ATOM     24  N   UNL A   1      34.521  32.702  28.682  1.00  0.00    -0.352 N 
ATOM     25  C   UNL A   1      34.917  31.443  28.271  1.00  0.00     0.251 C 
ATOM     26  H   UNL A   1      33.790  33.112  28.164  1.00  0.00     0.163 HD
ATOM     27  O   UNL A   1      34.272  30.896  27.380  1.00  0.00    -0.269 OA
BRANCH  25  28
ATOM     28  C   UNL A   1      36.174  30.817  28.802  1.00  0.00     0.039 A 
ATOM     29  C   UNL A   1      37.255  30.721  27.940  1.00  0.00     0.014 A 
ATOM     30  C   UNL A   1      36.282  30.173  30.046  1.00  0.00     0.014 A 
ATOM     31  C   UNL A   1      38.429  30.029  28.336  1.00  0.00     0.010 A 
ATOM     32  C   UNL A   1      37.452  29.397  30.410  1.00  0.00     0.010 A 
ATOM     33  C   UNL A   1      38.565  29.274  29.555  1.00  0.00    -0.014 A 
BRANCH  33  34
ATOM     34  C   UNL A   1      39.559  28.032  29.477  1.00  0.00     0.031 A 
ATOM     35  C   UNL A   1      40.246  28.085  30.805  1.00  0.00     0.074 A 
ATOM     36  C   UNL A   1      40.007  27.028  28.624  1.00  0.00     0.049 A 
ATOM     37  N   UNL A   1      40.843  29.175  31.209  1.00  0.00    -0.248 NA
ATOM     38  C   UNL A   1      39.928  27.132  31.872  1.00  0.00     0.031 C 
ATOM     39  C   UNL A   1      39.659  26.805  27.213  1.00  0.00     0.029 A 
ATOM     40  N   UNL A   1      40.904  25.936  28.828  1.00  0.00    -0.354 N 
ATOM     41  C   UNL A   1      41.258  28.924  32.491  1.00  0.00     0.074 A 
ATOM     42  C   UNL A   1      40.452  27.786  32.915  1.00  0.00     0.031 C 
ATOM     43  C   UNL A   1      40.197  25.642  26.735  1.00  0.00     0.029 A 
ATOM     44  C   UNL A   1      41.026  24.985  27.747  1.00  0.00     0.049 A 
ATOM     45  H   UNL A   1      41.414  25.835  29.664  1.00  0.00     0.167 HD
ATOM     46  C   UNL A   1      42.571  29.164  32.763  1.00  0.00     0.037 A 
ATOM     47  C   UNL A   1      41.785  23.819  27.639  1.00  0.00     0.037 A 
ATOM     48  C   UNL A   1      43.344  27.952  32.826  1.00  0.00     0.049 A 
ATOM     49  C   UNL A   1      42.885  23.970  28.603  1.00  0.00     0.074 A 
ATOM     50  C   UNL A   1      43.123  26.711  33.391  1.00  0.00     0.029 A 
ATOM     51  N   UNL A   1      44.282  27.767  31.829  1.00  0.00    -0.354 N 
ATOM     52  N   UNL A   1      43.892  24.758  28.384  1.00  0.00    -0.248 NA
ATOM     53  C   UNL A   1      42.963  23.162  29.817  1.00  0.00     0.031 C 
ATOM     54  C   UNL A   1      43.459  25.799  32.364  1.00  0.00     0.029 A 
ATOM     55  C   UNL A   1      44.195  26.465  31.390  1.00  0.00     0.049 A 
ATOM     56  H   UNL A   1      44.905  28.450  31.491  1.00  0.00     0.167 HD
ATOM     57  C   UNL A   1      44.446  24.899  29.616  1.00  0.00     0.074 A 
ATOM     58  C   UNL A   1      44.043  23.723  30.364  1.00  0.00     0.031 C 
ATOM     59  C   UNL A   1      44.649  26.161  30.056  1.00  0.00     0.037 A 
BRANCH  46  60
ATOM     60  C   UNL A   1      43.123  30.450  32.220  1.00  0.00     0.058 A 
ATOM     61  C   UNL A   1      43.601  31.408  33.119  1.00  0.00     0.135 A 
ATOM     62  C   UNL A   1      43.167  30.767  30.846  1.00  0.00     0.135 A 
ATOM     63  F   UNL A   1      43.634  31.143  34.435  1.00  0.00    -0.206 F 
ATOM     64  C   UNL A   1      44.061  32.646  32.680  1.00  0.00     0.059 A 
ATOM     65  C   UNL A   1      43.581  32.012  30.386  1.00  0.00     0.059 A 
ATOM     66  F   UNL A   1      42.845  29.845  29.924  1.00  0.00    -0.206 F 
ATOM     67  C   UNL A   1      44.028  32.947  31.316  1.00  0.00     0.060 A 
BRANCH  67  68
ATOM     68  S   UNL A   1      44.554  34.586  30.777  1.00  0.00     0.124 S 
ATOM     69  O   UNL A   1      44.173  34.582  29.359  1.00  0.00    -0.237 OA
ATOM     70  O   UNL A   1      43.726  35.450  31.627  1.00  0.00    -0.237 OA
ATOM     71  O   UNL A   1      45.975  34.603  31.029  1.00  0.00    -0.744 OA
ENDBRANCH  67  68
ENDBRANCH  46  60
BRANCH  47  72
ATOM     72  C   UNL A   1      42.022  22.514  26.818  1.00  0.00     0.058 A 
ATOM     73  C   UNL A   1      43.013  22.474  25.772  1.00  0.00     0.135 A 
ATOM     74  C   UNL A   1      41.656  21.237  27.270  1.00  0.00     0.135 A 
ATOM     75  F   UNL A   1      43.445  23.598  25.183  1.00  0.00    -0.206 F 
ATOM     76  C   UNL A   1      43.681  21.315  25.341  1.00  0.00     0.059 A 
ATOM     77  C   UNL A   1      42.291  20.043  26.817  1.00  0.00     0.059 A 
ATOM     78  F   UNL A   1      40.736  21.112  28.239  1.00  0.00    -0.206 F 
ATOM     79  C   UNL A   1      43.341  20.096  25.895  1.00  0.00     0.060 A 
BRANCH  79  80
ATOM     80  S   UNL A   1      44.370  18.646  25.495  1.00  0.00     0.124 S 
ATOM     81  O   UNL A   1      43.974  18.340  24.125  1.00  0.00    -0.237 OA
ATOM     82  O   UNL A   1      45.724  19.171  25.657  1.00  0.00    -0.237 OA
ATOM     83  O   UNL A   1      43.971  17.660  26.496  1.00  0.00    -0.744 OA
ENDBRANCH  79  80
ENDBRANCH  47  72
BRANCH  59  84
ATOM     84  C   UNL A   1      45.130  27.176  29.029  1.00  0.00     0.058 A 
ATOM     85  C   UNL A   1      44.328  27.853  28.081  1.00  0.00     0.135 A 
ATOM     86  C   UNL A   1      46.511  27.412  28.948  1.00  0.00     0.135 A 
ATOM     87  F   UNL A   1      42.990  27.790  28.120  1.00  0.00    -0.206 F 
ATOM     88  C   UNL A   1      44.876  28.629  27.056  1.00  0.00     0.059 A 
ATOM     89  C   UNL A   1      47.076  28.224  27.963  1.00  0.00     0.059 A 
ATOM     90  F   UNL A   1      47.334  26.842  29.842  1.00  0.00    -0.206 F 
ATOM     91  C   UNL A   1      46.255  28.793  26.993  1.00  0.00     0.060 A 
BRANCH  91  92
ATOM     92  S   UNL A   1      46.966  29.763  25.644  1.00  0.00     0.124 S 
ATOM     93  O   UNL A   1      48.363  29.869  26.054  1.00  0.00    -0.237 OA
ATOM     94  O   UNL A   1      46.719  28.924  24.475  1.00  0.00    -0.237 OA
ATOM     95  O   UNL A   1      46.212  31.012  25.694  1.00  0.00    -0.744 OA
ENDBRANCH  91  92
ENDBRANCH  59  84
ENDBRANCH  33  34
ENDBRANCH  25  28
ENDBRANCH  23  24
ENDBRANCH   1  23
TORSDOF 16
ENDMDL
