MODEL 1
REMARK VINA RESULT:     -10.8      0.000      0.000
REMARK SMILES O=C(CCC(=O)N1CCc2sccc2C1)NC1(C(=O)NCCCCNC(=O)c2ccc(-c3c4nc(c(-c5c(F)cc(S(=O)(=O)[O-])cc5F)c5ccc([nH]5)c(-c5c(F)cc(S(=O)(=O)[O-])cc5F)c5nc(c(-c6c(F)cc(S(=O)(=O)[O-])cc6F)c6ccc3[nH]6)C=C5)C=C4)cc2)CCCCC1
REMARK SMILES IDX 21 1 20 2 18 3 19 4 17 6 94 7 98 8 95 9 97 10 96 11 16 12
REMARK SMILES IDX 1 13 2 14 3 16 4 17 5 18 6 19 7 20 8 21 15 22 9 23 14 24
REMARK SMILES IDX 10 25 13 26 11 27 12 28 22 29 23 30 24 31 25 32 26 33 27 35
REMARK SMILES IDX 28 36 29 37 93 38 30 39 92 40 31 41 32 42 33 43 86 44 34 45
REMARK SMILES IDX 91 46 85 47 87 48 35 49 90 50 84 51 83 52 36 54 70 55 49 56
REMARK SMILES IDX 69 57 50 58 53 59 68 60 88 61 51 62 52 63 67 65 89 66 54 67
REMARK SMILES IDX 37 68 38 69 47 70 39 71 40 72 46 73 48 74 41 75 42 76 43 77
REMARK SMILES IDX 44 78 45 79 71 80 72 81 81 82 73 83 74 84 80 85 82 86 75 87
REMARK SMILES IDX 76 88 77 89 78 90 79 91 55 92 56 93 65 94 57 95 58 96 64 97
REMARK SMILES IDX 66 98 59 99 60 100 61 101 62 102 63 103
REMARK H PARENT 20 5 16 15 25 34 87 53 53 64
REMARK Flexibility Score: inf
ROOT
ATOM      1  C   UNL A   1      32.949  30.176  26.025  1.00  0.00     0.116 C 
ENDROOT
BRANCH   1   2
ATOM      2  N   UNL A   1      33.381  29.552  24.807  1.00  0.00    -0.354 N 
ATOM      3  C   UNL A   1      32.644  29.101  23.756  1.00  0.00     0.245 C 
ATOM      4  O   UNL A   1      33.270  28.948  22.695  1.00  0.00    -0.272 OA
ATOM      5  H   UNL A   1      34.354  29.432  24.719  1.00  0.00     0.163 HD
BRANCH   3   6
ATOM      6  C   UNL A   1      31.084  28.895  23.805  1.00  0.00     0.119 C 
ATOM      7  C   UNL A   1      30.499  28.628  22.396  1.00  0.00     0.038 C 
ATOM      8  C   UNL A   1      30.278  29.951  24.598  1.00  0.00     0.038 C 
ATOM      9  C   UNL A   1      29.957  29.818  21.620  1.00  0.00     0.003 C 
ATOM     10  C   UNL A   1      29.523  31.047  23.852  1.00  0.00     0.003 C 
ATOM     11  C   UNL A   1      29.052  30.721  22.443  1.00  0.00     0.000 C 
BRANCH   6  12
ATOM     12  N   UNL A   1      30.976  27.573  24.509  1.00  0.00    -0.342 N 
ATOM     13  O   UNL A   1      28.827  26.963  23.923  1.00  0.00    -0.275 OA
ATOM     14  C   UNL A   1      29.901  26.712  24.452  1.00  0.00     0.221 C 
ATOM     15  H   UNL A   1      31.741  27.296  25.062  1.00  0.00     0.164 HD
BRANCH  14  16
ATOM     16  C   UNL A   1      30.224  25.359  25.045  1.00  0.00     0.110 C 
BRANCH  16  17
ATOM     17  C   UNL A   1      31.697  25.198  25.390  1.00  0.00     0.110 C 
BRANCH  17  18
ATOM     18  C   UNL A   1      32.685  24.487  24.465  1.00  0.00     0.223 C 
ATOM     19  O   UNL A   1      33.607  25.174  23.996  1.00  0.00    -0.275 OA
BRANCH  18  20
ATOM     20  N   UNL A   1      32.571  23.160  24.081  1.00  0.00    -0.338 N 
ATOM     21  C   UNL A   1      31.768  22.647  22.961  1.00  0.00     0.125 C 
ATOM     22  C   UNL A   1      33.228  22.224  25.010  1.00  0.00     0.156 C 
ATOM     23  C   UNL A   1      32.146  21.268  22.391  1.00  0.00     0.068 C 
ATOM     24  C   UNL A   1      32.944  20.787  24.725  1.00  0.00    -0.015 A 
ATOM     25  C   UNL A   1      32.467  20.348  23.513  1.00  0.00     0.011 A 
ATOM     26  C   UNL A   1      33.134  19.695  25.627  1.00  0.00     0.017 A 
ATOM     27  S   UNL A   1      32.306  18.661  23.427  1.00  0.00    -0.149 S 
ATOM     28  C   UNL A   1      32.798  18.484  25.058  1.00  0.00     0.065 A 
ENDBRANCH  18  20
ENDBRANCH  17  18
ENDBRANCH  16  17
ENDBRANCH  14  16
ENDBRANCH   6  12
ENDBRANCH   3   6
ENDBRANCH   1   2
BRANCH   1  29
ATOM     29  C   UNL A   1      33.276  29.387  27.283  1.00  0.00     0.023 C 
BRANCH  29  30
ATOM     30  C   UNL A   1      34.753  29.079  27.471  1.00  0.00     0.023 C 
BRANCH  30  31
ATOM     31  C   UNL A   1      35.574  30.224  28.046  1.00  0.00     0.116 C 
BRANCH  31  32
ATOM     32  N   UNL A   1      34.979  30.881  29.208  1.00  0.00    -0.352 N 
ATOM     33  C   UNL A   1      35.659  31.385  30.299  1.00  0.00     0.251 C 
ATOM     34  H   UNL A   1      34.000  30.974  29.213  1.00  0.00     0.163 HD
ATOM     35  O   UNL A   1      35.082  31.894  31.243  1.00  0.00    -0.269 OA
BRANCH  33  36
ATOM     36  C   UNL A   1      37.125  31.225  30.285  1.00  0.00     0.039 A 
ATOM     37  C   UNL A   1      37.696  30.224  31.069  1.00  0.00     0.014 A 
ATOM     38  C   UNL A   1      37.864  31.901  29.311  1.00  0.00     0.014 A 
ATOM     39  C   UNL A   1      39.011  29.838  30.816  1.00  0.00     0.010 A 
ATOM     40  C   UNL A   1      39.137  31.447  29.001  1.00  0.00     0.010 A 
ATOM     41  C   UNL A   1      39.722  30.410  29.747  1.00  0.00    -0.014 A 
BRANCH  41  42
ATOM     42  C   UNL A   1      41.086  29.947  29.393  1.00  0.00     0.031 A 
ATOM     43  C   UNL A   1      42.224  30.927  29.416  1.00  0.00     0.074 A 
ATOM     44  C   UNL A   1      41.283  28.680  28.976  1.00  0.00     0.049 A 
ATOM     45  N   UNL A   1      43.471  30.754  29.063  1.00  0.00    -0.248 NA
ATOM     46  C   UNL A   1      41.907  32.297  29.850  1.00  0.00     0.031 C 
ATOM     47  C   UNL A   1      40.241  27.660  28.835  1.00  0.00     0.029 A 
ATOM     48  N   UNL A   1      42.429  28.038  28.580  1.00  0.00    -0.354 N 
ATOM     49  C   UNL A   1      44.079  31.993  29.218  1.00  0.00     0.074 A 
ATOM     50  C   UNL A   1      43.048  32.925  29.619  1.00  0.00     0.031 C 
ATOM     51  C   UNL A   1      40.799  26.517  28.404  1.00  0.00     0.029 A 
ATOM     52  C   UNL A   1      42.231  26.728  28.212  1.00  0.00     0.049 A 
ATOM     53  H   UNL A   1      43.311  28.474  28.561  1.00  0.00     0.167 HD
ATOM     54  C   UNL A   1      45.384  32.321  29.076  1.00  0.00     0.037 A 
ATOM     55  C   UNL A   1      43.106  25.803  27.771  1.00  0.00     0.037 A 
ATOM     56  C   UNL A   1      46.407  31.380  28.709  1.00  0.00     0.049 A 
ATOM     57  C   UNL A   1      44.560  26.173  27.659  1.00  0.00     0.074 A 
ATOM     58  C   UNL A   1      47.769  31.590  28.593  1.00  0.00     0.029 A 
ATOM     59  N   UNL A   1      46.178  30.046  28.403  1.00  0.00    -0.354 N 
ATOM     60  N   UNL A   1      45.133  27.333  27.879  1.00  0.00    -0.248 NA
ATOM     61  C   UNL A   1      45.489  25.110  27.253  1.00  0.00     0.031 C 
ATOM     62  C   UNL A   1      48.360  30.387  28.187  1.00  0.00     0.029 A 
ATOM     63  C   UNL A   1      47.371  29.420  28.091  1.00  0.00     0.049 A 
ATOM     64  H   UNL A   1      45.295  29.610  28.409  1.00  0.00     0.167 HD
ATOM     65  C   UNL A   1      46.491  27.136  27.657  1.00  0.00     0.074 A 
ATOM     66  C   UNL A   1      46.655  25.741  27.300  1.00  0.00     0.031 C 
ATOM     67  C   UNL A   1      47.510  28.028  27.741  1.00  0.00     0.037 A 
BRANCH  54  68
ATOM     68  C   UNL A   1      45.761  33.753  29.337  1.00  0.00     0.058 A 
ATOM     69  C   UNL A   1      45.693  34.726  28.325  1.00  0.00     0.135 A 
ATOM     70  C   UNL A   1      46.222  34.154  30.600  1.00  0.00     0.135 A 
ATOM     71  F   UNL A   1      45.277  34.391  27.093  1.00  0.00    -0.206 F 
ATOM     72  C   UNL A   1      46.118  36.032  28.541  1.00  0.00     0.059 A 
ATOM     73  C   UNL A   1      46.622  35.464  30.849  1.00  0.00     0.059 A 
ATOM     74  F   UNL A   1      46.308  33.266  31.604  1.00  0.00    -0.206 F 
ATOM     75  C   UNL A   1      46.590  36.389  29.805  1.00  0.00     0.060 A 
BRANCH  75  76
ATOM     76  S   UNL A   1      47.170  38.079  30.062  1.00  0.00     0.124 S 
ATOM     77  O   UNL A   1      45.945  38.742  30.497  1.00  0.00    -0.237 OA
ATOM     78  O   UNL A   1      48.194  37.905  31.088  1.00  0.00    -0.237 OA
ATOM     79  O   UNL A   1      47.664  38.472  28.746  1.00  0.00    -0.744 OA
ENDBRANCH  75  76
ENDBRANCH  54  68
BRANCH  55  80
ATOM     80  C   UNL A   1      42.630  24.433  27.440  1.00  0.00     0.058 A 
ATOM     81  C   UNL A   1      42.537  23.443  28.429  1.00  0.00     0.135 A 
ATOM     82  C   UNL A   1      42.222  24.099  26.140  1.00  0.00     0.135 A 
ATOM     83  F   UNL A   1      42.919  23.712  29.686  1.00  0.00    -0.206 F 
ATOM     84  C   UNL A   1      42.061  22.167  28.140  1.00  0.00     0.059 A 
ATOM     85  C   UNL A   1      41.722  22.836  25.831  1.00  0.00     0.059 A 
ATOM     86  F   UNL A   1      42.276  25.017  25.162  1.00  0.00    -0.206 F 
ATOM     87  C   UNL A   1      41.651  21.875  26.838  1.00  0.00     0.060 A 
BRANCH  87  88
ATOM     88  S   UNL A   1      40.965  20.240  26.491  1.00  0.00     0.124 S 
ATOM     89  O   UNL A   1      41.918  19.723  25.516  1.00  0.00    -0.237 OA
ATOM     90  O   UNL A   1      40.993  19.611  27.809  1.00  0.00    -0.237 OA
ATOM     91  O   UNL A   1      39.631  20.538  25.978  1.00  0.00    -0.744 OA
ENDBRANCH  87  88
ENDBRANCH  55  80
BRANCH  67  92
ATOM     92  C   UNL A   1      48.897  27.519  27.464  1.00  0.00     0.058 A 
ATOM     93  C   UNL A   1      49.697  26.979  28.480  1.00  0.00     0.135 A 
ATOM     94  C   UNL A   1      49.401  27.513  26.154  1.00  0.00     0.135 A 
ATOM     95  F   UNL A   1      49.262  26.965  29.750  1.00  0.00    -0.206 F 
ATOM     96  C   UNL A   1      50.962  26.465  28.210  1.00  0.00     0.059 A 
ATOM     97  C   UNL A   1      50.652  26.983  25.857  1.00  0.00     0.059 A 
ATOM     98  F   UNL A   1      48.667  28.009  25.144  1.00  0.00    -0.206 F 
ATOM     99  C   UNL A   1      51.429  26.470  26.894  1.00  0.00     0.060 A 
BRANCH  99 100
ATOM    100  S   UNL A   1      53.055  25.763  26.550  1.00  0.00     0.124 S 
ATOM    101  O   UNL A   1      53.636  25.700  27.886  1.00  0.00    -0.237 OA
ATOM    102  O   UNL A   1      52.717  24.480  25.943  1.00  0.00    -0.237 OA
ATOM    103  O   UNL A   1      53.662  26.736  25.646  1.00  0.00    -0.744 OA
ENDBRANCH  99 100
ENDBRANCH  67  92
ENDBRANCH  41  42
ENDBRANCH  33  36
ENDBRANCH  31  32
ENDBRANCH  30  31
ENDBRANCH  29  30
ENDBRANCH   1  29
TORSDOF 19
ENDMDL
MODEL 2
REMARK VINA RESULT:     -10.6      5.791     14.438
REMARK SMILES O=C(CCC(=O)N1CCc2sccc2C1)NC1(C(=O)NCCCCNC(=O)c2ccc(-c3c4nc(c(-c5c(F)cc(S(=O)(=O)[O-])cc5F)c5ccc([nH]5)c(-c5c(F)cc(S(=O)(=O)[O-])cc5F)c5nc(c(-c6c(F)cc(S(=O)(=O)[O-])cc6F)c6ccc3[nH]6)C=C5)C=C4)cc2)CCCCC1
REMARK SMILES IDX 21 1 20 2 18 3 19 4 17 6 94 7 98 8 95 9 97 10 96 11 16 12
REMARK SMILES IDX 1 13 2 14 3 16 4 17 5 18 6 19 7 20 8 21 15 22 9 23 14 24
REMARK SMILES IDX 10 25 13 26 11 27 12 28 22 29 23 30 24 31 25 32 26 33 27 35
REMARK SMILES IDX 28 36 29 37 93 38 30 39 92 40 31 41 32 42 33 43 86 44 34 45
REMARK SMILES IDX 91 46 85 47 87 48 35 49 90 50 84 51 83 52 36 54 70 55 49 56
REMARK SMILES IDX 69 57 50 58 53 59 68 60 88 61 51 62 52 63 67 65 89 66 54 67
REMARK SMILES IDX 37 68 38 69 47 70 39 71 40 72 46 73 48 74 41 75 42 76 43 77
REMARK SMILES IDX 44 78 45 79 71 80 72 81 81 82 73 83 74 84 80 85 82 86 75 87
REMARK SMILES IDX 76 88 77 89 78 90 79 91 55 92 56 93 65 94 57 95 58 96 64 97
REMARK SMILES IDX 66 98 59 99 60 100 61 101 62 102 63 103
REMARK H PARENT 20 5 16 15 25 34 87 53 53 64
REMARK Flexibility Score: inf
ROOT
ATOM      1  C   UNL A   1      44.986  38.975  27.164  1.00  0.00     0.116 C 
ENDROOT
BRANCH   1   2
ATOM      2  N   UNL A   1      45.805  38.725  26.012  1.00  0.00    -0.354 N 
ATOM      3  C   UNL A   1      46.466  39.605  25.213  1.00  0.00     0.245 C 
ATOM      4  O   UNL A   1      47.380  39.118  24.529  1.00  0.00    -0.272 OA
ATOM      5  H   UNL A   1      45.903  37.778  25.764  1.00  0.00     0.163 HD
BRANCH   3   6
ATOM      6  C   UNL A   1      46.208  41.158  25.218  1.00  0.00     0.119 C 
ATOM      7  C   UNL A   1      47.090  41.881  26.265  1.00  0.00     0.038 C 
ATOM      8  C   UNL A   1      44.729  41.606  25.269  1.00  0.00     0.038 C 
ATOM      9  C   UNL A   1      46.488  42.139  27.637  1.00  0.00     0.003 C 
ATOM     10  C   UNL A   1      44.128  42.093  26.585  1.00  0.00     0.003 C 
ATOM     11  C   UNL A   1      45.084  42.721  27.586  1.00  0.00     0.000 C 
BRANCH   6  12
ATOM     12  N   UNL A   1      46.792  41.565  23.895  1.00  0.00    -0.342 N 
ATOM     13  O   UNL A   1      46.812  43.861  24.137  1.00  0.00    -0.275 OA
ATOM     14  C   UNL A   1      47.097  42.852  23.508  1.00  0.00     0.221 C 
ATOM     15  H   UNL A   1      46.974  40.848  23.246  1.00  0.00     0.164 HD
BRANCH  14  16
ATOM     16  C   UNL A   1      47.918  42.884  22.238  1.00  0.00     0.110 C 
BRANCH  16  17
ATOM     17  C   UNL A   1      47.127  42.467  21.008  1.00  0.00     0.110 C 
BRANCH  17  18
ATOM     18  C   UNL A   1      45.658  42.841  20.809  1.00  0.00     0.223 C 
ATOM     19  O   UNL A   1      44.814  42.033  21.227  1.00  0.00    -0.275 OA
BRANCH  18  20
ATOM     20  N   UNL A   1      45.232  43.980  20.144  1.00  0.00    -0.338 N 
ATOM     21  C   UNL A   1      45.741  45.345  20.345  1.00  0.00     0.125 C 
ATOM     22  C   UNL A   1      44.065  43.747  19.274  1.00  0.00     0.156 C 
ATOM     23  C   UNL A   1      45.520  46.359  19.210  1.00  0.00     0.068 C 
ATOM     24  C   UNL A   1      43.470  44.994  18.711  1.00  0.00    -0.015 A 
ATOM     25  C   UNL A   1      44.149  46.189  18.663  1.00  0.00     0.011 A 
ATOM     26  C   UNL A   1      42.164  45.124  18.145  1.00  0.00     0.017 A 
ATOM     27  S   UNL A   1      43.274  47.428  17.903  1.00  0.00    -0.149 S 
ATOM     28  C   UNL A   1      41.917  46.403  17.692  1.00  0.00     0.065 A 
ENDBRANCH  18  20
ENDBRANCH  17  18
ENDBRANCH  16  17
ENDBRANCH  14  16
ENDBRANCH   6  12
ENDBRANCH   3   6
ENDBRANCH   1   2
BRANCH   1  29
ATOM     29  C   UNL A   1      44.020  37.850  27.501  1.00  0.00     0.023 C 
BRANCH  29  30
ATOM     30  C   UNL A   1      43.849  37.587  28.989  1.00  0.00     0.023 C 
BRANCH  30  31
ATOM     31  C   UNL A   1      45.008  36.845  29.640  1.00  0.00     0.116 C 
BRANCH  31  32
ATOM     32  N   UNL A   1      46.298  37.524  29.549  1.00  0.00    -0.352 N 
ATOM     33  C   UNL A   1      47.496  36.954  29.165  1.00  0.00     0.251 C 
ATOM     34  H   UNL A   1      46.316  38.479  29.783  1.00  0.00     0.163 HD
ATOM     35  O   UNL A   1      48.536  37.586  29.143  1.00  0.00    -0.269 OA
BRANCH  33  36
ATOM     36  C   UNL A   1      47.457  35.518  28.830  1.00  0.00     0.039 A 
ATOM     37  C   UNL A   1      47.688  34.589  29.844  1.00  0.00     0.014 A 
ATOM     38  C   UNL A   1      46.950  35.132  27.587  1.00  0.00     0.014 A 
ATOM     39  C   UNL A   1      47.326  33.259  29.634  1.00  0.00     0.010 A 
ATOM     40  C   UNL A   1      46.505  33.830  27.420  1.00  0.00     0.010 A 
ATOM     41  C   UNL A   1      46.685  32.881  28.442  1.00  0.00    -0.014 A 
BRANCH  41  42
ATOM     42  C   UNL A   1      46.200  31.495  28.233  1.00  0.00     0.031 A 
ATOM     43  C   UNL A   1      44.804  31.134  28.658  1.00  0.00     0.074 A 
ATOM     44  C   UNL A   1      47.031  30.554  27.745  1.00  0.00     0.049 A 
ATOM     45  N   UNL A   1      44.212  29.968  28.644  1.00  0.00    -0.248 NA
ATOM     46  C   UNL A   1      43.981  32.221  29.215  1.00  0.00     0.031 C 
ATOM     47  C   UNL A   1      48.432  30.767  27.373  1.00  0.00     0.029 A 
ATOM     48  N   UNL A   1      46.821  29.222  27.490  1.00  0.00    -0.354 N 
ATOM     49  C   UNL A   1      42.959  30.180  29.204  1.00  0.00     0.074 A 
ATOM     50  C   UNL A   1      42.906  31.565  29.617  1.00  0.00     0.031 C 
ATOM     51  C   UNL A   1      48.948  29.613  26.919  1.00  0.00     0.029 A 
ATOM     52  C   UNL A   1      47.926  28.572  26.992  1.00  0.00     0.049 A 
ATOM     53  H   UNL A   1      45.959  28.773  27.647  1.00  0.00     0.167 HD
ATOM     54  C   UNL A   1      41.929  29.311  29.328  1.00  0.00     0.037 A 
ATOM     55  C   UNL A   1      48.095  27.284  26.637  1.00  0.00     0.037 A 
ATOM     56  C   UNL A   1      41.980  27.945  28.883  1.00  0.00     0.049 A 
ATOM     57  C   UNL A   1      46.927  26.341  26.743  1.00  0.00     0.074 A 
ATOM     58  C   UNL A   1      40.977  26.993  28.907  1.00  0.00     0.029 A 
ATOM     59  N   UNL A   1      43.098  27.338  28.328  1.00  0.00    -0.354 N 
ATOM     60  N   UNL A   1      45.722  26.575  27.207  1.00  0.00    -0.248 NA
ATOM     61  C   UNL A   1      47.133  24.967  26.266  1.00  0.00     0.031 C 
ATOM     62  C   UNL A   1      41.499  25.800  28.392  1.00  0.00     0.029 A 
ATOM     63  C   UNL A   1      42.814  26.021  28.011  1.00  0.00     0.049 A 
ATOM     64  H   UNL A   1      43.965  27.781  28.181  1.00  0.00     0.167 HD
ATOM     65  C   UNL A   1      45.020  25.383  27.062  1.00  0.00     0.074 A 
ATOM     66  C   UNL A   1      45.932  24.436  26.452  1.00  0.00     0.031 C 
ATOM     67  C   UNL A   1      43.738  25.098  27.401  1.00  0.00     0.037 A 
BRANCH  54  68
ATOM     68  C   UNL A   1      40.666  29.833  29.957  1.00  0.00     0.058 A 
ATOM     69  C   UNL A   1      39.536  30.143  29.182  1.00  0.00     0.135 A 
ATOM     70  C   UNL A   1      40.592  30.054  31.340  1.00  0.00     0.135 A 
ATOM     71  F   UNL A   1      39.560  29.969  27.851  1.00  0.00    -0.206 F 
ATOM     72  C   UNL A   1      38.396  30.703  29.748  1.00  0.00     0.059 A 
ATOM     73  C   UNL A   1      39.449  30.584  31.934  1.00  0.00     0.059 A 
ATOM     74  F   UNL A   1      41.643  29.777  32.128  1.00  0.00    -0.206 F 
ATOM     75  C   UNL A   1      38.366  30.928  31.125  1.00  0.00     0.060 A 
BRANCH  75  76
ATOM     76  S   UNL A   1      36.894  31.686  31.842  1.00  0.00     0.124 S 
ATOM     77  O   UNL A   1      37.442  32.924  32.387  1.00  0.00    -0.237 OA
ATOM     78  O   UNL A   1      36.022  31.839  30.681  1.00  0.00    -0.237 OA
ATOM     79  O   UNL A   1      36.453  30.705  32.829  1.00  0.00    -0.744 OA
ENDBRANCH  75  76
ENDBRANCH  54  68
BRANCH  55  80
ATOM     80  C   UNL A   1      49.410  26.827  26.114  1.00  0.00     0.058 A 
ATOM     81  C   UNL A   1      49.759  27.020  24.769  1.00  0.00     0.135 A 
ATOM     82  C   UNL A   1      50.359  26.227  26.956  1.00  0.00     0.135 A 
ATOM     83  F   UNL A   1      48.885  27.585  23.923  1.00  0.00    -0.206 F 
ATOM     84  C   UNL A   1      51.000  26.628  24.275  1.00  0.00     0.059 A 
ATOM     85  C   UNL A   1      51.615  25.846  26.490  1.00  0.00     0.059 A 
ATOM     86  F   UNL A   1      50.079  26.037  28.255  1.00  0.00    -0.206 F 
ATOM     87  C   UNL A   1      51.924  26.047  25.145  1.00  0.00     0.060 A 
BRANCH  87  88
ATOM     88  S   UNL A   1      53.558  25.611  24.511  1.00  0.00     0.124 S 
ATOM     89  O   UNL A   1      54.416  26.528  25.251  1.00  0.00    -0.237 OA
ATOM     90  O   UNL A   1      53.662  24.201  24.876  1.00  0.00    -0.237 OA
ATOM     91  O   UNL A   1      53.441  25.870  23.078  1.00  0.00    -0.744 OA
ENDBRANCH  87  88
ENDBRANCH  55  80
BRANCH  67  92
ATOM     92  C   UNL A   1      43.236  23.713  27.102  1.00  0.00     0.058 A 
ATOM     93  C   UNL A   1      42.856  23.334  25.807  1.00  0.00     0.135 A 
ATOM     94  C   UNL A   1      43.200  22.738  28.112  1.00  0.00     0.135 A 
ATOM     95  F   UNL A   1      42.870  24.230  24.807  1.00  0.00    -0.206 F 
ATOM     96  C   UNL A   1      42.438  22.038  25.525  1.00  0.00     0.059 A 
ATOM     97  C   UNL A   1      42.808  21.431  27.848  1.00  0.00     0.059 A 
ATOM     98  F   UNL A   1      43.565  23.050  29.367  1.00  0.00    -0.206 F 
ATOM     99  C   UNL A   1      42.420  21.092  26.553  1.00  0.00     0.060 A 
BRANCH  99 100
ATOM    100  S   UNL A   1      41.914  19.402  26.166  1.00  0.00     0.124 S 
ATOM    101  O   UNL A   1      40.484  19.570  25.934  1.00  0.00    -0.237 OA
ATOM    102  O   UNL A   1      42.718  19.097  24.987  1.00  0.00    -0.237 OA
ATOM    103  O   UNL A   1      42.272  18.659  27.370  1.00  0.00    -0.744 OA
ENDBRANCH  99 100
ENDBRANCH  67  92
ENDBRANCH  41  42
ENDBRANCH  33  36
ENDBRANCH  31  32
ENDBRANCH  30  31
ENDBRANCH  29  30
ENDBRANCH   1  29
TORSDOF 19
ENDMDL
MODEL 3
REMARK VINA RESULT:     -10.6      8.312     16.778
REMARK SMILES O=C(CCC(=O)N1CCc2sccc2C1)NC1(C(=O)NCCCCNC(=O)c2ccc(-c3c4nc(c(-c5c(F)cc(S(=O)(=O)[O-])cc5F)c5ccc([nH]5)c(-c5c(F)cc(S(=O)(=O)[O-])cc5F)c5nc(c(-c6c(F)cc(S(=O)(=O)[O-])cc6F)c6ccc3[nH]6)C=C5)C=C4)cc2)CCCCC1
REMARK SMILES IDX 21 1 20 2 18 3 19 4 17 6 94 7 98 8 95 9 97 10 96 11 16 12
REMARK SMILES IDX 1 13 2 14 3 16 4 17 5 18 6 19 7 20 8 21 15 22 9 23 14 24
REMARK SMILES IDX 10 25 13 26 11 27 12 28 22 29 23 30 24 31 25 32 26 33 27 35
REMARK SMILES IDX 28 36 29 37 93 38 30 39 92 40 31 41 32 42 33 43 86 44 34 45
REMARK SMILES IDX 91 46 85 47 87 48 35 49 90 50 84 51 83 52 36 54 70 55 49 56
REMARK SMILES IDX 69 57 50 58 53 59 68 60 88 61 51 62 52 63 67 65 89 66 54 67
REMARK SMILES IDX 37 68 38 69 47 70 39 71 40 72 46 73 48 74 41 75 42 76 43 77
REMARK SMILES IDX 44 78 45 79 71 80 72 81 81 82 73 83 74 84 80 85 82 86 75 87
REMARK SMILES IDX 76 88 77 89 78 90 79 91 55 92 56 93 65 94 57 95 58 96 64 97
REMARK SMILES IDX 66 98 59 99 60 100 61 101 62 102 63 103
REMARK H PARENT 20 5 16 15 25 34 87 53 53 64
REMARK Flexibility Score: inf
ROOT
ATOM      1  C   UNL A   1      49.479  23.658  34.483  1.00  0.00     0.116 C 
ENDROOT
BRANCH   1   2
ATOM      2  N   UNL A   1      49.557  22.495  33.647  1.00  0.00    -0.354 N 
ATOM      3  C   UNL A   1      49.986  21.239  33.948  1.00  0.00     0.245 C 
ATOM      4  O   UNL A   1      49.610  20.349  33.169  1.00  0.00    -0.272 OA
ATOM      5  H   UNL A   1      49.256  22.624  32.718  1.00  0.00     0.163 HD
BRANCH   3   6
ATOM      6  C   UNL A   1      50.796  20.879  35.248  1.00  0.00     0.119 C 
ATOM      7  C   UNL A   1      51.646  22.075  35.742  1.00  0.00     0.038 C 
ATOM      8  C   UNL A   1      51.591  19.553  35.215  1.00  0.00     0.038 C 
ATOM      9  C   UNL A   1      53.096  22.144  35.291  1.00  0.00     0.003 C 
ATOM     10  C   UNL A   1      53.100  19.578  34.988  1.00  0.00     0.003 C 
ATOM     11  C   UNL A   1      53.842  20.827  35.435  1.00  0.00     0.000 C 
BRANCH   6  12
ATOM     12  N   UNL A   1      49.696  20.760  36.265  1.00  0.00    -0.342 N 
ATOM     13  O   UNL A   1      50.901  21.033  38.216  1.00  0.00    -0.275 OA
ATOM     14  C   UNL A   1      49.836  20.910  37.628  1.00  0.00     0.221 C 
ATOM     15  H   UNL A   1      48.795  20.556  35.927  1.00  0.00     0.164 HD
BRANCH  14  16
ATOM     16  C   UNL A   1      48.498  21.001  38.329  1.00  0.00     0.110 C 
BRANCH  16  17
ATOM     17  C   UNL A   1      47.738  19.683  38.331  1.00  0.00     0.110 C 
BRANCH  17  18
ATOM     18  C   UNL A   1      47.802  18.699  39.500  1.00  0.00     0.223 C 
ATOM     19  O   UNL A   1      48.931  18.416  39.932  1.00  0.00    -0.275 OA
BRANCH  18  20
ATOM     20  N   UNL A   1      46.693  18.073  40.047  1.00  0.00    -0.338 N 
ATOM     21  C   UNL A   1      46.514  17.701  41.458  1.00  0.00     0.125 C 
ATOM     22  C   UNL A   1      45.707  17.646  39.038  1.00  0.00     0.156 C 
ATOM     23  C   UNL A   1      45.075  17.484  41.957  1.00  0.00     0.068 C 
ATOM     24  C   UNL A   1      44.610  16.795  39.586  1.00  0.00    -0.015 A 
ATOM     25  C   UNL A   1      44.307  16.739  40.926  1.00  0.00     0.011 A 
ATOM     26  C   UNL A   1      43.734  15.957  38.828  1.00  0.00     0.017 A 
ATOM     27  S   UNL A   1      42.968  15.757  41.271  1.00  0.00    -0.149 S 
ATOM     28  C   UNL A   1      42.810  15.313  39.624  1.00  0.00     0.065 A 
ENDBRANCH  18  20
ENDBRANCH  17  18
ENDBRANCH  16  17
ENDBRANCH  14  16
ENDBRANCH   6  12
ENDBRANCH   3   6
ENDBRANCH   1   2
BRANCH   1  29
ATOM     29  C   UNL A   1      48.334  24.600  34.141  1.00  0.00     0.023 C 
BRANCH  29  30
ATOM     30  C   UNL A   1      46.948  24.022  34.380  1.00  0.00     0.023 C 
BRANCH  30  31
ATOM     31  C   UNL A   1      46.236  24.565  35.611  1.00  0.00     0.116 C 
BRANCH  31  32
ATOM     32  N   UNL A   1      47.114  24.892  36.732  1.00  0.00    -0.352 N 
ATOM     33  C   UNL A   1      47.088  26.052  37.481  1.00  0.00     0.251 C 
ATOM     34  H   UNL A   1      47.790  24.220  36.978  1.00  0.00     0.163 HD
ATOM     35  O   UNL A   1      47.878  26.258  38.384  1.00  0.00    -0.269 OA
BRANCH  33  36
ATOM     36  C   UNL A   1      46.079  27.055  37.092  1.00  0.00     0.039 A 
ATOM     37  C   UNL A   1      46.428  28.023  36.149  1.00  0.00     0.014 A 
ATOM     38  C   UNL A   1      44.752  26.859  37.480  1.00  0.00     0.014 A 
ATOM     39  C   UNL A   1      45.416  28.751  35.526  1.00  0.00     0.010 A 
ATOM     40  C   UNL A   1      43.747  27.518  36.788  1.00  0.00     0.010 A 
ATOM     41  C   UNL A   1      44.068  28.467  35.803  1.00  0.00    -0.014 A 
BRANCH  41  42
ATOM     42  C   UNL A   1      42.971  29.156  35.080  1.00  0.00     0.031 A 
ATOM     43  C   UNL A   1      42.597  28.695  33.699  1.00  0.00     0.074 A 
ATOM     44  C   UNL A   1      42.374  30.234  35.626  1.00  0.00     0.049 A 
ATOM     45  N   UNL A   1      41.731  29.206  32.864  1.00  0.00    -0.248 NA
ATOM     46  C   UNL A   1      43.328  27.531  33.172  1.00  0.00     0.031 C 
ATOM     47  C   UNL A   1      42.708  30.823  36.925  1.00  0.00     0.029 A 
ATOM     48  N   UNL A   1      41.370  31.036  35.147  1.00  0.00    -0.354 N 
ATOM     49  C   UNL A   1      41.826  28.438  31.711  1.00  0.00     0.074 A 
ATOM     50  C   UNL A   1      42.887  27.479  31.925  1.00  0.00     0.031 C 
ATOM     51  C   UNL A   1      41.908  31.879  37.148  1.00  0.00     0.029 A 
ATOM     52  C   UNL A   1      41.025  32.060  35.999  1.00  0.00     0.049 A 
ATOM     53  H   UNL A   1      40.935  30.893  34.276  1.00  0.00     0.167 HD
ATOM     54  C   UNL A   1      41.074  28.499  30.587  1.00  0.00     0.037 A 
ATOM     55  C   UNL A   1      40.103  33.033  35.867  1.00  0.00     0.037 A 
ATOM     56  C   UNL A   1      39.999  29.435  30.397  1.00  0.00     0.049 A 
ATOM     57  C   UNL A   1      39.247  33.060  34.629  1.00  0.00     0.074 A 
ATOM     58  C   UNL A   1      39.135  29.547  29.323  1.00  0.00     0.029 A 
ATOM     59  N   UNL A   1      39.640  30.418  31.308  1.00  0.00    -0.354 N 
ATOM     60  N   UNL A   1      39.300  32.280  33.576  1.00  0.00    -0.248 NA
ATOM     61  C   UNL A   1      38.199  34.088  34.566  1.00  0.00     0.031 C 
ATOM     62  C   UNL A   1      38.271  30.620  29.574  1.00  0.00     0.029 A 
ATOM     63  C   UNL A   1      38.571  31.148  30.820  1.00  0.00     0.049 A 
ATOM     64  H   UNL A   1      40.082  30.572  32.174  1.00  0.00     0.167 HD
ATOM     65  C   UNL A   1      38.282  32.709  32.732  1.00  0.00     0.074 A 
ATOM     66  C   UNL A   1      37.620  33.808  33.406  1.00  0.00     0.031 C 
ATOM     67  C   UNL A   1      37.926  32.237  31.511  1.00  0.00     0.037 A 
BRANCH  54  68
ATOM     68  C   UNL A   1      41.391  27.511  29.499  1.00  0.00     0.058 A 
ATOM     69  C   UNL A   1      40.534  26.434  29.214  1.00  0.00     0.135 A 
ATOM     70  C   UNL A   1      42.574  27.621  28.752  1.00  0.00     0.135 A 
ATOM     71  F   UNL A   1      39.398  26.271  29.912  1.00  0.00    -0.206 F 
ATOM     72  C   UNL A   1      40.863  25.473  28.265  1.00  0.00     0.059 A 
ATOM     73  C   UNL A   1      42.908  26.688  27.774  1.00  0.00     0.059 A 
ATOM     74  F   UNL A   1      43.430  28.629  28.983  1.00  0.00    -0.206 F 
ATOM     75  C   UNL A   1      42.057  25.604  27.556  1.00  0.00     0.060 A 
BRANCH  75  76
ATOM     76  S   UNL A   1      42.488  24.331  26.351  1.00  0.00     0.124 S 
ATOM     77  O   UNL A   1      42.582  25.115  25.124  1.00  0.00    -0.237 OA
ATOM     78  O   UNL A   1      43.753  23.820  26.874  1.00  0.00    -0.237 OA
ATOM     79  O   UNL A   1      41.364  23.404  26.420  1.00  0.00    -0.744 OA
ENDBRANCH  75  76
ENDBRANCH  54  68
BRANCH  55  80
ATOM     80  C   UNL A   1      39.921  34.032  36.953  1.00  0.00     0.058 A 
ATOM     81  C   UNL A   1      40.593  35.263  36.922  1.00  0.00     0.135 A 
ATOM     82  C   UNL A   1      39.042  33.795  38.022  1.00  0.00     0.135 A 
ATOM     83  F   UNL A   1      41.447  35.536  35.924  1.00  0.00    -0.206 F 
ATOM     84  C   UNL A   1      40.406  36.222  37.914  1.00  0.00     0.059 A 
ATOM     85  C   UNL A   1      38.822  34.746  39.014  1.00  0.00     0.059 A 
ATOM     86  F   UNL A   1      38.363  32.639  38.088  1.00  0.00    -0.206 F 
ATOM     87  C   UNL A   1      39.513  35.956  38.954  1.00  0.00     0.060 A 
BRANCH  87  88
ATOM     88  S   UNL A   1      39.222  37.235  40.195  1.00  0.00     0.124 S 
ATOM     89  O   UNL A   1      38.424  38.197  39.444  1.00  0.00    -0.237 OA
ATOM     90  O   UNL A   1      38.517  36.495  41.238  1.00  0.00    -0.237 OA
ATOM     91  O   UNL A   1      40.570  37.670  40.550  1.00  0.00    -0.744 OA
ENDBRANCH  87  88
ENDBRANCH  55  80
BRANCH  67  92
ATOM     92  C   UNL A   1      36.756  32.891  30.832  1.00  0.00     0.058 A 
ATOM     93  C   UNL A   1      35.440  32.673  31.265  1.00  0.00     0.135 A 
ATOM     94  C   UNL A   1      36.962  33.797  29.779  1.00  0.00     0.135 A 
ATOM     95  F   UNL A   1      35.190  31.813  32.265  1.00  0.00    -0.206 F 
ATOM     96  C   UNL A   1      34.364  33.317  30.665  1.00  0.00     0.059 A 
ATOM     97  C   UNL A   1      35.903  34.470  29.181  1.00  0.00     0.059 A 
ATOM     98  F   UNL A   1      38.205  34.048  29.337  1.00  0.00    -0.206 F 
ATOM     99  C   UNL A   1      34.606  34.217  29.624  1.00  0.00     0.060 A 
BRANCH  99 100
ATOM    100  S   UNL A   1      33.204  35.078  28.880  1.00  0.00     0.124 S 
ATOM    101  O   UNL A   1      33.860  36.225  28.261  1.00  0.00    -0.237 OA
ATOM    102  O   UNL A   1      32.674  34.078  27.960  1.00  0.00    -0.237 OA
ATOM    103  O   UNL A   1      32.350  35.384  30.023  1.00  0.00    -0.744 OA
ENDBRANCH  99 100
ENDBRANCH  67  92
ENDBRANCH  41  42
ENDBRANCH  33  36
ENDBRANCH  31  32
ENDBRANCH  30  31
ENDBRANCH  29  30
ENDBRANCH   1  29
TORSDOF 19
ENDMDL
