MODEL 1
REMARK VINA RESULT:     -11.2      0.000      0.000
REMARK SMILES CCOC[C@@H](O)C[C@@]1(C(=O)NCCCCNC(=O)c2ccc(-c3c4nc(c(-c5c(F)cc(S(=O)(=O)[O-])cc5F)c5ccc([nH]5)c(-c5c(F)cc(S(=O)(=O)[O-])cc5F)c5nc(c(-c6c(F)cc(S(=O)(=O)[O-])cc6F)c6ccc3[nH]6)C=C5)C=C4)cc2)CC[C@H](C)C1
REMARK SMILES IDX 12 1 11 2 9 3 10 4 8 6 85 7 89 8 86 9 87 10 88 11 7 12 5 13
REMARK SMILES IDX 4 14 3 15 2 16 1 17 6 18 13 20 14 21 15 22 16 23 17 24 18 26
REMARK SMILES IDX 19 27 20 28 84 29 21 30 83 31 22 32 23 33 24 34 77 35 25 36
REMARK SMILES IDX 82 37 76 38 78 39 26 40 81 41 75 42 74 43 27 45 61 46 40 47
REMARK SMILES IDX 60 48 41 49 44 50 59 51 79 52 42 53 43 54 58 56 80 57 45 58
REMARK SMILES IDX 28 59 29 60 38 61 30 62 31 63 37 64 39 65 32 66 33 67 34 68
REMARK SMILES IDX 35 69 36 70 62 71 63 72 72 73 64 74 65 75 71 76 73 77 66 78
REMARK SMILES IDX 67 79 68 80 69 81 70 82 46 83 47 84 56 85 48 86 49 87 55 88
REMARK SMILES IDX 57 89 50 90 51 91 52 92 53 93 54 94
REMARK H PARENT 11 5 6 19 16 25 78 44 44 55
REMARK Flexibility Score: inf
ROOT
ATOM      1  C   UNL A   1      36.857  21.506  25.762  1.00  0.00     0.116 C 
ENDROOT
BRANCH   1   2
ATOM      2  N   UNL A   1      35.500  21.662  26.336  1.00  0.00    -0.356 N 
ATOM      3  C   UNL A   1      34.155  21.521  26.070  1.00  0.00     0.226 C 
ATOM      4  O   UNL A   1      33.289  21.764  26.908  1.00  0.00    -0.274 OA
ATOM      5  H   UNL A   1      35.595  21.992  27.259  1.00  0.00     0.163 HD
BRANCH   3   6
ATOM      6  C   UNL A   1      33.797  21.124  24.706  1.00  0.00     0.052 C 
ATOM      7  C   UNL A   1      32.297  21.018  24.347  1.00  0.00     0.017 C 
ATOM      8  C   UNL A   1      34.219  19.630  24.759  1.00  0.00     0.020 C 
ATOM      9  C   UNL A   1      32.196  19.780  23.447  1.00  0.00     0.004 C 
ATOM     10  C   UNL A   1      33.199  18.782  24.008  1.00  0.00    -0.013 C 
ATOM     11  C   UNL A   1      32.545  17.735  24.919  1.00  0.00     0.007 C 
BRANCH   6  12
ATOM     12  C   UNL A   1      34.515  22.207  23.869  1.00  0.00     0.051 C 
BRANCH  12  13
ATOM     13  C   UNL A   1      33.815  23.633  23.447  1.00  0.00     0.141 C 
BRANCH  13  14
ATOM     14  C   UNL A   1      33.777  25.211  24.141  1.00  0.00     0.191 C 
BRANCH  14  15
ATOM     15  O   UNL A   1      33.716  26.534  23.479  1.00  0.00    -0.379 OA
BRANCH  15  16
ATOM     16  C   UNL A   1      32.941  26.854  22.296  1.00  0.00     0.157 C 
ATOM     17  C   UNL A   1      31.415  26.498  22.402  1.00  0.00     0.035 C 
ENDBRANCH  15  16
ENDBRANCH  14  15
ENDBRANCH  13  14
BRANCH  13  18
ATOM     18  O   UNL A   1      33.941  23.724  22.006  1.00  0.00    -0.391 OA
ATOM     19  H   UNL A   1      34.336  24.577  21.769  1.00  0.00     0.211 HD
ENDBRANCH  13  18
ENDBRANCH  12  13
ENDBRANCH   6  12
ENDBRANCH   3   6
ENDBRANCH   1   2
BRANCH   1  20
ATOM     20  C   UNL A   1      38.219  22.370  26.033  1.00  0.00     0.023 C 
BRANCH  20  21
ATOM     21  C   UNL A   1      39.723  22.105  26.489  1.00  0.00     0.023 C 
BRANCH  21  22
ATOM     22  C   UNL A   1      40.670  23.212  27.052  1.00  0.00     0.116 C 
BRANCH  22  23
ATOM     23  N   UNL A   1      41.268  24.042  26.033  1.00  0.00    -0.352 N 
ATOM     24  C   UNL A   1      41.556  25.389  26.042  1.00  0.00     0.251 C 
ATOM     25  H   UNL A   1      41.508  23.571  25.203  1.00  0.00     0.163 HD
ATOM     26  O   UNL A   1      41.878  25.928  25.000  1.00  0.00    -0.269 OA
BRANCH  24  27
ATOM     27  C   UNL A   1      41.432  26.204  27.277  1.00  0.00     0.039 A 
ATOM     28  C   UNL A   1      40.323  25.970  28.097  1.00  0.00     0.014 A 
ATOM     29  C   UNL A   1      42.294  27.265  27.567  1.00  0.00     0.014 A 
ATOM     30  C   UNL A   1      40.087  26.778  29.213  1.00  0.00     0.010 A 
ATOM     31  C   UNL A   1      42.079  28.050  28.711  1.00  0.00     0.010 A 
ATOM     32  C   UNL A   1      40.966  27.824  29.539  1.00  0.00    -0.014 A 
BRANCH  32  33
ATOM     33  C   UNL A   1      40.684  28.676  30.730  1.00  0.00     0.031 A 
ATOM     34  C   UNL A   1      41.522  28.558  31.977  1.00  0.00     0.074 A 
ATOM     35  C   UNL A   1      39.693  29.591  30.671  1.00  0.00     0.049 A 
ATOM     36  N   UNL A   1      41.492  29.285  33.066  1.00  0.00    -0.248 NA
ATOM     37  C   UNL A   1      42.514  27.474  32.011  1.00  0.00     0.031 C 
ATOM     38  C   UNL A   1      38.793  29.779  29.531  1.00  0.00     0.029 A 
ATOM     39  N   UNL A   1      39.286  30.543  31.573  1.00  0.00    -0.354 N 
ATOM     40  C   UNL A   1      42.454  28.745  33.915  1.00  0.00     0.074 A 
ATOM     41  C   UNL A   1      43.014  27.597  33.234  1.00  0.00     0.031 C 
ATOM     42  C   UNL A   1      37.973  30.812  29.783  1.00  0.00     0.029 A 
ATOM     43  C   UNL A   1      38.265  31.342  31.112  1.00  0.00     0.049 A 
ATOM     44  H   UNL A   1      39.688  30.645  32.466  1.00  0.00     0.167 HD
ATOM     45  C   UNL A   1      42.848  29.177  35.139  1.00  0.00     0.037 A 
ATOM     46  C   UNL A   1      37.643  32.391  31.687  1.00  0.00     0.037 A 
ATOM     47  C   UNL A   1      42.291  30.330  35.801  1.00  0.00     0.049 A 
ATOM     48  C   UNL A   1      38.097  32.849  33.047  1.00  0.00     0.074 A 
ATOM     49  C   UNL A   1      42.653  30.883  37.017  1.00  0.00     0.029 A 
ATOM     50  N   UNL A   1      41.247  31.099  35.309  1.00  0.00    -0.354 N 
ATOM     51  N   UNL A   1      39.058  32.371  33.801  1.00  0.00    -0.248 NA
ATOM     52  C   UNL A   1      37.389  33.997  33.631  1.00  0.00     0.031 C 
ATOM     53  C   UNL A   1      41.791  31.951  37.287  1.00  0.00     0.029 A 
ATOM     54  C   UNL A   1      40.933  32.105  36.209  1.00  0.00     0.049 A 
ATOM     55  H   UNL A   1      40.795  30.952  34.447  1.00  0.00     0.167 HD
ATOM     56  C   UNL A   1      39.095  33.181  34.932  1.00  0.00     0.074 A 
ATOM     57  C   UNL A   1      38.066  34.187  34.755  1.00  0.00     0.031 C 
ATOM     58  C   UNL A   1      39.908  33.103  36.015  1.00  0.00     0.037 A 
BRANCH  45  59
ATOM     59  C   UNL A   1      43.922  28.391  35.848  1.00  0.00     0.058 A 
ATOM     60  C   UNL A   1      45.288  28.666  35.667  1.00  0.00     0.135 A 
ATOM     61  C   UNL A   1      43.580  27.363  36.743  1.00  0.00     0.135 A 
ATOM     62  F   UNL A   1      45.678  29.629  34.817  1.00  0.00    -0.206 F 
ATOM     63  C   UNL A   1      46.274  27.927  36.315  1.00  0.00     0.059 A 
ATOM     64  C   UNL A   1      44.548  26.632  37.427  1.00  0.00     0.059 A 
ATOM     65  F   UNL A   1      42.291  27.057  36.960  1.00  0.00    -0.206 F 
ATOM     66  C   UNL A   1      45.894  26.910  37.192  1.00  0.00     0.060 A 
BRANCH  66  67
ATOM     67  S   UNL A   1      47.184  25.956  38.020  1.00  0.00     0.124 S 
ATOM     68  O   UNL A   1      46.902  26.240  39.423  1.00  0.00    -0.237 OA
ATOM     69  O   UNL A   1      46.897  24.595  37.579  1.00  0.00    -0.237 OA
ATOM     70  O   UNL A   1      48.421  26.532  37.500  1.00  0.00    -0.744 OA
ENDBRANCH  66  67
ENDBRANCH  45  59
BRANCH  46  71
ATOM     71  C   UNL A   1      36.552  33.104  30.964  1.00  0.00     0.058 A 
ATOM     72  C   UNL A   1      36.830  33.948  29.878  1.00  0.00     0.135 A 
ATOM     73  C   UNL A   1      35.207  32.951  31.340  1.00  0.00     0.135 A 
ATOM     74  F   UNL A   1      38.099  34.134  29.481  1.00  0.00    -0.206 F 
ATOM     75  C   UNL A   1      35.822  34.630  29.203  1.00  0.00     0.059 A 
ATOM     76  C   UNL A   1      34.178  33.599  30.662  1.00  0.00     0.059 A 
ATOM     77  F   UNL A   1      34.882  32.145  32.361  1.00  0.00    -0.206 F 
ATOM     78  C   UNL A   1      34.497  34.446  29.602  1.00  0.00     0.060 A 
BRANCH  78  79
ATOM     79  S   UNL A   1      33.191  35.300  28.691  1.00  0.00     0.124 S 
ATOM     80  O   UNL A   1      33.962  36.237  27.882  1.00  0.00    -0.237 OA
ATOM     81  O   UNL A   1      32.556  34.204  27.968  1.00  0.00    -0.237 OA
ATOM     82  O   UNL A   1      32.380  35.897  29.747  1.00  0.00    -0.744 OA
ENDBRANCH  78  79
ENDBRANCH  46  71
BRANCH  58  83
ATOM     83  C   UNL A   1      39.750  34.161  37.075  1.00  0.00     0.058 A 
ATOM     84  C   UNL A   1      39.054  33.921  38.269  1.00  0.00     0.135 A 
ATOM     85  C   UNL A   1      40.338  35.426  36.902  1.00  0.00     0.135 A 
ATOM     86  F   UNL A   1      38.471  32.731  38.485  1.00  0.00    -0.206 F 
ATOM     87  C   UNL A   1      38.914  34.909  39.239  1.00  0.00     0.059 A 
ATOM     88  C   UNL A   1      40.239  36.417  37.873  1.00  0.00     0.059 A 
ATOM     89  F   UNL A   1      41.026  35.706  35.784  1.00  0.00    -0.206 F 
ATOM     90  C   UNL A   1      39.510  36.155  39.031  1.00  0.00     0.060 A 
BRANCH  90  91
ATOM     91  S   UNL A   1      39.332  37.423  40.303  1.00  0.00     0.124 S 
ATOM     92  O   UNL A   1      38.644  36.686  41.358  1.00  0.00    -0.237 OA
ATOM     93  O   UNL A   1      40.719  37.782  40.583  1.00  0.00    -0.237 OA
ATOM     94  O   UNL A   1      38.544  38.459  39.644  1.00  0.00    -0.744 OA
ENDBRANCH  90  91
ENDBRANCH  58  83
ENDBRANCH  32  33
ENDBRANCH  24  27
ENDBRANCH  22  23
ENDBRANCH  21  22
ENDBRANCH  20  21
ENDBRANCH   1  20
TORSDOF 20
ENDMDL
MODEL 2
REMARK VINA RESULT:     -11.2      1.360      2.334
REMARK SMILES CCOC[C@@H](O)C[C@@]1(C(=O)NCCCCNC(=O)c2ccc(-c3c4nc(c(-c5c(F)cc(S(=O)(=O)[O-])cc5F)c5ccc([nH]5)c(-c5c(F)cc(S(=O)(=O)[O-])cc5F)c5nc(c(-c6c(F)cc(S(=O)(=O)[O-])cc6F)c6ccc3[nH]6)C=C5)C=C4)cc2)CC[C@H](C)C1
REMARK SMILES IDX 12 1 11 2 9 3 10 4 8 6 85 7 89 8 86 9 87 10 88 11 7 12 5 13
REMARK SMILES IDX 4 14 3 15 2 16 1 17 6 18 13 20 14 21 15 22 16 23 17 24 18 26
REMARK SMILES IDX 19 27 20 28 84 29 21 30 83 31 22 32 23 33 24 34 77 35 25 36
REMARK SMILES IDX 82 37 76 38 78 39 26 40 81 41 75 42 74 43 27 45 61 46 40 47
REMARK SMILES IDX 60 48 41 49 44 50 59 51 79 52 42 53 43 54 58 56 80 57 45 58
REMARK SMILES IDX 28 59 29 60 38 61 30 62 31 63 37 64 39 65 32 66 33 67 34 68
REMARK SMILES IDX 35 69 36 70 62 71 63 72 72 73 64 74 65 75 71 76 73 77 66 78
REMARK SMILES IDX 67 79 68 80 69 81 70 82 46 83 47 84 56 85 48 86 49 87 55 88
REMARK SMILES IDX 57 89 50 90 51 91 52 92 53 93 54 94
REMARK H PARENT 11 5 6 19 16 25 78 44 44 55
REMARK Flexibility Score: inf
ROOT
ATOM      1  C   UNL A   1      34.834  24.600  24.720  1.00  0.00     0.116 C 
ENDROOT
BRANCH   1   2
ATOM      2  N   UNL A   1      33.589  24.187  24.028  1.00  0.00    -0.356 N 
ATOM      3  C   UNL A   1      32.495  23.353  24.108  1.00  0.00     0.226 C 
ATOM      4  O   UNL A   1      31.613  23.341  23.252  1.00  0.00    -0.274 OA
ATOM      5  H   UNL A   1      33.517  24.706  23.194  1.00  0.00     0.163 HD
BRANCH   3   6
ATOM      6  C   UNL A   1      32.462  22.425  25.240  1.00  0.00     0.052 C 
ATOM      7  C   UNL A   1      33.425  22.681  26.423  1.00  0.00     0.017 C 
ATOM      8  C   UNL A   1      33.107  21.182  24.567  1.00  0.00     0.020 C 
ATOM      9  C   UNL A   1      33.908  21.288  26.844  1.00  0.00     0.004 C 
ATOM     10  C   UNL A   1      34.043  20.493  25.553  1.00  0.00    -0.013 C 
ATOM     11  C   UNL A   1      35.486  20.447  25.035  1.00  0.00     0.007 C 
BRANCH   6  12
ATOM     12  C   UNL A   1      30.980  22.515  25.673  1.00  0.00     0.051 C 
BRANCH  12  13
ATOM     13  C   UNL A   1      30.380  23.746  26.582  1.00  0.00     0.141 C 
BRANCH  13  14
ATOM     14  C   UNL A   1      29.905  25.371  26.251  1.00  0.00     0.191 C 
BRANCH  14  15
ATOM     15  O   UNL A   1      30.561  26.643  26.630  1.00  0.00    -0.379 OA
BRANCH  15  16
ATOM     16  C   UNL A   1      31.564  27.344  25.851  1.00  0.00     0.157 C 
ATOM     17  C   UNL A   1      33.033  27.174  26.378  1.00  0.00     0.035 C 
ENDBRANCH  15  16
ENDBRANCH  14  15
ENDBRANCH  13  14
BRANCH  13  18
ATOM     18  O   UNL A   1      29.452  23.134  27.511  1.00  0.00    -0.391 OA
ATOM     19  H   UNL A   1      29.900  22.970  28.355  1.00  0.00     0.211 HD
ENDBRANCH  13  18
ENDBRANCH  12  13
ENDBRANCH   6  12
ENDBRANCH   3   6
ENDBRANCH   1   2
BRANCH   1  20
ATOM     20  C   UNL A   1      36.314  23.905  24.723  1.00  0.00     0.023 C 
BRANCH  20  21
ATOM     21  C   UNL A   1      37.405  23.438  25.788  1.00  0.00     0.023 C 
BRANCH  21  22
ATOM     22  C   UNL A   1      38.375  24.415  26.526  1.00  0.00     0.116 C 
BRANCH  22  23
ATOM     23  N   UNL A   1      39.742  24.333  26.072  1.00  0.00    -0.352 N 
ATOM     24  C   UNL A   1      40.856  25.037  26.477  1.00  0.00     0.251 C 
ATOM     25  H   UNL A   1      39.904  23.672  25.361  1.00  0.00     0.163 HD
ATOM     26  O   UNL A   1      41.876  24.951  25.821  1.00  0.00    -0.269 OA
BRANCH  24  27
ATOM     27  C   UNL A   1      40.822  25.933  27.661  1.00  0.00     0.039 A 
ATOM     28  C   UNL A   1      39.810  25.722  28.603  1.00  0.00     0.014 A 
ATOM     29  C   UNL A   1      41.667  27.038  27.791  1.00  0.00     0.014 A 
ATOM     30  C   UNL A   1      39.654  26.599  29.680  1.00  0.00     0.010 A 
ATOM     31  C   UNL A   1      41.536  27.896  28.895  1.00  0.00     0.010 A 
ATOM     32  C   UNL A   1      40.520  27.693  29.844  1.00  0.00    -0.014 A 
BRANCH  32  33
ATOM     33  C   UNL A   1      40.324  28.618  30.998  1.00  0.00     0.031 A 
ATOM     34  C   UNL A   1      41.197  28.518  32.221  1.00  0.00     0.074 A 
ATOM     35  C   UNL A   1      39.380  29.580  30.923  1.00  0.00     0.049 A 
ATOM     36  N   UNL A   1      41.243  29.300  33.272  1.00  0.00    -0.248 NA
ATOM     37  C   UNL A   1      42.133  27.386  32.281  1.00  0.00     0.031 C 
ATOM     38  C   UNL A   1      38.451  29.758  29.804  1.00  0.00     0.029 A 
ATOM     39  N   UNL A   1      39.054  30.597  31.786  1.00  0.00    -0.354 N 
ATOM     40  C   UNL A   1      42.204  28.752  34.116  1.00  0.00     0.074 A 
ATOM     41  C   UNL A   1      42.680  27.544  33.478  1.00  0.00     0.031 C 
ATOM     42  C   UNL A   1      37.696  30.846  30.027  1.00  0.00     0.029 A 
ATOM     43  C   UNL A   1      38.060  31.425  31.317  1.00  0.00     0.049 A 
ATOM     44  H   UNL A   1      39.492  30.723  32.660  1.00  0.00     0.167 HD
ATOM     45  C   UNL A   1      42.663  29.224  35.303  1.00  0.00     0.037 A 
ATOM     46  C   UNL A   1      37.514  32.533  31.856  1.00  0.00     0.037 A 
ATOM     47  C   UNL A   1      42.190  30.437  35.922  1.00  0.00     0.049 A 
ATOM     48  C   UNL A   1      38.038  33.035  33.176  1.00  0.00     0.074 A 
ATOM     49  C   UNL A   1      42.622  31.031  37.095  1.00  0.00     0.029 A 
ATOM     50  N   UNL A   1      41.170  31.235  35.424  1.00  0.00    -0.354 N 
ATOM     51  N   UNL A   1      38.998  32.544  33.923  1.00  0.00    -0.248 NA
ATOM     52  C   UNL A   1      37.411  34.247  33.721  1.00  0.00     0.031 C 
ATOM     53  C   UNL A   1      41.825  32.155  37.336  1.00  0.00     0.029 A 
ATOM     54  C   UNL A   1      40.940  32.301  36.279  1.00  0.00     0.049 A 
ATOM     55  H   UNL A   1      40.681  31.069  34.586  1.00  0.00     0.167 HD
ATOM     56  C   UNL A   1      39.117  33.407  35.008  1.00  0.00     0.074 A 
ATOM     57  C   UNL A   1      38.136  34.456  34.811  1.00  0.00     0.031 C 
ATOM     58  C   UNL A   1      39.962  33.341  36.067  1.00  0.00     0.037 A 
BRANCH  45  59
ATOM     59  C   UNL A   1      43.718  28.418  36.017  1.00  0.00     0.058 A 
ATOM     60  C   UNL A   1      45.085  28.732  35.923  1.00  0.00     0.135 A 
ATOM     61  C   UNL A   1      43.357  27.331  36.830  1.00  0.00     0.135 A 
ATOM     62  F   UNL A   1      45.493  29.754  35.154  1.00  0.00    -0.206 F 
ATOM     63  C   UNL A   1      46.055  27.976  36.575  1.00  0.00     0.059 A 
ATOM     64  C   UNL A   1      44.307  26.580  37.517  1.00  0.00     0.059 A 
ATOM     65  F   UNL A   1      42.066  26.985  36.962  1.00  0.00    -0.206 F 
ATOM     66  C   UNL A   1      45.656  26.899  37.369  1.00  0.00     0.060 A 
BRANCH  66  67
ATOM     67  S   UNL A   1      46.926  25.923  38.202  1.00  0.00     0.124 S 
ATOM     68  O   UNL A   1      46.958  24.720  37.376  1.00  0.00    -0.237 OA
ATOM     69  O   UNL A   1      48.097  26.789  38.106  1.00  0.00    -0.237 OA
ATOM     70  O   UNL A   1      46.391  25.745  39.548  1.00  0.00    -0.744 OA
ENDBRANCH  66  67
ENDBRANCH  45  59
BRANCH  46  71
ATOM     71  C   UNL A   1      36.437  33.267  31.132  1.00  0.00     0.058 A 
ATOM     72  C   UNL A   1      35.112  33.256  31.595  1.00  0.00     0.135 A 
ATOM     73  C   UNL A   1      36.711  33.999  29.966  1.00  0.00     0.135 A 
ATOM     74  F   UNL A   1      34.794  32.567  32.703  1.00  0.00    -0.206 F 
ATOM     75  C   UNL A   1      34.096  33.925  30.921  1.00  0.00     0.059 A 
ATOM     76  C   UNL A   1      35.717  34.701  29.290  1.00  0.00     0.059 A 
ATOM     77  F   UNL A   1      37.962  34.056  29.486  1.00  0.00    -0.206 F 
ATOM     78  C   UNL A   1      34.409  34.648  29.770  1.00  0.00     0.060 A 
BRANCH  78  79
ATOM     79  S   UNL A   1      33.090  35.552  28.927  1.00  0.00     0.124 S 
ATOM     80  O   UNL A   1      33.841  36.598  28.244  1.00  0.00    -0.237 OA
ATOM     81  O   UNL A   1      32.511  34.520  28.074  1.00  0.00    -0.237 OA
ATOM     82  O   UNL A   1      32.237  36.001  30.023  1.00  0.00    -0.744 OA
ENDBRANCH  78  79
ENDBRANCH  46  71
BRANCH  58  83
ATOM     83  C   UNL A   1      39.896  34.458  37.074  1.00  0.00     0.058 A 
ATOM     84  C   UNL A   1      40.615  35.652  36.911  1.00  0.00     0.135 A 
ATOM     85  C   UNL A   1      39.070  34.341  38.205  1.00  0.00     0.135 A 
ATOM     86  F   UNL A   1      41.422  35.816  35.850  1.00  0.00    -0.206 F 
ATOM     87  C   UNL A   1      40.547  36.675  37.851  1.00  0.00     0.059 A 
ATOM     88  C   UNL A   1      38.961  35.365  39.140  1.00  0.00     0.059 A 
ATOM     89  F   UNL A   1      38.350  33.226  38.405  1.00  0.00    -0.206 F 
ATOM     90  C   UNL A   1      39.717  36.522  38.964  1.00  0.00     0.060 A 
BRANCH  90  91
ATOM     91  S   UNL A   1      39.627  37.862  40.169  1.00  0.00     0.124 S 
ATOM     92  O   UNL A   1      38.518  38.654  39.644  1.00  0.00    -0.237 OA
ATOM     93  O   UNL A   1      39.361  37.147  41.413  1.00  0.00    -0.237 OA
ATOM     94  O   UNL A   1      40.942  38.488  40.082  1.00  0.00    -0.744 OA
ENDBRANCH  90  91
ENDBRANCH  58  83
ENDBRANCH  32  33
ENDBRANCH  24  27
ENDBRANCH  22  23
ENDBRANCH  21  22
ENDBRANCH  20  21
ENDBRANCH   1  20
TORSDOF 20
ENDMDL
MODEL 3
REMARK VINA RESULT:     -11.2      1.269      2.347
REMARK SMILES CCOC[C@@H](O)C[C@@]1(C(=O)NCCCCNC(=O)c2ccc(-c3c4nc(c(-c5c(F)cc(S(=O)(=O)[O-])cc5F)c5ccc([nH]5)c(-c5c(F)cc(S(=O)(=O)[O-])cc5F)c5nc(c(-c6c(F)cc(S(=O)(=O)[O-])cc6F)c6ccc3[nH]6)C=C5)C=C4)cc2)CC[C@H](C)C1
REMARK SMILES IDX 12 1 11 2 9 3 10 4 8 6 85 7 89 8 86 9 87 10 88 11 7 12 5 13
REMARK SMILES IDX 4 14 3 15 2 16 1 17 6 18 13 20 14 21 15 22 16 23 17 24 18 26
REMARK SMILES IDX 19 27 20 28 84 29 21 30 83 31 22 32 23 33 24 34 77 35 25 36
REMARK SMILES IDX 82 37 76 38 78 39 26 40 81 41 75 42 74 43 27 45 61 46 40 47
REMARK SMILES IDX 60 48 41 49 44 50 59 51 79 52 42 53 43 54 58 56 80 57 45 58
REMARK SMILES IDX 28 59 29 60 38 61 30 62 31 63 37 64 39 65 32 66 33 67 34 68
REMARK SMILES IDX 35 69 36 70 62 71 63 72 72 73 64 74 65 75 71 76 73 77 66 78
REMARK SMILES IDX 67 79 68 80 69 81 70 82 46 83 47 84 56 85 48 86 49 87 55 88
REMARK SMILES IDX 57 89 50 90 51 91 52 92 53 93 54 94
REMARK H PARENT 11 5 6 19 16 25 78 44 44 55
REMARK Flexibility Score: inf
ROOT
ATOM      1  C   UNL A   1      36.300  23.289  23.888  1.00  0.00     0.116 C 
ENDROOT
BRANCH   1   2
ATOM      2  N   UNL A   1      35.028  22.600  23.563  1.00  0.00    -0.356 N 
ATOM      3  C   UNL A   1      33.662  22.763  23.482  1.00  0.00     0.226 C 
ATOM      4  O   UNL A   1      32.911  21.860  23.120  1.00  0.00    -0.274 OA
ATOM      5  H   UNL A   1      35.240  21.673  23.309  1.00  0.00     0.163 HD
BRANCH   3   6
ATOM      6  C   UNL A   1      33.132  24.059  23.912  1.00  0.00     0.052 C 
ATOM      7  C   UNL A   1      33.580  24.611  25.286  1.00  0.00     0.017 C 
ATOM      8  C   UNL A   1      31.661  23.649  24.197  1.00  0.00     0.020 C 
ATOM      9  C   UNL A   1      32.320  25.252  25.880  1.00  0.00     0.004 C 
ATOM     10  C   UNL A   1      31.164  24.360  25.450  1.00  0.00    -0.013 C 
ATOM     11  C   UNL A   1      30.744  23.369  26.542  1.00  0.00     0.007 C 
BRANCH   6  12
ATOM     12  C   UNL A   1      33.575  24.978  22.750  1.00  0.00     0.051 C 
BRANCH  12  13
ATOM     13  C   UNL A   1      32.594  26.105  22.068  1.00  0.00     0.141 C 
BRANCH  13  14
ATOM     14  C   UNL A   1      31.632  27.399  22.682  1.00  0.00     0.191 C 
BRANCH  14  15
ATOM     15  O   UNL A   1      30.536  28.153  22.033  1.00  0.00    -0.379 OA
BRANCH  15  16
ATOM     16  C   UNL A   1      29.793  29.248  22.629  1.00  0.00     0.157 C 
ATOM     17  C   UNL A   1      28.953  30.095  21.609  1.00  0.00     0.035 C 
ENDBRANCH  15  16
ENDBRANCH  14  15
ENDBRANCH  13  14
BRANCH  13  18
ATOM     18  O   UNL A   1      33.248  26.509  20.840  1.00  0.00    -0.391 OA
ATOM     19  H   UNL A   1      33.182  27.471  20.739  1.00  0.00     0.211 HD
ENDBRANCH  13  18
ENDBRANCH  12  13
ENDBRANCH   6  12
ENDBRANCH   3   6
ENDBRANCH   1   2
BRANCH   1  20
ATOM     20  C   UNL A   1      37.362  23.016  25.100  1.00  0.00     0.023 C 
BRANCH  20  21
ATOM     21  C   UNL A   1      37.977  23.805  26.342  1.00  0.00     0.023 C 
BRANCH  21  22
ATOM     22  C   UNL A   1      39.432  23.600  26.870  1.00  0.00     0.116 C 
BRANCH  22  23
ATOM     23  N   UNL A   1      40.449  24.157  26.011  1.00  0.00    -0.352 N 
ATOM     24  C   UNL A   1      41.155  25.335  26.119  1.00  0.00     0.251 C 
ATOM     25  H   UNL A   1      40.672  23.609  25.224  1.00  0.00     0.163 HD
ATOM     26  O   UNL A   1      41.825  25.708  25.175  1.00  0.00    -0.269 OA
BRANCH  24  27
ATOM     27  C   UNL A   1      41.075  26.182  27.337  1.00  0.00     0.039 A 
ATOM     28  C   UNL A   1      40.027  25.932  28.230  1.00  0.00     0.014 A 
ATOM     29  C   UNL A   1      41.912  27.282  27.544  1.00  0.00     0.014 A 
ATOM     30  C   UNL A   1      39.830  26.764  29.336  1.00  0.00     0.010 A 
ATOM     31  C   UNL A   1      41.737  28.093  28.676  1.00  0.00     0.010 A 
ATOM     32  C   UNL A   1      40.686  27.851  29.578  1.00  0.00    -0.014 A 
BRANCH  32  33
ATOM     33  C   UNL A   1      40.445  28.728  30.760  1.00  0.00     0.031 A 
ATOM     34  C   UNL A   1      41.296  28.603  31.996  1.00  0.00     0.074 A 
ATOM     35  C   UNL A   1      39.478  29.669  30.700  1.00  0.00     0.049 A 
ATOM     36  N   UNL A   1      41.301  29.346  33.076  1.00  0.00    -0.248 NA
ATOM     37  C   UNL A   1      42.257  27.492  32.034  1.00  0.00     0.031 C 
ATOM     38  C   UNL A   1      38.568  29.866  29.570  1.00  0.00     0.029 A 
ATOM     39  N   UNL A   1      39.111  30.645  31.593  1.00  0.00    -0.354 N 
ATOM     40  C   UNL A   1      42.259  28.791  33.919  1.00  0.00     0.074 A 
ATOM     41  C   UNL A   1      42.777  27.619  33.247  1.00  0.00     0.031 C 
ATOM     42  C   UNL A   1      37.782  30.926  29.817  1.00  0.00     0.029 A 
ATOM     43  C   UNL A   1      38.107  31.466  31.134  1.00  0.00     0.049 A 
ATOM     44  H   UNL A   1      39.528  30.748  32.480  1.00  0.00     0.167 HD
ATOM     45  C   UNL A   1      42.682  29.229  35.131  1.00  0.00     0.037 A 
ATOM     46  C   UNL A   1      37.523  32.540  31.702  1.00  0.00     0.037 A 
ATOM     47  C   UNL A   1      42.167  30.407  35.784  1.00  0.00     0.049 A 
ATOM     48  C   UNL A   1      38.008  33.005  33.050  1.00  0.00     0.074 A 
ATOM     49  C   UNL A   1      42.561  30.967  36.987  1.00  0.00     0.029 A 
ATOM     50  N   UNL A   1      41.138  31.199  35.295  1.00  0.00    -0.354 N 
ATOM     51  N   UNL A   1      38.965  32.510  33.798  1.00  0.00    -0.248 NA
ATOM     52  C   UNL A   1      37.340  34.180  33.626  1.00  0.00     0.031 C 
ATOM     53  C   UNL A   1      41.733  32.062  37.252  1.00  0.00     0.029 A 
ATOM     54  C   UNL A   1      40.865  32.226  36.184  1.00  0.00     0.049 A 
ATOM     55  H   UNL A   1      40.670  31.052  34.441  1.00  0.00     0.167 HD
ATOM     56  C   UNL A   1      39.041  33.334  34.916  1.00  0.00     0.074 A 
ATOM     57  C   UNL A   1      38.038  34.366  34.738  1.00  0.00     0.031 C 
ATOM     58  C   UNL A   1      39.866  33.249  35.989  1.00  0.00     0.037 A 
BRANCH  45  59
ATOM     59  C   UNL A   1      43.743  28.423  35.837  1.00  0.00     0.058 A 
ATOM     60  C   UNL A   1      43.421  27.370  36.709  1.00  0.00     0.135 A 
ATOM     61  C   UNL A   1      45.105  28.691  35.618  1.00  0.00     0.135 A 
ATOM     62  F   UNL A   1      42.137  27.073  36.966  1.00  0.00    -0.206 F 
ATOM     63  C   UNL A   1      44.406  26.639  37.368  1.00  0.00     0.059 A 
ATOM     64  C   UNL A   1      46.108  27.952  36.240  1.00  0.00     0.059 A 
ATOM     65  F   UNL A   1      45.475  29.682  34.792  1.00  0.00    -0.206 F 
ATOM     66  C   UNL A   1      45.748  26.939  37.128  1.00  0.00     0.060 A 
BRANCH  66  67
ATOM     67  S   UNL A   1      47.014  25.987  37.995  1.00  0.00     0.124 S 
ATOM     68  O   UNL A   1      46.340  24.706  38.180  1.00  0.00    -0.237 OA
ATOM     69  O   UNL A   1      48.116  25.990  37.038  1.00  0.00    -0.237 OA
ATOM     70  O   UNL A   1      47.244  26.755  39.214  1.00  0.00    -0.744 OA
ENDBRANCH  66  67
ENDBRANCH  45  59
BRANCH  46  71
ATOM     71  C   UNL A   1      36.442  33.273  30.983  1.00  0.00     0.058 A 
ATOM     72  C   UNL A   1      35.093  33.104  31.331  1.00  0.00     0.135 A 
ATOM     73  C   UNL A   1      36.736  34.164  29.939  1.00  0.00     0.135 A 
ATOM     74  F   UNL A   1      34.755  32.260  32.318  1.00  0.00    -0.206 F 
ATOM     75  C   UNL A   1      34.075  33.773  30.659  1.00  0.00     0.059 A 
ATOM     76  C   UNL A   1      35.738  34.868  29.271  1.00  0.00     0.059 A 
ATOM     77  F   UNL A   1      38.010  34.376  29.575  1.00  0.00    -0.206 F 
ATOM     78  C   UNL A   1      34.408  34.656  29.631  1.00  0.00     0.060 A 
BRANCH  78  79
ATOM     79  S   UNL A   1      33.081  35.554  28.795  1.00  0.00     0.124 S 
ATOM     80  O   UNL A   1      32.366  36.138  29.923  1.00  0.00    -0.237 OA
ATOM     81  O   UNL A   1      33.826  36.488  27.957  1.00  0.00    -0.237 OA
ATOM     82  O   UNL A   1      32.370  34.505  28.071  1.00  0.00    -0.744 OA
ENDBRANCH  78  79
ENDBRANCH  46  71
BRANCH  58  83
ATOM     83  C   UNL A   1      39.753  34.326  37.035  1.00  0.00     0.058 A 
ATOM     84  C   UNL A   1      38.958  34.171  38.182  1.00  0.00     0.135 A 
ATOM     85  C   UNL A   1      40.481  35.521  36.901  1.00  0.00     0.135 A 
ATOM     86  F   UNL A   1      38.239  33.051  38.360  1.00  0.00    -0.206 F 
ATOM     87  C   UNL A   1      38.861  35.175  39.139  1.00  0.00     0.059 A 
ATOM     88  C   UNL A   1      40.425  36.524  37.862  1.00  0.00     0.059 A 
ATOM     89  F   UNL A   1      41.267  35.717  35.830  1.00  0.00    -0.206 F 
ATOM     90  C   UNL A   1      39.598  36.349  38.970  1.00  0.00     0.060 A 
BRANCH  90  91
ATOM     91  S   UNL A   1      39.474  37.639  40.226  1.00  0.00     0.124 S 
ATOM     92  O   UNL A   1      40.839  38.155  40.253  1.00  0.00    -0.237 OA
ATOM     93  O   UNL A   1      38.470  38.534  39.658  1.00  0.00    -0.237 OA
ATOM     94  O   UNL A   1      39.053  36.913  41.420  1.00  0.00    -0.744 OA
ENDBRANCH  90  91
ENDBRANCH  58  83
ENDBRANCH  32  33
ENDBRANCH  24  27
ENDBRANCH  22  23
ENDBRANCH  21  22
ENDBRANCH  20  21
ENDBRANCH   1  20
TORSDOF 20
ENDMDL
