MODEL 1
REMARK VINA RESULT:     -10.6      0.000      0.000
REMARK SMILES CS(=O)(=O)c1ccc(-c2cc(Cl)cc3c2O[C@H](C(F)(F)F)C(C(=O)NCCCCNC(=O)c2ccc(-c4c5nc(c(-c6c(F)cc(S(=O)(=O)[O-])cc6F)c6ccc([nH]6)c(-c6c(F)cc(S(=O)(=O)[O-])cc6F)c6nc(c(-c7c(F)cc(S(=O)(=O)[O-])cc7F)c7ccc4[nH]7)C=C6)C=C5)cc2)=C3)cc1
REMARK SMILES IDX 28 1 27 2 26 3 25 4 23 5 24 6 22 8 9 9 10 10 15 11 11 12
REMARK SMILES IDX 14 13 16 14 12 15 13 16 99 17 17 18 8 19 5 20 6 21 101 22
REMARK SMILES IDX 7 23 100 24 2 25 1 26 3 27 4 28 18 29 19 30 20 31 21 32
REMARK SMILES IDX 29 33 30 34 31 35 32 37 33 38 34 39 98 40 35 41 97 42 36 43
REMARK SMILES IDX 37 44 38 45 91 46 39 47 96 48 90 49 92 50 40 51 95 52 89 53
REMARK SMILES IDX 88 54 41 56 75 57 54 58 74 59 55 60 58 61 73 62 93 63 56 64
REMARK SMILES IDX 57 65 72 67 94 68 59 69 42 70 43 71 52 72 44 73 45 74 51 75
REMARK SMILES IDX 53 76 46 77 47 78 48 79 49 80 50 81 76 82 77 83 86 84 78 85
REMARK SMILES IDX 79 86 85 87 87 88 80 89 81 90 82 91 83 92 84 93 60 94 61 95
REMARK SMILES IDX 70 96 62 97 63 98 69 99 71 100 64 101 65 102 66 103 67 104
REMARK SMILES IDX 68 105
REMARK H PARENT 25 7 30 36 92 55 58 66
REMARK Flexibility Score: inf
ROOT
ATOM      1  C   UNL A   1      35.799  33.414  28.649  1.00  0.00     0.023 C 
ENDROOT
BRANCH   1   2
ATOM      2  C   UNL A   1      37.285  33.367  29.036  1.00  0.00     0.023 C 
BRANCH   2   3
ATOM      3  C   UNL A   1      37.804  34.593  29.803  1.00  0.00     0.116 C 
BRANCH   3   4
ATOM      4  N   UNL A   1      38.709  34.166  30.849  1.00  0.00    -0.352 N 
ATOM      5  C   UNL A   1      38.480  33.966  32.166  1.00  0.00     0.251 C 
ATOM      6  O   UNL A   1      39.407  34.138  32.951  1.00  0.00    -0.270 OA
ATOM      7  H   UNL A   1      39.633  33.993  30.555  1.00  0.00     0.163 HD
BRANCH   5   8
ATOM      8  C   UNL A   1      37.148  33.444  32.597  1.00  0.00     0.067 C 
ATOM      9  C   UNL A   1      38.296  31.747  36.131  1.00  0.00     0.026 A 
ATOM     10  C   UNL A   1      39.456  30.976  35.856  1.00  0.00     0.033 A 
ATOM     11  C   UNL A   1      37.560  32.181  35.008  1.00  0.00     0.135 A 
ATOM     12  C   UNL A   1      39.784  30.530  34.578  1.00  0.00     0.042 A 
ATOM     13  C   UNL A   1      37.843  31.618  33.735  1.00  0.00     0.019 A 
ATOM     14  O   UNL A   1      36.600  33.186  35.062  1.00  0.00    -0.475 OA
ATOM     15  Cl  UNL A   1      41.234  29.642  34.331  1.00  0.00    -0.084 Cl
ATOM     16  C   UNL A   1      38.939  30.786  33.519  1.00  0.00     0.032 A 
ATOM     17  C   UNL A   1      37.072  32.098  32.568  1.00  0.00     0.025 C 
ATOM     18  C   UNL A   1      36.584  34.083  33.860  1.00  0.00     0.314 C 
BRANCH   9  19
ATOM     19  C   UNL A   1      37.939  31.821  37.577  1.00  0.00    -0.015 A 
ATOM     20  C   UNL A   1      36.417  32.438  39.901  1.00  0.00     0.067 A 
ATOM     21  C   UNL A   1      36.267  31.198  39.286  1.00  0.00     0.021 A 
ATOM     22  C   UNL A   1      37.384  33.332  39.428  1.00  0.00     0.021 A 
ATOM     23  C   UNL A   1      37.034  30.893  38.146  1.00  0.00     0.010 A 
ATOM     24  C   UNL A   1      38.144  33.020  38.285  1.00  0.00     0.010 A 
BRANCH  20  25
ATOM     25  S   UNL A   1      35.388  32.900  41.285  1.00  0.00     0.175 S 
ATOM     26  C   UNL A   1      35.432  31.560  42.447  1.00  0.00     0.163 C 
ATOM     27  O   UNL A   1      34.022  32.982  40.804  1.00  0.00    -0.224 OA
ATOM     28  O   UNL A   1      36.026  34.047  41.907  1.00  0.00    -0.224 OA
ENDBRANCH  20  25
ENDBRANCH   9  19
BRANCH  18  29
ATOM     29  C   UNL A   1      35.157  34.590  33.539  1.00  0.00     0.429 C 
ATOM     30  F   UNL A   1      34.962  34.799  32.218  1.00  0.00    -0.167 F 
ATOM     31  F   UNL A   1      34.216  33.710  33.958  1.00  0.00    -0.167 F 
ATOM     32  F   UNL A   1      34.872  35.766  34.160  1.00  0.00    -0.167 F 
ENDBRANCH  18  29
ENDBRANCH   5   8
ENDBRANCH   3   4
ENDBRANCH   2   3
ENDBRANCH   1   2
BRANCH   1  33
ATOM     33  C   UNL A   1      34.877  32.578  29.529  1.00  0.00     0.116 C 
BRANCH  33  34
ATOM     34  N   UNL A   1      34.115  31.613  28.754  1.00  0.00    -0.352 N 
ATOM     35  C   UNL A   1      34.544  30.465  28.131  1.00  0.00     0.251 C 
ATOM     36  H   UNL A   1      33.155  31.810  28.662  1.00  0.00     0.163 HD
ATOM     37  O   UNL A   1      33.797  29.881  27.351  1.00  0.00    -0.269 OA
BRANCH  35  38
ATOM     38  C   UNL A   1      35.908  29.952  28.382  1.00  0.00     0.039 A 
ATOM     39  C   UNL A   1      36.853  30.012  27.355  1.00  0.00     0.014 A 
ATOM     40  C   UNL A   1      36.258  29.419  29.627  1.00  0.00     0.014 A 
ATOM     41  C   UNL A   1      38.167  29.602  27.598  1.00  0.00     0.010 A 
ATOM     42  C   UNL A   1      37.584  29.083  29.889  1.00  0.00     0.010 A 
ATOM     43  C   UNL A   1      38.554  29.171  28.878  1.00  0.00    -0.014 A 
BRANCH  43  44
ATOM     44  C   UNL A   1      39.971  28.834  29.182  1.00  0.00     0.031 A 
ATOM     45  C   UNL A   1      40.876  29.850  29.823  1.00  0.00     0.074 A 
ATOM     46  C   UNL A   1      40.460  27.631  28.815  1.00  0.00     0.049 A 
ATOM     47  N   UNL A   1      42.149  29.755  30.111  1.00  0.00    -0.248 NA
ATOM     48  C   UNL A   1      40.281  31.151  30.163  1.00  0.00     0.031 C 
ATOM     49  C   UNL A   1      39.696  26.581  28.136  1.00  0.00     0.029 A 
ATOM     50  N   UNL A   1      41.714  27.092  28.951  1.00  0.00    -0.354 N 
ATOM     51  C   UNL A   1      42.510  30.984  30.651  1.00  0.00     0.074 A 
ATOM     52  C   UNL A   1      41.334  31.826  30.599  1.00  0.00     0.031 C 
ATOM     53  C   UNL A   1      40.492  25.518  27.935  1.00  0.00     0.029 A 
ATOM     54  C   UNL A   1      41.831  25.824  28.430  1.00  0.00     0.049 A 
ATOM     55  H   UNL A   1      42.462  27.569  29.379  1.00  0.00     0.167 HD
ATOM     56  C   UNL A   1      43.704  31.370  31.161  1.00  0.00     0.037 A 
ATOM     57  C   UNL A   1      42.895  25.002  28.350  1.00  0.00     0.037 A 
ATOM     58  C   UNL A   1      44.866  30.520  31.221  1.00  0.00     0.049 A 
ATOM     59  C   UNL A   1      44.214  25.452  28.920  1.00  0.00     0.074 A 
ATOM     60  C   UNL A   1      46.104  30.793  31.779  1.00  0.00     0.029 A 
ATOM     61  N   UNL A   1      44.940  29.236  30.700  1.00  0.00    -0.354 N 
ATOM     62  N   UNL A   1      44.516  26.591  29.497  1.00  0.00    -0.248 NA
ATOM     63  C   UNL A   1      45.333  24.504  28.834  1.00  0.00     0.031 C 
ATOM     64  C   UNL A   1      46.941  29.698  31.545  1.00  0.00     0.029 A 
ATOM     65  C   UNL A   1      46.211  28.716  30.895  1.00  0.00     0.049 A 
ATOM     66  H   UNL A   1      44.199  28.763  30.256  1.00  0.00     0.167 HD
ATOM     67  C   UNL A   1      45.854  26.488  29.864  1.00  0.00     0.074 A 
ATOM     68  C   UNL A   1      46.297  25.171  29.457  1.00  0.00     0.031 C 
ATOM     69  C   UNL A   1      46.641  27.402  30.483  1.00  0.00     0.037 A 
BRANCH  56  70
ATOM     70  C   UNL A   1      43.818  32.776  31.689  1.00  0.00     0.058 A 
ATOM     71  C   UNL A   1      44.138  33.857  30.851  1.00  0.00     0.135 A 
ATOM     72  C   UNL A   1      43.575  33.052  33.044  1.00  0.00     0.135 A 
ATOM     73  F   UNL A   1      44.392  33.652  29.548  1.00  0.00    -0.206 F 
ATOM     74  C   UNL A   1      44.252  35.153  31.344  1.00  0.00     0.059 A 
ATOM     75  C   UNL A   1      43.652  34.346  33.553  1.00  0.00     0.059 A 
ATOM     76  F   UNL A   1      43.262  32.059  33.891  1.00  0.00    -0.206 F 
ATOM     77  C   UNL A   1      44.009  35.387  32.698  1.00  0.00     0.060 A 
BRANCH  77  78
ATOM     78  S   UNL A   1      44.171  37.073  33.323  1.00  0.00     0.124 S 
ATOM     79  O   UNL A   1      42.791  37.383  33.681  1.00  0.00    -0.237 OA
ATOM     80  O   UNL A   1      45.093  36.904  34.441  1.00  0.00    -0.237 OA
ATOM     81  O   UNL A   1      44.703  37.809  32.180  1.00  0.00    -0.744 OA
ENDBRANCH  77  78
ENDBRANCH  56  70
BRANCH  57  82
ATOM     82  C   UNL A   1      42.748  23.662  27.721  1.00  0.00     0.058 A 
ATOM     83  C   UNL A   1      42.945  23.482  26.344  1.00  0.00     0.135 A 
ATOM     84  C   UNL A   1      42.441  22.528  28.490  1.00  0.00     0.135 A 
ATOM     85  F   UNL A   1      43.234  24.536  25.566  1.00  0.00    -0.206 F 
ATOM     86  C   UNL A   1      42.833  22.229  25.749  1.00  0.00     0.059 A 
ATOM     87  C   UNL A   1      42.350  21.261  27.922  1.00  0.00     0.059 A 
ATOM     88  F   UNL A   1      42.258  22.642  29.815  1.00  0.00    -0.206 F 
ATOM     89  C   UNL A   1      42.542  21.123  26.549  1.00  0.00     0.060 A 
BRANCH  89  90
ATOM     90  S   UNL A   1      42.466  19.492  25.774  1.00  0.00     0.124 S 
ATOM     91  O   UNL A   1      41.065  19.419  25.379  1.00  0.00    -0.237 OA
ATOM     92  O   UNL A   1      43.431  19.626  24.688  1.00  0.00    -0.237 OA
ATOM     93  O   UNL A   1      42.867  18.591  26.851  1.00  0.00    -0.744 OA
ENDBRANCH  89  90
ENDBRANCH  57  82
BRANCH  69  94
ATOM     94  C   UNL A   1      48.061  27.004  30.786  1.00  0.00     0.058 A 
ATOM     95  C   UNL A   1      49.112  27.281  29.899  1.00  0.00     0.135 A 
ATOM     96  C   UNL A   1      48.380  26.381  32.004  1.00  0.00     0.135 A 
ATOM     97  F   UNL A   1      48.864  27.868  28.717  1.00  0.00    -0.206 F 
ATOM     98  C   UNL A   1      50.427  26.935  30.199  1.00  0.00     0.059 A 
ATOM     99  C   UNL A   1      49.690  26.054  32.338  1.00  0.00     0.059 A 
ATOM    100  F   UNL A   1      47.413  26.102  32.893  1.00  0.00    -0.206 F 
ATOM    101  C   UNL A   1      50.706  26.324  31.423  1.00  0.00     0.060 A 
BRANCH 101 102
ATOM    102  S   UNL A   1      52.420  25.911  31.813  1.00  0.00     0.124 S 
ATOM    103  O   UNL A   1      53.109  26.346  30.602  1.00  0.00    -0.237 OA
ATOM    104  O   UNL A   1      52.669  26.711  33.007  1.00  0.00    -0.237 OA
ATOM    105  O   UNL A   1      52.381  24.467  32.029  1.00  0.00    -0.744 OA
ENDBRANCH 101 102
ENDBRANCH  69  94
ENDBRANCH  43  44
ENDBRANCH  35  38
ENDBRANCH  33  34
ENDBRANCH   1  33
TORSDOF 17
ENDMDL
MODEL 2
REMARK VINA RESULT:     -10.6      0.374      7.887
REMARK SMILES CS(=O)(=O)c1ccc(-c2cc(Cl)cc3c2O[C@H](C(F)(F)F)C(C(=O)NCCCCNC(=O)c2ccc(-c4c5nc(c(-c6c(F)cc(S(=O)(=O)[O-])cc6F)c6ccc([nH]6)c(-c6c(F)cc(S(=O)(=O)[O-])cc6F)c6nc(c(-c7c(F)cc(S(=O)(=O)[O-])cc7F)c7ccc4[nH]7)C=C6)C=C5)cc2)=C3)cc1
REMARK SMILES IDX 28 1 27 2 26 3 25 4 23 5 24 6 22 8 9 9 10 10 15 11 11 12
REMARK SMILES IDX 14 13 16 14 12 15 13 16 99 17 17 18 8 19 5 20 6 21 101 22
REMARK SMILES IDX 7 23 100 24 2 25 1 26 3 27 4 28 18 29 19 30 20 31 21 32
REMARK SMILES IDX 29 33 30 34 31 35 32 37 33 38 34 39 98 40 35 41 97 42 36 43
REMARK SMILES IDX 37 44 38 45 91 46 39 47 96 48 90 49 92 50 40 51 95 52 89 53
REMARK SMILES IDX 88 54 41 56 75 57 54 58 74 59 55 60 58 61 73 62 93 63 56 64
REMARK SMILES IDX 57 65 72 67 94 68 59 69 42 70 43 71 52 72 44 73 45 74 51 75
REMARK SMILES IDX 53 76 46 77 47 78 48 79 49 80 50 81 76 82 77 83 86 84 78 85
REMARK SMILES IDX 79 86 85 87 87 88 80 89 81 90 82 91 83 92 84 93 60 94 61 95
REMARK SMILES IDX 70 96 62 97 63 98 69 99 71 100 64 101 65 102 66 103 67 104
REMARK SMILES IDX 68 105
REMARK H PARENT 25 7 30 36 92 55 58 66
REMARK Flexibility Score: inf
ROOT
ATOM      1  C   UNL A   1      35.744  33.203  28.374  1.00  0.00     0.023 C 
ENDROOT
BRANCH   1   2
ATOM      2  C   UNL A   1      37.215  33.298  28.807  1.00  0.00     0.023 C 
BRANCH   2   3
ATOM      3  C   UNL A   1      37.569  34.518  29.670  1.00  0.00     0.116 C 
BRANCH   3   4
ATOM      4  N   UNL A   1      38.512  34.130  30.698  1.00  0.00    -0.352 N 
ATOM      5  C   UNL A   1      38.331  33.980  32.030  1.00  0.00     0.251 C 
ATOM      6  O   UNL A   1      39.286  34.180  32.773  1.00  0.00    -0.270 OA
ATOM      7  H   UNL A   1      39.424  33.944  30.378  1.00  0.00     0.163 HD
BRANCH   5   8
ATOM      8  C   UNL A   1      37.015  33.477  32.528  1.00  0.00     0.067 C 
ATOM      9  C   UNL A   1      38.324  31.725  35.978  1.00  0.00     0.026 A 
ATOM     10  C   UNL A   1      39.454  30.936  35.633  1.00  0.00     0.033 A 
ATOM     11  C   UNL A   1      37.535  32.183  34.901  1.00  0.00     0.135 A 
ATOM     12  C   UNL A   1      39.703  30.498  34.334  1.00  0.00     0.042 A 
ATOM     13  C   UNL A   1      37.738  31.628  33.610  1.00  0.00     0.019 A 
ATOM     14  O   UNL A   1      36.599  33.204  35.017  1.00  0.00    -0.475 OA
ATOM     15  Cl  UNL A   1      41.121  29.587  34.001  1.00  0.00    -0.084 Cl
ATOM     16  C   UNL A   1      38.806  30.779  33.326  1.00  0.00     0.032 A 
ATOM     17  C   UNL A   1      36.914  32.133  32.491  1.00  0.00     0.025 C 
ATOM     18  C   UNL A   1      36.532  34.113  33.826  1.00  0.00     0.314 C 
BRANCH   9  19
ATOM     19  C   UNL A   1      38.049  31.791  37.442  1.00  0.00    -0.015 A 
ATOM     20  C   UNL A   1      36.645  32.368  39.850  1.00  0.00     0.067 A 
ATOM     21  C   UNL A   1      36.494  31.123  39.243  1.00  0.00     0.021 A 
ATOM     22  C   UNL A   1      37.559  33.287  39.323  1.00  0.00     0.021 A 
ATOM     23  C   UNL A   1      37.203  30.838  38.061  1.00  0.00     0.010 A 
ATOM     24  C   UNL A   1      38.260  32.995  38.138  1.00  0.00     0.010 A 
BRANCH  20  25
ATOM     25  S   UNL A   1      35.684  32.803  41.290  1.00  0.00     0.175 S 
ATOM     26  C   UNL A   1      36.051  31.609  42.551  1.00  0.00     0.163 C 
ATOM     27  O   UNL A   1      34.286  32.625  40.951  1.00  0.00    -0.224 OA
ATOM     28  O   UNL A   1      36.180  34.091  41.742  1.00  0.00    -0.224 OA
ENDBRANCH  20  25
ENDBRANCH   9  19
BRANCH  18  29
ATOM     29  C   UNL A   1      35.100  34.648  33.589  1.00  0.00     0.429 C 
ATOM     30  F   UNL A   1      34.944  35.198  32.364  1.00  0.00    -0.167 F 
ATOM     31  F   UNL A   1      34.178  33.662  33.716  1.00  0.00    -0.167 F 
ATOM     32  F   UNL A   1      34.747  35.607  34.487  1.00  0.00    -0.167 F 
ENDBRANCH  18  29
ENDBRANCH   5   8
ENDBRANCH   3   4
ENDBRANCH   2   3
ENDBRANCH   1   2
BRANCH   1  33
ATOM     33  C   UNL A   1      34.839  32.435  29.330  1.00  0.00     0.116 C 
BRANCH  33  34
ATOM     34  N   UNL A   1      34.098  31.384  28.650  1.00  0.00    -0.352 N 
ATOM     35  C   UNL A   1      34.562  30.221  28.085  1.00  0.00     0.251 C 
ATOM     36  H   UNL A   1      33.126  31.528  28.586  1.00  0.00     0.163 HD
ATOM     37  O   UNL A   1      33.817  29.551  27.375  1.00  0.00    -0.269 OA
BRANCH  35  38
ATOM     38  C   UNL A   1      35.960  29.794  28.311  1.00  0.00     0.039 A 
ATOM     39  C   UNL A   1      36.869  29.866  27.252  1.00  0.00     0.014 A 
ATOM     40  C   UNL A   1      36.376  29.328  29.562  1.00  0.00     0.014 A 
ATOM     41  C   UNL A   1      38.210  29.538  27.468  1.00  0.00     0.010 A 
ATOM     42  C   UNL A   1      37.725  29.076  29.793  1.00  0.00     0.010 A 
ATOM     43  C   UNL A   1      38.659  29.179  28.750  1.00  0.00    -0.014 A 
BRANCH  43  44
ATOM     44  C   UNL A   1      40.101  28.931  29.020  1.00  0.00     0.031 A 
ATOM     45  C   UNL A   1      40.727  27.610  28.667  1.00  0.00     0.074 A 
ATOM     46  C   UNL A   1      40.829  29.876  29.649  1.00  0.00     0.049 A 
ATOM     47  N   UNL A   1      41.950  27.194  28.877  1.00  0.00    -0.248 NA
ATOM     48  C   UNL A   1      39.861  26.617  28.015  1.00  0.00     0.031 C 
ATOM     49  C   UNL A   1      40.322  31.177  30.093  1.00  0.00     0.029 A 
ATOM     50  N   UNL A   1      42.146  29.887  30.034  1.00  0.00    -0.354 N 
ATOM     51  C   UNL A   1      41.996  25.891  28.398  1.00  0.00     0.074 A 
ATOM     52  C   UNL A   1      40.664  25.565  27.936  1.00  0.00     0.031 C 
ATOM     53  C   UNL A   1      41.321  31.866  30.668  1.00  0.00     0.029 A 
ATOM     54  C   UNL A   1      42.527  31.044  30.674  1.00  0.00     0.049 A 
ATOM     55  H   UNL A   1      42.762  29.136  29.869  1.00  0.00     0.167 HD
ATOM     56  C   UNL A   1      43.056  25.048  28.329  1.00  0.00     0.037 A 
ATOM     57  C   UNL A   1      43.708  31.401  31.215  1.00  0.00     0.037 A 
ATOM     58  C   UNL A   1      44.383  25.386  28.779  1.00  0.00     0.049 A 
ATOM     59  C   UNL A   1      44.870  30.448  31.131  1.00  0.00     0.074 A 
ATOM     60  C   UNL A   1      45.538  24.628  28.692  1.00  0.00     0.029 A 
ATOM     61  N   UNL A   1      44.732  26.573  29.405  1.00  0.00    -0.354 N 
ATOM     62  N   UNL A   1      44.916  29.248  30.604  1.00  0.00    -0.248 NA
ATOM     63  C   UNL A   1      46.143  30.901  31.709  1.00  0.00     0.031 C 
ATOM     64  C   UNL A   1      46.572  25.333  29.317  1.00  0.00     0.029 A 
ATOM     65  C   UNL A   1      46.078  26.556  29.739  1.00  0.00     0.049 A 
ATOM     66  H   UNL A   1      44.115  27.319  29.586  1.00  0.00     0.167 HD
ATOM     67  C   UNL A   1      46.226  28.811  30.766  1.00  0.00     0.074 A 
ATOM     68  C   UNL A   1      46.944  29.881  31.425  1.00  0.00     0.031 C 
ATOM     69  C   UNL A   1      46.782  27.629  30.399  1.00  0.00     0.037 A 
BRANCH  56  70
ATOM     70  C   UNL A   1      42.822  23.676  27.754  1.00  0.00     0.058 A 
ATOM     71  C   UNL A   1      42.502  22.577  28.569  1.00  0.00     0.135 A 
ATOM     72  C   UNL A   1      42.889  23.461  26.369  1.00  0.00     0.135 A 
ATOM     73  F   UNL A   1      42.434  22.720  29.903  1.00  0.00    -0.206 F 
ATOM     74  C   UNL A   1      42.297  21.309  28.035  1.00  0.00     0.059 A 
ATOM     75  C   UNL A   1      42.656  22.208  25.809  1.00  0.00     0.059 A 
ATOM     76  F   UNL A   1      43.188  24.475  25.541  1.00  0.00    -0.206 F 
ATOM     77  C   UNL A   1      42.378  21.134  26.653  1.00  0.00     0.060 A 
BRANCH  77  78
ATOM     78  S   UNL A   1      42.118  19.480  25.978  1.00  0.00     0.124 S 
ATOM     79  O   UNL A   1      42.940  19.525  24.774  1.00  0.00    -0.237 OA
ATOM     80  O   UNL A   1      42.613  18.623  27.052  1.00  0.00    -0.237 OA
ATOM     81  O   UNL A   1      40.677  19.427  25.753  1.00  0.00    -0.744 OA
ENDBRANCH  77  78
ENDBRANCH  56  70
BRANCH  57  82
ATOM     82  C   UNL A   1      43.851  32.731  31.865  1.00  0.00     0.058 A 
ATOM     83  C   UNL A   1      44.100  33.885  31.107  1.00  0.00     0.135 A 
ATOM     84  C   UNL A   1      43.709  32.881  33.254  1.00  0.00     0.135 A 
ATOM     85  F   UNL A   1      44.252  33.792  29.777  1.00  0.00    -0.206 F 
ATOM     86  C   UNL A   1      44.214  35.138  31.701  1.00  0.00     0.059 A 
ATOM     87  C   UNL A   1      43.791  34.128  33.867  1.00  0.00     0.059 A 
ATOM     88  F   UNL A   1      43.454  31.812  34.023  1.00  0.00    -0.206 F 
ATOM     89  C   UNL A   1      44.050  35.249  33.083  1.00  0.00     0.060 A 
BRANCH  89  90
ATOM     90  S   UNL A   1      44.131  36.891  33.833  1.00  0.00     0.124 S 
ATOM     91  O   UNL A   1      44.752  36.596  35.119  1.00  0.00    -0.237 OA
ATOM     92  O   UNL A   1      44.957  37.622  32.878  1.00  0.00    -0.237 OA
ATOM     93  O   UNL A   1      42.732  37.305  33.886  1.00  0.00    -0.744 OA
ENDBRANCH  89  90
ENDBRANCH  57  82
BRANCH  69  94
ATOM     94  C   UNL A   1      48.249  27.437  30.676  1.00  0.00     0.058 A 
ATOM     95  C   UNL A   1      48.706  26.860  31.872  1.00  0.00     0.135 A 
ATOM     96  C   UNL A   1      49.207  27.788  29.711  1.00  0.00     0.135 A 
ATOM     97  F   UNL A   1      47.835  26.512  32.832  1.00  0.00    -0.206 F 
ATOM     98  C   UNL A   1      50.063  26.660  32.110  1.00  0.00     0.059 A 
ATOM     99  C   UNL A   1      50.565  27.568  29.915  1.00  0.00     0.059 A 
ATOM    100  F   UNL A   1      48.823  28.335  28.546  1.00  0.00    -0.206 F 
ATOM    101  C   UNL A   1      50.985  27.015  31.123  1.00  0.00     0.060 A 
BRANCH 101 102
ATOM    102  S   UNL A   1      52.739  26.718  31.432  1.00  0.00     0.124 S 
ATOM    103  O   UNL A   1      53.341  27.203  30.194  1.00  0.00    -0.237 OA
ATOM    104  O   UNL A   1      52.988  27.530  32.619  1.00  0.00    -0.237 OA
ATOM    105  O   UNL A   1      52.809  25.275  31.640  1.00  0.00    -0.744 OA
ENDBRANCH 101 102
ENDBRANCH  69  94
ENDBRANCH  43  44
ENDBRANCH  35  38
ENDBRANCH  33  34
ENDBRANCH   1  33
TORSDOF 17
ENDMDL
MODEL 3
REMARK VINA RESULT:     -10.4      5.720     11.285
REMARK SMILES CS(=O)(=O)c1ccc(-c2cc(Cl)cc3c2O[C@H](C(F)(F)F)C(C(=O)NCCCCNC(=O)c2ccc(-c4c5nc(c(-c6c(F)cc(S(=O)(=O)[O-])cc6F)c6ccc([nH]6)c(-c6c(F)cc(S(=O)(=O)[O-])cc6F)c6nc(c(-c7c(F)cc(S(=O)(=O)[O-])cc7F)c7ccc4[nH]7)C=C6)C=C5)cc2)=C3)cc1
REMARK SMILES IDX 28 1 27 2 26 3 25 4 23 5 24 6 22 8 9 9 10 10 15 11 11 12
REMARK SMILES IDX 14 13 16 14 12 15 13 16 99 17 17 18 8 19 5 20 6 21 101 22
REMARK SMILES IDX 7 23 100 24 2 25 1 26 3 27 4 28 18 29 19 30 20 31 21 32
REMARK SMILES IDX 29 33 30 34 31 35 32 37 33 38 34 39 98 40 35 41 97 42 36 43
REMARK SMILES IDX 37 44 38 45 91 46 39 47 96 48 90 49 92 50 40 51 95 52 89 53
REMARK SMILES IDX 88 54 41 56 75 57 54 58 74 59 55 60 58 61 73 62 93 63 56 64
REMARK SMILES IDX 57 65 72 67 94 68 59 69 42 70 43 71 52 72 44 73 45 74 51 75
REMARK SMILES IDX 53 76 46 77 47 78 48 79 49 80 50 81 76 82 77 83 86 84 78 85
REMARK SMILES IDX 79 86 85 87 87 88 80 89 81 90 82 91 83 92 84 93 60 94 61 95
REMARK SMILES IDX 70 96 62 97 63 98 69 99 71 100 64 101 65 102 66 103 67 104
REMARK SMILES IDX 68 105
REMARK H PARENT 25 7 30 36 92 55 58 66
REMARK Flexibility Score: inf
ROOT
ATOM      1  C   UNL A   1      37.850  20.819  24.875  1.00  0.00     0.023 C 
ENDROOT
BRANCH   1   2
ATOM      2  C   UNL A   1      36.410  20.922  25.399  1.00  0.00     0.023 C 
BRANCH   2   3
ATOM      3  C   UNL A   1      36.053  22.250  26.084  1.00  0.00     0.116 C 
BRANCH   3   4
ATOM      4  N   UNL A   1      36.026  23.313  25.101  1.00  0.00    -0.352 N 
ATOM      5  C   UNL A   1      35.163  23.533  24.084  1.00  0.00     0.251 C 
ATOM      6  O   UNL A   1      35.576  24.112  23.085  1.00  0.00    -0.270 OA
ATOM      7  H   UNL A   1      36.746  23.979  25.188  1.00  0.00     0.163 HD
BRANCH   5   8
ATOM      8  C   UNL A   1      33.726  23.161  24.262  1.00  0.00     0.067 C 
ATOM      9  C   UNL A   1      32.107  26.897  23.946  1.00  0.00     0.026 A 
ATOM     10  C   UNL A   1      32.870  27.746  24.791  1.00  0.00     0.033 A 
ATOM     11  C   UNL A   1      32.300  25.510  24.123  1.00  0.00     0.135 A 
ATOM     12  C   UNL A   1      33.650  27.267  25.842  1.00  0.00     0.042 A 
ATOM     13  C   UNL A   1      33.001  25.050  25.269  1.00  0.00     0.019 A 
ATOM     14  O   UNL A   1      31.892  24.556  23.198  1.00  0.00    -0.475 OA
ATOM     15  Cl  UNL A   1      34.578  28.364  26.783  1.00  0.00    -0.084 Cl
ATOM     16  C   UNL A   1      33.662  25.919  26.134  1.00  0.00     0.032 A 
ATOM     17  C   UNL A   1      33.208  23.594  25.428  1.00  0.00     0.025 C 
ATOM     18  C   UNL A   1      32.842  23.406  23.045  1.00  0.00     0.314 C 
BRANCH   9  19
ATOM     19  C   UNL A   1      31.083  27.609  23.128  1.00  0.00    -0.015 A 
ATOM     20  C   UNL A   1      29.199  29.615  22.404  1.00  0.00     0.067 A 
ATOM     21  C   UNL A   1      30.521  29.723  21.979  1.00  0.00     0.021 A 
ATOM     22  C   UNL A   1      28.788  28.473  23.100  1.00  0.00     0.021 A 
ATOM     23  C   UNL A   1      31.445  28.720  22.328  1.00  0.00     0.010 A 
ATOM     24  C   UNL A   1      29.720  27.477  23.448  1.00  0.00     0.010 A 
BRANCH  20  25
ATOM     25  S   UNL A   1      28.025  30.918  22.071  1.00  0.00     0.175 S 
ATOM     26  C   UNL A   1      28.797  32.452  22.515  1.00  0.00     0.163 C 
ATOM     27  O   UNL A   1      26.909  30.741  22.980  1.00  0.00    -0.224 OA
ATOM     28  O   UNL A   1      27.817  30.927  20.633  1.00  0.00    -0.224 OA
ENDBRANCH  20  25
ENDBRANCH   9  19
BRANCH  18  29
ATOM     29  C   UNL A   1      32.102  22.086  22.722  1.00  0.00     0.429 C 
ATOM     30  F   UNL A   1      32.411  21.598  21.500  1.00  0.00    -0.167 F 
ATOM     31  F   UNL A   1      32.390  21.124  23.633  1.00  0.00    -0.167 F 
ATOM     32  F   UNL A   1      30.749  22.229  22.746  1.00  0.00    -0.167 F 
ENDBRANCH  18  29
ENDBRANCH   5   8
ENDBRANCH   3   4
ENDBRANCH   2   3
ENDBRANCH   1   2
BRANCH   1  33
ATOM     33  C   UNL A   1      38.934  21.068  25.916  1.00  0.00     0.116 C 
BRANCH  33  34
ATOM     34  N   UNL A   1      39.808  19.916  26.077  1.00  0.00    -0.352 N 
ATOM     35  C   UNL A   1      41.171  19.877  26.245  1.00  0.00     0.251 C 
ATOM     36  H   UNL A   1      39.358  19.041  26.064  1.00  0.00     0.163 HD
ATOM     37  O   UNL A   1      41.763  18.804  26.160  1.00  0.00    -0.269 OA
BRANCH  35  38
ATOM     38  C   UNL A   1      41.923  21.124  26.500  1.00  0.00     0.039 A 
ATOM     39  C   UNL A   1      42.308  21.916  25.416  1.00  0.00     0.014 A 
ATOM     40  C   UNL A   1      42.243  21.517  27.803  1.00  0.00     0.014 A 
ATOM     41  C   UNL A   1      42.952  23.135  25.642  1.00  0.00     0.010 A 
ATOM     42  C   UNL A   1      42.815  22.766  28.030  1.00  0.00     0.010 A 
ATOM     43  C   UNL A   1      43.176  23.590  26.953  1.00  0.00    -0.014 A 
BRANCH  43  44
ATOM     44  C   UNL A   1      43.762  24.933  27.213  1.00  0.00     0.031 A 
ATOM     45  C   UNL A   1      42.897  26.061  27.705  1.00  0.00     0.074 A 
ATOM     46  C   UNL A   1      45.064  25.152  26.938  1.00  0.00     0.049 A 
ATOM     47  N   UNL A   1      43.218  27.308  27.933  1.00  0.00    -0.248 NA
ATOM     48  C   UNL A   1      41.479  25.754  27.948  1.00  0.00     0.031 C 
ATOM     49  C   UNL A   1      45.995  24.154  26.405  1.00  0.00     0.029 A 
ATOM     50  N   UNL A   1      45.829  26.285  27.059  1.00  0.00    -0.354 N 
ATOM     51  C   UNL A   1      42.045  27.937  28.332  1.00  0.00     0.074 A 
ATOM     52  C   UNL A   1      40.993  26.946  28.262  1.00  0.00     0.031 C 
ATOM     53  C   UNL A   1      47.208  24.713  26.265  1.00  0.00     0.029 A 
ATOM     54  C   UNL A   1      47.134  26.117  26.658  1.00  0.00     0.049 A 
ATOM     55  H   UNL A   1      45.477  27.139  27.400  1.00  0.00     0.167 HD
ATOM     56  C   UNL A   1      41.864  29.217  28.740  1.00  0.00     0.037 A 
ATOM     57  C   UNL A   1      48.156  26.994  26.601  1.00  0.00     0.037 A 
ATOM     58  C   UNL A   1      42.920  30.194  28.820  1.00  0.00     0.049 A 
ATOM     59  C   UNL A   1      47.931  28.411  27.055  1.00  0.00     0.074 A 
ATOM     60  C   UNL A   1      42.853  31.496  29.283  1.00  0.00     0.029 A 
ATOM     61  N   UNL A   1      44.232  29.981  28.422  1.00  0.00    -0.354 N 
ATOM     62  N   UNL A   1      46.831  28.969  27.503  1.00  0.00    -0.248 NA
ATOM     63  C   UNL A   1      49.087  29.317  27.002  1.00  0.00     0.031 C 
ATOM     64  C   UNL A   1      44.109  32.087  29.112  1.00  0.00     0.029 A 
ATOM     65  C   UNL A   1      44.976  31.137  28.599  1.00  0.00     0.049 A 
ATOM     66  H   UNL A   1      44.583  29.132  28.065  1.00  0.00     0.167 HD
ATOM     67  C   UNL A   1      47.168  30.283  27.807  1.00  0.00     0.074 A 
ATOM     68  C   UNL A   1      48.576  30.433  27.507  1.00  0.00     0.031 C 
ATOM     69  C   UNL A   1      46.379  31.275  28.293  1.00  0.00     0.037 A 
BRANCH  56  70
ATOM     70  C   UNL A   1      40.469  29.637  29.123  1.00  0.00     0.058 A 
ATOM     71  C   UNL A   1      40.122  29.925  30.453  1.00  0.00     0.135 A 
ATOM     72  C   UNL A   1      39.472  29.781  28.145  1.00  0.00     0.135 A 
ATOM     73  F   UNL A   1      41.031  29.793  31.434  1.00  0.00    -0.206 F 
ATOM     74  C   UNL A   1      38.830  30.303  30.805  1.00  0.00     0.059 A 
ATOM     75  C   UNL A   1      38.181  30.189  28.469  1.00  0.00     0.059 A 
ATOM     76  F   UNL A   1      39.747  29.523  26.857  1.00  0.00    -0.206 F 
ATOM     77  C   UNL A   1      37.865  30.430  29.804  1.00  0.00     0.060 A 
BRANCH  77  78
ATOM     78  S   UNL A   1      36.192  30.911  30.279  1.00  0.00     0.124 S 
ATOM     79  O   UNL A   1      36.376  32.323  30.599  1.00  0.00    -0.237 OA
ATOM     80  O   UNL A   1      35.430  30.631  29.066  1.00  0.00    -0.237 OA
ATOM     81  O   UNL A   1      35.897  30.043  31.415  1.00  0.00    -0.744 OA
ENDBRANCH  77  78
ENDBRANCH  56  70
BRANCH  57  82
ATOM     82  C   UNL A   1      49.488  26.547  26.113  1.00  0.00     0.058 A 
ATOM     83  C   UNL A   1      49.924  26.852  24.816  1.00  0.00     0.135 A 
ATOM     84  C   UNL A   1      50.365  25.833  26.945  1.00  0.00     0.135 A 
ATOM     85  F   UNL A   1      49.120  27.526  23.980  1.00  0.00    -0.206 F 
ATOM     86  C   UNL A   1      51.177  26.459  24.356  1.00  0.00     0.059 A 
ATOM     87  C   UNL A   1      51.633  25.452  26.517  1.00  0.00     0.059 A 
ATOM     88  F   UNL A   1      50.003  25.528  28.201  1.00  0.00    -0.206 F 
ATOM     89  C   UNL A   1      52.028  25.764  25.218  1.00  0.00     0.060 A 
BRANCH  89  90
ATOM     90  S   UNL A   1      53.678  25.319  24.632  1.00  0.00     0.124 S 
ATOM     91  O   UNL A   1      54.522  26.187  25.444  1.00  0.00    -0.237 OA
ATOM     92  O   UNL A   1      53.738  23.895  24.944  1.00  0.00    -0.237 OA
ATOM     93  O   UNL A   1      53.625  25.639  23.208  1.00  0.00    -0.744 OA
ENDBRANCH  89  90
ENDBRANCH  57  82
BRANCH  69  94
ATOM     94  C   UNL A   1      47.026  32.608  28.558  1.00  0.00     0.058 A 
ATOM     95  C   UNL A   1      47.055  33.622  27.588  1.00  0.00     0.135 A 
ATOM     96  C   UNL A   1      47.579  32.892  29.818  1.00  0.00     0.135 A 
ATOM     97  F   UNL A   1      46.547  33.403  26.365  1.00  0.00    -0.206 F 
ATOM     98  C   UNL A   1      47.630  34.862  27.850  1.00  0.00     0.059 A 
ATOM     99  C   UNL A   1      48.130  34.135  30.112  1.00  0.00     0.059 A 
ATOM    100  F   UNL A   1      47.569  31.961  30.786  1.00  0.00    -0.206 F 
ATOM    101  C   UNL A   1      48.162  35.110  29.117  1.00  0.00     0.060 A 
BRANCH 101 102
ATOM    102  S   UNL A   1      48.874  36.735  29.453  1.00  0.00     0.124 S 
ATOM    103  O   UNL A   1      50.297  36.480  29.248  1.00  0.00    -0.237 OA
ATOM    104  O   UNL A   1      48.229  37.572  28.447  1.00  0.00    -0.237 OA
ATOM    105  O   UNL A   1      48.477  37.002  30.832  1.00  0.00    -0.744 OA
ENDBRANCH 101 102
ENDBRANCH  69  94
ENDBRANCH  43  44
ENDBRANCH  35  38
ENDBRANCH  33  34
ENDBRANCH   1  33
TORSDOF 17
ENDMDL
