MODEL 1
REMARK VINA RESULT:     -13.4      0.000      0.000
REMARK SMILES [NH2+]=C1S[C@@H](C(=O)Nc2ccc(C(=O)NCCCCNC(=O)c3ccc(-c4c5nc(c(-c6c(F)cc(S(=O)(=O)[O-])cc6F)c6ccc([nH]6)c(-c6c(F)cc(S(=O)(=O)[O-])cc6F)c6nc(c(-c7c(F)cc(S(=O)(=O)[O-])cc7F)c7ccc4[nH]7)C=C6)C=C5)cc3)cc2)CC(=O)N1/N=C/c1ccc(Cl)cc1
REMARK SMILES IDX 16 1 15 2 14 3 12 4 13 5 11 7 8 8 9 9 89 10 10 11 88 12 7 13
REMARK SMILES IDX 5 14 6 15 4 17 1 18 2 19 3 22 93 23 91 24 90 25 92 26 94 27
REMARK SMILES IDX 95 28 96 29 97 30 102 31 98 32 101 33 99 34 100 35 17 36
REMARK SMILES IDX 18 37 19 38 20 39 21 41 22 42 23 43 87 44 24 45 86 46 25 47
REMARK SMILES IDX 26 48 27 49 80 50 28 51 85 52 79 53 81 54 29 55 84 56 78 57
REMARK SMILES IDX 77 58 30 60 64 61 43 62 63 63 44 64 47 65 62 66 82 67 45 68
REMARK SMILES IDX 46 69 61 71 83 72 48 73 31 74 32 75 41 76 33 77 34 78 40 79
REMARK SMILES IDX 42 80 35 81 36 82 37 83 38 84 39 85 65 86 66 87 75 88 67 89
REMARK SMILES IDX 68 90 74 91 76 92 69 93 70 94 71 95 72 96 73 97 49 98 50 99
REMARK SMILES IDX 59 100 51 101 52 102 58 103 60 104 53 105 54 106 55 107
REMARK SMILES IDX 56 108 57 109
REMARK H PARENT 14 6 7 16 1 20 1 21 19 40 81 59 47 70
REMARK Flexibility Score: inf
ROOT
ATOM      1  C   UNL A   1      33.194  30.172  27.121  1.00  0.00     0.023 C 
ENDROOT
BRANCH   1   2
ATOM      2  C   UNL A   1      32.501  29.353  26.037  1.00  0.00     0.116 C 
BRANCH   2   3
ATOM      3  N   UNL A   1      33.086  29.612  24.729  1.00  0.00    -0.352 N 
ATOM      4  C   UNL A   1      33.644  28.740  23.825  1.00  0.00     0.251 C 
ATOM      5  O   UNL A   1      33.884  29.120  22.685  1.00  0.00    -0.269 OA
ATOM      6  H   UNL A   1      33.082  30.556  24.450  1.00  0.00     0.163 HD
BRANCH   4   7
ATOM      7  C   UNL A   1      33.892  27.324  24.183  1.00  0.00     0.039 A 
ATOM      8  C   UNL A   1      34.131  24.614  24.792  1.00  0.00     0.041 A 
ATOM      9  C   UNL A   1      33.952  25.011  23.468  1.00  0.00     0.027 A 
ATOM     10  C   UNL A   1      34.327  25.568  25.789  1.00  0.00     0.027 A 
ATOM     11  C   UNL A   1      33.799  26.365  23.167  1.00  0.00     0.016 A 
ATOM     12  C   UNL A   1      34.231  26.927  25.478  1.00  0.00     0.016 A 
BRANCH   8  13
ATOM     13  N   UNL A   1      34.223  23.254  25.066  1.00  0.00    -0.325 N 
ATOM     14  C   UNL A   1      33.538  22.475  25.950  1.00  0.00     0.238 C 
ATOM     15  O   UNL A   1      34.081  21.419  26.302  1.00  0.00    -0.273 OA
ATOM     16  H   UNL A   1      34.896  22.772  24.533  1.00  0.00     0.169 HD
BRANCH  14  17
ATOM     17  C   UNL A   1      32.070  22.730  26.333  1.00  0.00     0.160 C 
ATOM     18  N   UNL A   1      30.837  23.402  22.798  1.00  0.00    -0.279 N 
ATOM     19  C   UNL A   1      30.865  23.585  24.075  1.00  0.00     0.338 C 
ATOM     20  H   UNL A   1      30.899  22.491  22.430  1.00  0.00     0.302 HD
ATOM     21  H   UNL A   1      30.755  24.173  22.192  1.00  0.00     0.302 HD
ATOM     22  S   UNL A   1      30.954  22.154  25.040  1.00  0.00    -0.022 SA
ATOM     23  N   UNL A   1      30.784  24.832  24.701  1.00  0.00    -0.057 N 
ATOM     24  C   UNL A   1      31.030  25.101  26.055  1.00  0.00     0.337 C 
ATOM     25  C   UNL A   1      31.617  24.025  26.942  1.00  0.00     0.155 C 
ATOM     26  O   UNL A   1      30.768  26.185  26.597  1.00  0.00    -0.244 OA
BRANCH  23  27
ATOM     27  N   UNL A   1      30.491  25.986  23.952  1.00  0.00    -0.082 NA
ATOM     28  C   UNL A   1      29.316  26.514  24.082  1.00  0.00     0.167 C 
BRANCH  28  29
ATOM     29  C   UNL A   1      28.963  27.774  23.400  1.00  0.00    -0.003 A 
ATOM     30  C   UNL A   1      29.996  28.500  22.799  1.00  0.00     0.011 A 
ATOM     31  C   UNL A   1      27.642  28.215  23.296  1.00  0.00     0.011 A 
ATOM     32  C   UNL A   1      29.701  29.649  22.063  1.00  0.00     0.021 A 
ATOM     33  C   UNL A   1      27.349  29.370  22.563  1.00  0.00     0.021 A 
ATOM     34  C   UNL A   1      28.378  30.076  21.943  1.00  0.00     0.041 A 
ATOM     35  Cl  UNL A   1      28.019  31.479  21.017  1.00  0.00    -0.084 Cl
ENDBRANCH  28  29
ENDBRANCH  23  27
ENDBRANCH  14  17
ENDBRANCH   8  13
ENDBRANCH   4   7
ENDBRANCH   2   3
ENDBRANCH   1   2
BRANCH   1  36
ATOM     36  C   UNL A   1      34.674  29.813  27.290  1.00  0.00     0.023 C 
BRANCH  36  37
ATOM     37  C   UNL A   1      35.507  30.899  27.970  1.00  0.00     0.116 C 
BRANCH  37  38
ATOM     38  N   UNL A   1      35.403  30.846  29.421  1.00  0.00    -0.352 N 
ATOM     39  C   UNL A   1      36.316  30.413  30.353  1.00  0.00     0.251 C 
ATOM     40  H   UNL A   1      34.550  31.169  29.791  1.00  0.00     0.163 HD
ATOM     41  O   UNL A   1      35.968  30.255  31.520  1.00  0.00    -0.269 OA
BRANCH  39  42
ATOM     42  C   UNL A   1      37.710  30.123  29.952  1.00  0.00     0.039 A 
ATOM     43  C   UNL A   1      38.657  29.852  30.943  1.00  0.00     0.014 A 
ATOM     44  C   UNL A   1      38.091  30.140  28.607  1.00  0.00     0.014 A 
ATOM     45  C   UNL A   1      39.969  29.533  30.582  1.00  0.00     0.010 A 
ATOM     46  C   UNL A   1      39.381  29.754  28.246  1.00  0.00     0.010 A 
ATOM     47  C   UNL A   1      40.334  29.450  29.229  1.00  0.00    -0.014 A 
BRANCH  47  48
ATOM     48  C   UNL A   1      41.703  29.033  28.826  1.00  0.00     0.031 A 
ATOM     49  C   UNL A   1      42.816  30.044  28.754  1.00  0.00     0.074 A 
ATOM     50  C   UNL A   1      41.928  27.757  28.456  1.00  0.00     0.049 A 
ATOM     51  N   UNL A   1      44.057  29.881  28.370  1.00  0.00    -0.248 NA
ATOM     52  C   UNL A   1      42.486  31.424  29.142  1.00  0.00     0.031 C 
ATOM     53  C   UNL A   1      40.917  26.697  28.421  1.00  0.00     0.029 A 
ATOM     54  N   UNL A   1      43.073  27.136  28.024  1.00  0.00    -0.354 N 
ATOM     55  C   UNL A   1      44.647  31.137  28.448  1.00  0.00     0.074 A 
ATOM     56  C   UNL A   1      43.618  32.060  28.875  1.00  0.00     0.031 C 
ATOM     57  C   UNL A   1      41.490  25.556  28.006  1.00  0.00     0.029 A 
ATOM     58  C   UNL A   1      42.898  25.808  27.713  1.00  0.00     0.049 A 
ATOM     59  H   UNL A   1      43.939  27.598  27.943  1.00  0.00     0.167 HD
ATOM     60  C   UNL A   1      45.935  31.484  28.206  1.00  0.00     0.037 A 
ATOM     61  C   UNL A   1      43.769  24.896  27.238  1.00  0.00     0.037 A 
ATOM     62  C   UNL A   1      46.961  30.556  27.810  1.00  0.00     0.049 A 
ATOM     63  C   UNL A   1      45.199  25.299  27.004  1.00  0.00     0.074 A 
ATOM     64  C   UNL A   1      48.311  30.796  27.616  1.00  0.00     0.029 A 
ATOM     65  N   UNL A   1      46.754  29.210  27.544  1.00  0.00    -0.354 N 
ATOM     66  N   UNL A   1      45.759  26.475  27.159  1.00  0.00    -0.248 NA
ATOM     67  C   UNL A   1      46.117  24.250  26.540  1.00  0.00     0.031 C 
ATOM     68  C   UNL A   1      48.911  29.605  27.192  1.00  0.00     0.029 A 
ATOM     69  C   UNL A   1      47.946  28.611  27.168  1.00  0.00     0.049 A 
ATOM     70  H   UNL A   1      45.887  28.748  27.612  1.00  0.00     0.167 HD
ATOM     71  C   UNL A   1      47.100  26.303  26.834  1.00  0.00     0.074 A 
ATOM     72  C   UNL A   1      47.269  24.907  26.486  1.00  0.00     0.031 C 
ATOM     73  C   UNL A   1      48.100  27.219  26.825  1.00  0.00     0.037 A 
BRANCH  60  74
ATOM     74  C   UNL A   1      46.305  32.934  28.363  1.00  0.00     0.058 A 
ATOM     75  C   UNL A   1      46.754  33.452  29.590  1.00  0.00     0.135 A 
ATOM     76  C   UNL A   1      46.240  33.811  27.269  1.00  0.00     0.135 A 
ATOM     77  F   UNL A   1      46.825  32.663  30.673  1.00  0.00    -0.206 F 
ATOM     78  C   UNL A   1      47.090  34.795  29.733  1.00  0.00     0.059 A 
ATOM     79  C   UNL A   1      46.598  35.152  27.383  1.00  0.00     0.059 A 
ATOM     80  F   UNL A   1      45.820  33.370  26.073  1.00  0.00    -0.206 F 
ATOM     81  C   UNL A   1      47.005  35.638  28.625  1.00  0.00     0.060 A 
BRANCH  81  82
ATOM     82  S   UNL A   1      47.439  37.379  28.828  1.00  0.00     0.124 S 
ATOM     83  O   UNL A   1      46.775  37.698  30.088  1.00  0.00    -0.237 OA
ATOM     84  O   UNL A   1      48.896  37.335  28.874  1.00  0.00    -0.237 OA
ATOM     85  O   UNL A   1      46.870  38.012  27.642  1.00  0.00    -0.744 OA
ENDBRANCH  81  82
ENDBRANCH  60  74
BRANCH  61  86
ATOM     86  C   UNL A   1      43.312  23.506  26.977  1.00  0.00     0.058 A 
ATOM     87  C   UNL A   1      43.073  23.058  25.669  1.00  0.00     0.135 A 
ATOM     88  C   UNL A   1      43.132  22.591  28.025  1.00  0.00     0.135 A 
ATOM     89  F   UNL A   1      43.226  23.899  24.635  1.00  0.00    -0.206 F 
ATOM     90  C   UNL A   1      42.661  21.755  25.409  1.00  0.00     0.059 A 
ATOM     91  C   UNL A   1      42.744  21.275  27.788  1.00  0.00     0.059 A 
ATOM     92  F   UNL A   1      43.364  22.965  29.293  1.00  0.00    -0.206 F 
ATOM     93  C   UNL A   1      42.503  20.869  26.476  1.00  0.00     0.060 A 
BRANCH  93  94
ATOM     94  S   UNL A   1      42.029  19.163  26.122  1.00  0.00     0.124 S 
ATOM     95  O   UNL A   1      42.421  18.487  27.353  1.00  0.00    -0.237 OA
ATOM     96  O   UNL A   1      40.594  19.285  25.890  1.00  0.00    -0.237 OA
ATOM     97  O   UNL A   1      42.821  18.834  24.941  1.00  0.00    -0.744 OA
ENDBRANCH  93  94
ENDBRANCH  61  86
BRANCH  73  98
ATOM     98  C   UNL A   1      49.475  26.737  26.450  1.00  0.00     0.058 A 
ATOM     99  C   UNL A   1      50.321  26.124  27.388  1.00  0.00     0.135 A 
ATOM    100  C   UNL A   1      49.932  26.851  25.128  1.00  0.00     0.135 A 
ATOM    101  F   UNL A   1      49.935  25.996  28.667  1.00  0.00    -0.206 F 
ATOM    102  C   UNL A   1      51.584  25.663  27.030  1.00  0.00     0.059 A 
ATOM    103  C   UNL A   1      51.181  26.372  24.743  1.00  0.00     0.059 A 
ATOM    104  F   UNL A   1      49.157  27.419  24.191  1.00  0.00    -0.206 F 
ATOM    105  C   UNL A   1      52.005  25.792  25.706  1.00  0.00     0.060 A 
BRANCH 105 106
ATOM    106  S   UNL A   1      53.636  25.165  25.248  1.00  0.00     0.124 S 
ATOM    107  O   UNL A   1      53.780  25.683  23.892  1.00  0.00    -0.237 OA
ATOM    108  O   UNL A   1      54.500  25.774  26.255  1.00  0.00    -0.237 OA
ATOM    109  O   UNL A   1      53.486  23.716  25.355  1.00  0.00    -0.744 OA
ENDBRANCH 105 106
ENDBRANCH  73  98
ENDBRANCH  47  48
ENDBRANCH  39  42
ENDBRANCH  37  38
ENDBRANCH  36  37
ENDBRANCH   1  36
TORSDOF 18
ENDMDL
MODEL 2
REMARK VINA RESULT:     -13.0      0.587      7.825
REMARK SMILES [NH2+]=C1S[C@@H](C(=O)Nc2ccc(C(=O)NCCCCNC(=O)c3ccc(-c4c5nc(c(-c6c(F)cc(S(=O)(=O)[O-])cc6F)c6ccc([nH]6)c(-c6c(F)cc(S(=O)(=O)[O-])cc6F)c6nc(c(-c7c(F)cc(S(=O)(=O)[O-])cc7F)c7ccc4[nH]7)C=C6)C=C5)cc3)cc2)CC(=O)N1/N=C/c1ccc(Cl)cc1
REMARK SMILES IDX 16 1 15 2 14 3 12 4 13 5 11 7 8 8 9 9 89 10 10 11 88 12 7 13
REMARK SMILES IDX 5 14 6 15 4 17 1 18 2 19 3 22 93 23 91 24 90 25 92 26 94 27
REMARK SMILES IDX 95 28 96 29 97 30 102 31 98 32 101 33 99 34 100 35 17 36
REMARK SMILES IDX 18 37 19 38 20 39 21 41 22 42 23 43 87 44 24 45 86 46 25 47
REMARK SMILES IDX 26 48 27 49 80 50 28 51 85 52 79 53 81 54 29 55 84 56 78 57
REMARK SMILES IDX 77 58 30 60 64 61 43 62 63 63 44 64 47 65 62 66 82 67 45 68
REMARK SMILES IDX 46 69 61 71 83 72 48 73 31 74 32 75 41 76 33 77 34 78 40 79
REMARK SMILES IDX 42 80 35 81 36 82 37 83 38 84 39 85 65 86 66 87 75 88 67 89
REMARK SMILES IDX 68 90 74 91 76 92 69 93 70 94 71 95 72 96 73 97 49 98 50 99
REMARK SMILES IDX 59 100 51 101 52 102 58 103 60 104 53 105 54 106 55 107
REMARK SMILES IDX 56 108 57 109
REMARK H PARENT 14 6 7 16 1 20 1 21 19 40 81 59 47 70
REMARK Flexibility Score: inf
ROOT
ATOM      1  C   UNL A   1      33.266  30.033  27.061  1.00  0.00     0.023 C 
ENDROOT
BRANCH   1   2
ATOM      2  C   UNL A   1      32.511  29.299  25.957  1.00  0.00     0.116 C 
BRANCH   2   3
ATOM      3  N   UNL A   1      33.105  29.562  24.653  1.00  0.00    -0.352 N 
ATOM      4  C   UNL A   1      33.667  28.692  23.750  1.00  0.00     0.251 C 
ATOM      5  O   UNL A   1      33.914  29.074  22.613  1.00  0.00    -0.269 OA
ATOM      6  H   UNL A   1      33.104  30.507  24.377  1.00  0.00     0.163 HD
BRANCH   4   7
ATOM      7  C   UNL A   1      33.909  27.273  24.104  1.00  0.00     0.039 A 
ATOM      8  C   UNL A   1      34.137  24.562  24.712  1.00  0.00     0.041 A 
ATOM      9  C   UNL A   1      33.939  24.960  23.390  1.00  0.00     0.027 A 
ATOM     10  C   UNL A   1      34.356  25.515  25.705  1.00  0.00     0.027 A 
ATOM     11  C   UNL A   1      33.793  26.315  23.091  1.00  0.00     0.016 A 
ATOM     12  C   UNL A   1      34.266  26.874  25.395  1.00  0.00     0.016 A 
BRANCH   8  13
ATOM     13  N   UNL A   1      34.223  23.201  24.985  1.00  0.00    -0.325 N 
ATOM     14  C   UNL A   1      33.558  22.432  25.892  1.00  0.00     0.238 C 
ATOM     15  O   UNL A   1      34.100  21.370  26.228  1.00  0.00    -0.273 OA
ATOM     16  H   UNL A   1      34.873  22.711  24.431  1.00  0.00     0.169 HD
BRANCH  14  17
ATOM     17  C   UNL A   1      32.106  22.704  26.322  1.00  0.00     0.160 C 
ATOM     18  N   UNL A   1      30.774  23.419  22.832  1.00  0.00    -0.279 N 
ATOM     19  C   UNL A   1      30.843  23.592  24.109  1.00  0.00     0.338 C 
ATOM     20  H   UNL A   1      30.811  22.509  22.455  1.00  0.00     0.302 HD
ATOM     21  H   UNL A   1      30.684  24.195  22.234  1.00  0.00     0.302 HD
ATOM     22  S   UNL A   1      30.943  22.152  25.061  1.00  0.00    -0.022 SA
ATOM     23  N   UNL A   1      30.799  24.834  24.746  1.00  0.00    -0.057 N 
ATOM     24  C   UNL A   1      31.091  25.091  26.093  1.00  0.00     0.337 C 
ATOM     25  C   UNL A   1      31.690  24.000  26.954  1.00  0.00     0.155 C 
ATOM     26  O   UNL A   1      30.860  26.173  26.651  1.00  0.00    -0.244 OA
BRANCH  23  27
ATOM     27  N   UNL A   1      30.499  25.997  24.014  1.00  0.00    -0.082 NA
ATOM     28  C   UNL A   1      29.299  26.477  24.098  1.00  0.00     0.167 C 
BRANCH  28  29
ATOM     29  C   UNL A   1      28.931  27.742  23.433  1.00  0.00    -0.003 A 
ATOM     30  C   UNL A   1      29.953  28.476  22.823  1.00  0.00     0.011 A 
ATOM     31  C   UNL A   1      27.607  28.179  23.354  1.00  0.00     0.011 A 
ATOM     32  C   UNL A   1      29.642  29.631  22.101  1.00  0.00     0.021 A 
ATOM     33  C   UNL A   1      27.299  29.340  22.637  1.00  0.00     0.021 A 
ATOM     34  C   UNL A   1      28.317  30.055  22.007  1.00  0.00     0.041 A 
ATOM     35  Cl  UNL A   1      27.938  31.466  21.100  1.00  0.00    -0.084 Cl
ENDBRANCH  28  29
ENDBRANCH  23  27
ENDBRANCH  14  17
ENDBRANCH   8  13
ENDBRANCH   4   7
ENDBRANCH   2   3
ENDBRANCH   1   2
BRANCH   1  36
ATOM     36  C   UNL A   1      34.552  29.317  27.486  1.00  0.00     0.023 C 
BRANCH  36  37
ATOM     37  C   UNL A   1      35.596  30.234  28.124  1.00  0.00     0.116 C 
BRANCH  37  38
ATOM     38  N   UNL A   1      35.563  30.178  29.578  1.00  0.00    -0.352 N 
ATOM     39  C   UNL A   1      36.547  29.818  30.467  1.00  0.00     0.251 C 
ATOM     40  H   UNL A   1      34.706  30.437  29.987  1.00  0.00     0.163 HD
ATOM     41  O   UNL A   1      36.266  29.639  31.649  1.00  0.00    -0.269 OA
BRANCH  39  42
ATOM     42  C   UNL A   1      37.939  29.632  30.002  1.00  0.00     0.039 A 
ATOM     43  C   UNL A   1      38.867  29.040  30.864  1.00  0.00     0.014 A 
ATOM     44  C   UNL A   1      38.339  30.059  28.733  1.00  0.00     0.014 A 
ATOM     45  C   UNL A   1      40.176  28.817  30.428  1.00  0.00     0.010 A 
ATOM     46  C   UNL A   1      39.624  29.772  28.275  1.00  0.00     0.010 A 
ATOM     47  C   UNL A   1      40.557  29.151  29.119  1.00  0.00    -0.014 A 
BRANCH  47  48
ATOM     48  C   UNL A   1      41.921  28.847  28.613  1.00  0.00     0.031 A 
ATOM     49  C   UNL A   1      42.271  27.456  28.156  1.00  0.00     0.074 A 
ATOM     50  C   UNL A   1      42.867  29.807  28.634  1.00  0.00     0.049 A 
ATOM     51  N   UNL A   1      43.420  26.988  27.740  1.00  0.00    -0.248 NA
ATOM     52  C   UNL A   1      41.195  26.454  28.195  1.00  0.00     0.031 C 
ATOM     53  C   UNL A   1      42.670  31.177  29.113  1.00  0.00     0.029 A 
ATOM     54  N   UNL A   1      44.186  29.776  28.256  1.00  0.00    -0.354 N 
ATOM     55  C   UNL A   1      43.212  25.637  27.489  1.00  0.00     0.074 A 
ATOM     56  C   UNL A   1      41.838  25.350  27.841  1.00  0.00     0.031 C 
ATOM     57  C   UNL A   1      43.820  31.858  28.987  1.00  0.00     0.029 A 
ATOM     58  C   UNL A   1      44.845  30.966  28.449  1.00  0.00     0.049 A 
ATOM     59  H   UNL A   1      44.620  28.975  27.882  1.00  0.00     0.167 HD
ATOM     60  C   UNL A   1      44.082  24.724  26.991  1.00  0.00     0.037 A 
ATOM     61  C   UNL A   1      46.130  31.304  28.228  1.00  0.00     0.037 A 
ATOM     62  C   UNL A   1      45.438  25.022  26.614  1.00  0.00     0.049 A 
ATOM     63  C   UNL A   1      47.069  30.281  27.649  1.00  0.00     0.074 A 
ATOM     64  C   UNL A   1      46.373  24.185  26.029  1.00  0.00     0.029 A 
ATOM     65  N   UNL A   1      46.059  26.251  26.788  1.00  0.00    -0.354 N 
ATOM     66  N   UNL A   1      46.833  29.028  27.343  1.00  0.00    -0.248 NA
ATOM     67  C   UNL A   1      48.444  30.721  27.375  1.00  0.00     0.031 C 
ATOM     68  C   UNL A   1      47.570  24.896  25.887  1.00  0.00     0.029 A 
ATOM     69  C   UNL A   1      47.369  26.189  26.341  1.00  0.00     0.049 A 
ATOM     70  H   UNL A   1      45.631  27.050  27.173  1.00  0.00     0.167 HD
ATOM     71  C   UNL A   1      48.023  28.535  26.820  1.00  0.00     0.074 A 
ATOM     72  C   UNL A   1      48.973  29.629  26.839  1.00  0.00     0.031 C 
ATOM     73  C   UNL A   1      48.303  27.287  26.365  1.00  0.00     0.037 A 
BRANCH  60  74
ATOM     74  C   UNL A   1      43.588  23.312  26.824  1.00  0.00     0.058 A 
ATOM     75  C   UNL A   1      43.369  22.471  27.928  1.00  0.00     0.135 A 
ATOM     76  C   UNL A   1      43.300  22.802  25.548  1.00  0.00     0.135 A 
ATOM     77  F   UNL A   1      43.639  22.901  29.170  1.00  0.00    -0.206 F 
ATOM     78  C   UNL A   1      42.918  21.165  27.769  1.00  0.00     0.059 A 
ATOM     79  C   UNL A   1      42.821  21.507  25.368  1.00  0.00     0.059 A 
ATOM     80  F   UNL A   1      43.488  23.563  24.458  1.00  0.00    -0.206 F 
ATOM     81  C   UNL A   1      42.650  20.691  26.484  1.00  0.00     0.060 A 
BRANCH  81  82
ATOM     82  S   UNL A   1      42.071  18.991  26.294  1.00  0.00     0.124 S 
ATOM     83  O   UNL A   1      42.218  18.480  27.653  1.00  0.00    -0.237 OA
ATOM     84  O   UNL A   1      40.699  19.177  25.834  1.00  0.00    -0.237 OA
ATOM     85  O   UNL A   1      42.988  18.427  25.309  1.00  0.00    -0.744 OA
ENDBRANCH  81  82
ENDBRANCH  60  74
BRANCH  61  86
ATOM     86  C   UNL A   1      46.594  32.682  28.536  1.00  0.00     0.058 A 
ATOM     87  C   UNL A   1      47.100  33.008  29.803  1.00  0.00     0.135 A 
ATOM     88  C   UNL A   1      46.568  33.693  27.562  1.00  0.00     0.135 A 
ATOM     89  F   UNL A   1      47.141  32.077  30.768  1.00  0.00    -0.206 F 
ATOM     90  C   UNL A   1      47.554  34.289  30.099  1.00  0.00     0.059 A 
ATOM     91  C   UNL A   1      47.037  34.976  27.828  1.00  0.00     0.059 A 
ATOM     92  F   UNL A   1      46.109  33.428  26.329  1.00  0.00    -0.206 F 
ATOM     93  C   UNL A   1      47.522  35.266  29.102  1.00  0.00     0.060 A 
BRANCH  93  94
ATOM     94  S   UNL A   1      48.170  36.910  29.479  1.00  0.00     0.124 S 
ATOM     95  O   UNL A   1      49.207  37.056  28.465  1.00  0.00    -0.237 OA
ATOM     96  O   UNL A   1      46.990  37.751  29.313  1.00  0.00    -0.237 OA
ATOM     97  O   UNL A   1      48.645  36.774  30.853  1.00  0.00    -0.744 OA
ENDBRANCH  93  94
ENDBRANCH  61  86
BRANCH  73  98
ATOM     98  C   UNL A   1      49.686  27.044  25.826  1.00  0.00     0.058 A 
ATOM     99  C   UNL A   1      50.727  26.584  26.647  1.00  0.00     0.135 A 
ATOM    100  C   UNL A   1      49.960  27.232  24.461  1.00  0.00     0.135 A 
ATOM    101  F   UNL A   1      50.520  26.394  27.960  1.00  0.00    -0.206 F 
ATOM    102  C   UNL A   1      51.999  26.343  26.138  1.00  0.00     0.059 A 
ATOM    103  C   UNL A   1      51.217  26.971  23.926  1.00  0.00     0.059 A 
ATOM    104  F   UNL A   1      48.996  27.660  23.631  1.00  0.00    -0.206 F 
ATOM    105  C   UNL A   1      52.235  26.539  24.776  1.00  0.00     0.060 A 
BRANCH 105 106
ATOM    106  S   UNL A   1      53.882  26.197  24.122  1.00  0.00     0.124 S 
ATOM    107  O   UNL A   1      54.196  24.925  24.764  1.00  0.00    -0.237 OA
ATOM    108  O   UNL A   1      53.643  26.138  22.683  1.00  0.00    -0.237 OA
ATOM    109  O   UNL A   1      54.672  27.340  24.573  1.00  0.00    -0.744 OA
ENDBRANCH 105 106
ENDBRANCH  73  98
ENDBRANCH  47  48
ENDBRANCH  39  42
ENDBRANCH  37  38
ENDBRANCH  36  37
ENDBRANCH   1  36
TORSDOF 18
ENDMDL
MODEL 3
REMARK VINA RESULT:     -12.5      5.605      9.731
REMARK SMILES [NH2+]=C1S[C@@H](C(=O)Nc2ccc(C(=O)NCCCCNC(=O)c3ccc(-c4c5nc(c(-c6c(F)cc(S(=O)(=O)[O-])cc6F)c6ccc([nH]6)c(-c6c(F)cc(S(=O)(=O)[O-])cc6F)c6nc(c(-c7c(F)cc(S(=O)(=O)[O-])cc7F)c7ccc4[nH]7)C=C6)C=C5)cc3)cc2)CC(=O)N1/N=C/c1ccc(Cl)cc1
REMARK SMILES IDX 16 1 15 2 14 3 12 4 13 5 11 7 8 8 9 9 89 10 10 11 88 12 7 13
REMARK SMILES IDX 5 14 6 15 4 17 1 18 2 19 3 22 93 23 91 24 90 25 92 26 94 27
REMARK SMILES IDX 95 28 96 29 97 30 102 31 98 32 101 33 99 34 100 35 17 36
REMARK SMILES IDX 18 37 19 38 20 39 21 41 22 42 23 43 87 44 24 45 86 46 25 47
REMARK SMILES IDX 26 48 27 49 80 50 28 51 85 52 79 53 81 54 29 55 84 56 78 57
REMARK SMILES IDX 77 58 30 60 64 61 43 62 63 63 44 64 47 65 62 66 82 67 45 68
REMARK SMILES IDX 46 69 61 71 83 72 48 73 31 74 32 75 41 76 33 77 34 78 40 79
REMARK SMILES IDX 42 80 35 81 36 82 37 83 38 84 39 85 65 86 66 87 75 88 67 89
REMARK SMILES IDX 68 90 74 91 76 92 69 93 70 94 71 95 72 96 73 97 49 98 50 99
REMARK SMILES IDX 59 100 51 101 52 102 58 103 60 104 53 105 54 106 55 107
REMARK SMILES IDX 56 108 57 109
REMARK H PARENT 14 6 7 16 1 20 1 21 19 40 81 59 47 70
REMARK Flexibility Score: inf
ROOT
ATOM      1  C   UNL A   1      31.795  30.332  26.662  1.00  0.00     0.023 C 
ENDROOT
BRANCH   1   2
ATOM      2  C   UNL A   1      31.689  29.304  25.539  1.00  0.00     0.116 C 
BRANCH   2   3
ATOM      3  N   UNL A   1      32.573  29.645  24.433  1.00  0.00    -0.352 N 
ATOM      4  C   UNL A   1      33.441  28.851  23.722  1.00  0.00     0.251 C 
ATOM      5  O   UNL A   1      33.935  29.273  22.683  1.00  0.00    -0.269 OA
ATOM      6  H   UNL A   1      32.544  30.588  24.151  1.00  0.00     0.163 HD
BRANCH   4   7
ATOM      7  C   UNL A   1      33.730  27.463  24.149  1.00  0.00     0.039 A 
ATOM      8  C   UNL A   1      34.058  24.790  24.874  1.00  0.00     0.041 A 
ATOM      9  C   UNL A   1      33.963  25.134  23.526  1.00  0.00     0.027 A 
ATOM     10  C   UNL A   1      34.126  25.786  25.848  1.00  0.00     0.027 A 
ATOM     11  C   UNL A   1      33.767  26.468  23.166  1.00  0.00     0.016 A 
ATOM     12  C   UNL A   1      33.986  27.126  25.481  1.00  0.00     0.016 A 
BRANCH   8  13
ATOM     13  N   UNL A   1      34.197  23.447  25.204  1.00  0.00    -0.325 N 
ATOM     14  C   UNL A   1      33.501  22.669  26.081  1.00  0.00     0.238 C 
ATOM     15  O   UNL A   1      34.072  21.653  26.501  1.00  0.00    -0.273 OA
ATOM     16  H   UNL A   1      34.918  22.979  24.725  1.00  0.00     0.169 HD
BRANCH  14  17
ATOM     17  C   UNL A   1      32.005  22.868  26.378  1.00  0.00     0.160 C 
ATOM     18  N   UNL A   1      30.969  23.587  22.789  1.00  0.00    -0.279 N 
ATOM     19  C   UNL A   1      30.913  23.740  24.069  1.00  0.00     0.338 C 
ATOM     20  H   UNL A   1      31.083  22.688  22.405  1.00  0.00     0.302 HD
ATOM     21  H   UNL A   1      30.899  24.370  22.197  1.00  0.00     0.302 HD
ATOM     22  S   UNL A   1      30.990  22.288  25.006  1.00  0.00    -0.022 SA
ATOM     23  N   UNL A   1      30.752  24.967  24.717  1.00  0.00    -0.057 N 
ATOM     24  C   UNL A   1      30.906  25.211  26.089  1.00  0.00     0.337 C 
ATOM     25  C   UNL A   1      31.473  24.133  26.986  1.00  0.00     0.155 C 
ATOM     26  O   UNL A   1      30.575  26.272  26.638  1.00  0.00    -0.244 OA
BRANCH  23  27
ATOM     27  N   UNL A   1      30.467  26.129  23.978  1.00  0.00    -0.082 NA
ATOM     28  C   UNL A   1      29.245  26.554  23.958  1.00  0.00     0.167 C 
BRANCH  28  29
ATOM     29  C   UNL A   1      28.882  27.814  23.280  1.00  0.00    -0.003 A 
ATOM     30  C   UNL A   1      29.877  28.466  22.545  1.00  0.00     0.011 A 
ATOM     31  C   UNL A   1      27.583  28.324  23.311  1.00  0.00     0.011 A 
ATOM     32  C   UNL A   1      29.560  29.610  21.810  1.00  0.00     0.021 A 
ATOM     33  C   UNL A   1      27.269  29.474  22.579  1.00  0.00     0.021 A 
ATOM     34  C   UNL A   1      28.257  30.106  21.825  1.00  0.00     0.041 A 
ATOM     35  Cl  UNL A   1      27.867  31.503  20.902  1.00  0.00    -0.084 Cl
ENDBRANCH  28  29
ENDBRANCH  23  27
ENDBRANCH  14  17
ENDBRANCH   8  13
ENDBRANCH   4   7
ENDBRANCH   2   3
ENDBRANCH   1   2
BRANCH   1  36
ATOM     36  C   UNL A   1      33.127  30.264  27.415  1.00  0.00     0.023 C 
BRANCH  36  37
ATOM     37  C   UNL A   1      33.997  31.512  27.260  1.00  0.00     0.116 C 
BRANCH  37  38
ATOM     38  N   UNL A   1      33.324  32.714  27.730  1.00  0.00    -0.352 N 
ATOM     39  C   UNL A   1      33.614  33.521  28.803  1.00  0.00     0.251 C 
ATOM     40  H   UNL A   1      32.544  32.991  27.198  1.00  0.00     0.163 HD
ATOM     41  O   UNL A   1      32.808  34.377  29.159  1.00  0.00    -0.269 OA
BRANCH  39  42
ATOM     42  C   UNL A   1      34.885  33.351  29.542  1.00  0.00     0.039 A 
ATOM     43  C   UNL A   1      34.944  32.422  30.583  1.00  0.00     0.014 A 
ATOM     44  C   UNL A   1      36.009  34.121  29.228  1.00  0.00     0.014 A 
ATOM     45  C   UNL A   1      36.147  32.217  31.265  1.00  0.00     0.010 A 
ATOM     46  C   UNL A   1      37.224  33.867  29.861  1.00  0.00     0.010 A 
ATOM     47  C   UNL A   1      37.306  32.914  30.887  1.00  0.00    -0.014 A 
BRANCH  47  48
ATOM     48  C   UNL A   1      38.611  32.650  31.547  1.00  0.00     0.031 A 
ATOM     49  C   UNL A   1      39.619  31.736  30.903  1.00  0.00     0.074 A 
ATOM     50  C   UNL A   1      38.860  33.177  32.763  1.00  0.00     0.049 A 
ATOM     51  N   UNL A   1      40.783  31.342  31.354  1.00  0.00    -0.248 NA
ATOM     52  C   UNL A   1      39.262  31.172  29.593  1.00  0.00     0.031 C 
ATOM     53  C   UNL A   1      37.938  34.027  33.520  1.00  0.00     0.029 A 
ATOM     54  N   UNL A   1      39.955  33.066  33.582  1.00  0.00    -0.354 N 
ATOM     55  C   UNL A   1      41.286  30.470  30.396  1.00  0.00     0.074 A 
ATOM     56  C   UNL A   1      40.282  30.358  29.360  1.00  0.00     0.031 C 
ATOM     57  C   UNL A   1      38.511  34.371  34.684  1.00  0.00     0.029 A 
ATOM     58  C   UNL A   1      39.826  33.741  34.773  1.00  0.00     0.049 A 
ATOM     59  H   UNL A   1      40.758  32.549  33.341  1.00  0.00     0.167 HD
ATOM     60  C   UNL A   1      42.484  29.836  30.372  1.00  0.00     0.037 A 
ATOM     61  C   UNL A   1      40.666  33.839  35.822  1.00  0.00     0.037 A 
ATOM     62  C   UNL A   1      43.491  29.975  31.391  1.00  0.00     0.049 A 
ATOM     63  C   UNL A   1      42.001  33.149  35.760  1.00  0.00     0.074 A 
ATOM     64  C   UNL A   1      44.766  29.436  31.420  1.00  0.00     0.029 A 
ATOM     65  N   UNL A   1      43.339  30.700  32.564  1.00  0.00    -0.354 N 
ATOM     66  N   UNL A   1      42.493  32.391  34.810  1.00  0.00    -0.248 NA
ATOM     67  C   UNL A   1      42.899  33.335  36.908  1.00  0.00     0.031 C 
ATOM     68  C   UNL A   1      45.369  29.801  32.629  1.00  0.00     0.029 A 
ATOM     69  C   UNL A   1      44.488  30.606  33.333  1.00  0.00     0.049 A 
ATOM     70  H   UNL A   1      42.533  31.207  32.814  1.00  0.00     0.167 HD
ATOM     71  C   UNL A   1      43.766  32.028  35.234  1.00  0.00     0.074 A 
ATOM     72  C   UNL A   1      43.973  32.661  36.521  1.00  0.00     0.031 C 
ATOM     73  C   UNL A   1      44.681  31.242  34.613  1.00  0.00     0.037 A 
BRANCH  60  74
ATOM     74  C   UNL A   1      42.770  28.933  29.202  1.00  0.00     0.058 A 
ATOM     75  C   UNL A   1      43.269  29.434  27.988  1.00  0.00     0.135 A 
ATOM     76  C   UNL A   1      42.572  27.548  29.305  1.00  0.00     0.135 A 
ATOM     77  F   UNL A   1      43.466  30.752  27.830  1.00  0.00    -0.206 F 
ATOM     78  C   UNL A   1      43.527  28.597  26.907  1.00  0.00     0.059 A 
ATOM     79  C   UNL A   1      42.850  26.688  28.245  1.00  0.00     0.059 A 
ATOM     80  F   UNL A   1      42.100  27.014  30.442  1.00  0.00    -0.206 F 
ATOM     81  C   UNL A   1      43.310  27.226  27.044  1.00  0.00     0.060 A 
BRANCH  81  82
ATOM     82  S   UNL A   1      43.644  26.153  25.630  1.00  0.00     0.124 S 
ATOM     83  O   UNL A   1      42.454  26.370  24.814  1.00  0.00    -0.237 OA
ATOM     84  O   UNL A   1      44.884  26.710  25.100  1.00  0.00    -0.237 OA
ATOM     85  O   UNL A   1      43.761  24.827  26.229  1.00  0.00    -0.744 OA
ENDBRANCH  81  82
ENDBRANCH  60  74
BRANCH  61  86
ATOM     86  C   UNL A   1      40.272  34.641  37.010  1.00  0.00     0.058 A 
ATOM     87  C   UNL A   1      39.585  34.054  38.083  1.00  0.00     0.135 A 
ATOM     88  C   UNL A   1      40.599  36.002  37.108  1.00  0.00     0.135 A 
ATOM     89  F   UNL A   1      39.247  32.757  38.032  1.00  0.00    -0.206 F 
ATOM     90  C   UNL A   1      39.226  34.789  39.207  1.00  0.00     0.059 A 
ATOM     91  C   UNL A   1      40.271  36.753  38.233  1.00  0.00     0.059 A 
ATOM     92  F   UNL A   1      41.270  36.607  36.116  1.00  0.00    -0.206 F 
ATOM     93  C   UNL A   1      39.577  36.139  39.275  1.00  0.00     0.060 A 
BRANCH  93  94
ATOM     94  S   UNL A   1      39.160  37.069  40.766  1.00  0.00     0.124 S 
ATOM     95  O   UNL A   1      40.481  37.395  41.288  1.00  0.00    -0.237 OA
ATOM     96  O   UNL A   1      38.392  38.186  40.227  1.00  0.00    -0.237 OA
ATOM     97  O   UNL A   1      38.389  36.111  41.553  1.00  0.00    -0.744 OA
ENDBRANCH  93  94
ENDBRANCH  61  86
BRANCH  73  98
ATOM     98  C   UNL A   1      46.002  31.041  35.304  1.00  0.00     0.058 A 
ATOM     99  C   UNL A   1      47.083  31.913  35.096  1.00  0.00     0.135 A 
ATOM    100  C   UNL A   1      46.172  29.990  36.218  1.00  0.00     0.135 A 
ATOM    101  F   UNL A   1      46.974  32.930  34.227  1.00  0.00    -0.206 F 
ATOM    102  C   UNL A   1      48.295  31.733  35.753  1.00  0.00     0.059 A 
ATOM    103  C   UNL A   1      47.368  29.807  36.906  1.00  0.00     0.059 A 
ATOM    104  F   UNL A   1      45.166  29.135  36.461  1.00  0.00    -0.206 F 
ATOM    105  C   UNL A   1      48.429  30.677  36.656  1.00  0.00     0.060 A 
BRANCH 105 106
ATOM    106  S   UNL A   1      49.999  30.469  37.523  1.00  0.00     0.124 S 
ATOM    107  O   UNL A   1      49.782  31.274  38.721  1.00  0.00    -0.237 OA
ATOM    108  O   UNL A   1      50.053  29.025  37.732  1.00  0.00    -0.237 OA
ATOM    109  O   UNL A   1      50.981  30.996  36.580  1.00  0.00    -0.744 OA
ENDBRANCH 105 106
ENDBRANCH  73  98
ENDBRANCH  47  48
ENDBRANCH  39  42
ENDBRANCH  37  38
ENDBRANCH  36  37
ENDBRANCH   1  36
TORSDOF 18
ENDMDL
