MODEL 1
REMARK VINA RESULT:     -12.0      0.000      0.000
REMARK SMILES CCn1cc(C)c(C(=O)NCCCCNC(=O)c2ccc(-c3c4nc(c(-c5c(F)cc(S(=O)(=O)[O-])cc5F)c5ccc([nH]5)c(-c5c(F)cc(S(=O)(=O)[O-])cc5F)c5nc(c(-c6c(F)cc(S(=O)(=O)[O-])cc6F)c6ccc3[nH]6)C=C5)C=C4)cc2)c1CC(=O)N1CCc2ccccc21
REMARK SMILES IDX 12 1 11 2 10 3 8 4 9 5 7 7 3 8 4 9 84 10 5 11 6 12 2 13 1 14
REMARK SMILES IDX 85 15 86 16 87 17 88 18 89 19 96 20 90 21 91 22 95 23 92 24
REMARK SMILES IDX 94 25 93 26 13 27 14 28 15 29 16 30 17 32 18 33 19 34 83 35
REMARK SMILES IDX 20 36 82 37 21 38 22 39 23 40 76 41 24 42 81 43 75 44 77 45
REMARK SMILES IDX 25 46 80 47 74 48 73 49 26 51 60 52 39 53 59 54 40 55 43 56
REMARK SMILES IDX 58 57 78 58 41 59 42 60 57 62 79 63 44 64 27 65 28 66 37 67
REMARK SMILES IDX 29 68 30 69 36 70 38 71 31 72 32 73 33 74 34 75 35 76 61 77
REMARK SMILES IDX 62 78 71 79 63 80 64 81 70 82 72 83 65 84 66 85 67 86 68 87
REMARK SMILES IDX 69 88 45 89 46 90 55 91 47 92 48 93 54 94 56 95 49 96 50 97
REMARK SMILES IDX 51 98 52 99 53 100
REMARK H PARENT 10 6 15 31 77 50 43 61
REMARK Flexibility Score: inf
ROOT
ATOM      1  C   UNL A   1      38.741  23.640  26.674  1.00  0.00     0.023 C 
ENDROOT
BRANCH   1   2
ATOM      2  C   UNL A   1      37.471  23.954  25.822  1.00  0.00     0.116 C 
BRANCH   2   3
ATOM      3  N   UNL A   1      37.300  23.493  24.441  1.00  0.00    -0.352 N 
ATOM      4  C   UNL A   1      36.257  23.041  23.633  1.00  0.00     0.253 C 
ATOM      5  O   UNL A   1      36.464  23.084  22.417  1.00  0.00    -0.269 OA
ATOM      6  H   UNL A   1      38.153  23.508  23.950  1.00  0.00     0.163 HD
BRANCH   4   7
ATOM      7  C   UNL A   1      34.978  22.555  24.154  1.00  0.00     0.064 A 
ATOM      8  N   UNL A   1      32.832  22.465  24.622  1.00  0.00    -0.350 N 
ATOM      9  C   UNL A   1      33.308  21.233  24.970  1.00  0.00     0.090 A 
ATOM     10  C   UNL A   1      33.909  23.320  24.604  1.00  0.00     0.040 A 
ATOM     11  C   UNL A   1      34.685  21.295  24.822  1.00  0.00    -0.020 A 
ATOM     12  C   UNL A   1      35.651  20.311  25.390  1.00  0.00     0.047 C 
BRANCH   8  13
ATOM     13  C   UNL A   1      31.436  22.808  24.432  1.00  0.00     0.118 C 
ATOM     14  C   UNL A   1      31.185  23.362  23.037  1.00  0.00     0.027 C 
ENDBRANCH   8  13
BRANCH  10  15
ATOM     15  C   UNL A   1      33.957  24.639  25.312  1.00  0.00     0.155 C 
BRANCH  15  16
ATOM     16  C   UNL A   1      33.562  25.778  24.318  1.00  0.00     0.232 C 
ATOM     17  O   UNL A   1      34.069  25.865  23.198  1.00  0.00    -0.274 OA
BRANCH  16  18
ATOM     18  N   UNL A   1      32.764  26.790  24.809  1.00  0.00    -0.311 N 
ATOM     19  C   UNL A   1      31.316  26.565  24.903  1.00  0.00     0.130 C 
ATOM     20  C   UNL A   1      33.094  27.711  25.852  1.00  0.00     0.047 A 
ATOM     21  C   UNL A   1      30.951  26.914  26.348  1.00  0.00     0.059 C 
ATOM     22  C   UNL A   1      31.947  27.998  26.591  1.00  0.00    -0.022 A 
ATOM     23  C   UNL A   1      34.227  28.484  26.038  1.00  0.00     0.026 A 
ATOM     24  C   UNL A   1      31.851  29.123  27.396  1.00  0.00     0.006 A 
ATOM     25  C   UNL A   1      34.119  29.682  26.764  1.00  0.00     0.002 A 
ATOM     26  C   UNL A   1      32.927  30.010  27.421  1.00  0.00     0.000 A 
ENDBRANCH  16  18
ENDBRANCH  15  16
ENDBRANCH  10  15
ENDBRANCH   4   7
ENDBRANCH   2   3
ENDBRANCH   1   2
BRANCH   1  27
ATOM     27  C   UNL A   1      39.617  22.382  26.603  1.00  0.00     0.023 C 
BRANCH  27  28
ATOM     28  C   UNL A   1      40.890  22.336  27.406  1.00  0.00     0.116 C 
BRANCH  28  29
ATOM     29  N   UNL A   1      42.070  22.250  26.542  1.00  0.00    -0.352 N 
ATOM     30  C   UNL A   1      42.648  23.269  25.805  1.00  0.00     0.251 C 
ATOM     31  H   UNL A   1      42.501  21.368  26.479  1.00  0.00     0.163 HD
ATOM     32  O   UNL A   1      43.284  23.038  24.796  1.00  0.00    -0.269 OA
BRANCH  30  33
ATOM     33  C   UNL A   1      42.471  24.638  26.311  1.00  0.00     0.039 A 
ATOM     34  C   UNL A   1      41.592  25.546  25.721  1.00  0.00     0.014 A 
ATOM     35  C   UNL A   1      43.183  24.961  27.462  1.00  0.00     0.014 A 
ATOM     36  C   UNL A   1      41.415  26.777  26.341  1.00  0.00     0.010 A 
ATOM     37  C   UNL A   1      42.800  26.036  28.199  1.00  0.00     0.010 A 
ATOM     38  C   UNL A   1      42.027  27.002  27.585  1.00  0.00    -0.014 A 
BRANCH  38  39
ATOM     39  C   UNL A   1      41.848  28.232  28.329  1.00  0.00     0.031 A 
ATOM     40  C   UNL A   1      42.907  29.231  28.085  1.00  0.00     0.074 A 
ATOM     41  C   UNL A   1      40.711  28.487  29.013  1.00  0.00     0.049 A 
ATOM     42  N   UNL A   1      43.893  29.505  28.870  1.00  0.00    -0.248 NA
ATOM     43  C   UNL A   1      43.029  29.831  26.747  1.00  0.00     0.031 C 
ATOM     44  C   UNL A   1      39.479  27.688  29.091  1.00  0.00     0.029 A 
ATOM     45  N   UNL A   1      40.385  29.592  29.726  1.00  0.00    -0.354 N 
ATOM     46  C   UNL A   1      44.595  30.524  28.244  1.00  0.00     0.074 A 
ATOM     47  C   UNL A   1      44.181  30.499  26.867  1.00  0.00     0.031 C 
ATOM     48  C   UNL A   1      38.481  28.436  29.610  1.00  0.00     0.029 A 
ATOM     49  C   UNL A   1      39.036  29.698  30.057  1.00  0.00     0.049 A 
ATOM     50  H   UNL A   1      41.050  30.268  29.990  1.00  0.00     0.167 HD
ATOM     51  C   UNL A   1      45.234  31.473  28.983  1.00  0.00     0.037 A 
ATOM     52  C   UNL A   1      38.435  30.767  30.640  1.00  0.00     0.037 A 
ATOM     53  C   UNL A   1      45.304  31.075  30.372  1.00  0.00     0.049 A 
ATOM     54  C   UNL A   1      39.516  31.533  31.324  1.00  0.00     0.074 A 
ATOM     55  C   UNL A   1      45.841  29.987  31.037  1.00  0.00     0.029 A 
ATOM     56  N   UNL A   1      44.386  31.629  31.236  1.00  0.00    -0.354 N 
ATOM     57  N   UNL A   1      40.181  31.067  32.349  1.00  0.00    -0.248 NA
ATOM     58  C   UNL A   1      40.203  32.566  30.561  1.00  0.00     0.031 C 
ATOM     59  C   UNL A   1      44.887  29.664  32.047  1.00  0.00     0.029 A 
ATOM     60  C   UNL A   1      43.871  30.620  32.013  1.00  0.00     0.049 A 
ATOM     61  H   UNL A   1      44.142  32.582  31.287  1.00  0.00     0.167 HD
ATOM     62  C   UNL A   1      41.505  31.405  32.100  1.00  0.00     0.074 A 
ATOM     63  C   UNL A   1      41.446  32.400  31.029  1.00  0.00     0.031 C 
ATOM     64  C   UNL A   1      42.531  30.628  32.563  1.00  0.00     0.037 A 
BRANCH  51  65
ATOM     65  C   UNL A   1      45.439  32.905  28.554  1.00  0.00     0.058 A 
ATOM     66  C   UNL A   1      46.745  33.437  28.571  1.00  0.00     0.135 A 
ATOM     67  C   UNL A   1      44.400  33.848  28.391  1.00  0.00     0.135 A 
ATOM     68  F   UNL A   1      47.810  32.631  28.717  1.00  0.00    -0.206 F 
ATOM     69  C   UNL A   1      46.995  34.807  28.516  1.00  0.00     0.059 A 
ATOM     70  C   UNL A   1      44.630  35.213  28.279  1.00  0.00     0.059 A 
ATOM     71  F   UNL A   1      43.107  33.510  28.430  1.00  0.00    -0.206 F 
ATOM     72  C   UNL A   1      45.926  35.688  28.386  1.00  0.00     0.060 A 
BRANCH  72  73
ATOM     73  S   UNL A   1      46.237  37.460  28.412  1.00  0.00     0.124 S 
ATOM     74  O   UNL A   1      45.553  37.855  29.639  1.00  0.00    -0.237 OA
ATOM     75  O   UNL A   1      47.695  37.507  28.448  1.00  0.00    -0.237 OA
ATOM     76  O   UNL A   1      45.629  37.925  27.170  1.00  0.00    -0.744 OA
ENDBRANCH  72  73
ENDBRANCH  51  65
BRANCH  52  77
ATOM     77  C   UNL A   1      37.094  31.342  30.337  1.00  0.00     0.058 A 
ATOM     78  C   UNL A   1      36.296  31.893  31.358  1.00  0.00     0.135 A 
ATOM     79  C   UNL A   1      36.692  31.634  29.017  1.00  0.00     0.135 A 
ATOM     80  F   UNL A   1      36.599  31.669  32.646  1.00  0.00    -0.206 F 
ATOM     81  C   UNL A   1      35.220  32.748  31.089  1.00  0.00     0.059 A 
ATOM     82  C   UNL A   1      35.619  32.476  28.725  1.00  0.00     0.059 A 
ATOM     83  F   UNL A   1      37.391  31.190  27.963  1.00  0.00    -0.206 F 
ATOM     84  C   UNL A   1      34.909  33.059  29.766  1.00  0.00     0.060 A 
BRANCH  84  85
ATOM     85  S   UNL A   1      33.681  34.340  29.414  1.00  0.00     0.124 S 
ATOM     86  O   UNL A   1      34.472  35.326  28.687  1.00  0.00    -0.237 OA
ATOM     87  O   UNL A   1      32.690  33.611  28.626  1.00  0.00    -0.237 OA
ATOM     88  O   UNL A   1      33.232  34.753  30.741  1.00  0.00    -0.744 OA
ENDBRANCH  84  85
ENDBRANCH  52  77
BRANCH  64  89
ATOM     89  C   UNL A   1      42.207  29.559  33.582  1.00  0.00     0.058 A 
ATOM     90  C   UNL A   1      41.816  28.243  33.271  1.00  0.00     0.135 A 
ATOM     91  C   UNL A   1      42.430  29.848  34.937  1.00  0.00     0.135 A 
ATOM     92  F   UNL A   1      41.694  27.841  32.000  1.00  0.00    -0.206 F 
ATOM     93  C   UNL A   1      41.591  27.283  34.262  1.00  0.00     0.059 A 
ATOM     94  C   UNL A   1      42.247  28.898  35.938  1.00  0.00     0.059 A 
ATOM     95  F   UNL A   1      42.875  31.062  35.300  1.00  0.00    -0.206 F 
ATOM     96  C   UNL A   1      41.802  27.623  35.596  1.00  0.00     0.060 A 
BRANCH  96  97
ATOM     97  S   UNL A   1      41.536  26.379  36.876  1.00  0.00     0.124 S 
ATOM     98  O   UNL A   1      42.771  26.468  37.649  1.00  0.00    -0.237 OA
ATOM     99  O   UNL A   1      40.332  26.862  37.547  1.00  0.00    -0.237 OA
ATOM    100  O   UNL A   1      41.362  25.142  36.119  1.00  0.00    -0.744 OA
ENDBRANCH  96  97
ENDBRANCH  64  89
ENDBRANCH  38  39
ENDBRANCH  30  33
ENDBRANCH  28  29
ENDBRANCH  27  28
ENDBRANCH   1  27
TORSDOF 18
ENDMDL
MODEL 2
REMARK VINA RESULT:     -11.7      1.466      2.353
REMARK SMILES CCn1cc(C)c(C(=O)NCCCCNC(=O)c2ccc(-c3c4nc(c(-c5c(F)cc(S(=O)(=O)[O-])cc5F)c5ccc([nH]5)c(-c5c(F)cc(S(=O)(=O)[O-])cc5F)c5nc(c(-c6c(F)cc(S(=O)(=O)[O-])cc6F)c6ccc3[nH]6)C=C5)C=C4)cc2)c1CC(=O)N1CCc2ccccc21
REMARK SMILES IDX 12 1 11 2 10 3 8 4 9 5 7 7 3 8 4 9 84 10 5 11 6 12 2 13 1 14
REMARK SMILES IDX 85 15 86 16 87 17 88 18 89 19 96 20 90 21 91 22 95 23 92 24
REMARK SMILES IDX 94 25 93 26 13 27 14 28 15 29 16 30 17 32 18 33 19 34 83 35
REMARK SMILES IDX 20 36 82 37 21 38 22 39 23 40 76 41 24 42 81 43 75 44 77 45
REMARK SMILES IDX 25 46 80 47 74 48 73 49 26 51 60 52 39 53 59 54 40 55 43 56
REMARK SMILES IDX 58 57 78 58 41 59 42 60 57 62 79 63 44 64 27 65 28 66 37 67
REMARK SMILES IDX 29 68 30 69 36 70 38 71 31 72 32 73 33 74 34 75 35 76 61 77
REMARK SMILES IDX 62 78 71 79 63 80 64 81 70 82 72 83 65 84 66 85 67 86 68 87
REMARK SMILES IDX 69 88 45 89 46 90 55 91 47 92 48 93 54 94 56 95 49 96 50 97
REMARK SMILES IDX 51 98 52 99 53 100
REMARK H PARENT 10 6 15 31 77 50 43 61
REMARK Flexibility Score: inf
ROOT
ATOM      1  C   UNL A   1      38.563  22.848  25.955  1.00  0.00     0.023 C 
ENDROOT
BRANCH   1   2
ATOM      2  C   UNL A   1      37.073  23.152  25.603  1.00  0.00     0.116 C 
BRANCH   2   3
ATOM      3  N   UNL A   1      35.988  23.083  26.586  1.00  0.00    -0.352 N 
ATOM      4  C   UNL A   1      34.594  23.120  26.579  1.00  0.00     0.253 C 
ATOM      5  O   UNL A   1      34.041  22.676  27.589  1.00  0.00    -0.269 OA
ATOM      6  H   UNL A   1      36.339  22.984  27.500  1.00  0.00     0.163 HD
BRANCH   4   7
ATOM      7  C   UNL A   1      33.800  23.626  25.457  1.00  0.00     0.064 A 
ATOM      8  N   UNL A   1      33.142  24.909  23.799  1.00  0.00    -0.350 N 
ATOM      9  C   UNL A   1      32.352  23.799  23.704  1.00  0.00     0.090 A 
ATOM     10  C   UNL A   1      33.619  24.953  25.088  1.00  0.00     0.040 A 
ATOM     11  C   UNL A   1      32.638  23.025  24.817  1.00  0.00    -0.020 A 
ATOM     12  C   UNL A   1      31.800  21.895  25.312  1.00  0.00     0.047 C 
BRANCH   8  13
ATOM     13  C   UNL A   1      33.328  25.904  22.760  1.00  0.00     0.118 C 
ATOM     14  C   UNL A   1      32.703  25.458  21.446  1.00  0.00     0.027 C 
ENDBRANCH   8  13
BRANCH  10  15
ATOM     15  C   UNL A   1      33.542  26.153  25.980  1.00  0.00     0.155 C 
BRANCH  15  16
ATOM     16  C   UNL A   1      32.073  26.343  26.472  1.00  0.00     0.232 C 
ATOM     17  O   UNL A   1      31.465  25.447  27.061  1.00  0.00    -0.274 OA
BRANCH  16  18
ATOM     18  N   UNL A   1      31.416  27.485  26.061  1.00  0.00    -0.311 N 
ATOM     19  C   UNL A   1      31.940  28.791  26.478  1.00  0.00     0.130 C 
ATOM     20  C   UNL A   1      30.774  27.695  24.799  1.00  0.00     0.047 A 
ATOM     21  C   UNL A   1      32.085  29.595  25.183  1.00  0.00     0.059 C 
ATOM     22  C   UNL A   1      30.938  29.027  24.419  1.00  0.00    -0.022 A 
ATOM     23  C   UNL A   1      29.876  26.901  24.109  1.00  0.00     0.026 A 
ATOM     24  C   UNL A   1      30.123  29.627  23.471  1.00  0.00     0.006 A 
ATOM     25  C   UNL A   1      28.974  27.512  23.223  1.00  0.00     0.002 A 
ATOM     26  C   UNL A   1      29.083  28.875  22.924  1.00  0.00     0.000 A 
ENDBRANCH  16  18
ENDBRANCH  15  16
ENDBRANCH  10  15
ENDBRANCH   4   7
ENDBRANCH   2   3
ENDBRANCH   1   2
BRANCH   1  27
ATOM     27  C   UNL A   1      39.219  21.467  26.095  1.00  0.00     0.023 C 
BRANCH  27  28
ATOM     28  C   UNL A   1      40.423  21.321  26.989  1.00  0.00     0.116 C 
BRANCH  28  29
ATOM     29  N   UNL A   1      41.671  21.354  26.223  1.00  0.00    -0.352 N 
ATOM     30  C   UNL A   1      42.391  22.471  25.838  1.00  0.00     0.251 C 
ATOM     31  H   UNL A   1      42.039  20.483  25.951  1.00  0.00     0.163 HD
ATOM     32  O   UNL A   1      43.104  22.457  24.853  1.00  0.00    -0.269 OA
BRANCH  30  33
ATOM     33  C   UNL A   1      42.269  23.666  26.687  1.00  0.00     0.039 A 
ATOM     34  C   UNL A   1      42.933  23.786  27.908  1.00  0.00     0.014 A 
ATOM     35  C   UNL A   1      41.505  24.707  26.172  1.00  0.00     0.014 A 
ATOM     36  C   UNL A   1      42.841  24.997  28.582  1.00  0.00     0.010 A 
ATOM     37  C   UNL A   1      41.649  25.954  26.690  1.00  0.00     0.010 A 
ATOM     38  C   UNL A   1      42.196  26.074  27.952  1.00  0.00    -0.014 A 
BRANCH  38  39
ATOM     39  C   UNL A   1      42.107  27.388  28.556  1.00  0.00     0.031 A 
ATOM     40  C   UNL A   1      43.188  28.304  28.141  1.00  0.00     0.074 A 
ATOM     41  C   UNL A   1      41.022  27.770  29.264  1.00  0.00     0.049 A 
ATOM     42  N   UNL A   1      44.227  28.623  28.836  1.00  0.00    -0.248 NA
ATOM     43  C   UNL A   1      43.256  28.741  26.738  1.00  0.00     0.031 C 
ATOM     44  C   UNL A   1      39.767  27.041  29.499  1.00  0.00     0.029 A 
ATOM     45  N   UNL A   1      40.780  28.963  29.859  1.00  0.00    -0.354 N 
ATOM     46  C   UNL A   1      44.931  29.530  28.060  1.00  0.00     0.074 A 
ATOM     47  C   UNL A   1      44.437  29.367  26.718  1.00  0.00     0.031 C 
ATOM     48  C   UNL A   1      38.830  27.887  29.979  1.00  0.00     0.029 A 
ATOM     49  C   UNL A   1      39.457  29.166  30.246  1.00  0.00     0.049 A 
ATOM     50  H   UNL A   1      41.484  29.634  30.007  1.00  0.00     0.167 HD
ATOM     51  C   UNL A   1      45.647  30.529  28.648  1.00  0.00     0.037 A 
ATOM     52  C   UNL A   1      38.931  30.321  30.731  1.00  0.00     0.037 A 
ATOM     53  C   UNL A   1      45.781  30.289  30.069  1.00  0.00     0.049 A 
ATOM     54  C   UNL A   1      40.079  31.111  31.263  1.00  0.00     0.074 A 
ATOM     55  C   UNL A   1      46.313  29.262  30.827  1.00  0.00     0.029 A 
ATOM     56  N   UNL A   1      44.935  30.979  30.908  1.00  0.00    -0.354 N 
ATOM     57  N   UNL A   1      40.783  30.736  32.299  1.00  0.00    -0.248 NA
ATOM     58  C   UNL A   1      40.760  32.018  30.350  1.00  0.00     0.031 C 
ATOM     59  C   UNL A   1      45.407  29.099  31.916  1.00  0.00     0.029 A 
ATOM     60  C   UNL A   1      44.428  30.090  31.824  1.00  0.00     0.049 A 
ATOM     61  H   UNL A   1      44.731  31.941  30.861  1.00  0.00     0.167 HD
ATOM     62  C   UNL A   1      42.103  30.984  31.943  1.00  0.00     0.074 A 
ATOM     63  C   UNL A   1      42.020  31.851  30.768  1.00  0.00     0.031 C 
ATOM     64  C   UNL A   1      43.123  30.220  32.439  1.00  0.00     0.037 A 
BRANCH  51  65
ATOM     65  C   UNL A   1      45.881  31.892  28.045  1.00  0.00     0.058 A 
ATOM     66  C   UNL A   1      47.206  32.362  27.930  1.00  0.00     0.135 A 
ATOM     67  C   UNL A   1      44.872  32.856  27.828  1.00  0.00     0.135 A 
ATOM     68  F   UNL A   1      48.245  31.531  28.111  1.00  0.00    -0.206 F 
ATOM     69  C   UNL A   1      47.504  33.704  27.702  1.00  0.00     0.059 A 
ATOM     70  C   UNL A   1      45.147  34.187  27.546  1.00  0.00     0.059 A 
ATOM     71  F   UNL A   1      43.571  32.583  27.975  1.00  0.00    -0.206 F 
ATOM     72  C   UNL A   1      46.464  34.612  27.527  1.00  0.00     0.060 A 
BRANCH  72  73
ATOM     73  S   UNL A   1      46.844  36.360  27.330  1.00  0.00     0.124 S 
ATOM     74  O   UNL A   1      47.878  36.317  26.301  1.00  0.00    -0.237 OA
ATOM     75  O   UNL A   1      45.554  36.902  26.919  1.00  0.00    -0.237 OA
ATOM     76  O   UNL A   1      47.292  36.757  28.661  1.00  0.00    -0.744 OA
ENDBRANCH  72  73
ENDBRANCH  51  65
BRANCH  52  77
ATOM     77  C   UNL A   1      37.598  30.916  30.433  1.00  0.00     0.058 A 
ATOM     78  C   UNL A   1      36.846  31.546  31.443  1.00  0.00     0.135 A 
ATOM     79  C   UNL A   1      37.165  31.146  29.111  1.00  0.00     0.135 A 
ATOM     80  F   UNL A   1      37.181  31.386  32.733  1.00  0.00    -0.206 F 
ATOM     81  C   UNL A   1      35.787  32.416  31.156  1.00  0.00     0.059 A 
ATOM     82  C   UNL A   1      36.107  32.001  28.801  1.00  0.00     0.059 A 
ATOM     83  F   UNL A   1      37.821  30.623  28.064  1.00  0.00    -0.206 F 
ATOM     84  C   UNL A   1      35.445  32.661  29.827  1.00  0.00     0.060 A 
BRANCH  84  85
ATOM     85  S   UNL A   1      34.242  33.956  29.438  1.00  0.00     0.124 S 
ATOM     86  O   UNL A   1      33.688  34.260  30.752  1.00  0.00    -0.237 OA
ATOM     87  O   UNL A   1      35.084  34.991  28.845  1.00  0.00    -0.237 OA
ATOM     88  O   UNL A   1      33.326  33.299  28.510  1.00  0.00    -0.744 OA
ENDBRANCH  84  85
ENDBRANCH  52  77
BRANCH  64  89
ATOM     89  C   UNL A   1      42.818  29.290  33.592  1.00  0.00     0.058 A 
ATOM     90  C   UNL A   1      42.710  29.685  34.938  1.00  0.00     0.135 A 
ATOM     91  C   UNL A   1      42.492  27.958  33.296  1.00  0.00     0.135 A 
ATOM     92  F   UNL A   1      42.885  30.963  35.299  1.00  0.00    -0.206 F 
ATOM     93  C   UNL A   1      42.363  28.786  35.950  1.00  0.00     0.059 A 
ATOM     94  C   UNL A   1      42.109  27.052  34.283  1.00  0.00     0.059 A 
ATOM     95  F   UNL A   1      42.502  27.530  32.024  1.00  0.00    -0.206 F 
ATOM     96  C   UNL A   1      42.072  27.466  35.612  1.00  0.00     0.060 A 
BRANCH  96  97
ATOM     97  S   UNL A   1      41.599  26.307  36.912  1.00  0.00     0.124 S 
ATOM     98  O   UNL A   1      41.407  25.070  36.163  1.00  0.00    -0.237 OA
ATOM     99  O   UNL A   1      42.756  26.335  37.802  1.00  0.00    -0.237 OA
ATOM    100  O   UNL A   1      40.382  26.895  37.468  1.00  0.00    -0.744 OA
ENDBRANCH  96  97
ENDBRANCH  64  89
ENDBRANCH  38  39
ENDBRANCH  30  33
ENDBRANCH  28  29
ENDBRANCH  27  28
ENDBRANCH   1  27
TORSDOF 18
ENDMDL
MODEL 3
REMARK VINA RESULT:     -11.7      2.747      9.230
REMARK SMILES CCn1cc(C)c(C(=O)NCCCCNC(=O)c2ccc(-c3c4nc(c(-c5c(F)cc(S(=O)(=O)[O-])cc5F)c5ccc([nH]5)c(-c5c(F)cc(S(=O)(=O)[O-])cc5F)c5nc(c(-c6c(F)cc(S(=O)(=O)[O-])cc6F)c6ccc3[nH]6)C=C5)C=C4)cc2)c1CC(=O)N1CCc2ccccc21
REMARK SMILES IDX 12 1 11 2 10 3 8 4 9 5 7 7 3 8 4 9 84 10 5 11 6 12 2 13 1 14
REMARK SMILES IDX 85 15 86 16 87 17 88 18 89 19 96 20 90 21 91 22 95 23 92 24
REMARK SMILES IDX 94 25 93 26 13 27 14 28 15 29 16 30 17 32 18 33 19 34 83 35
REMARK SMILES IDX 20 36 82 37 21 38 22 39 23 40 76 41 24 42 81 43 75 44 77 45
REMARK SMILES IDX 25 46 80 47 74 48 73 49 26 51 60 52 39 53 59 54 40 55 43 56
REMARK SMILES IDX 58 57 78 58 41 59 42 60 57 62 79 63 44 64 27 65 28 66 37 67
REMARK SMILES IDX 29 68 30 69 36 70 38 71 31 72 32 73 33 74 34 75 35 76 61 77
REMARK SMILES IDX 62 78 71 79 63 80 64 81 70 82 72 83 65 84 66 85 67 86 68 87
REMARK SMILES IDX 69 88 45 89 46 90 55 91 47 92 48 93 54 94 56 95 49 96 50 97
REMARK SMILES IDX 51 98 52 99 53 100
REMARK H PARENT 10 6 15 31 77 50 43 61
REMARK Flexibility Score: inf
ROOT
ATOM      1  C   UNL A   1      32.361  28.997  26.150  1.00  0.00     0.023 C 
ENDROOT
BRANCH   1   2
ATOM      2  C   UNL A   1      32.065  27.753  27.045  1.00  0.00     0.116 C 
BRANCH   2   3
ATOM      3  N   UNL A   1      30.819  26.985  26.961  1.00  0.00    -0.352 N 
ATOM      4  C   UNL A   1      30.319  25.921  26.210  1.00  0.00     0.253 C 
ATOM      5  O   UNL A   1      29.342  25.340  26.689  1.00  0.00    -0.269 OA
ATOM      6  H   UNL A   1      30.155  27.308  27.612  1.00  0.00     0.163 HD
BRANCH   4   7
ATOM      7  C   UNL A   1      30.900  25.479  24.940  1.00  0.00     0.064 A 
ATOM      8  N   UNL A   1      31.932  24.225  23.460  1.00  0.00    -0.350 N 
ATOM      9  C   UNL A   1      31.403  25.249  22.728  1.00  0.00     0.090 A 
ATOM     10  C   UNL A   1      32.008  24.661  24.762  1.00  0.00     0.040 A 
ATOM     11  C   UNL A   1      30.862  26.139  23.642  1.00  0.00    -0.020 A 
ATOM     12  C   UNL A   1      30.472  27.546  23.339  1.00  0.00     0.047 C 
BRANCH   8  13
ATOM     13  C   UNL A   1      32.427  22.972  22.924  1.00  0.00     0.118 C 
ATOM     14  C   UNL A   1      33.884  23.085  22.501  1.00  0.00     0.027 C 
ENDBRANCH   8  13
BRANCH  10  15
ATOM     15  C   UNL A   1      33.238  24.581  25.613  1.00  0.00     0.155 C 
BRANCH  15  16
ATOM     16  C   UNL A   1      33.108  23.381  26.604  1.00  0.00     0.232 C 
ATOM     17  O   UNL A   1      32.300  23.393  27.535  1.00  0.00    -0.274 OA
BRANCH  16  18
ATOM     18  N   UNL A   1      34.059  22.386  26.511  1.00  0.00    -0.311 N 
ATOM     19  C   UNL A   1      33.615  21.000  26.317  1.00  0.00     0.130 C 
ATOM     20  C   UNL A   1      35.344  22.485  25.890  1.00  0.00     0.047 A 
ATOM     21  C   UNL A   1      34.396  20.497  25.100  1.00  0.00     0.059 C 
ATOM     22  C   UNL A   1      35.660  21.266  25.293  1.00  0.00    -0.022 A 
ATOM     23  C   UNL A   1      36.330  23.447  26.023  1.00  0.00     0.026 A 
ATOM     24  C   UNL A   1      36.962  20.922  24.961  1.00  0.00     0.006 A 
ATOM     25  C   UNL A   1      37.667  23.083  25.792  1.00  0.00     0.002 A 
ATOM     26  C   UNL A   1      37.982  21.817  25.286  1.00  0.00     0.000 A 
ENDBRANCH  16  18
ENDBRANCH  15  16
ENDBRANCH  10  15
ENDBRANCH   4   7
ENDBRANCH   2   3
ENDBRANCH   1   2
BRANCH   1  27
ATOM     27  C   UNL A   1      32.825  30.384  26.615  1.00  0.00     0.023 C 
BRANCH  27  28
ATOM     28  C   UNL A   1      34.082  30.492  27.439  1.00  0.00     0.116 C 
BRANCH  28  29
ATOM     29  N   UNL A   1      33.990  31.572  28.424  1.00  0.00    -0.352 N 
ATOM     30  C   UNL A   1      34.807  31.779  29.522  1.00  0.00     0.251 C 
ATOM     31  H   UNL A   1      33.265  32.224  28.291  1.00  0.00     0.163 HD
ATOM     32  O   UNL A   1      34.407  32.367  30.508  1.00  0.00    -0.269 OA
BRANCH  30  33
ATOM     33  C   UNL A   1      36.185  31.273  29.430  1.00  0.00     0.039 A 
ATOM     34  C   UNL A   1      37.268  32.104  29.142  1.00  0.00     0.014 A 
ATOM     35  C   UNL A   1      36.361  29.924  29.715  1.00  0.00     0.014 A 
ATOM     36  C   UNL A   1      38.542  31.550  29.188  1.00  0.00     0.010 A 
ATOM     37  C   UNL A   1      37.602  29.468  30.025  1.00  0.00     0.010 A 
ATOM     38  C   UNL A   1      38.689  30.227  29.637  1.00  0.00    -0.014 A 
BRANCH  38  39
ATOM     39  C   UNL A   1      39.983  29.592  29.773  1.00  0.00     0.031 A 
ATOM     40  C   UNL A   1      40.392  29.374  31.175  1.00  0.00     0.074 A 
ATOM     41  C   UNL A   1      40.636  29.079  28.707  1.00  0.00     0.049 A 
ATOM     42  N   UNL A   1      41.244  30.079  31.839  1.00  0.00    -0.248 NA
ATOM     43  C   UNL A   1      39.626  28.431  32.004  1.00  0.00     0.031 C 
ATOM     44  C   UNL A   1      40.193  28.986  27.308  1.00  0.00     0.029 A 
ATOM     45  N   UNL A   1      41.828  28.435  28.676  1.00  0.00    -0.354 N 
ATOM     46  C   UNL A   1      41.330  29.480  33.086  1.00  0.00     0.074 A 
ATOM     47  C   UNL A   1      40.156  28.658  33.211  1.00  0.00     0.031 C 
ATOM     48  C   UNL A   1      40.991  28.131  26.631  1.00  0.00     0.029 A 
ATOM     49  C   UNL A   1      42.094  27.752  27.492  1.00  0.00     0.049 A 
ATOM     50  H   UNL A   1      42.457  28.448  29.433  1.00  0.00     0.167 HD
ATOM     51  C   UNL A   1      42.504  29.496  33.777  1.00  0.00     0.037 A 
ATOM     52  C   UNL A   1      43.144  26.922  27.263  1.00  0.00     0.037 A 
ATOM     53  C   UNL A   1      43.435  30.428  33.178  1.00  0.00     0.049 A 
ATOM     54  C   UNL A   1      44.192  27.291  28.258  1.00  0.00     0.074 A 
ATOM     55  C   UNL A   1      43.403  31.785  32.912  1.00  0.00     0.029 A 
ATOM     56  N   UNL A   1      44.414  29.906  32.362  1.00  0.00    -0.354 N 
ATOM     57  N   UNL A   1      44.813  28.441  28.248  1.00  0.00    -0.248 NA
ATOM     58  C   UNL A   1      44.172  26.613  29.547  1.00  0.00     0.031 C 
ATOM     59  C   UNL A   1      44.011  31.924  31.629  1.00  0.00     0.029 A 
ATOM     60  C   UNL A   1      44.467  30.669  31.221  1.00  0.00     0.049 A 
ATOM     61  H   UNL A   1      44.977  29.123  32.562  1.00  0.00     0.167 HD
ATOM     62  C   UNL A   1      44.861  28.834  29.579  1.00  0.00     0.074 A 
ATOM     63  C   UNL A   1      44.528  27.630  30.340  1.00  0.00     0.031 C 
ATOM     64  C   UNL A   1      44.861  30.158  29.924  1.00  0.00     0.037 A 
BRANCH  51  65
ATOM     65  C   UNL A   1      42.960  28.416  34.727  1.00  0.00     0.058 A 
ATOM     66  C   UNL A   1      43.321  28.778  36.041  1.00  0.00     0.135 A 
ATOM     67  C   UNL A   1      43.314  27.105  34.338  1.00  0.00     0.135 A 
ATOM     68  F   UNL A   1      43.030  30.000  36.519  1.00  0.00    -0.206 F 
ATOM     69  C   UNL A   1      44.052  27.934  36.874  1.00  0.00     0.059 A 
ATOM     70  C   UNL A   1      43.995  26.228  35.171  1.00  0.00     0.059 A 
ATOM     71  F   UNL A   1      43.107  26.640  33.102  1.00  0.00    -0.206 F 
ATOM     72  C   UNL A   1      44.399  26.664  36.421  1.00  0.00     0.060 A 
BRANCH  72  73
ATOM     73  S   UNL A   1      45.425  25.610  37.456  1.00  0.00     0.124 S 
ATOM     74  O   UNL A   1      46.148  26.598  38.249  1.00  0.00    -0.237 OA
ATOM     75  O   UNL A   1      44.424  24.824  38.169  1.00  0.00    -0.237 OA
ATOM     76  O   UNL A   1      46.225  24.867  36.487  1.00  0.00    -0.744 OA
ENDBRANCH  72  73
ENDBRANCH  51  65
BRANCH  52  77
ATOM     77  C   UNL A   1      43.148  25.636  26.511  1.00  0.00     0.058 A 
ATOM     78  C   UNL A   1      43.943  25.473  25.361  1.00  0.00     0.135 A 
ATOM     79  C   UNL A   1      42.614  24.452  27.062  1.00  0.00     0.135 A 
ATOM     80  F   UNL A   1      44.495  26.542  24.765  1.00  0.00    -0.206 F 
ATOM     81  C   UNL A   1      44.258  24.212  24.840  1.00  0.00     0.059 A 
ATOM     82  C   UNL A   1      42.906  23.186  26.555  1.00  0.00     0.059 A 
ATOM     83  F   UNL A   1      41.867  24.479  28.175  1.00  0.00    -0.206 F 
ATOM     84  C   UNL A   1      43.758  23.070  25.465  1.00  0.00     0.060 A 
BRANCH  84  85
ATOM     85  S   UNL A   1      44.346  21.439  24.948  1.00  0.00     0.124 S 
ATOM     86  O   UNL A   1      43.239  20.578  25.349  1.00  0.00    -0.237 OA
ATOM     87  O   UNL A   1      44.527  21.616  23.510  1.00  0.00    -0.237 OA
ATOM     88  O   UNL A   1      45.579  21.266  25.710  1.00  0.00    -0.744 OA
ENDBRANCH  84  85
ENDBRANCH  52  77
BRANCH  64  89
ATOM     89  C   UNL A   1      45.090  31.177  28.831  1.00  0.00     0.058 A 
ATOM     90  C   UNL A   1      44.079  31.744  28.034  1.00  0.00     0.135 A 
ATOM     91  C   UNL A   1      46.384  31.696  28.674  1.00  0.00     0.135 A 
ATOM     92  F   UNL A   1      42.796  31.397  28.197  1.00  0.00    -0.206 F 
ATOM     93  C   UNL A   1      44.350  32.729  27.081  1.00  0.00     0.059 A 
ATOM     94  C   UNL A   1      46.672  32.703  27.756  1.00  0.00     0.059 A 
ATOM     95  F   UNL A   1      47.385  31.254  29.453  1.00  0.00    -0.206 F 
ATOM     96  C   UNL A   1      45.655  33.197  26.944  1.00  0.00     0.060 A 
BRANCH  96  97
ATOM     97  S   UNL A   1      46.006  34.487  25.731  1.00  0.00     0.124 S 
ATOM     98  O   UNL A   1      47.425  34.279  25.465  1.00  0.00    -0.237 OA
ATOM     99  O   UNL A   1      45.100  34.152  24.636  1.00  0.00    -0.237 OA
ATOM    100  O   UNL A   1      45.679  35.722  26.442  1.00  0.00    -0.744 OA
ENDBRANCH  96  97
ENDBRANCH  64  89
ENDBRANCH  38  39
ENDBRANCH  30  33
ENDBRANCH  28  29
ENDBRANCH  27  28
ENDBRANCH   1  27
TORSDOF 18
ENDMDL
