MODEL 1
REMARK VINA RESULT:     -12.5      0.000      0.000
REMARK SMILES Cc1ccc(N)cc1S(=O)(=O)Nc1cccc(C(=O)NCCCCNC(=O)c2ccc(-c3c4nc(c(-c5c(F)cc(S(=O)(=O)[O-])cc5F)c5ccc([nH]5)c(-c5c(F)cc(S(=O)(=O)[O-])cc5F)c5nc(c(-c6c(F)cc(S(=O)(=O)[O-])cc6F)c6ccc3[nH]6)C=C5)C=C4)cc2)c1
REMARK SMILES IDX 22 1 21 2 20 3 18 4 19 5 17 7 13 8 14 9 94 10 15 11 16 12
REMARK SMILES IDX 12 13 9 15 10 16 11 17 8 18 1 19 2 20 3 21 4 22 7 23 5 24
REMARK SMILES IDX 6 25 23 28 24 29 25 30 26 31 27 33 28 34 29 35 93 36 30 37
REMARK SMILES IDX 92 38 31 39 32 40 33 41 86 42 34 43 91 44 85 45 87 46 35 47
REMARK SMILES IDX 90 48 84 49 83 50 36 52 70 53 49 54 69 55 50 56 53 57 68 58
REMARK SMILES IDX 88 59 51 60 52 61 67 63 89 64 54 65 37 66 38 67 47 68 39 69
REMARK SMILES IDX 40 70 46 71 48 72 41 73 42 74 43 75 44 76 45 77 71 78 72 79
REMARK SMILES IDX 81 80 73 81 74 82 80 83 82 84 75 85 76 86 77 87 78 88 79 89
REMARK SMILES IDX 55 90 56 91 65 92 57 93 58 94 64 95 66 96 59 97 60 98 61 99
REMARK SMILES IDX 62 100 63 101
REMARK H PARENT 20 6 12 14 6 26 6 27 25 32 87 51 53 62
REMARK Flexibility Score: inf
ROOT
ATOM      1  C   UNL A   1      37.244  22.565  25.697  1.00  0.00     0.023 C 
ENDROOT
BRANCH   1   2
ATOM      2  C   UNL A   1      35.888  22.169  26.285  1.00  0.00     0.116 C 
BRANCH   2   3
ATOM      3  N   UNL A   1      35.423  20.928  25.693  1.00  0.00    -0.352 N 
ATOM      4  C   UNL A   1      34.379  20.627  24.855  1.00  0.00     0.251 C 
ATOM      5  O   UNL A   1      34.226  19.444  24.548  1.00  0.00    -0.269 OA
ATOM      6  H   UNL A   1      35.964  20.146  25.943  1.00  0.00     0.163 HD
BRANCH   4   7
ATOM      7  C   UNL A   1      33.481  21.647  24.234  1.00  0.00     0.041 A 
ATOM      8  C   UNL A   1      31.601  23.173  24.248  1.00  0.00     0.050 A 
ATOM      9  C   UNL A   1      32.076  23.784  23.084  1.00  0.00     0.027 A 
ATOM     10  C   UNL A   1      32.238  22.037  24.742  1.00  0.00     0.040 A 
ATOM     11  C   UNL A   1      33.255  23.340  22.495  1.00  0.00     0.003 A 
ATOM     12  C   UNL A   1      33.970  22.301  23.091  1.00  0.00     0.014 A 
BRANCH   8  13
ATOM     13  N   UNL A   1      30.565  23.853  24.942  1.00  0.00    -0.280 N 
ATOM     14  H   UNL A   1      29.643  23.603  24.708  1.00  0.00     0.180 HD
BRANCH  13  15
ATOM     15  S   UNL A   1      30.742  25.027  26.113  1.00  0.00     0.262 S 
ATOM     16  O   UNL A   1      31.434  24.424  27.233  1.00  0.00    -0.201 OA
ATOM     17  O   UNL A   1      29.414  25.582  26.278  1.00  0.00    -0.201 OA
BRANCH  15  18
ATOM     18  C   UNL A   1      31.771  26.381  25.548  1.00  0.00     0.092 A 
ATOM     19  C   UNL A   1      34.128  25.307  25.722  1.00  0.00     0.046 C 
ATOM     20  C   UNL A   1      33.173  26.435  25.493  1.00  0.00    -0.030 A 
ATOM     21  C   UNL A   1      33.771  27.681  25.204  1.00  0.00     0.007 A 
ATOM     22  C   UNL A   1      33.011  28.797  24.852  1.00  0.00     0.026 A 
ATOM     23  C   UNL A   1      31.021  27.518  25.163  1.00  0.00     0.048 A 
ATOM     24  C   UNL A   1      31.630  28.705  24.759  1.00  0.00     0.033 A 
BRANCH  24  25
ATOM     25  N   UNL A   1      30.873  29.808  24.410  1.00  0.00    -0.399 N 
ATOM     26  H   UNL A   1      30.669  30.498  25.083  1.00  0.00     0.156 HD
ATOM     27  H   UNL A   1      30.538  29.905  23.489  1.00  0.00     0.156 HD
ENDBRANCH  24  25
ENDBRANCH  15  18
ENDBRANCH  13  15
ENDBRANCH   8  13
ENDBRANCH   4   7
ENDBRANCH   2   3
ENDBRANCH   1   2
BRANCH   1  28
ATOM     28  C   UNL A   1      37.765  23.906  26.220  1.00  0.00     0.023 C 
BRANCH  28  29
ATOM     29  C   UNL A   1      39.152  23.841  26.853  1.00  0.00     0.116 C 
BRANCH  29  30
ATOM     30  N   UNL A   1      40.203  24.344  25.982  1.00  0.00    -0.352 N 
ATOM     31  C   UNL A   1      41.004  25.447  26.147  1.00  0.00     0.251 C 
ATOM     32  H   UNL A   1      40.360  23.823  25.162  1.00  0.00     0.163 HD
ATOM     33  O   UNL A   1      41.786  25.778  25.260  1.00  0.00    -0.269 OA
BRANCH  31  34
ATOM     34  C   UNL A   1      40.896  26.254  27.381  1.00  0.00     0.039 A 
ATOM     35  C   UNL A   1      41.789  27.311  27.567  1.00  0.00     0.014 A 
ATOM     36  C   UNL A   1      39.920  25.978  28.343  1.00  0.00     0.014 A 
ATOM     37  C   UNL A   1      41.666  28.128  28.691  1.00  0.00     0.010 A 
ATOM     38  C   UNL A   1      39.758  26.833  29.431  1.00  0.00     0.010 A 
ATOM     39  C   UNL A   1      40.631  27.914  29.618  1.00  0.00    -0.014 A 
BRANCH  39  40
ATOM     40  C   UNL A   1      40.453  28.829  30.773  1.00  0.00     0.031 A 
ATOM     41  C   UNL A   1      41.312  28.689  32.000  1.00  0.00     0.074 A 
ATOM     42  C   UNL A   1      39.489  29.770  30.725  1.00  0.00     0.049 A 
ATOM     43  N   UNL A   1      41.313  29.409  33.091  1.00  0.00    -0.248 NA
ATOM     44  C   UNL A   1      42.280  27.580  32.012  1.00  0.00     0.031 C 
ATOM     45  C   UNL A   1      38.545  29.959  29.620  1.00  0.00     0.029 A 
ATOM     46  N   UNL A   1      39.144  30.745  31.624  1.00  0.00    -0.354 N 
ATOM     47  C   UNL A   1      42.273  28.841  33.921  1.00  0.00     0.074 A 
ATOM     48  C   UNL A   1      42.797  27.684  33.228  1.00  0.00     0.031 C 
ATOM     49  C   UNL A   1      37.753  31.008  29.893  1.00  0.00     0.029 A 
ATOM     50  C   UNL A   1      38.117  31.553  31.197  1.00  0.00     0.049 A 
ATOM     51  H   UNL A   1      39.590  30.857  32.495  1.00  0.00     0.167 HD
ATOM     52  C   UNL A   1      42.698  29.261  35.136  1.00  0.00     0.037 A 
ATOM     53  C   UNL A   1      37.544  32.621  31.783  1.00  0.00     0.037 A 
ATOM     54  C   UNL A   1      42.193  30.430  35.810  1.00  0.00     0.049 A 
ATOM     55  C   UNL A   1      38.063  33.093  33.113  1.00  0.00     0.074 A 
ATOM     56  C   UNL A   1      42.597  30.970  37.019  1.00  0.00     0.029 A 
ATOM     57  N   UNL A   1      41.175  31.240  35.331  1.00  0.00    -0.354 N 
ATOM     58  N   UNL A   1      39.020  32.584  33.852  1.00  0.00    -0.248 NA
ATOM     59  C   UNL A   1      37.436  34.293  33.681  1.00  0.00     0.031 C 
ATOM     60  C   UNL A   1      41.804  32.094  37.283  1.00  0.00     0.029 A 
ATOM     61  C   UNL A   1      40.931  32.272  36.223  1.00  0.00     0.049 A 
ATOM     62  H   UNL A   1      40.696  31.103  34.481  1.00  0.00     0.167 HD
ATOM     63  C   UNL A   1      39.122  33.412  34.963  1.00  0.00     0.074 A 
ATOM     64  C   UNL A   1      38.143  34.466  34.789  1.00  0.00     0.031 C 
ATOM     65  C   UNL A   1      39.949  33.310  36.033  1.00  0.00     0.037 A 
BRANCH  52  66
ATOM     66  C   UNL A   1      43.779  28.461  35.807  1.00  0.00     0.058 A 
ATOM     67  C   UNL A   1      45.138  28.728  35.576  1.00  0.00     0.135 A 
ATOM     68  C   UNL A   1      43.457  27.437  36.712  1.00  0.00     0.135 A 
ATOM     69  F   UNL A   1      45.500  29.685  34.708  1.00  0.00    -0.206 F 
ATOM     70  C   UNL A   1      46.141  27.992  36.199  1.00  0.00     0.059 A 
ATOM     71  C   UNL A   1      44.445  26.703  37.365  1.00  0.00     0.059 A 
ATOM     72  F   UNL A   1      42.175  27.138  36.969  1.00  0.00    -0.206 F 
ATOM     73  C   UNL A   1      45.784  26.980  37.091  1.00  0.00     0.060 A 
BRANCH  73  74
ATOM     74  S   UNL A   1      47.096  26.036  37.895  1.00  0.00     0.124 S 
ATOM     75  O   UNL A   1      47.186  26.708  39.187  1.00  0.00    -0.237 OA
ATOM     76  O   UNL A   1      46.542  24.686  37.921  1.00  0.00    -0.237 OA
ATOM     77  O   UNL A   1      48.239  26.223  37.008  1.00  0.00    -0.744 OA
ENDBRANCH  73  74
ENDBRANCH  52  66
BRANCH  53  78
ATOM     78  C   UNL A   1      36.444  33.346  31.096  1.00  0.00     0.058 A 
ATOM     79  C   UNL A   1      35.124  33.259  31.564  1.00  0.00     0.135 A 
ATOM     80  C   UNL A   1      36.689  34.143  29.968  1.00  0.00     0.135 A 
ATOM     81  F   UNL A   1      34.843  32.507  32.638  1.00  0.00    -0.206 F 
ATOM     82  C   UNL A   1      34.080  33.919  30.924  1.00  0.00     0.059 A 
ATOM     83  C   UNL A   1      35.665  34.829  29.324  1.00  0.00     0.059 A 
ATOM     84  F   UNL A   1      37.938  34.272  29.495  1.00  0.00    -0.206 F 
ATOM     85  C   UNL A   1      34.361  34.701  29.803  1.00  0.00     0.060 A 
BRANCH  85  86
ATOM     86  S   UNL A   1      33.008  35.587  29.000  1.00  0.00     0.124 S 
ATOM     87  O   UNL A   1      32.218  36.018  30.148  1.00  0.00    -0.237 OA
ATOM     88  O   UNL A   1      33.713  36.642  28.278  1.00  0.00    -0.237 OA
ATOM     89  O   UNL A   1      32.395  34.565  28.157  1.00  0.00    -0.744 OA
ENDBRANCH  85  86
ENDBRANCH  53  78
BRANCH  65  90
ATOM     90  C   UNL A   1      39.837  34.379  37.083  1.00  0.00     0.058 A 
ATOM     91  C   UNL A   1      38.936  34.265  38.153  1.00  0.00     0.135 A 
ATOM     92  C   UNL A   1      40.645  35.526  37.021  1.00  0.00     0.135 A 
ATOM     93  F   UNL A   1      38.138  33.190  38.253  1.00  0.00    -0.206 F 
ATOM     94  C   UNL A   1      38.811  35.270  39.106  1.00  0.00     0.059 A 
ATOM     95  C   UNL A   1      40.553  36.532  37.977  1.00  0.00     0.059 A 
ATOM     96  F   UNL A   1      41.531  35.677  36.024  1.00  0.00    -0.206 F 
ATOM     97  C   UNL A   1      39.619  36.404  39.005  1.00  0.00     0.060 A 
BRANCH  97  98
ATOM     98  S   UNL A   1      39.450  37.706  40.244  1.00  0.00     0.124 S 
ATOM     99  O   UNL A   1      39.426  36.931  41.480  1.00  0.00    -0.237 OA
ATOM    100  O   UNL A   1      40.648  38.510  40.023  1.00  0.00    -0.237 OA
ATOM    101  O   UNL A   1      38.192  38.354  39.883  1.00  0.00    -0.744 OA
ENDBRANCH  97  98
ENDBRANCH  65  90
ENDBRANCH  39  40
ENDBRANCH  31  34
ENDBRANCH  29  30
ENDBRANCH  28  29
ENDBRANCH   1  28
TORSDOF 18
ENDMDL
MODEL 2
REMARK VINA RESULT:     -12.5      1.206      2.069
REMARK SMILES Cc1ccc(N)cc1S(=O)(=O)Nc1cccc(C(=O)NCCCCNC(=O)c2ccc(-c3c4nc(c(-c5c(F)cc(S(=O)(=O)[O-])cc5F)c5ccc([nH]5)c(-c5c(F)cc(S(=O)(=O)[O-])cc5F)c5nc(c(-c6c(F)cc(S(=O)(=O)[O-])cc6F)c6ccc3[nH]6)C=C5)C=C4)cc2)c1
REMARK SMILES IDX 22 1 21 2 20 3 18 4 19 5 17 7 13 8 14 9 94 10 15 11 16 12
REMARK SMILES IDX 12 13 9 15 10 16 11 17 8 18 1 19 2 20 3 21 4 22 7 23 5 24
REMARK SMILES IDX 6 25 23 28 24 29 25 30 26 31 27 33 28 34 29 35 93 36 30 37
REMARK SMILES IDX 92 38 31 39 32 40 33 41 86 42 34 43 91 44 85 45 87 46 35 47
REMARK SMILES IDX 90 48 84 49 83 50 36 52 70 53 49 54 69 55 50 56 53 57 68 58
REMARK SMILES IDX 88 59 51 60 52 61 67 63 89 64 54 65 37 66 38 67 47 68 39 69
REMARK SMILES IDX 40 70 46 71 48 72 41 73 42 74 43 75 44 76 45 77 71 78 72 79
REMARK SMILES IDX 81 80 73 81 74 82 80 83 82 84 75 85 76 86 77 87 78 88 79 89
REMARK SMILES IDX 55 90 56 91 65 92 57 93 58 94 64 95 66 96 59 97 60 98 61 99
REMARK SMILES IDX 62 100 63 101
REMARK H PARENT 20 6 12 14 6 26 6 27 25 32 87 51 53 62
REMARK Flexibility Score: inf
ROOT
ATOM      1  C   UNL A   1      38.877  22.700  26.338  1.00  0.00     0.023 C 
ENDROOT
BRANCH   1   2
ATOM      2  C   UNL A   1      38.200  21.634  25.475  1.00  0.00     0.116 C 
BRANCH   2   3
ATOM      3  N   UNL A   1      37.594  22.241  24.305  1.00  0.00    -0.352 N 
ATOM      4  C   UNL A   1      36.291  22.491  23.951  1.00  0.00     0.251 C 
ATOM      5  O   UNL A   1      36.095  23.005  22.849  1.00  0.00    -0.269 OA
ATOM      6  H   UNL A   1      38.247  22.532  23.629  1.00  0.00     0.163 HD
BRANCH   4   7
ATOM      7  C   UNL A   1      35.119  22.258  24.848  1.00  0.00     0.041 A 
ATOM      8  C   UNL A   1      33.225  22.984  26.170  1.00  0.00     0.050 A 
ATOM      9  C   UNL A   1      32.760  21.668  26.245  1.00  0.00     0.027 A 
ATOM     10  C   UNL A   1      34.458  23.249  25.579  1.00  0.00     0.040 A 
ATOM     11  C   UNL A   1      33.462  20.644  25.617  1.00  0.00     0.003 A 
ATOM     12  C   UNL A   1      34.615  20.947  24.892  1.00  0.00     0.014 A 
BRANCH   8  13
ATOM     13  N   UNL A   1      32.321  23.999  26.582  1.00  0.00    -0.280 N 
ATOM     14  H   UNL A   1      32.270  24.174  27.549  1.00  0.00     0.180 HD
BRANCH  13  15
ATOM     15  S   UNL A   1      31.339  24.928  25.606  1.00  0.00     0.262 S 
ATOM     16  O   UNL A   1      30.713  25.929  26.445  1.00  0.00    -0.201 OA
ATOM     17  O   UNL A   1      30.534  23.968  24.877  1.00  0.00    -0.201 OA
BRANCH  15  18
ATOM     18  C   UNL A   1      32.280  25.818  24.367  1.00  0.00     0.092 A 
ATOM     19  C   UNL A   1      33.900  27.180  25.870  1.00  0.00     0.046 C 
ATOM     20  C   UNL A   1      33.270  26.791  24.570  1.00  0.00    -0.030 A 
ATOM     21  C   UNL A   1      33.732  27.503  23.442  1.00  0.00     0.007 A 
ATOM     22  C   UNL A   1      33.326  27.173  22.148  1.00  0.00     0.026 A 
ATOM     23  C   UNL A   1      31.903  25.482  23.045  1.00  0.00     0.048 A 
ATOM     24  C   UNL A   1      32.460  26.110  21.933  1.00  0.00     0.033 A 
BRANCH  24  25
ATOM     25  N   UNL A   1      32.057  25.780  20.653  1.00  0.00    -0.399 N 
ATOM     26  H   UNL A   1      32.138  26.439  19.925  1.00  0.00     0.156 HD
ATOM     27  H   UNL A   1      31.688  24.886  20.468  1.00  0.00     0.156 HD
ENDBRANCH  24  25
ENDBRANCH  15  18
ENDBRANCH  13  15
ENDBRANCH   8  13
ENDBRANCH   4   7
ENDBRANCH   2   3
ENDBRANCH   1   2
BRANCH   1  28
ATOM     28  C   UNL A   1      40.102  22.182  27.095  1.00  0.00     0.023 C 
BRANCH  28  29
ATOM     29  C   UNL A   1      41.203  23.218  27.302  1.00  0.00     0.116 C 
BRANCH  29  30
ATOM     30  N   UNL A   1      41.405  24.077  26.145  1.00  0.00    -0.352 N 
ATOM     31  C   UNL A   1      41.398  25.449  26.080  1.00  0.00     0.251 C 
ATOM     32  H   UNL A   1      41.567  23.612  25.293  1.00  0.00     0.163 HD
ATOM     33  O   UNL A   1      41.497  26.013  24.994  1.00  0.00    -0.269 OA
BRANCH  31  34
ATOM     34  C   UNL A   1      41.235  26.242  27.317  1.00  0.00     0.039 A 
ATOM     35  C   UNL A   1      42.197  27.205  27.624  1.00  0.00     0.014 A 
ATOM     36  C   UNL A   1      40.140  26.044  28.164  1.00  0.00     0.014 A 
ATOM     37  C   UNL A   1      42.032  28.011  28.751  1.00  0.00     0.010 A 
ATOM     38  C   UNL A   1      39.943  26.891  29.252  1.00  0.00     0.010 A 
ATOM     39  C   UNL A   1      40.888  27.881  29.558  1.00  0.00    -0.014 A 
BRANCH  39  40
ATOM     40  C   UNL A   1      40.674  28.789  30.713  1.00  0.00     0.031 A 
ATOM     41  C   UNL A   1      41.517  28.662  31.952  1.00  0.00     0.074 A 
ATOM     42  C   UNL A   1      39.692  29.710  30.653  1.00  0.00     0.049 A 
ATOM     43  N   UNL A   1      41.487  29.379  33.045  1.00  0.00    -0.248 NA
ATOM     44  C   UNL A   1      42.507  27.574  31.976  1.00  0.00     0.031 C 
ATOM     45  C   UNL A   1      38.762  29.883  29.534  1.00  0.00     0.029 A 
ATOM     46  N   UNL A   1      39.314  30.675  31.549  1.00  0.00    -0.354 N 
ATOM     47  C   UNL A   1      42.446  28.829  33.888  1.00  0.00     0.074 A 
ATOM     48  C   UNL A   1      43.003  27.684  33.201  1.00  0.00     0.031 C 
ATOM     49  C   UNL A   1      37.944  30.915  29.798  1.00  0.00     0.029 A 
ATOM     50  C   UNL A   1      38.277  31.463  31.109  1.00  0.00     0.049 A 
ATOM     51  H   UNL A   1      39.745  30.794  32.427  1.00  0.00     0.167 HD
ATOM     52  C   UNL A   1      42.844  29.254  35.111  1.00  0.00     0.037 A 
ATOM     53  C   UNL A   1      37.674  32.517  31.689  1.00  0.00     0.037 A 
ATOM     54  C   UNL A   1      42.305  30.410  35.781  1.00  0.00     0.049 A 
ATOM     55  C   UNL A   1      38.163  32.996  33.027  1.00  0.00     0.074 A 
ATOM     56  C   UNL A   1      42.679  30.955  36.996  1.00  0.00     0.029 A 
ATOM     57  N   UNL A   1      41.278  31.201  35.287  1.00  0.00    -0.354 N 
ATOM     58  N   UNL A   1      39.118  32.504  33.779  1.00  0.00    -0.248 NA
ATOM     59  C   UNL A   1      37.502  34.182  33.589  1.00  0.00     0.031 C 
ATOM     60  C   UNL A   1      41.859  32.062  37.251  1.00  0.00     0.029 A 
ATOM     61  C   UNL A   1      40.999  32.225  36.179  1.00  0.00     0.049 A 
ATOM     62  H   UNL A   1      40.815  31.057  34.431  1.00  0.00     0.167 HD
ATOM     63  C   UNL A   1      39.187  33.331  34.894  1.00  0.00     0.074 A 
ATOM     64  C   UNL A   1      38.189  34.366  34.708  1.00  0.00     0.031 C 
ATOM     65  C   UNL A   1      40.000  33.243  35.976  1.00  0.00     0.037 A 
BRANCH  52  66
ATOM     66  C   UNL A   1      43.930  28.474  35.796  1.00  0.00     0.058 A 
ATOM     67  C   UNL A   1      45.287  28.771  35.589  1.00  0.00     0.135 A 
ATOM     68  C   UNL A   1      43.616  27.439  36.691  1.00  0.00     0.135 A 
ATOM     69  F   UNL A   1      45.643  29.739  34.730  1.00  0.00    -0.206 F 
ATOM     70  C   UNL A   1      46.295  28.054  36.225  1.00  0.00     0.059 A 
ATOM     71  C   UNL A   1      44.608  26.723  37.357  1.00  0.00     0.059 A 
ATOM     72  F   UNL A   1      42.336  27.112  36.926  1.00  0.00    -0.206 F 
ATOM     73  C   UNL A   1      45.945  27.030  37.106  1.00  0.00     0.060 A 
BRANCH  73  74
ATOM     74  S   UNL A   1      47.264  26.110  37.928  1.00  0.00     0.124 S 
ATOM     75  O   UNL A   1      47.261  24.862  37.171  1.00  0.00    -0.237 OA
ATOM     76  O   UNL A   1      48.424  26.972  37.723  1.00  0.00    -0.237 OA
ATOM     77  O   UNL A   1      46.799  26.010  39.307  1.00  0.00    -0.744 OA
ENDBRANCH  73  74
ENDBRANCH  52  66
BRANCH  53  78
ATOM     78  C   UNL A   1      36.569  33.222  30.987  1.00  0.00     0.058 A 
ATOM     79  C   UNL A   1      36.826  34.021  29.863  1.00  0.00     0.135 A 
ATOM     80  C   UNL A   1      35.240  33.106  31.419  1.00  0.00     0.135 A 
ATOM     81  F   UNL A   1      38.083  34.163  29.416  1.00  0.00    -0.206 F 
ATOM     82  C   UNL A   1      35.808  34.700  29.203  1.00  0.00     0.059 A 
ATOM     83  C   UNL A   1      34.201  33.757  30.763  1.00  0.00     0.059 A 
ATOM     84  F   UNL A   1      34.942  32.337  32.478  1.00  0.00    -0.206 F 
ATOM     85  C   UNL A   1      34.497  34.562  29.663  1.00  0.00     0.060 A 
BRANCH  85  86
ATOM     86  S   UNL A   1      33.172  35.414  28.778  1.00  0.00     0.124 S 
ATOM     87  O   UNL A   1      32.589  34.323  28.005  1.00  0.00    -0.237 OA
ATOM     88  O   UNL A   1      32.353  35.931  29.871  1.00  0.00    -0.237 OA
ATOM     89  O   UNL A   1      33.885  36.428  28.007  1.00  0.00    -0.744 OA
ENDBRANCH  85  86
ENDBRANCH  53  78
BRANCH  65  90
ATOM     90  C   UNL A   1      39.849  34.306  37.027  1.00  0.00     0.058 A 
ATOM     91  C   UNL A   1      40.514  35.537  36.926  1.00  0.00     0.135 A 
ATOM     92  C   UNL A   1      39.025  34.093  38.143  1.00  0.00     0.135 A 
ATOM     93  F   UNL A   1      41.319  35.788  35.880  1.00  0.00    -0.206 F 
ATOM     94  C   UNL A   1      40.399  36.508  37.915  1.00  0.00     0.059 A 
ATOM     95  C   UNL A   1      38.876  35.060  39.133  1.00  0.00     0.059 A 
ATOM     96  F   UNL A   1      38.357  32.937  38.281  1.00  0.00    -0.206 F 
ATOM     97  C   UNL A   1      39.583  36.257  39.019  1.00  0.00     0.060 A 
BRANCH  97  98
ATOM     98  S   UNL A   1      39.439  37.520  40.300  1.00  0.00     0.124 S 
ATOM     99  O   UNL A   1      40.822  37.967  40.427  1.00  0.00    -0.237 OA
ATOM    100  O   UNL A   1      38.516  38.477  39.699  1.00  0.00    -0.237 OA
ATOM    101  O   UNL A   1      38.909  36.781  41.444  1.00  0.00    -0.744 OA
ENDBRANCH  97  98
ENDBRANCH  65  90
ENDBRANCH  39  40
ENDBRANCH  31  34
ENDBRANCH  29  30
ENDBRANCH  28  29
ENDBRANCH   1  28
TORSDOF 18
ENDMDL
MODEL 3
REMARK VINA RESULT:     -12.4      4.747     10.445
REMARK SMILES Cc1ccc(N)cc1S(=O)(=O)Nc1cccc(C(=O)NCCCCNC(=O)c2ccc(-c3c4nc(c(-c5c(F)cc(S(=O)(=O)[O-])cc5F)c5ccc([nH]5)c(-c5c(F)cc(S(=O)(=O)[O-])cc5F)c5nc(c(-c6c(F)cc(S(=O)(=O)[O-])cc6F)c6ccc3[nH]6)C=C5)C=C4)cc2)c1
REMARK SMILES IDX 22 1 21 2 20 3 18 4 19 5 17 7 13 8 14 9 94 10 15 11 16 12
REMARK SMILES IDX 12 13 9 15 10 16 11 17 8 18 1 19 2 20 3 21 4 22 7 23 5 24
REMARK SMILES IDX 6 25 23 28 24 29 25 30 26 31 27 33 28 34 29 35 93 36 30 37
REMARK SMILES IDX 92 38 31 39 32 40 33 41 86 42 34 43 91 44 85 45 87 46 35 47
REMARK SMILES IDX 90 48 84 49 83 50 36 52 70 53 49 54 69 55 50 56 53 57 68 58
REMARK SMILES IDX 88 59 51 60 52 61 67 63 89 64 54 65 37 66 38 67 47 68 39 69
REMARK SMILES IDX 40 70 46 71 48 72 41 73 42 74 43 75 44 76 45 77 71 78 72 79
REMARK SMILES IDX 81 80 73 81 74 82 80 83 82 84 75 85 76 86 77 87 78 88 79 89
REMARK SMILES IDX 55 90 56 91 65 92 57 93 58 94 64 95 66 96 59 97 60 98 61 99
REMARK SMILES IDX 62 100 63 101
REMARK H PARENT 20 6 12 14 6 26 6 27 25 32 87 51 53 62
REMARK Flexibility Score: inf
ROOT
ATOM      1  C   UNL A   1      33.190  29.329  24.658  1.00  0.00     0.023 C 
ENDROOT
BRANCH   1   2
ATOM      2  C   UNL A   1      33.225  29.130  23.143  1.00  0.00     0.116 C 
BRANCH   2   3
ATOM      3  N   UNL A   1      31.921  29.401  22.566  1.00  0.00    -0.352 N 
ATOM      4  C   UNL A   1      30.785  28.644  22.428  1.00  0.00     0.251 C 
ATOM      5  O   UNL A   1      29.828  29.164  21.852  1.00  0.00    -0.269 OA
ATOM      6  H   UNL A   1      31.833  30.310  22.201  1.00  0.00     0.163 HD
BRANCH   4   7
ATOM      7  C   UNL A   1      30.613  27.275  23.003  1.00  0.00     0.041 A 
ATOM      8  C   UNL A   1      31.088  24.904  23.129  1.00  0.00     0.050 A 
ATOM      9  C   UNL A   1      30.457  24.834  24.374  1.00  0.00     0.027 A 
ATOM     10  C   UNL A   1      31.054  26.092  22.402  1.00  0.00     0.040 A 
ATOM     11  C   UNL A   1      29.910  25.980  24.944  1.00  0.00     0.003 A 
ATOM     12  C   UNL A   1      30.023  27.199  24.275  1.00  0.00     0.014 A 
BRANCH   8  13
ATOM     13  N   UNL A   1      31.861  23.776  22.747  1.00  0.00    -0.280 N 
ATOM     14  H   UNL A   1      31.372  22.932  22.619  1.00  0.00     0.180 HD
BRANCH  13  15
ATOM     15  S   UNL A   1      33.508  23.726  22.491  1.00  0.00     0.262 S 
ATOM     16  O   UNL A   1      34.044  25.024  22.849  1.00  0.00    -0.201 OA
ATOM     17  O   UNL A   1      33.653  23.214  21.142  1.00  0.00    -0.201 OA
BRANCH  15  18
ATOM     18  C   UNL A   1      34.313  22.532  23.557  1.00  0.00     0.092 A 
ATOM     19  C   UNL A   1      32.371  20.860  23.970  1.00  0.00     0.046 C 
ATOM     20  C   UNL A   1      33.742  21.415  24.187  1.00  0.00    -0.030 A 
ATOM     21  C   UNL A   1      34.523  20.731  25.144  1.00  0.00     0.007 A 
ATOM     22  C   UNL A   1      35.861  21.058  25.370  1.00  0.00     0.026 A 
ATOM     23  C   UNL A   1      35.678  22.828  23.781  1.00  0.00     0.048 A 
ATOM     24  C   UNL A   1      36.472  22.066  24.638  1.00  0.00     0.033 A 
BRANCH  24  25
ATOM     25  N   UNL A   1      37.797  22.392  24.858  1.00  0.00    -0.399 N 
ATOM     26  H   UNL A   1      38.056  23.332  24.995  1.00  0.00     0.156 HD
ATOM     27  H   UNL A   1      38.481  21.685  24.877  1.00  0.00     0.156 HD
ENDBRANCH  24  25
ENDBRANCH  15  18
ENDBRANCH  13  15
ENDBRANCH   8  13
ENDBRANCH   4   7
ENDBRANCH   2   3
ENDBRANCH   1   2
BRANCH   1  28
ATOM     28  C   UNL A   1      33.693  28.115  25.443  1.00  0.00     0.023 C 
BRANCH  28  29
ATOM     29  C   UNL A   1      33.626  28.272  26.960  1.00  0.00     0.116 C 
BRANCH  29  30
ATOM     30  N   UNL A   1      33.451  29.651  27.386  1.00  0.00    -0.352 N 
ATOM     31  C   UNL A   1      34.355  30.486  27.996  1.00  0.00     0.251 C 
ATOM     32  H   UNL A   1      32.562  30.039  27.215  1.00  0.00     0.163 HD
ATOM     33  O   UNL A   1      34.006  31.601  28.371  1.00  0.00    -0.269 OA
BRANCH  31  34
ATOM     34  C   UNL A   1      35.739  30.022  28.232  1.00  0.00     0.039 A 
ATOM     35  C   UNL A   1      36.651  30.083  27.177  1.00  0.00     0.014 A 
ATOM     36  C   UNL A   1      36.137  29.538  29.482  1.00  0.00     0.014 A 
ATOM     37  C   UNL A   1      37.979  29.712  27.392  1.00  0.00     0.010 A 
ATOM     38  C   UNL A   1      37.476  29.230  29.712  1.00  0.00     0.010 A 
ATOM     39  C   UNL A   1      38.410  29.311  28.669  1.00  0.00    -0.014 A 
BRANCH  39  40
ATOM     40  C   UNL A   1      39.838  28.990  28.916  1.00  0.00     0.031 A 
ATOM     41  C   UNL A   1      40.755  30.010  29.532  1.00  0.00     0.074 A 
ATOM     42  C   UNL A   1      40.313  27.782  28.553  1.00  0.00     0.049 A 
ATOM     43  N   UNL A   1      42.021  29.898  29.841  1.00  0.00    -0.248 NA
ATOM     44  C   UNL A   1      40.183  31.335  29.817  1.00  0.00     0.031 C 
ATOM     45  C   UNL A   1      39.538  26.735  27.882  1.00  0.00     0.029 A 
ATOM     46  N   UNL A   1      41.559  27.230  28.698  1.00  0.00    -0.354 N 
ATOM     47  C   UNL A   1      42.399  31.135  30.349  1.00  0.00     0.074 A 
ATOM     48  C   UNL A   1      41.242  31.999  30.259  1.00  0.00     0.031 C 
ATOM     49  C   UNL A   1      40.318  25.656  27.706  1.00  0.00     0.029 A 
ATOM     50  C   UNL A   1      41.650  25.940  28.231  1.00  0.00     0.049 A 
ATOM     51  H   UNL A   1      42.319  27.712  29.099  1.00  0.00     0.167 HD
ATOM     52  C   UNL A   1      43.593  31.509  30.869  1.00  0.00     0.037 A 
ATOM     53  C   UNL A   1      42.684  25.079  28.240  1.00  0.00     0.037 A 
ATOM     54  C   UNL A   1      44.734  30.638  30.983  1.00  0.00     0.049 A 
ATOM     55  C   UNL A   1      43.985  25.503  28.862  1.00  0.00     0.074 A 
ATOM     56  C   UNL A   1      45.970  30.905  31.544  1.00  0.00     0.029 A 
ATOM     57  N   UNL A   1      44.776  29.328  30.528  1.00  0.00    -0.354 N 
ATOM     58  N   UNL A   1      44.303  26.656  29.401  1.00  0.00    -0.248 NA
ATOM     59  C   UNL A   1      45.063  24.506  28.890  1.00  0.00     0.031 C 
ATOM     60  C   UNL A   1      46.770  29.763  31.405  1.00  0.00     0.029 A 
ATOM     61  C   UNL A   1      46.021  28.777  30.788  1.00  0.00     0.049 A 
ATOM     62  H   UNL A   1      44.032  28.860  30.086  1.00  0.00     0.167 HD
ATOM     63  C   UNL A   1      45.611  26.516  29.850  1.00  0.00     0.074 A 
ATOM     64  C   UNL A   1      46.017  25.161  29.536  1.00  0.00     0.031 C 
ATOM     65  C   UNL A   1      46.406  27.427  30.465  1.00  0.00     0.037 A 
BRANCH  52  66
ATOM     66  C   UNL A   1      43.718  32.919  31.375  1.00  0.00     0.058 A 
ATOM     67  C   UNL A   1      43.601  33.220  32.741  1.00  0.00     0.135 A 
ATOM     68  C   UNL A   1      43.985  33.977  30.492  1.00  0.00     0.135 A 
ATOM     69  F   UNL A   1      43.329  32.248  33.626  1.00  0.00    -0.206 F 
ATOM     70  C   UNL A   1      43.721  34.523  33.213  1.00  0.00     0.059 A 
ATOM     71  C   UNL A   1      44.132  35.287  30.944  1.00  0.00     0.059 A 
ATOM     72  F   UNL A   1      44.105  33.747  29.175  1.00  0.00    -0.206 F 
ATOM     73  C   UNL A   1      43.984  35.550  32.305  1.00  0.00     0.060 A 
BRANCH  73  74
ATOM     74  S   UNL A   1      44.141  37.236  32.932  1.00  0.00     0.124 S 
ATOM     75  O   UNL A   1      42.934  37.357  33.744  1.00  0.00    -0.237 OA
ATOM     76  O   UNL A   1      45.398  37.182  33.671  1.00  0.00    -0.237 OA
ATOM     77  O   UNL A   1      44.166  38.047  31.720  1.00  0.00    -0.744 OA
ENDBRANCH  73  74
ENDBRANCH  52  66
BRANCH  53  78
ATOM     78  C   UNL A   1      42.519  23.711  27.681  1.00  0.00     0.058 A 
ATOM     79  C   UNL A   1      42.324  22.608  28.526  1.00  0.00     0.135 A 
ATOM     80  C   UNL A   1      42.546  23.482  26.297  1.00  0.00     0.135 A 
ATOM     81  F   UNL A   1      42.295  22.781  29.856  1.00  0.00    -0.206 F 
ATOM     82  C   UNL A   1      42.184  21.320  28.021  1.00  0.00     0.059 A 
ATOM     83  C   UNL A   1      42.386  22.206  25.768  1.00  0.00     0.059 A 
ATOM     84  F   UNL A   1      42.710  24.508  25.449  1.00  0.00    -0.206 F 
ATOM     85  C   UNL A   1      42.218  21.129  26.639  1.00  0.00     0.060 A 
BRANCH  85  86
ATOM     86  S   UNL A   1      41.995  19.460  25.987  1.00  0.00     0.124 S 
ATOM     87  O   UNL A   1      42.267  18.646  27.166  1.00  0.00    -0.237 OA
ATOM     88  O   UNL A   1      40.606  19.486  25.536  1.00  0.00    -0.237 OA
ATOM     89  O   UNL A   1      42.989  19.383  24.921  1.00  0.00    -0.744 OA
ENDBRANCH  85  86
ENDBRANCH  53  78
BRANCH  65  90
ATOM     90  C   UNL A   1      47.786  26.973  30.851  1.00  0.00     0.058 A 
ATOM     91  C   UNL A   1      48.046  26.400  32.105  1.00  0.00     0.135 A 
ATOM     92  C   UNL A   1      48.857  27.106  29.953  1.00  0.00     0.135 A 
ATOM     93  F   UNL A   1      47.057  26.255  33.001  1.00  0.00    -0.206 F 
ATOM     94  C   UNL A   1      49.329  26.009  32.472  1.00  0.00     0.059 A 
ATOM     95  C   UNL A   1      50.144  26.699  30.290  1.00  0.00     0.059 A 
ATOM     96  F   UNL A   1      48.658  27.636  28.736  1.00  0.00    -0.206 F 
ATOM     97  C   UNL A   1      50.374  26.170  31.560  1.00  0.00     0.060 A 
BRANCH  97  98
ATOM     98  S   UNL A   1      52.037  25.663  32.043  1.00  0.00     0.124 S 
ATOM     99  O   UNL A   1      51.885  24.216  32.141  1.00  0.00    -0.237 OA
ATOM    100  O   UNL A   1      52.850  26.140  30.928  1.00  0.00    -0.237 OA
ATOM    101  O   UNL A   1      52.249  26.362  33.308  1.00  0.00    -0.744 OA
ENDBRANCH  97  98
ENDBRANCH  65  90
ENDBRANCH  39  40
ENDBRANCH  31  34
ENDBRANCH  29  30
ENDBRANCH  28  29
ENDBRANCH   1  28
TORSDOF 18
ENDMDL
