MODEL 1
REMARK VINA RESULT:     -11.5      0.000      0.000
REMARK SMILES C[C@@H]1CN(S(=O)(=O)[C@@H](C)C(=O)NCCCCNC(=O)c2ccc(-c3c4nc(c(-c5c(F)cc(S(=O)(=O)[O-])cc5F)c5ccc([nH]5)c(-c5c(F)cc(S(=O)(=O)[O-])cc5F)c5nc(c(-c6c(F)cc(S(=O)(=O)[O-])cc6F)c6ccc3[nH]6)C=C5)C=C4)cc2)CC[C@@H]1[NH3+]
REMARK SMILES IDX 14 1 13 2 12 3 10 4 11 5 8 7 9 8 5 9 6 10 7 11 4 12 1 13
REMARK SMILES IDX 2 14 3 15 88 16 87 17 86 18 89 19 15 23 16 24 17 25 18 26
REMARK SMILES IDX 19 28 20 29 21 30 85 31 22 32 84 33 23 34 24 35 25 36 78 37
REMARK SMILES IDX 26 38 83 39 77 40 79 41 27 42 82 43 76 44 75 45 28 47 62 48
REMARK SMILES IDX 41 49 61 50 42 51 45 52 60 53 80 54 43 55 44 56 59 58 81 59
REMARK SMILES IDX 46 60 29 61 30 62 39 63 31 64 32 65 38 66 40 67 33 68 34 69
REMARK SMILES IDX 35 70 36 71 37 72 63 73 64 74 73 75 65 76 66 77 72 78 74 79
REMARK SMILES IDX 67 80 68 81 69 82 70 83 71 84 47 85 48 86 57 87 49 88 50 89
REMARK SMILES IDX 56 90 58 91 51 92 52 93 53 94 54 95 55 96
REMARK H PARENT 12 6 89 20 89 21 89 22 17 27 79 46 45 57
REMARK Flexibility Score: inf
ROOT
ATOM      1  C   UNL A   1      31.366  27.266  26.436  1.00  0.00     0.023 C 
ENDROOT
BRANCH   1   2
ATOM      2  C   UNL A   1      31.889  25.833  26.397  1.00  0.00     0.116 C 
BRANCH   2   3
ATOM      3  N   UNL A   1      30.921  24.871  26.901  1.00  0.00    -0.355 N 
ATOM      4  C   UNL A   1      30.902  23.514  27.009  1.00  0.00     0.239 C 
ATOM      5  O   UNL A   1      29.812  23.034  27.350  1.00  0.00    -0.274 OA
ATOM      6  H   UNL A   1      30.099  25.294  27.240  1.00  0.00     0.163 HD
BRANCH   4   7
ATOM      7  C   UNL A   1      32.089  22.597  26.855  1.00  0.00     0.210 C 
ATOM      8  C   UNL A   1      33.354  22.943  27.626  1.00  0.00     0.037 C 
BRANCH   7   9
ATOM      9  S   UNL A   1      32.400  21.990  25.194  1.00  0.00     0.225 S 
ATOM     10  O   UNL A   1      31.903  22.970  24.244  1.00  0.00    -0.211 OA
ATOM     11  O   UNL A   1      31.879  20.638  25.135  1.00  0.00    -0.211 OA
BRANCH   9  12
ATOM     12  N   UNL A   1      34.085  21.884  24.988  1.00  0.00    -0.200 NA
ATOM     13  C   UNL A   1      36.256  24.108  25.306  1.00  0.00     0.015 C 
ATOM     14  C   UNL A   1      36.144  23.028  24.233  1.00  0.00     0.059 C 
ATOM     15  C   UNL A   1      34.659  22.796  23.947  1.00  0.00     0.111 C 
ATOM     16  C   UNL A   1      36.900  21.682  24.455  1.00  0.00     0.186 C 
ATOM     17  C   UNL A   1      36.112  20.490  25.036  1.00  0.00     0.082 C 
ATOM     18  C   UNL A   1      34.617  20.513  24.750  1.00  0.00     0.108 C 
BRANCH  16  19
ATOM     19  N   UNL A   1      38.202  21.818  25.118  1.00  0.00    -0.355 N 
ATOM     20  H   UNL A   1      38.689  20.921  25.100  1.00  0.00     0.344 HD
ATOM     21  H   UNL A   1      38.063  22.108  26.086  1.00  0.00     0.344 HD
ATOM     22  H   UNL A   1      38.762  22.518  24.630  1.00  0.00     0.344 HD
ENDBRANCH  16  19
ENDBRANCH   9  12
ENDBRANCH   7   9
ENDBRANCH   4   7
ENDBRANCH   2   3
ENDBRANCH   1   2
BRANCH   1  23
ATOM     23  C   UNL A   1      31.971  28.229  27.455  1.00  0.00     0.023 C 
BRANCH  23  24
ATOM     24  C   UNL A   1      33.386  28.676  27.161  1.00  0.00     0.116 C 
BRANCH  24  25
ATOM     25  N   UNL A   1      33.548  30.082  27.479  1.00  0.00    -0.352 N 
ATOM     26  C   UNL A   1      34.528  30.691  28.230  1.00  0.00     0.251 C 
ATOM     27  H   UNL A   1      32.864  30.682  27.106  1.00  0.00     0.163 HD
ATOM     28  O   UNL A   1      34.271  31.765  28.771  1.00  0.00    -0.269 OA
BRANCH  26  29
ATOM     29  C   UNL A   1      35.878  30.086  28.384  1.00  0.00     0.039 A 
ATOM     30  C   UNL A   1      36.245  29.524  29.612  1.00  0.00     0.014 A 
ATOM     31  C   UNL A   1      36.831  30.162  27.366  1.00  0.00     0.014 A 
ATOM     32  C   UNL A   1      37.555  29.070  29.814  1.00  0.00     0.010 A 
ATOM     33  C   UNL A   1      38.080  29.574  27.514  1.00  0.00     0.010 A 
ATOM     34  C   UNL A   1      38.486  29.098  28.764  1.00  0.00    -0.014 A 
BRANCH  34  35
ATOM     35  C   UNL A   1      39.922  28.771  28.972  1.00  0.00     0.031 A 
ATOM     36  C   UNL A   1      40.843  29.821  29.558  1.00  0.00     0.074 A 
ATOM     37  C   UNL A   1      40.406  27.572  28.601  1.00  0.00     0.049 A 
ATOM     38  N   UNL A   1      42.137  29.781  29.746  1.00  0.00    -0.248 NA
ATOM     39  C   UNL A   1      40.233  31.109  29.940  1.00  0.00     0.031 C 
ATOM     40  C   UNL A   1      39.628  26.502  27.974  1.00  0.00     0.029 A 
ATOM     41  N   UNL A   1      41.671  27.050  28.694  1.00  0.00    -0.354 N 
ATOM     42  C   UNL A   1      42.491  31.037  30.230  1.00  0.00     0.074 A 
ATOM     43  C   UNL A   1      41.294  31.846  30.228  1.00  0.00     0.031 C 
ATOM     44  C   UNL A   1      40.423  25.438  27.775  1.00  0.00     0.029 A 
ATOM     45  C   UNL A   1      41.773  25.762  28.223  1.00  0.00     0.049 A 
ATOM     46  H   UNL A   1      42.434  27.551  29.064  1.00  0.00     0.167 HD
ATOM     47  C   UNL A   1      43.694  31.471  30.676  1.00  0.00     0.037 A 
ATOM     48  C   UNL A   1      42.838  24.939  28.163  1.00  0.00     0.037 A 
ATOM     49  C   UNL A   1      44.864  30.636  30.729  1.00  0.00     0.049 A 
ATOM     50  C   UNL A   1      44.158  25.427  28.698  1.00  0.00     0.074 A 
ATOM     51  C   UNL A   1      46.119  30.939  31.225  1.00  0.00     0.029 A 
ATOM     52  N   UNL A   1      44.915  29.324  30.280  1.00  0.00    -0.354 N 
ATOM     53  N   UNL A   1      44.460  26.598  29.207  1.00  0.00    -0.248 NA
ATOM     54  C   UNL A   1      45.278  24.478  28.664  1.00  0.00     0.031 C 
ATOM     55  C   UNL A   1      46.941  29.825  31.034  1.00  0.00     0.029 A 
ATOM     56  C   UNL A   1      46.184  28.808  30.471  1.00  0.00     0.049 A 
ATOM     57  H   UNL A   1      44.159  28.833  29.883  1.00  0.00     0.167 HD
ATOM     58  C   UNL A   1      45.798  26.519  29.581  1.00  0.00     0.074 A 
ATOM     59  C   UNL A   1      46.239  25.178  29.253  1.00  0.00     0.031 C 
ATOM     60  C   UNL A   1      46.592  27.465  30.142  1.00  0.00     0.037 A 
BRANCH  47  61
ATOM     61  C   UNL A   1      43.797  32.896  31.155  1.00  0.00     0.058 A 
ATOM     62  C   UNL A   1      44.082  33.957  30.277  1.00  0.00     0.135 A 
ATOM     63  C   UNL A   1      43.587  33.213  32.508  1.00  0.00     0.135 A 
ATOM     64  F   UNL A   1      44.310  33.715  28.976  1.00  0.00    -0.206 F 
ATOM     65  C   UNL A   1      44.193  35.268  30.727  1.00  0.00     0.059 A 
ATOM     66  C   UNL A   1      43.658  34.524  32.974  1.00  0.00     0.059 A 
ATOM     67  F   UNL A   1      43.311  32.244  33.395  1.00  0.00    -0.206 F 
ATOM     68  C   UNL A   1      43.979  35.542  32.078  1.00  0.00     0.060 A 
BRANCH  68  69
ATOM     69  S   UNL A   1      44.122  37.252  32.642  1.00  0.00     0.124 S 
ATOM     70  O   UNL A   1      42.997  37.348  33.568  1.00  0.00    -0.237 OA
ATOM     71  O   UNL A   1      45.448  37.270  33.251  1.00  0.00    -0.237 OA
ATOM     72  O   UNL A   1      43.988  38.027  31.413  1.00  0.00    -0.744 OA
ENDBRANCH  68  69
ENDBRANCH  47  61
BRANCH  48  73
ATOM     73  C   UNL A   1      42.685  23.563  27.619  1.00  0.00     0.058 A 
ATOM     74  C   UNL A   1      42.817  23.311  26.244  1.00  0.00     0.135 A 
ATOM     75  C   UNL A   1      42.428  22.469  28.459  1.00  0.00     0.135 A 
ATOM     76  F   UNL A   1      43.060  24.323  25.398  1.00  0.00    -0.206 F 
ATOM     77  C   UNL A   1      42.679  22.030  25.720  1.00  0.00     0.059 A 
ATOM     78  C   UNL A   1      42.315  21.173  27.962  1.00  0.00     0.059 A 
ATOM     79  F   UNL A   1      42.313  22.650  29.785  1.00  0.00    -0.206 F 
ATOM     80  C   UNL A   1      42.432  20.965  26.589  1.00  0.00     0.060 A 
BRANCH  80  81
ATOM     81  S   UNL A   1      42.300  19.300  25.902  1.00  0.00     0.124 S 
ATOM     82  O   UNL A   1      42.820  18.489  26.996  1.00  0.00    -0.237 OA
ATOM     83  O   UNL A   1      40.867  19.187  25.648  1.00  0.00    -0.237 OA
ATOM     84  O   UNL A   1      43.138  19.362  24.708  1.00  0.00    -0.744 OA
ENDBRANCH  80  81
ENDBRANCH  48  73
BRANCH  60  85
ATOM     85  C   UNL A   1      48.004  27.070  30.473  1.00  0.00     0.058 A 
ATOM     86  C   UNL A   1      49.062  27.291  29.577  1.00  0.00     0.135 A 
ATOM     87  C   UNL A   1      48.306  26.506  31.724  1.00  0.00     0.135 A 
ATOM     88  F   UNL A   1      48.825  27.824  28.369  1.00  0.00    -0.206 F 
ATOM     89  C   UNL A   1      50.367  26.934  29.897  1.00  0.00     0.059 A 
ATOM     90  C   UNL A   1      49.609  26.172  32.076  1.00  0.00     0.059 A 
ATOM     91  F   UNL A   1      47.333  26.290  32.622  1.00  0.00    -0.206 F 
ATOM     92  C   UNL A   1      50.631  26.375  31.149  1.00  0.00     0.060 A 
BRANCH  92  93
ATOM     93  S   UNL A   1      52.332  25.936  31.559  1.00  0.00     0.124 S 
ATOM     94  O   UNL A   1      52.173  24.567  32.040  1.00  0.00    -0.237 OA
ATOM     95  O   UNL A   1      53.009  26.081  30.274  1.00  0.00    -0.237 OA
ATOM     96  O   UNL A   1      52.703  26.919  32.572  1.00  0.00    -0.744 OA
ENDBRANCH  92  93
ENDBRANCH  60  85
ENDBRANCH  34  35
ENDBRANCH  26  29
ENDBRANCH  24  25
ENDBRANCH  23  24
ENDBRANCH   1  23
TORSDOF 17
ENDMDL
MODEL 2
REMARK VINA RESULT:     -11.2      1.386      2.523
REMARK SMILES C[C@@H]1CN(S(=O)(=O)[C@@H](C)C(=O)NCCCCNC(=O)c2ccc(-c3c4nc(c(-c5c(F)cc(S(=O)(=O)[O-])cc5F)c5ccc([nH]5)c(-c5c(F)cc(S(=O)(=O)[O-])cc5F)c5nc(c(-c6c(F)cc(S(=O)(=O)[O-])cc6F)c6ccc3[nH]6)C=C5)C=C4)cc2)CC[C@@H]1[NH3+]
REMARK SMILES IDX 14 1 13 2 12 3 10 4 11 5 8 7 9 8 5 9 6 10 7 11 4 12 1 13
REMARK SMILES IDX 2 14 3 15 88 16 87 17 86 18 89 19 15 23 16 24 17 25 18 26
REMARK SMILES IDX 19 28 20 29 21 30 85 31 22 32 84 33 23 34 24 35 25 36 78 37
REMARK SMILES IDX 26 38 83 39 77 40 79 41 27 42 82 43 76 44 75 45 28 47 62 48
REMARK SMILES IDX 41 49 61 50 42 51 45 52 60 53 80 54 43 55 44 56 59 58 81 59
REMARK SMILES IDX 46 60 29 61 30 62 39 63 31 64 32 65 38 66 40 67 33 68 34 69
REMARK SMILES IDX 35 70 36 71 37 72 63 73 64 74 73 75 65 76 66 77 72 78 74 79
REMARK SMILES IDX 67 80 68 81 69 82 70 83 71 84 47 85 48 86 57 87 49 88 50 89
REMARK SMILES IDX 56 90 58 91 51 92 52 93 53 94 54 95 55 96
REMARK H PARENT 12 6 89 20 89 21 89 22 17 27 79 46 45 57
REMARK Flexibility Score: inf
ROOT
ATOM      1  C   UNL A   1      31.421  27.913  26.999  1.00  0.00     0.023 C 
ENDROOT
BRANCH   1   2
ATOM      2  C   UNL A   1      31.082  26.948  25.868  1.00  0.00     0.116 C 
BRANCH   2   3
ATOM      3  N   UNL A   1      30.855  27.628  24.602  1.00  0.00    -0.355 N 
ATOM      4  C   UNL A   1      31.631  27.890  23.515  1.00  0.00     0.239 C 
ATOM      5  O   UNL A   1      31.119  28.650  22.680  1.00  0.00    -0.274 OA
ATOM      6  H   UNL A   1      29.937  27.973  24.510  1.00  0.00     0.163 HD
BRANCH   4   7
ATOM      7  C   UNL A   1      32.969  27.267  23.210  1.00  0.00     0.210 C 
ATOM      8  C   UNL A   1      34.014  28.137  22.527  1.00  0.00     0.037 C 
BRANCH   7   9
ATOM      9  S   UNL A   1      32.928  25.579  22.602  1.00  0.00     0.225 S 
ATOM     10  O   UNL A   1      33.595  25.536  21.313  1.00  0.00    -0.211 OA
ATOM     11  O   UNL A   1      31.550  25.134  22.687  1.00  0.00    -0.211 OA
BRANCH   9  12
ATOM     12  N   UNL A   1      33.828  24.617  23.679  1.00  0.00    -0.200 NA
ATOM     13  C   UNL A   1      36.495  23.067  23.182  1.00  0.00     0.015 C 
ATOM     14  C   UNL A   1      35.256  22.616  23.952  1.00  0.00     0.059 C 
ATOM     15  C   UNL A   1      34.025  23.195  23.250  1.00  0.00     0.111 C 
ATOM     16  C   UNL A   1      35.207  22.867  25.490  1.00  0.00     0.186 C 
ATOM     17  C   UNL A   1      34.463  24.117  26.003  1.00  0.00     0.082 C 
ATOM     18  C   UNL A   1      33.352  24.617  25.090  1.00  0.00     0.108 C 
BRANCH  16  19
ATOM     19  N   UNL A   1      36.497  22.713  26.173  1.00  0.00    -0.355 N 
ATOM     20  H   UNL A   1      36.864  21.777  26.000  1.00  0.00     0.344 HD
ATOM     21  H   UNL A   1      36.368  22.845  27.177  1.00  0.00     0.344 HD
ATOM     22  H   UNL A   1      37.155  23.408  25.820  1.00  0.00     0.344 HD
ENDBRANCH  16  19
ENDBRANCH   9  12
ENDBRANCH   7   9
ENDBRANCH   4   7
ENDBRANCH   2   3
ENDBRANCH   1   2
BRANCH   1  23
ATOM     23  C   UNL A   1      32.891  28.120  27.357  1.00  0.00     0.023 C 
BRANCH  23  24
ATOM     24  C   UNL A   1      33.646  29.077  26.461  1.00  0.00     0.116 C 
BRANCH  24  25
ATOM     25  N   UNL A   1      33.726  30.389  27.076  1.00  0.00    -0.352 N 
ATOM     26  C   UNL A   1      34.589  30.836  28.051  1.00  0.00     0.251 C 
ATOM     27  H   UNL A   1      33.073  31.049  26.751  1.00  0.00     0.163 HD
ATOM     28  O   UNL A   1      34.235  31.775  28.762  1.00  0.00    -0.269 OA
BRANCH  26  29
ATOM     29  C   UNL A   1      35.929  30.220  28.244  1.00  0.00     0.039 A 
ATOM     30  C   UNL A   1      36.248  29.642  29.478  1.00  0.00     0.014 A 
ATOM     31  C   UNL A   1      36.917  30.301  27.262  1.00  0.00     0.014 A 
ATOM     32  C   UNL A   1      37.547  29.176  29.720  1.00  0.00     0.010 A 
ATOM     33  C   UNL A   1      38.156  29.702  27.447  1.00  0.00     0.010 A 
ATOM     34  C   UNL A   1      38.515  29.210  28.705  1.00  0.00    -0.014 A 
BRANCH  34  35
ATOM     35  C   UNL A   1      39.941  28.870  28.959  1.00  0.00     0.031 A 
ATOM     36  C   UNL A   1      40.849  29.909  29.583  1.00  0.00     0.074 A 
ATOM     37  C   UNL A   1      40.427  27.669  28.597  1.00  0.00     0.049 A 
ATOM     38  N   UNL A   1      42.135  29.857  29.814  1.00  0.00    -0.248 NA
ATOM     39  C   UNL A   1      40.236  31.200  29.952  1.00  0.00     0.031 C 
ATOM     40  C   UNL A   1      39.663  26.609  27.937  1.00  0.00     0.029 A 
ATOM     41  N   UNL A   1      41.685  27.137  28.730  1.00  0.00    -0.354 N 
ATOM     42  C   UNL A   1      42.482  31.108  30.317  1.00  0.00     0.074 A 
ATOM     43  C   UNL A   1      41.292  31.926  30.281  1.00  0.00     0.031 C 
ATOM     44  C   UNL A   1      40.456  25.540  27.758  1.00  0.00     0.029 A 
ATOM     45  C   UNL A   1      41.793  25.851  28.254  1.00  0.00     0.049 A 
ATOM     46  H   UNL A   1      42.438  27.629  29.128  1.00  0.00     0.167 HD
ATOM     47  C   UNL A   1      43.673  31.529  30.807  1.00  0.00     0.037 A 
ATOM     48  C   UNL A   1      42.853  25.020  28.225  1.00  0.00     0.037 A 
ATOM     49  C   UNL A   1      44.833  30.685  30.894  1.00  0.00     0.049 A 
ATOM     50  C   UNL A   1      44.158  25.494  28.808  1.00  0.00     0.074 A 
ATOM     51  C   UNL A   1      46.073  30.975  31.435  1.00  0.00     0.029 A 
ATOM     52  N   UNL A   1      44.890  29.375  30.439  1.00  0.00    -0.354 N 
ATOM     53  N   UNL A   1      44.451  26.660  29.334  1.00  0.00    -0.248 NA
ATOM     54  C   UNL A   1      45.271  24.537  28.805  1.00  0.00     0.031 C 
ATOM     55  C   UNL A   1      46.893  29.856  31.264  1.00  0.00     0.029 A 
ATOM     56  C   UNL A   1      46.148  28.848  30.670  1.00  0.00     0.049 A 
ATOM     57  H   UNL A   1      44.145  28.893  30.014  1.00  0.00     0.167 HD
ATOM     58  C   UNL A   1      45.775  26.568  29.752  1.00  0.00     0.074 A 
ATOM     59  C   UNL A   1      46.217  25.225  29.431  1.00  0.00     0.031 C 
ATOM     60  C   UNL A   1      46.556  27.504  30.346  1.00  0.00     0.037 A 
BRANCH  47  61
ATOM     61  C   UNL A   1      43.770  32.951  31.299  1.00  0.00     0.058 A 
ATOM     62  C   UNL A   1      43.450  33.303  32.621  1.00  0.00     0.135 A 
ATOM     63  C   UNL A   1      44.208  33.976  30.443  1.00  0.00     0.135 A 
ATOM     64  F   UNL A   1      43.008  32.371  33.482  1.00  0.00    -0.206 F 
ATOM     65  C   UNL A   1      43.523  34.620  33.065  1.00  0.00     0.059 A 
ATOM     66  C   UNL A   1      44.323  35.294  30.876  1.00  0.00     0.059 A 
ATOM     67  F   UNL A   1      44.527  33.702  29.168  1.00  0.00    -0.206 F 
ATOM     68  C   UNL A   1      43.961  35.609  32.184  1.00  0.00     0.060 A 
BRANCH  68  69
ATOM     69  S   UNL A   1      44.056  37.311  32.781  1.00  0.00     0.124 S 
ATOM     70  O   UNL A   1      45.410  37.353  33.327  1.00  0.00    -0.237 OA
ATOM     71  O   UNL A   1      43.840  38.083  31.562  1.00  0.00    -0.237 OA
ATOM     72  O   UNL A   1      42.981  37.386  33.766  1.00  0.00    -0.744 OA
ENDBRANCH  68  69
ENDBRANCH  47  61
BRANCH  48  73
ATOM     73  C   UNL A   1      42.708  23.648  27.667  1.00  0.00     0.058 A 
ATOM     74  C   UNL A   1      42.439  22.554  28.503  1.00  0.00     0.135 A 
ATOM     75  C   UNL A   1      42.811  23.405  26.289  1.00  0.00     0.135 A 
ATOM     76  F   UNL A   1      42.333  22.732  29.828  1.00  0.00    -0.206 F 
ATOM     77  C   UNL A   1      42.298  21.265  27.997  1.00  0.00     0.059 A 
ATOM     78  C   UNL A   1      42.645  22.130  25.755  1.00  0.00     0.059 A 
ATOM     79  F   UNL A   1      43.047  24.420  25.442  1.00  0.00    -0.206 F 
ATOM     80  C   UNL A   1      42.399  21.064  26.619  1.00  0.00     0.060 A 
BRANCH  80  81
ATOM     81  S   UNL A   1      42.170  19.395  25.969  1.00  0.00     0.124 S 
ATOM     82  O   UNL A   1      42.664  18.580  27.072  1.00  0.00    -0.237 OA
ATOM     83  O   UNL A   1      40.728  19.353  25.740  1.00  0.00    -0.237 OA
ATOM     84  O   UNL A   1      42.990  19.389  24.761  1.00  0.00    -0.744 OA
ENDBRANCH  80  81
ENDBRANCH  48  73
BRANCH  60  85
ATOM     85  C   UNL A   1      47.953  27.096  30.722  1.00  0.00     0.058 A 
ATOM     86  C   UNL A   1      48.245  26.523  31.970  1.00  0.00     0.135 A 
ATOM     87  C   UNL A   1      49.004  27.238  29.801  1.00  0.00     0.135 A 
ATOM     88  F   UNL A   1      47.277  26.368  32.887  1.00  0.00    -0.206 F 
ATOM     89  C   UNL A   1      49.538  26.137  32.305  1.00  0.00     0.059 A 
ATOM     90  C   UNL A   1      50.297  26.828  30.103  1.00  0.00     0.059 A 
ATOM     91  F   UNL A   1      48.774  27.765  28.588  1.00  0.00    -0.206 F 
ATOM     92  C   UNL A   1      50.558  26.293  31.364  1.00  0.00     0.060 A 
BRANCH  92  93
ATOM     93  S   UNL A   1      52.227  25.769  31.803  1.00  0.00     0.124 S 
ATOM     94  O   UNL A   1      52.950  26.022  30.561  1.00  0.00    -0.237 OA
ATOM     95  O   UNL A   1      52.549  26.655  32.917  1.00  0.00    -0.237 OA
ATOM     96  O   UNL A   1      52.060  24.363  32.157  1.00  0.00    -0.744 OA
ENDBRANCH  92  93
ENDBRANCH  60  85
ENDBRANCH  34  35
ENDBRANCH  26  29
ENDBRANCH  24  25
ENDBRANCH  23  24
ENDBRANCH   1  23
TORSDOF 17
ENDMDL
MODEL 3
REMARK VINA RESULT:     -11.1      0.648      8.456
REMARK SMILES C[C@@H]1CN(S(=O)(=O)[C@@H](C)C(=O)NCCCCNC(=O)c2ccc(-c3c4nc(c(-c5c(F)cc(S(=O)(=O)[O-])cc5F)c5ccc([nH]5)c(-c5c(F)cc(S(=O)(=O)[O-])cc5F)c5nc(c(-c6c(F)cc(S(=O)(=O)[O-])cc6F)c6ccc3[nH]6)C=C5)C=C4)cc2)CC[C@@H]1[NH3+]
REMARK SMILES IDX 14 1 13 2 12 3 10 4 11 5 8 7 9 8 5 9 6 10 7 11 4 12 1 13
REMARK SMILES IDX 2 14 3 15 88 16 87 17 86 18 89 19 15 23 16 24 17 25 18 26
REMARK SMILES IDX 19 28 20 29 21 30 85 31 22 32 84 33 23 34 24 35 25 36 78 37
REMARK SMILES IDX 26 38 83 39 77 40 79 41 27 42 82 43 76 44 75 45 28 47 62 48
REMARK SMILES IDX 41 49 61 50 42 51 45 52 60 53 80 54 43 55 44 56 59 58 81 59
REMARK SMILES IDX 46 60 29 61 30 62 39 63 31 64 32 65 38 66 40 67 33 68 34 69
REMARK SMILES IDX 35 70 36 71 37 72 63 73 64 74 73 75 65 76 66 77 72 78 74 79
REMARK SMILES IDX 67 80 68 81 69 82 70 83 71 84 47 85 48 86 57 87 49 88 50 89
REMARK SMILES IDX 56 90 58 91 51 92 52 93 53 94 54 95 55 96
REMARK H PARENT 12 6 89 20 89 21 89 22 17 27 79 46 45 57
REMARK Flexibility Score: inf
ROOT
ATOM      1  C   UNL A   1      31.477  27.057  26.196  1.00  0.00     0.023 C 
ENDROOT
BRANCH   1   2
ATOM      2  C   UNL A   1      31.543  25.610  25.720  1.00  0.00     0.116 C 
BRANCH   2   3
ATOM      3  N   UNL A   1      30.702  24.722  26.508  1.00  0.00    -0.355 N 
ATOM      4  C   UNL A   1      30.797  23.420  26.891  1.00  0.00     0.239 C 
ATOM      5  O   UNL A   1      29.783  22.962  27.436  1.00  0.00    -0.274 OA
ATOM      6  H   UNL A   1      29.885  25.161  26.839  1.00  0.00     0.163 HD
BRANCH   4   7
ATOM      7  C   UNL A   1      32.030  22.557  26.801  1.00  0.00     0.210 C 
ATOM      8  C   UNL A   1      33.279  23.032  27.530  1.00  0.00     0.037 C 
BRANCH   7   9
ATOM      9  S   UNL A   1      32.367  21.835  25.192  1.00  0.00     0.225 S 
ATOM     10  O   UNL A   1      31.833  22.717  24.169  1.00  0.00    -0.211 OA
ATOM     11  O   UNL A   1      31.899  20.463  25.240  1.00  0.00    -0.211 OA
BRANCH   9  12
ATOM     12  N   UNL A   1      34.055  21.778  24.992  1.00  0.00    -0.200 NA
ATOM     13  C   UNL A   1      36.155  24.073  25.289  1.00  0.00     0.015 C 
ATOM     14  C   UNL A   1      36.080  22.977  24.229  1.00  0.00     0.059 C 
ATOM     15  C   UNL A   1      34.603  22.696  23.941  1.00  0.00     0.111 C 
ATOM     16  C   UNL A   1      36.877  21.658  24.469  1.00  0.00     0.186 C 
ATOM     17  C   UNL A   1      36.125  20.449  25.063  1.00  0.00     0.082 C 
ATOM     18  C   UNL A   1      34.630  20.422  24.773  1.00  0.00     0.108 C 
BRANCH  16  19
ATOM     19  N   UNL A   1      38.172  21.842  25.133  1.00  0.00    -0.355 N 
ATOM     20  H   UNL A   1      38.549  20.933  25.402  1.00  0.00     0.344 HD
ATOM     21  H   UNL A   1      38.049  22.416  25.967  1.00  0.00     0.344 HD
ATOM     22  H   UNL A   1      38.820  22.303  24.495  1.00  0.00     0.344 HD
ENDBRANCH  16  19
ENDBRANCH   9  12
ENDBRANCH   7   9
ENDBRANCH   4   7
ENDBRANCH   2   3
ENDBRANCH   1   2
BRANCH   1  23
ATOM     23  C   UNL A   1      32.730  27.920  26.064  1.00  0.00     0.023 C 
BRANCH  23  24
ATOM     24  C   UNL A   1      33.388  28.310  27.369  1.00  0.00     0.116 C 
BRANCH  24  25
ATOM     25  N   UNL A   1      33.456  29.754  27.489  1.00  0.00    -0.352 N 
ATOM     26  C   UNL A   1      34.411  30.526  28.113  1.00  0.00     0.251 C 
ATOM     27  H   UNL A   1      32.719  30.250  27.067  1.00  0.00     0.163 HD
ATOM     28  O   UNL A   1      34.092  31.643  28.515  1.00  0.00    -0.269 OA
BRANCH  26  29
ATOM     29  C   UNL A   1      35.806  30.041  28.291  1.00  0.00     0.039 A 
ATOM     30  C   UNL A   1      36.219  29.585  29.548  1.00  0.00     0.014 A 
ATOM     31  C   UNL A   1      36.747  30.134  27.264  1.00  0.00     0.014 A 
ATOM     32  C   UNL A   1      37.562  29.250  29.766  1.00  0.00     0.010 A 
ATOM     33  C   UNL A   1      38.039  29.658  27.437  1.00  0.00     0.010 A 
ATOM     34  C   UNL A   1      38.486  29.291  28.711  1.00  0.00    -0.014 A 
BRANCH  34  35
ATOM     35  C   UNL A   1      39.944  29.094  28.927  1.00  0.00     0.031 A 
ATOM     36  C   UNL A   1      40.574  27.766  28.561  1.00  0.00     0.074 A 
ATOM     37  C   UNL A   1      40.686  30.069  29.483  1.00  0.00     0.049 A 
ATOM     38  N   UNL A   1      41.801  27.350  28.741  1.00  0.00    -0.248 NA
ATOM     39  C   UNL A   1      39.692  26.751  27.954  1.00  0.00     0.031 C 
ATOM     40  C   UNL A   1      40.180  31.368  29.929  1.00  0.00     0.029 A 
ATOM     41  N   UNL A   1      42.026  30.118  29.773  1.00  0.00    -0.354 N 
ATOM     42  C   UNL A   1      41.822  26.028  28.304  1.00  0.00     0.074 A 
ATOM     43  C   UNL A   1      40.471  25.682  27.929  1.00  0.00     0.031 C 
ATOM     44  C   UNL A   1      41.203  32.101  30.400  1.00  0.00     0.029 A 
ATOM     45  C   UNL A   1      42.427  31.312  30.325  1.00  0.00     0.049 A 
ATOM     46  H   UNL A   1      42.642  29.370  29.602  1.00  0.00     0.167 HD
ATOM     47  C   UNL A   1      42.878  25.187  28.185  1.00  0.00     0.037 A 
ATOM     48  C   UNL A   1      43.648  31.719  30.723  1.00  0.00     0.037 A 
ATOM     49  C   UNL A   1      44.228  25.565  28.504  1.00  0.00     0.049 A 
ATOM     50  C   UNL A   1      44.815  30.783  30.548  1.00  0.00     0.074 A 
ATOM     51  C   UNL A   1      45.388  24.826  28.358  1.00  0.00     0.029 A 
ATOM     52  N   UNL A   1      44.599  26.798  29.022  1.00  0.00    -0.354 N 
ATOM     53  N   UNL A   1      44.826  29.558  30.077  1.00  0.00    -0.248 NA
ATOM     54  C   UNL A   1      46.135  31.289  30.943  1.00  0.00     0.031 C 
ATOM     55  C   UNL A   1      46.454  25.597  28.831  1.00  0.00     0.029 A 
ATOM     56  C   UNL A   1      45.967  26.836  29.219  1.00  0.00     0.049 A 
ATOM     57  H   UNL A   1      43.978  27.536  29.221  1.00  0.00     0.167 HD
ATOM     58  C   UNL A   1      46.158  29.155  30.094  1.00  0.00     0.074 A 
ATOM     59  C   UNL A   1      46.921  30.276  30.605  1.00  0.00     0.031 C 
ATOM     60  C   UNL A   1      46.702  27.970  29.722  1.00  0.00     0.037 A 
BRANCH  47  61
ATOM     61  C   UNL A   1      42.614  23.794  27.674  1.00  0.00     0.058 A 
ATOM     62  C   UNL A   1      42.434  22.705  28.545  1.00  0.00     0.135 A 
ATOM     63  C   UNL A   1      42.519  23.543  26.295  1.00  0.00     0.135 A 
ATOM     64  F   UNL A   1      42.531  22.877  29.873  1.00  0.00    -0.206 F 
ATOM     65  C   UNL A   1      42.210  21.417  28.068  1.00  0.00     0.059 A 
ATOM     66  C   UNL A   1      42.259  22.269  25.797  1.00  0.00     0.059 A 
ATOM     67  F   UNL A   1      42.682  24.542  25.413  1.00  0.00    -0.206 F 
ATOM     68  C   UNL A   1      42.124  21.209  26.691  1.00  0.00     0.060 A 
BRANCH  68  69
ATOM     69  S   UNL A   1      41.825  19.532  26.092  1.00  0.00     0.124 S 
ATOM     70  O   UNL A   1      42.742  19.460  24.957  1.00  0.00    -0.237 OA
ATOM     71  O   UNL A   1      42.185  18.718  27.249  1.00  0.00    -0.237 OA
ATOM     72  O   UNL A   1      40.406  19.540  25.751  1.00  0.00    -0.744 OA
ENDBRANCH  68  69
ENDBRANCH  47  61
BRANCH  48  73
ATOM     73  C   UNL A   1      43.831  33.088  31.280  1.00  0.00     0.058 A 
ATOM     74  C   UNL A   1      44.120  34.175  30.442  1.00  0.00     0.135 A 
ATOM     75  C   UNL A   1      43.698  33.341  32.653  1.00  0.00     0.135 A 
ATOM     76  F   UNL A   1      44.260  33.986  29.121  1.00  0.00    -0.206 F 
ATOM     77  C   UNL A   1      44.291  35.461  30.946  1.00  0.00     0.059 A 
ATOM     78  C   UNL A   1      43.836  34.623  33.179  1.00  0.00     0.059 A 
ATOM     79  F   UNL A   1      43.401  32.340  33.497  1.00  0.00    -0.206 F 
ATOM     80  C   UNL A   1      44.143  35.675  32.318  1.00  0.00     0.060 A 
BRANCH  80  81
ATOM     81  S   UNL A   1      44.323  37.356  32.955  1.00  0.00     0.124 S 
ATOM     82  O   UNL A   1      45.657  37.306  33.542  1.00  0.00    -0.237 OA
ATOM     83  O   UNL A   1      44.188  38.158  31.743  1.00  0.00    -0.237 OA
ATOM     84  O   UNL A   1      43.220  37.475  33.904  1.00  0.00    -0.744 OA
ENDBRANCH  80  81
ENDBRANCH  48  73
BRANCH  60  85
ATOM     85  C   UNL A   1      48.196  27.839  29.817  1.00  0.00     0.058 A 
ATOM     86  C   UNL A   1      48.822  27.335  30.968  1.00  0.00     0.135 A 
ATOM     87  C   UNL A   1      49.007  28.179  28.722  1.00  0.00     0.135 A 
ATOM     88  F   UNL A   1      48.092  26.999  32.043  1.00  0.00    -0.206 F 
ATOM     89  C   UNL A   1      50.204  27.206  31.043  1.00  0.00     0.059 A 
ATOM     90  C   UNL A   1      50.388  28.027  28.763  1.00  0.00     0.059 A 
ATOM     91  F   UNL A   1      48.457  28.650  27.592  1.00  0.00    -0.206 F 
ATOM     92  C   UNL A   1      50.979  27.555  29.934  1.00  0.00     0.060 A 
BRANCH  92  93
ATOM     93  S   UNL A   1      52.770  27.362  30.037  1.00  0.00     0.124 S 
ATOM     94  O   UNL A   1      53.083  26.828  28.716  1.00  0.00    -0.237 OA
ATOM     95  O   UNL A   1      53.216  28.728  30.291  1.00  0.00    -0.237 OA
ATOM     96  O   UNL A   1      52.949  26.433  31.149  1.00  0.00    -0.744 OA
ENDBRANCH  92  93
ENDBRANCH  60  85
ENDBRANCH  34  35
ENDBRANCH  26  29
ENDBRANCH  24  25
ENDBRANCH  23  24
ENDBRANCH   1  23
TORSDOF 17
ENDMDL
